selected_4mers/ALLA/30_noH.pdb
 OpenBabel03042517493D

 70 69  0  0  1  0  0  0  0  0999 V2000
   49.4520    6.0350 -184.5100 C   0  0  0  0  0  0  0  0  0  0  0  0
   48.5130    6.9570 -183.7400 C   0  0  0  0  0  0  0  0  0  0  0  0
   47.2970    6.9310 -183.9410 O   0  0  0  0  0  0  0  0  0  0  0  0
   49.0760    7.7800 -182.8610 N   0  0  0  0  0  0  0  0  0  0  0  0
   48.2610    8.7040 -182.0810 C   0  0  2  0  0  0  0  0  0  0  0  0
   47.5570    9.6840 -183.0240 C   0  0  0  0  0  0  0  0  0  0  0  0
   46.3720    9.9760 -182.8600 O   0  0  0  0  0  0  0  0  0  0  0  0
   49.1320    9.4620 -181.0840 C   0  0  0  0  0  0  0  0  0  0  0  0
   48.2930   10.1840 -184.0140 N   0  0  0  0  0  0  0  0  0  0  0  0
   47.7310   11.1280 -184.9740 C   0  0  2  0  0  0  0  0  0  0  0  0
   46.5970   10.4760 -185.7610 C   0  0  0  0  0  0  0  0  0  0  0  0
   45.5610   11.0940 -186.0130 O   0  0  0  0  0  0  0  0  0  0  0  0
   48.8220   11.6130 -185.9330 C   0  0  0  0  0  0  0  0  0  0  0  0
   49.8660   12.5180 -185.2620 C   0  0  0  0  0  0  0  0  0  0  0  0
   51.0620   12.7390 -186.1800 C   0  0  0  0  0  0  0  0  0  0  0  0
   49.2110   13.8420 -184.9040 C   0  0  0  0  0  0  0  0  0  0  0  0
   46.8060    9.2240 -186.1490 N   0  0  0  0  0  0  0  0  0  0  0  0
   45.8080    8.4740 -186.9000 C   0  0  2  0  0  0  0  0  0  0  0  0
   44.5490    8.2700 -186.0490 C   0  0  0  0  0  0  0  0  0  0  0  0
   43.4290    8.3260 -186.5560 O   0  0  0  0  0  0  0  0  0  0  0  0
   46.3960    7.1240 -187.3080 C   0  0  0  0  0  0  0  0  0  0  0  0
   46.1680    6.6420 -188.7390 C   0  0  0  0  0  0  0  0  0  0  0  0
   46.4920    7.7570 -189.7290 C   0  0  0  0  0  0  0  0  0  0  0  0
   47.0480    5.4160 -188.9930 C   0  0  0  0  0  0  0  0  0  0  0  0
   44.7350    8.0290 -184.7550 N   0  0  0  0  0  0  0  0  0  0  0  0
   43.6030    7.8290 -183.8520 C   0  0  2  0  0  0  0  0  0  0  0  0
   42.7430    9.0920 -183.7730 C   0  0  0  0  0  0  0  0  0  0  0  0
   41.5130    9.0110 -183.6860 O   0  0  0  0  0  0  0  0  0  0  0  0
   44.1000    7.4400 -182.4560 C   0  0  0  0  0  0  0  0  0  0  0  0
   43.3830   10.2590 -183.7990 N   0  0  0  0  0  0  0  0  0  0  0  0
   42.6340   11.5090 -183.7360 C   0  0  0  0  0  0  0  0  0  0  0  0
   48.8830    5.4262 -185.1811 H   0  0  0  0  0  0  0  0  0  0  0  0
   49.9808    5.4091 -183.8219 H   0  0  0  0  0  0  0  0  0  0  0  0
   50.1512    6.6227 -185.0673 H   0  0  0  0  0  0  0  0  0  0  0  0
   50.0524    7.7656 -182.7354 H   0  0  0  0  0  0  0  0  0  0  0  0
   47.5251    8.1515 -181.5351 H   0  0  0  0  0  0  0  0  0  0  0  0
   49.8752   10.0214 -181.6128 H   0  0  0  0  0  0  0  0  0  0  0  0
   49.6100    8.7660 -180.4267 H   0  0  0  0  0  0  0  0  0  0  0  0
   48.5217   10.1302 -180.5131 H   0  0  0  0  0  0  0  0  0  0  0  0
   49.2351    9.9115 -184.1001 H   0  0  0  0  0  0  0  0  0  0  0  0
   47.3381   11.9668 -184.4383 H   0  0  0  0  0  0  0  0  0  0  0  0
   49.3234   10.7582 -186.3365 H   0  0  0  0  0  0  0  0  0  0  0  0
   48.3404   12.1947 -186.6910 H   0  0  0  0  0  0  0  0  0  0  0  0
   50.2266   12.0454 -184.3723 H   0  0  0  0  0  0  0  0  0  0  0  0
   50.7361   13.2118 -187.0829 H   0  0  0  0  0  0  0  0  0  0  0  0
   51.5116   11.7965 -186.4132 H   0  0  0  0  0  0  0  0  0  0  0  0
   51.7781   13.3640 -185.6886 H   0  0  0  0  0  0  0  0  0  0  0  0
   48.8507   14.3139 -185.7942 H   0  0  0  0  0  0  0  0  0  0  0  0
   49.9284   14.4778 -184.4286 H   0  0  0  0  0  0  0  0  0  0  0  0
   48.3928   13.6664 -184.2372 H   0  0  0  0  0  0  0  0  0  0  0  0
   47.6601    8.7896 -185.9228 H   0  0  0  0  0  0  0  0  0  0  0  0
   45.5363    9.0222 -187.7778 H   0  0  0  0  0  0  0  0  0  0  0  0
   47.4537    7.1795 -187.1564 H   0  0  0  0  0  0  0  0  0  0  0  0
   45.8746    6.4129 -186.7018 H   0  0  0  0  0  0  0  0  0  0  0  0
   45.1410    6.3731 -188.8731 H   0  0  0  0  0  0  0  0  0  0  0  0
   47.5159    8.0469 -189.6172 H   0  0  0  0  0  0  0  0  0  0  0  0
   45.8600    8.5989 -189.5374 H   0  0  0  0  0  0  0  0  0  0  0  0
   46.3273    7.4071 -190.7267 H   0  0  0  0  0  0  0  0  0  0  0  0
   48.0760    5.6811 -188.8598 H   0  0  0  0  0  0  0  0  0  0  0  0
   46.8959    5.0689 -189.9937 H   0  0  0  0  0  0  0  0  0  0  0  0
   46.7873    4.6407 -188.3031 H   0  0  0  0  0  0  0  0  0  0  0  0
   45.6516    7.9844 -184.3984 H   0  0  0  0  0  0  0  0  0  0  0  0
   43.0006    7.0340 -184.2393 H   0  0  0  0  0  0  0  0  0  0  0  0
   44.7040    8.2293 -182.0596 H   0  0  0  0  0  0  0  0  0  0  0  0
   44.6816    6.5443 -182.5212 H   0  0  0  0  0  0  0  0  0  0  0  0
   43.2615    7.2747 -181.8121 H   0  0  0  0  0  0  0  0  0  0  0  0
   44.3654   10.2784 -183.8610 H   0  0  0  0  0  0  0  0  0  0  0  0
   41.5876   11.2949 -183.6724 H   0  0  0  0  0  0  0  0  0  0  0  0
   42.8273   12.0854 -184.6165 H   0  0  0  0  0  0  0  0  0  0  0  0
   42.9377   12.0637 -182.8729 H   0  0  0  0  0  0  0  0  0  0  0  0
  1  2  1  0  0  0  0
  1 32  1  0  0  0  0
  1 33  1  0  0  0  0
  1 34  1  0  0  0  0
  2  4  1  0  0  0  0
  3  2  2  0  0  0  0
  4  5  1  0  0  0  0
  4 35  1  0  0  0  0
  5  8  1  0  0  0  0
  5 36  1  1  0  0  0
  6  7  2  0  0  0  0
  6  5  1  0  0  0  0
  8 37  1  0  0  0  0
  8 38  1  0  0  0  0
  8 39  1  0  0  0  0
  9  6  1  0  0  0  0
  9 40  1  0  0  0  0
 10  9  1  0  0  0  0
 10 41  1  1  0  0  0
 11 10  1  0  0  0  0
 12 11  2  0  0  0  0
 13 14  1  0  0  0  0
 13 10  1  0  0  0  0
 13 42  1  0  0  0  0
 13 43  1  0  0  0  0
 14 16  1  0  0  0  0
 14 44  1  0  0  0  0
 15 14  1  0  0  0  0
 15 45  1  0  0  0  0
 15 46  1  0  0  0  0
 15 47  1  0  0  0  0
 16 48  1  0  0  0  0
 16 49  1  0  0  0  0
 16 50  1  0  0  0  0
 17 11  1  0  0  0  0
 17 51  1  0  0  0  0
 18 17  1  0  0  0  0
 18 19  1  0  0  0  0
 18 52  1  6  0  0  0
 19 25  1  0  0  0  0
 20 19  2  0  0  0  0
 21 18  1  0  0  0  0
 21 53  1  0  0  0  0
 21 54  1  0  0  0  0
 22 21  1  0  0  0  0
 22 55  1  0  0  0  0
 23 22  1  0  0  0  0
 23 56  1  0  0  0  0
 23 57  1  0  0  0  0
 23 58  1  0  0  0  0
 24 22  1  0  0  0  0
 24 59  1  0  0  0  0
 24 60  1  0  0  0  0
 24 61  1  0  0  0  0
 25 26  1  0  0  0  0
 25 62  1  0  0  0  0
 26 27  1  0  0  0  0
 26 29  1  0  0  0  0
 26 63  1  6  0  0  0
 27 28  2  0  0  0  0
 29 64  1  0  0  0  0
 29 65  1  0  0  0  0
 29 66  1  0  0  0  0
 30 27  1  0  0  0  0
 30 31  1  0  0  0  0
 30 67  1  0  0  0  0
 31 68  1  0  0  0  0
 31 69  1  0  0  0  0
 31 70  1  0  0  0  0
M  END
>  <MODEL>
       0

$$$$
selected_4mers/ALLA/31_noH.pdb
 OpenBabel03042517493D

 70 69  0  0  1  0  0  0  0  0999 V2000
   13.4220   -7.5050   10.3510 C   0  0  0  0  0  0  0  0  0  0  0  0
   12.8900   -6.2590    9.6590 C   0  0  0  0  0  0  0  0  0  0  0  0
   12.6580   -6.2520    8.4430 O   0  0  0  0  0  0  0  0  0  0  0  0
   12.7130   -5.1640   10.4040 N   0  0  0  0  0  0  0  0  0  0  0  0
   12.2940   -3.9010    9.7910 C   0  0  2  0  0  0  0  0  0  0  0  0
   13.2740   -3.4150    8.7260 C   0  0  0  0  0  0  0  0  0  0  0  0
   12.9220   -2.6260    7.8360 O   0  0  0  0  0  0  0  0  0  0  0  0
   12.1150   -2.7980   10.8280 C   0  0  0  0  0  0  0  0  0  0  0  0
   14.5270   -3.8640    8.8210 N   0  0  0  0  0  0  0  0  0  0  0  0
   15.5250   -3.3620    7.8700 C   0  0  2  0  0  0  0  0  0  0  0  0
   15.3770   -4.0660    6.5230 C   0  0  0  0  0  0  0  0  0  0  0  0
   15.8810   -3.6260    5.4950 O   0  0  0  0  0  0  0  0  0  0  0  0
   16.9460   -3.5810    8.3810 C   0  0  0  0  0  0  0  0  0  0  0  0
   17.4500   -2.7400    9.5500 C   0  0  0  0  0  0  0  0  0  0  0  0
   18.7070   -3.3640   10.1410 C   0  0  0  0  0  0  0  0  0  0  0  0
   17.7210   -1.3070    9.1360 C   0  0  0  0  0  0  0  0  0  0  0  0
   14.6890   -5.2010    6.5320 N   0  0  0  0  0  0  0  0  0  0  0  0
   14.4970   -5.9710    5.3120 C   0  0  2  0  0  0  0  0  0  0  0  0
   13.2660   -5.5630    4.5070 C   0  0  0  0  0  0  0  0  0  0  0  0
   13.0160   -6.1570    3.4480 O   0  0  0  0  0  0  0  0  0  0  0  0
   14.3520   -7.4430    5.6750 C   0  0  0  0  0  0  0  0  0  0  0  0
   15.4610   -8.0720    6.5080 C   0  0  0  0  0  0  0  0  0  0  0  0
   15.0070   -9.4340    7.0020 C   0  0  0  0  0  0  0  0  0  0  0  0
   16.7590   -8.2240    5.7270 C   0  0  0  0  0  0  0  0  0  0  0  0
   12.5150   -4.5950    5.0240 N   0  0  0  0  0  0  0  0  0  0  0  0
   11.2440   -4.1920    4.4620 C   0  0  2  0  0  0  0  0  0  0  0  0
   11.3520   -3.3660    3.1730 C   0  0  0  0  0  0  0  0  0  0  0  0
   12.3050   -2.6310    2.9190 O   0  0  0  0  0  0  0  0  0  0  0  0
   10.4380   -3.3690    5.4810 C   0  0  0  0  0  0  0  0  0  0  0  0
   10.2990   -3.4900    2.3760 N   0  0  0  0  0  0  0  0  0  0  0  0
   10.0530   -2.6280    1.2390 C   0  0  0  0  0  0  0  0  0  0  0  0
   13.5128   -8.2977    9.6380 H   0  0  0  0  0  0  0  0  0  0  0  0
   12.7457   -7.7986   11.1265 H   0  0  0  0  0  0  0  0  0  0  0  0
   14.3816   -7.2951   10.7752 H   0  0  0  0  0  0  0  0  0  0  0  0
   12.8658   -5.2064   11.3756 H   0  0  0  0  0  0  0  0  0  0  0  0
   11.3534   -4.1097    9.3256 H   0  0  0  0  0  0  0  0  0  0  0  0
   13.0558   -2.5897   11.2932 H   0  0  0  0  0  0  0  0  0  0  0  0
   11.4130   -3.1166   11.5700 H   0  0  0  0  0  0  0  0  0  0  0  0
   11.7505   -1.9135   10.3487 H   0  0  0  0  0  0  0  0  0  0  0  0
   14.7762   -4.5176    9.5138 H   0  0  0  0  0  0  0  0  0  0  0  0
   15.3540   -2.3117    7.7579 H   0  0  0  0  0  0  0  0  0  0  0  0
   17.6061   -3.4016    7.5582 H   0  0  0  0  0  0  0  0  0  0  0  0
   16.9275   -4.5772    8.7710 H   0  0  0  0  0  0  0  0  0  0  0  0
   16.6806   -2.7220   10.2934 H   0  0  0  0  0  0  0  0  0  0  0  0
   19.4782   -3.3832    9.3995 H   0  0  0  0  0  0  0  0  0  0  0  0
   18.4934   -4.3629   10.4595 H   0  0  0  0  0  0  0  0  0  0  0  0
   19.0327   -2.7843   10.9793 H   0  0  0  0  0  0  0  0  0  0  0  0
   18.4886   -1.2902    8.3907 H   0  0  0  0  0  0  0  0  0  0  0  0
   18.0390   -0.7436    9.9883 H   0  0  0  0  0  0  0  0  0  0  0  0
   16.8267   -0.8759    8.7368 H   0  0  0  0  0  0  0  0  0  0  0  0
   14.3027   -5.5270    7.3768 H   0  0  0  0  0  0  0  0  0  0  0  0
   15.3543   -5.7815    4.7004 H   0  0  0  0  0  0  0  0  0  0  0  0
   14.2858   -7.9941    4.7602 H   0  0  0  0  0  0  0  0  0  0  0  0
   13.4833   -7.4868    6.2982 H   0  0  0  0  0  0  0  0  0  0  0  0
   15.6568   -7.4174    7.3315 H   0  0  0  0  0  0  0  0  0  0  0  0
   14.8169  -10.0720    6.1643 H   0  0  0  0  0  0  0  0  0  0  0  0
   14.1115   -9.3244    7.5774 H   0  0  0  0  0  0  0  0  0  0  0  0
   15.7726   -9.8654    7.6124 H   0  0  0  0  0  0  0  0  0  0  0  0
   16.5992   -8.8748    4.8929 H   0  0  0  0  0  0  0  0  0  0  0  0
   17.5120   -8.6388    6.3640 H   0  0  0  0  0  0  0  0  0  0  0  0
   17.0780   -7.2651    5.3753 H   0  0  0  0  0  0  0  0  0  0  0  0
   12.8397   -4.1297    5.8286 H   0  0  0  0  0  0  0  0  0  0  0  0
   10.7530   -5.1109    4.2180 H   0  0  0  0  0  0  0  0  0  0  0  0
   10.9600   -2.4607    5.6986 H   0  0  0  0  0  0  0  0  0  0  0  0
   10.3169   -3.9352    6.3808 H   0  0  0  0  0  0  0  0  0  0  0  0
    9.4763   -3.1385    5.0725 H   0  0  0  0  0  0  0  0  0  0  0  0
    9.6507   -4.2057    2.5676 H   0  0  0  0  0  0  0  0  0  0  0  0
   10.8389   -1.9060    1.1621 H   0  0  0  0  0  0  0  0  0  0  0  0
    9.1177   -2.1247    1.3688 H   0  0  0  0  0  0  0  0  0  0  0  0
   10.0205   -3.2163    0.3458 H   0  0  0  0  0  0  0  0  0  0  0  0
  1 32  1  0  0  0  0
  1 33  1  0  0  0  0
  1 34  1  0  0  0  0
  2  1  1  0  0  0  0
  2  4  1  0  0  0  0
  3  2  2  0  0  0  0
  4 35  1  0  0  0  0
  5  4  1  0  0  0  0
  5  8  1  0  0  0  0
  5 36  1  6  0  0  0
  6  9  1  0  0  0  0
  6  5  1  0  0  0  0
  7  6  2  0  0  0  0
  8 37  1  0  0  0  0
  8 38  1  0  0  0  0
  8 39  1  0  0  0  0
  9 40  1  0  0  0  0
 10 13  1  0  0  0  0
 10  9  1  0  0  0  0
 10 41  1  6  0  0  0
 11 17  1  0  0  0  0
 11 10  1  0  0  0  0
 12 11  2  0  0  0  0
 13 14  1  0  0  0  0
 13 42  1  0  0  0  0
 13 43  1  0  0  0  0
 14 15  1  0  0  0  0
 14 44  1  0  0  0  0
 15 45  1  0  0  0  0
 15 46  1  0  0  0  0
 15 47  1  0  0  0  0
 16 14  1  0  0  0  0
 16 48  1  0  0  0  0
 16 49  1  0  0  0  0
 16 50  1  0  0  0  0
 17 51  1  0  0  0  0
 18 21  1  0  0  0  0
 18 17  1  0  0  0  0
 18 52  1  6  0  0  0
 19 25  1  0  0  0  0
 19 18  1  0  0  0  0
 20 19  2  0  0  0  0
 21 22  1  0  0  0  0
 21 53  1  0  0  0  0
 21 54  1  0  0  0  0
 22 23  1  0  0  0  0
 22 55  1  0  0  0  0
 23 56  1  0  0  0  0
 23 57  1  0  0  0  0
 23 58  1  0  0  0  0
 24 22  1  0  0  0  0
 24 59  1  0  0  0  0
 24 60  1  0  0  0  0
 24 61  1  0  0  0  0
 25 62  1  0  0  0  0
 26 25  1  0  0  0  0
 26 29  1  0  0  0  0
 26 63  1  6  0  0  0
 27 26  1  0  0  0  0
 28 27  2  0  0  0  0
 29 64  1  0  0  0  0
 29 65  1  0  0  0  0
 29 66  1  0  0  0  0
 30 27  1  0  0  0  0
 30 67  1  0  0  0  0
 31 30  1  0  0  0  0
 31 68  1  0  0  0  0
 31 69  1  0  0  0  0
 31 70  1  0  0  0  0
M  END
>  <MODEL>
       0

$$$$
selected_4mers/ALLA/32_noH.pdb
 OpenBabel03042517493D

 70 69  0  0  1  0  0  0  0  0999 V2000
   57.2370   64.0640   -5.6310 C   0  0  0  0  0  0  0  0  0  0  0  0
   57.2330   65.1280   -4.5130 C   0  0  0  0  0  0  0  0  0  0  0  0
   56.4490   66.1180   -4.5350 O   0  0  0  0  0  0  0  0  0  0  0  0
   58.0910   64.9170   -3.5100 N   0  0  0  0  0  0  0  0  0  0  0  0
   58.1650   65.7970   -2.3640 C   0  0  2  0  0  0  0  0  0  0  0  0
   58.6660   67.1930   -2.7750 C   0  0  0  0  0  0  0  0  0  0  0  0
   58.1220   68.2180   -2.3330 O   0  0  0  0  0  0  0  0  0  0  0  0
   59.0870   65.1860   -1.3010 C   0  0  0  0  0  0  0  0  0  0  0  0
   59.7200   67.2350   -3.5890 N   0  0  0  0  0  0  0  0  0  0  0  0
   60.2720   68.5070   -4.0160 C   0  0  2  0  0  0  0  0  0  0  0  0
   59.2610   69.3230   -4.7880 C   0  0  0  0  0  0  0  0  0  0  0  0
   59.1660   70.5470   -4.5970 O   0  0  0  0  0  0  0  0  0  0  0  0
   61.5710   68.3300   -4.8090 C   0  0  0  0  0  0  0  0  0  0  0  0
   62.7870   67.8460   -4.0250 C   0  0  0  0  0  0  0  0  0  0  0  0
   63.9300   67.4090   -4.9450 C   0  0  0  0  0  0  0  0  0  0  0  0
   63.2460   68.9650   -3.0760 C   0  0  0  0  0  0  0  0  0  0  0  0
   58.5640   68.6780   -5.7220 N   0  0  0  0  0  0  0  0  0  0  0  0
   57.5710   69.4060   -6.5010 C   0  0  2  0  0  0  0  0  0  0  0  0
   56.4800   69.9670   -5.5960 C   0  0  0  0  0  0  0  0  0  0  0  0
   56.0910   71.1450   -5.6950 O   0  0  0  0  0  0  0  0  0  0  0  0
   56.9280   68.5160   -7.5620 C   0  0  0  0  0  0  0  0  0  0  0  0
   57.8470   68.0410   -8.6840 C   0  0  0  0  0  0  0  0  0  0  0  0
   57.1720   66.9050   -9.4720 C   0  0  0  0  0  0  0  0  0  0  0  0
   58.1460   69.2240   -9.6210 C   0  0  0  0  0  0  0  0  0  0  0  0
   55.9650   69.1320   -4.6950 N   0  0  0  0  0  0  0  0  0  0  0  0
   54.8630   69.5580   -3.8130 C   0  0  2  0  0  0  0  0  0  0  0  0
   55.2740   70.7460   -2.9300 C   0  0  0  0  0  0  0  0  0  0  0  0
   54.5900   71.7680   -2.8350 O   0  0  0  0  0  0  0  0  0  0  0  0
   54.3930   68.3580   -2.9600 C   0  0  0  0  0  0  0  0  0  0  0  0
   56.4360   70.6130   -2.2990 N   0  0  0  0  0  0  0  0  0  0  0  0
   56.9030   71.6540   -1.3780 C   0  0  0  0  0  0  0  0  0  0  0  0
   56.5183   64.3289   -6.3781 H   0  0  0  0  0  0  0  0  0  0  0  0
   56.9855   63.1101   -5.2165 H   0  0  0  0  0  0  0  0  0  0  0  0
   58.2100   64.0153   -6.0735 H   0  0  0  0  0  0  0  0  0  0  0  0
   58.6916   64.1381   -3.5524 H   0  0  0  0  0  0  0  0  0  0  0  0
   57.1833   65.9086   -1.9533 H   0  0  0  0  0  0  0  0  0  0  0  0
   60.0710   65.0717   -1.7055 H   0  0  0  0  0  0  0  0  0  0  0  0
   58.7084   64.2291   -1.0079 H   0  0  0  0  0  0  0  0  0  0  0  0
   59.1247   65.8311   -0.4482 H   0  0  0  0  0  0  0  0  0  0  0  0
   60.1277   66.3958   -3.9034 H   0  0  0  0  0  0  0  0  0  0  0  0
   60.5156   69.0535   -3.1290 H   0  0  0  0  0  0  0  0  0  0  0  0
   61.3825   67.6203   -5.5873 H   0  0  0  0  0  0  0  0  0  0  0  0
   61.8280   69.3099   -5.1535 H   0  0  0  0  0  0  0  0  0  0  0  0
   62.5050   66.9825   -3.4595 H   0  0  0  0  0  0  0  0  0  0  0  0
   64.2505   68.2415   -5.5358 H   0  0  0  0  0  0  0  0  0  0  0  0
   63.5899   66.6248   -5.5886 H   0  0  0  0  0  0  0  0  0  0  0  0
   64.7485   67.0552   -4.3536 H   0  0  0  0  0  0  0  0  0  0  0  0
   63.5264   69.8249   -3.6477 H   0  0  0  0  0  0  0  0  0  0  0  0
   64.0856   68.6268   -2.5055 H   0  0  0  0  0  0  0  0  0  0  0  0
   62.4455   69.2222   -2.4143 H   0  0  0  0  0  0  0  0  0  0  0  0
   58.7182   67.7193   -5.8843 H   0  0  0  0  0  0  0  0  0  0  0  0
   58.0829   70.2094   -6.9883 H   0  0  0  0  0  0  0  0  0  0  0  0
   56.5377   67.6498   -7.0698 H   0  0  0  0  0  0  0  0  0  0  0  0
   56.1849   69.1230   -8.0356 H   0  0  0  0  0  0  0  0  0  0  0  0
   58.7608   67.6720   -8.2673 H   0  0  0  0  0  0  0  0  0  0  0  0
   56.2555   67.2600   -9.8951 H   0  0  0  0  0  0  0  0  0  0  0  0
   56.9675   66.0867   -8.8136 H   0  0  0  0  0  0  0  0  0  0  0  0
   57.8235   66.5783  -10.2554 H   0  0  0  0  0  0  0  0  0  0  0  0
   57.2304   69.5906  -10.0360 H   0  0  0  0  0  0  0  0  0  0  0  0
   58.7908   68.8993  -10.4108 H   0  0  0  0  0  0  0  0  0  0  0  0
   58.6248   70.0049   -9.0679 H   0  0  0  0  0  0  0  0  0  0  0  0
   56.3247   68.2189   -4.6170 H   0  0  0  0  0  0  0  0  0  0  0  0
   54.0475   69.8931   -4.4193 H   0  0  0  0  0  0  0  0  0  0  0  0
   55.2024   68.0155   -2.3497 H   0  0  0  0  0  0  0  0  0  0  0  0
   54.0723   67.5662   -3.6043 H   0  0  0  0  0  0  0  0  0  0  0  0
   53.5789   68.6615   -2.3354 H   0  0  0  0  0  0  0  0  0  0  0  0
   56.9864   69.8110   -2.4508 H   0  0  0  0  0  0  0  0  0  0  0  0
   56.1825   72.4440   -1.3378 H   0  0  0  0  0  0  0  0  0  0  0  0
   57.8387   72.0418   -1.7230 H   0  0  0  0  0  0  0  0  0  0  0  0
   57.0286   71.2358   -0.4012 H   0  0  0  0  0  0  0  0  0  0  0  0
  1  2  1  0  0  0  0
  1 32  1  0  0  0  0
  1 33  1  0  0  0  0
  1 34  1  0  0  0  0
  2  4  1  0  0  0  0
  3  2  2  0  0  0  0
  4  5  1  0  0  0  0
  4 35  1  0  0  0  0
  5  8  1  0  0  0  0
  5 36  1  1  0  0  0
  6  5  1  0  0  0  0
  6  7  2  0  0  0  0
  8 37  1  0  0  0  0
  8 38  1  0  0  0  0
  8 39  1  0  0  0  0
  9  6  1  0  0  0  0
  9 40  1  0  0  0  0
 10  9  1  0  0  0  0
 10 41  1  1  0  0  0
 11 12  2  0  0  0  0
 11 10  1  0  0  0  0
 13 14  1  0  0  0  0
 13 10  1  0  0  0  0
 13 42  1  0  0  0  0
 13 43  1  0  0  0  0
 14 16  1  0  0  0  0
 14 44  1  0  0  0  0
 15 14  1  0  0  0  0
 15 45  1  0  0  0  0
 15 46  1  0  0  0  0
 15 47  1  0  0  0  0
 16 48  1  0  0  0  0
 16 49  1  0  0  0  0
 16 50  1  0  0  0  0
 17 11  1  0  0  0  0
 17 51  1  0  0  0  0
 18 17  1  0  0  0  0
 18 19  1  0  0  0  0
 18 52  1  6  0  0  0
 19 25  1  0  0  0  0
 20 19  2  0  0  0  0
 21 18  1  0  0  0  0
 21 53  1  0  0  0  0
 21 54  1  0  0  0  0
 22 21  1  0  0  0  0
 22 55  1  0  0  0  0
 23 22  1  0  0  0  0
 23 56  1  0  0  0  0
 23 57  1  0  0  0  0
 23 58  1  0  0  0  0
 24 22  1  0  0  0  0
 24 59  1  0  0  0  0
 24 60  1  0  0  0  0
 24 61  1  0  0  0  0
 25 26  1  0  0  0  0
 25 62  1  0  0  0  0
 26 29  1  0  0  0  0
 26 27  1  0  0  0  0
 26 63  1  6  0  0  0
 27 28  2  0  0  0  0
 27 30  1  0  0  0  0
 29 64  1  0  0  0  0
 29 65  1  0  0  0  0
 29 66  1  0  0  0  0
 30 31  1  0  0  0  0
 30 67  1  0  0  0  0
 31 68  1  0  0  0  0
 31 69  1  0  0  0  0
 31 70  1  0  0  0  0
M  END
>  <MODEL>
       0

$$$$
selected_4mers/ALLA/33_noH.pdb
 OpenBabel03042517493D

 70 69  0  0  1  0  0  0  0  0999 V2000
   23.4860   -6.8330  -24.5820 C   0  0  0  0  0  0  0  0  0  0  0  0
   23.0060   -8.1580  -25.1730 C   0  0  0  0  0  0  0  0  0  0  0  0
   22.6310   -8.2120  -26.3500 O   0  0  0  0  0  0  0  0  0  0  0  0
   23.0690   -9.2250  -24.3850 N   0  0  0  0  0  0  0  0  0  0  0  0
   22.4780  -10.4920  -24.7850 C   0  0  2  0  0  0  0  0  0  0  0  0
   21.0550  -10.5100  -24.2710 C   0  0  0  0  0  0  0  0  0  0  0  0
   20.8020  -10.1250  -23.1290 O   0  0  0  0  0  0  0  0  0  0  0  0
   23.2470  -11.6570  -24.1890 C   0  0  0  0  0  0  0  0  0  0  0  0
   20.1290  -10.9320  -25.1200 N   0  0  0  0  0  0  0  0  0  0  0  0
   18.7260  -11.0730  -24.7440 C   0  0  2  0  0  0  0  0  0  0  0  0
   18.3650  -12.5510  -24.8310 C   0  0  0  0  0  0  0  0  0  0  0  0
   18.4300  -13.1390  -25.9280 O   0  0  0  0  0  0  0  0  0  0  0  0
   17.8480  -10.2420  -25.6920 C   0  0  0  0  0  0  0  0  0  0  0  0
   16.3250  -10.2800  -25.5180 C   0  0  0  0  0  0  0  0  0  0  0  0
   15.8970   -9.4950  -24.2960 C   0  0  0  0  0  0  0  0  0  0  0  0
   15.6500   -9.7360  -26.7600 C   0  0  0  0  0  0  0  0  0  0  0  0
   18.0080  -13.1440  -23.6910 N   0  0  0  0  0  0  0  0  0  0  0  0
   17.6830  -14.5610  -23.6090 C   0  0  2  0  0  0  0  0  0  0  0  0
   16.1830  -14.6780  -23.4010 C   0  0  0  0  0  0  0  0  0  0  0  0
   15.6760  -14.2430  -22.3680 O   0  0  0  0  0  0  0  0  0  0  0  0
   18.4290  -15.2110  -22.4390 C   0  0  0  0  0  0  0  0  0  0  0  0
   19.9710  -15.1340  -22.4900 C   0  0  0  0  0  0  0  0  0  0  0  0
   20.5840  -15.8600  -21.3050 C   0  0  0  0  0  0  0  0  0  0  0  0
   20.5060  -15.6830  -23.7610 C   0  0  0  0  0  0  0  0  0  0  0  0
   15.4780  -15.2500  -24.3690 N   0  0  0  0  0  0  0  0  0  0  0  0
   14.0190  -15.3580  -24.2810 C   0  0  2  0  0  0  0  0  0  0  0  0
   13.6090  -16.7370  -23.7900 C   0  0  0  0  0  0  0  0  0  0  0  0
   14.1490  -17.7410  -24.2510 O   0  0  0  0  0  0  0  0  0  0  0  0
   13.3690  -15.0490  -25.6570 C   0  0  0  0  0  0  0  0  0  0  0  0
   12.6480  -16.7810  -22.8620 N   0  0  0  0  0  0  0  0  0  0  0  0
   12.1850  -18.0500  -22.2920 C   0  0  0  0  0  0  0  0  0  0  0  0
   23.3837   -6.0585  -25.3131 H   0  0  0  0  0  0  0  0  0  0  0  0
   24.5136   -6.9210  -24.2971 H   0  0  0  0  0  0  0  0  0  0  0  0
   22.8968   -6.5918  -23.7220 H   0  0  0  0  0  0  0  0  0  0  0  0
   23.5239   -9.1571  -23.5145 H   0  0  0  0  0  0  0  0  0  0  0  0
   22.5070  -10.5891  -25.8502 H   0  0  0  0  0  0  0  0  0  0  0  0
   23.2338  -11.5843  -23.1216 H   0  0  0  0  0  0  0  0  0  0  0  0
   24.2589  -11.6312  -24.5358 H   0  0  0  0  0  0  0  0  0  0  0  0
   22.7904  -12.5768  -24.4895 H   0  0  0  0  0  0  0  0  0  0  0  0
   20.3979  -11.1590  -26.0395 H   0  0  0  0  0  0  0  0  0  0  0  0
   18.5625  -10.7178  -23.7480 H   0  0  0  0  0  0  0  0  0  0  0  0
   18.1505   -9.2212  -25.5857 H   0  0  0  0  0  0  0  0  0  0  0  0
   18.0085  -10.6904  -26.6502 H   0  0  0  0  0  0  0  0  0  0  0  0
   16.0263  -11.2975  -25.3754 H   0  0  0  0  0  0  0  0  0  0  0  0
   16.1839   -8.4707  -24.4116 H   0  0  0  0  0  0  0  0  0  0  0  0
   16.3701   -9.9020  -23.4269 H   0  0  0  0  0  0  0  0  0  0  0  0
   14.8345   -9.5576  -24.1860 H   0  0  0  0  0  0  0  0  0  0  0  0
   15.9442   -8.7181  -26.9090 H   0  0  0  0  0  0  0  0  0  0  0  0
   14.5880   -9.7863  -26.6398 H   0  0  0  0  0  0  0  0  0  0  0  0
   15.9410  -10.3193  -27.6086 H   0  0  0  0  0  0  0  0  0  0  0  0
   17.9623  -12.6012  -22.8709 H   0  0  0  0  0  0  0  0  0  0  0  0
   17.9781  -15.0628  -24.5067 H   0  0  0  0  0  0  0  0  0  0  0  0
   18.1540  -16.2446  -22.4096 H   0  0  0  0  0  0  0  0  0  0  0  0
   18.1419  -14.6556  -21.5707 H   0  0  0  0  0  0  0  0  0  0  0  0
   20.2408  -14.0998  -22.4403 H   0  0  0  0  0  0  0  0  0  0  0  0
   20.3196  -16.8960  -21.3458 H   0  0  0  0  0  0  0  0  0  0  0  0
   20.2152  -15.4333  -20.3957 H   0  0  0  0  0  0  0  0  0  0  0  0
   21.6490  -15.7621  -21.3387 H   0  0  0  0  0  0  0  0  0  0  0  0
   20.2503  -16.7192  -23.8376 H   0  0  0  0  0  0  0  0  0  0  0  0
   21.5706  -15.5763  -23.7755 H   0  0  0  0  0  0  0  0  0  0  0  0
   20.0828  -15.1493  -24.5862 H   0  0  0  0  0  0  0  0  0  0  0  0
   15.9429  -15.6078  -25.1596 H   0  0  0  0  0  0  0  0  0  0  0  0
   13.6697  -14.6364  -23.5723 H   0  0  0  0  0  0  0  0  0  0  0  0
   13.7075  -15.7619  -26.3795 H   0  0  0  0  0  0  0  0  0  0  0  0
   13.6474  -14.0644  -25.9699 H   0  0  0  0  0  0  0  0  0  0  0  0
   12.3042  -15.1078  -25.5697 H   0  0  0  0  0  0  0  0  0  0  0  0
   12.2406  -15.9396  -22.5533 H   0  0  0  0  0  0  0  0  0  0  0  0
   12.7281  -18.8589  -22.7343 H   0  0  0  0  0  0  0  0  0  0  0  0
   11.1406  -18.1705  -22.4911 H   0  0  0  0  0  0  0  0  0  0  0  0
   12.3484  -18.0467  -21.2346 H   0  0  0  0  0  0  0  0  0  0  0  0
  1 32  1  0  0  0  0
  1 33  1  0  0  0  0
  1 34  1  0  0  0  0
  2  1  1  0  0  0  0
  2  4  1  0  0  0  0
  3  2  2  0  0  0  0
  4 35  1  0  0  0  0
  5  4  1  0  0  0  0
  5  6  1  0  0  0  0
  5  8  1  0  0  0  0
  5 36  1  6  0  0  0
  6  7  2  0  0  0  0
  8 37  1  0  0  0  0
  8 38  1  0  0  0  0
  8 39  1  0  0  0  0
  9 10  1  0  0  0  0
  9  6  1  0  0  0  0
  9 40  1  0  0  0  0
 10 41  1  1  0  0  0
 11 10  1  0  0  0  0
 11 17  1  0  0  0  0
 12 11  2  0  0  0  0
 13 14  1  0  0  0  0
 13 10  1  0  0  0  0
 13 42  1  0  0  0  0
 13 43  1  0  0  0  0
 14 15  1  0  0  0  0
 14 44  1  0  0  0  0
 15 45  1  0  0  0  0
 15 46  1  0  0  0  0
 15 47  1  0  0  0  0
 16 14  1  0  0  0  0
 16 48  1  0  0  0  0
 16 49  1  0  0  0  0
 16 50  1  0  0  0  0
 17 18  1  0  0  0  0
 17 51  1  0  0  0  0
 18 19  1  0  0  0  0
 18 21  1  0  0  0  0
 18 52  1  6  0  0  0
 19 20  2  0  0  0  0
 21 53  1  0  0  0  0
 21 54  1  0  0  0  0
 22 21  1  0  0  0  0
 22 23  1  0  0  0  0
 22 55  1  0  0  0  0
 23 56  1  0  0  0  0
 23 57  1  0  0  0  0
 23 58  1  0  0  0  0
 24 22  1  0  0  0  0
 24 59  1  0  0  0  0
 24 60  1  0  0  0  0
 24 61  1  0  0  0  0
 25 26  1  0  0  0  0
 25 19  1  0  0  0  0
 25 62  1  0  0  0  0
 26 27  1  0  0  0  0
 26 63  1  1  0  0  0
 27 30  1  0  0  0  0
 28 27  2  0  0  0  0
 29 26  1  0  0  0  0
 29 64  1  0  0  0  0
 29 65  1  0  0  0  0
 29 66  1  0  0  0  0
 30 31  1  0  0  0  0
 30 67  1  0  0  0  0
 31 68  1  0  0  0  0
 31 69  1  0  0  0  0
 31 70  1  0  0  0  0
M  END
>  <MODEL>
       0

$$$$
selected_4mers/ALLA/34_noH.pdb
 OpenBabel03042517493D

 70 69  0  0  1  0  0  0  0  0999 V2000
   13.5880   -5.5990   25.4360 C   0  0  0  0  0  0  0  0  0  0  0  0
   12.3400   -5.5110   26.3360 C   0  0  0  0  0  0  0  0  0  0  0  0
   12.4480   -5.1300   27.5030 O   0  0  0  0  0  0  0  0  0  0  0  0
   11.1660   -5.8150   25.8080 N   0  0  0  0  0  0  0  0  0  0  0  0
    9.9260   -5.5990   26.5730 C   0  0  2  0  0  0  0  0  0  0  0  0
    8.8010   -6.4830   26.0970 C   0  0  0  0  0  0  0  0  0  0  0  0
    8.7940   -6.9180   24.9360 O   0  0  0  0  0  0  0  0  0  0  0  0
    9.4930   -4.1510   26.4530 C   0  0  0  0  0  0  0  0  0  0  0  0
    7.8950   -6.7610   27.0310 N   0  0  0  0  0  0  0  0  0  0  0  0
    6.5730   -7.3270   26.8150 C   0  0  2  0  0  0  0  0  0  0  0  0
    6.5500   -8.8130   26.4680 C   0  0  0  0  0  0  0  0  0  0  0  0
    5.7830   -9.5860   27.0570 O   0  0  0  0  0  0  0  0  0  0  0  0
    5.7730   -6.5500   25.7700 C   0  0  0  0  0  0  0  0  0  0  0  0
    5.6310   -5.0500   25.9650 C   0  0  0  0  0  0  0  0  0  0  0  0
    4.7620   -4.4720   24.8760 C   0  0  0  0  0  0  0  0  0  0  0  0
    5.0510   -4.7560   27.3260 C   0  0  0  0  0  0  0  0  0  0  0  0
    7.3400   -9.1910   25.4750 N   0  0  0  0  0  0  0  0  0  0  0  0
    7.3190  -10.5440   24.9500 C   0  0  2  0  0  0  0  0  0  0  0  0
    8.5510  -10.7860   24.1110 C   0  0  0  0  0  0  0  0  0  0  0  0
    9.0210   -9.8940   23.4140 O   0  0  0  0  0  0  0  0  0  0  0  0
    6.0480  -10.7970   24.1260 C   0  0  0  0  0  0  0  0  0  0  0  0
    5.8870   -9.9630   22.8550 C   0  0  0  0  0  0  0  0  0  0  0  0
    6.4580  -10.7480   21.6840 C   0  0  0  0  0  0  0  0  0  0  0  0
    4.4170   -9.5900   22.6220 C   0  0  0  0  0  0  0  0  0  0  0  0
    9.0690  -12.0090   24.1860 N   0  0  0  0  0  0  0  0  0  0  0  0
   10.1870  -12.4050   23.3460 C   0  0  2  0  0  0  0  0  0  0  0  0
   10.1050  -13.8810   23.0860 C   0  0  0  0  0  0  0  0  0  0  0  0
    9.8440  -14.6500   24.0060 O   0  0  0  0  0  0  0  0  0  0  0  0
   11.4930  -12.0940   24.0240 C   0  0  0  0  0  0  0  0  0  0  0  0
   10.3640  -14.2550   21.8410 N   0  0  0  0  0  0  0  0  0  0  0  0
   10.5120  -15.6710   21.4430 C   0  0  0  0  0  0  0  0  0  0  0  0
   13.3035   -5.9462   24.4647 H   0  0  0  0  0  0  0  0  0  0  0  0
   14.2910   -6.2810   25.8668 H   0  0  0  0  0  0  0  0  0  0  0  0
   14.0359   -4.6309   25.3517 H   0  0  0  0  0  0  0  0  0  0  0  0
   11.1207   -6.1880   24.8980 H   0  0  0  0  0  0  0  0  0  0  0  0
   10.1376   -5.8467   27.5922 H   0  0  0  0  0  0  0  0  0  0  0  0
    9.2866   -3.9242   25.4279 H   0  0  0  0  0  0  0  0  0  0  0  0
   10.2758   -3.5140   26.8086 H   0  0  0  0  0  0  0  0  0  0  0  0
    8.6111   -3.9928   27.0379 H   0  0  0  0  0  0  0  0  0  0  0  0
    8.1449   -6.5635   27.9625 H   0  0  0  0  0  0  0  0  0  0  0  0
    6.1072   -7.2314   27.7735 H   0  0  0  0  0  0  0  0  0  0  0  0
    6.2464   -6.7063   24.8232 H   0  0  0  0  0  0  0  0  0  0  0  0
    4.7763   -6.9303   25.8531 H   0  0  0  0  0  0  0  0  0  0  0  0
    6.5973   -4.5940   25.9071 H   0  0  0  0  0  0  0  0  0  0  0  0
    3.7905   -4.9183   24.9203 H   0  0  0  0  0  0  0  0  0  0  0  0
    5.2039   -4.6733   23.9225 H   0  0  0  0  0  0  0  0  0  0  0  0
    4.6751   -3.4143   25.0127 H   0  0  0  0  0  0  0  0  0  0  0  0
    4.0825   -5.2039   27.4053 H   0  0  0  0  0  0  0  0  0  0  0  0
    4.9661   -3.6974   27.4564 H   0  0  0  0  0  0  0  0  0  0  0  0
    5.6929   -5.1581   28.0817 H   0  0  0  0  0  0  0  0  0  0  0  0
    7.9598   -8.5352   25.0812 H   0  0  0  0  0  0  0  0  0  0  0  0
    7.3160  -11.2280   25.7728 H   0  0  0  0  0  0  0  0  0  0  0  0
    6.0439  -11.8285   23.8416 H   0  0  0  0  0  0  0  0  0  0  0  0
    5.2353  -10.5100   24.7601 H   0  0  0  0  0  0  0  0  0  0  0  0
    6.4236   -9.0428   22.9565 H   0  0  0  0  0  0  0  0  0  0  0  0
    5.9245  -11.6695   21.5783 H   0  0  0  0  0  0  0  0  0  0  0  0
    7.4927  -10.9534   21.8630 H   0  0  0  0  0  0  0  0  0  0  0  0
    6.3585  -10.1733   20.7869 H   0  0  0  0  0  0  0  0  0  0  0  0
    3.8356  -10.4817   22.5137 H   0  0  0  0  0  0  0  0  0  0  0  0
    4.3352   -9.0006   21.7327 H   0  0  0  0  0  0  0  0  0  0  0  0
    4.0551   -9.0275   23.4572 H   0  0  0  0  0  0  0  0  0  0  0  0
    8.6883  -12.6573   24.8217 H   0  0  0  0  0  0  0  0  0  0  0  0
   10.1391  -11.8623   22.4251 H   0  0  0  0  0  0  0  0  0  0  0  0
   11.5525  -12.6316   24.9472 H   0  0  0  0  0  0  0  0  0  0  0  0
   11.5526  -11.0435   24.2185 H   0  0  0  0  0  0  0  0  0  0  0  0
   12.3030  -12.3856   23.3886 H   0  0  0  0  0  0  0  0  0  0  0  0
   10.4621  -13.5594   21.1512 H   0  0  0  0  0  0  0  0  0  0  0  0
   10.3783  -16.2981   22.2996 H   0  0  0  0  0  0  0  0  0  0  0  0
   11.4892  -15.8268   21.0360 H   0  0  0  0  0  0  0  0  0  0  0  0
    9.7756  -15.9130   20.7054 H   0  0  0  0  0  0  0  0  0  0  0  0
  1  2  1  0  0  0  0
  1 32  1  0  0  0  0
  1 33  1  0  0  0  0
  1 34  1  0  0  0  0
  2  3  2  0  0  0  0
  4  2  1  0  0  0  0
  4  5  1  0  0  0  0
  4 35  1  0  0  0  0
  5 36  1  1  0  0  0
  6  5  1  0  0  0  0
  6  9  1  0  0  0  0
  7  6  2  0  0  0  0
  8  5  1  0  0  0  0
  8 37  1  0  0  0  0
  8 38  1  0  0  0  0
  8 39  1  0  0  0  0
  9 40  1  0  0  0  0
 10  9  1  0  0  0  0
 10 41  1  1  0  0  0
 11 10  1  0  0  0  0
 11 12  2  0  0  0  0
 13 14  1  0  0  0  0
 13 10  1  0  0  0  0
 13 42  1  0  0  0  0
 13 43  1  0  0  0  0
 14 16  1  0  0  0  0
 14 44  1  0  0  0  0
 15 14  1  0  0  0  0
 15 45  1  0  0  0  0
 15 46  1  0  0  0  0
 15 47  1  0  0  0  0
 16 48  1  0  0  0  0
 16 49  1  0  0  0  0
 16 50  1  0  0  0  0
 17 11  1  0  0  0  0
 17 51  1  0  0  0  0
 18 17  1  0  0  0  0
 18 52  1  1  0  0  0
 19 25  1  0  0  0  0
 19 18  1  0  0  0  0
 20 19  2  0  0  0  0
 21 18  1  0  0  0  0
 21 53  1  0  0  0  0
 21 54  1  0  0  0  0
 22 21  1  0  0  0  0
 22 55  1  0  0  0  0
 23 22  1  0  0  0  0
 23 56  1  0  0  0  0
 23 57  1  0  0  0  0
 23 58  1  0  0  0  0
 24 22  1  0  0  0  0
 24 59  1  0  0  0  0
 24 60  1  0  0  0  0
 24 61  1  0  0  0  0
 25 62  1  0  0  0  0
 26 29  1  0  0  0  0
 26 25  1  0  0  0  0
 26 63  1  6  0  0  0
 27 26  1  0  0  0  0
 27 28  2  0  0  0  0
 29 64  1  0  0  0  0
 29 65  1  0  0  0  0
 29 66  1  0  0  0  0
 30 27  1  0  0  0  0
 30 67  1  0  0  0  0
 31 30  1  0  0  0  0
 31 68  1  0  0  0  0
 31 69  1  0  0  0  0
 31 70  1  0  0  0  0
M  END
>  <MODEL>
       0

$$$$
