selected_4mers/ALLE/110_noH.pdb
 OpenBabel03042517503D

 75 74  0  0  1  0  0  0  0  0999 V2000
   55.0310   68.8290   13.4610 C   0  0  0  0  0  0  0  0  0  0  0  0
   54.7340   67.8040   12.3620 C   0  0  0  0  0  0  0  0  0  0  0  0
   54.1440   68.1380   11.3360 O   0  0  0  0  0  0  0  0  0  0  0  0
   55.1530   66.5650   12.5760 N   0  0  0  0  0  0  0  0  0  0  0  0
   54.9290   65.5040   11.5980 C   0  0  2  0  0  0  0  0  0  0  0  0
   53.4450   65.1800   11.5010 C   0  0  0  0  0  0  0  0  0  0  0  0
   52.9070   64.9570   10.4010 O   0  0  0  0  0  0  0  0  0  0  0  0
   55.7260   64.2430   11.9950 C   0  0  0  0  0  0  0  0  0  0  0  0
   52.7740   65.1640   12.6490 N   0  0  0  0  0  0  0  0  0  0  0  0
   51.3460   64.8570   12.6760 C   0  0  2  0  0  0  0  0  0  0  0  0
   50.5220   65.9760   12.0390 C   0  0  0  0  0  0  0  0  0  0  0  0
   49.5470   65.7240   11.3440 O   0  0  0  0  0  0  0  0  0  0  0  0
   50.9010   64.6030   14.1080 C   0  0  0  0  0  0  0  0  0  0  0  0
   51.4860   63.3380   14.7340 C   0  0  0  0  0  0  0  0  0  0  0  0
   51.2490   63.3710   16.2320 C   0  0  0  0  0  0  0  0  0  0  0  0
   50.8300   62.0830   14.1030 C   0  0  0  0  0  0  0  0  0  0  0  0
   50.9110   67.2220   12.2750 N   0  0  0  0  0  0  0  0  0  0  0  0
   50.1960   68.3390   11.6710 C   0  0  2  0  0  0  0  0  0  0  0  0
   50.4460   68.3840   10.1800 C   0  0  0  0  0  0  0  0  0  0  0  0
   49.5710   68.7740    9.4120 O   0  0  0  0  0  0  0  0  0  0  0  0
   50.6070   69.6740   12.3150 C   0  0  0  0  0  0  0  0  0  0  0  0
   49.6410   70.0920   13.4260 C   0  0  0  0  0  0  0  0  0  0  0  0
   50.2940   71.1070   14.3520 C   0  0  0  0  0  0  0  0  0  0  0  0
   48.3680   70.6490   12.7800 C   0  0  0  0  0  0  0  0  0  0  0  0
   51.6430   67.9990    9.7520 N   0  0  0  0  0  0  0  0  0  0  0  0
   51.9110   68.0010    8.3230 C   0  0  2  0  0  0  0  0  0  0  0  0
   51.0670   66.8950    7.6730 C   0  0  0  0  0  0  0  0  0  0  0  0
   50.6250   67.0380    6.5450 O   0  0  0  0  0  0  0  0  0  0  0  0
   53.4030   67.7830    8.0320 C   0  0  0  0  0  0  0  0  0  0  0  0
   53.7390   67.8130    6.5430 C   0  0  0  0  0  0  0  0  0  0  0  0
   55.1770   68.2120    6.2650 C   0  0  0  0  0  0  0  0  0  0  0  0
   55.5970   69.2810    6.7530 O   0  0  0  0  0  0  0  0  0  0  0  0
   55.8860   67.4670    5.5550 O   0  0  0  0  0  0  0  0  0  0  0  0
   50.8460   65.7980    8.3890 N   0  0  0  0  0  0  0  0  0  0  0  0
   50.0310   64.6930    7.8530 C   0  0  0  0  0  0  0  0  0  0  0  0
   54.6452   69.7841   13.1716 H   0  0  0  0  0  0  0  0  0  0  0  0
   56.0888   68.9005   13.6056 H   0  0  0  0  0  0  0  0  0  0  0  0
   54.5665   68.5183   14.3735 H   0  0  0  0  0  0  0  0  0  0  0  0
   55.6261   66.3551   13.4135 H   0  0  0  0  0  0  0  0  0  0  0  0
   55.2677   65.8403   10.6404 H   0  0  0  0  0  0  0  0  0  0  0  0
   55.3946   63.8983   12.9522 H   0  0  0  0  0  0  0  0  0  0  0  0
   56.7683   64.4801   12.0426 H   0  0  0  0  0  0  0  0  0  0  0  0
   55.5676   63.4765   11.2654 H   0  0  0  0  0  0  0  0  0  0  0  0
   53.2451   65.3614   13.4906 H   0  0  0  0  0  0  0  0  0  0  0  0
   51.1795   63.9721   12.0979 H   0  0  0  0  0  0  0  0  0  0  0  0
   49.8343   64.5189   14.1174 H   0  0  0  0  0  0  0  0  0  0  0  0
   51.2588   65.4263   14.6903 H   0  0  0  0  0  0  0  0  0  0  0  0
   52.5387   63.2940   14.5472 H   0  0  0  0  0  0  0  0  0  0  0  0
   50.1976   63.4150   16.4259 H   0  0  0  0  0  0  0  0  0  0  0  0
   51.7251   64.2335   16.6495 H   0  0  0  0  0  0  0  0  0  0  0  0
   51.6571   62.4877   16.6772 H   0  0  0  0  0  0  0  0  0  0  0  0
   49.7747   62.1061   14.2780 H   0  0  0  0  0  0  0  0  0  0  0  0
   51.2458   61.2023   14.5460 H   0  0  0  0  0  0  0  0  0  0  0  0
   51.0167   62.0745   13.0495 H   0  0  0  0  0  0  0  0  0  0  0  0
   51.6846   67.3926   12.8596 H   0  0  0  0  0  0  0  0  0  0  0  0
   49.1506   68.1904   11.8439 H   0  0  0  0  0  0  0  0  0  0  0  0
   50.6169   70.4333   11.5612 H   0  0  0  0  0  0  0  0  0  0  0  0
   51.5772   69.5487   12.7485 H   0  0  0  0  0  0  0  0  0  0  0  0
   49.3843   69.2455   14.0280 H   0  0  0  0  0  0  0  0  0  0  0  0
   50.5694   71.9758   13.7914 H   0  0  0  0  0  0  0  0  0  0  0  0
   51.1679   70.6760   14.7941 H   0  0  0  0  0  0  0  0  0  0  0  0
   49.6040   71.3832   15.1218 H   0  0  0  0  0  0  0  0  0  0  0  0
   48.6161   71.4965   12.1757 H   0  0  0  0  0  0  0  0  0  0  0  0
   47.6803   70.9450   13.5444 H   0  0  0  0  0  0  0  0  0  0  0  0
   47.9187   69.8944   12.1688 H   0  0  0  0  0  0  0  0  0  0  0  0
   52.3367   67.7172   10.3913 H   0  0  0  0  0  0  0  0  0  0  0  0
   51.6486   68.9545    7.9144 H   0  0  0  0  0  0  0  0  0  0  0  0
   53.9606   68.5540    8.5215 H   0  0  0  0  0  0  0  0  0  0  0  0
   53.6574   66.8090    8.3945 H   0  0  0  0  0  0  0  0  0  0  0  0
   53.5716   66.8375    6.1364 H   0  0  0  0  0  0  0  0  0  0  0  0
   53.1099   68.5498    6.0887 H   0  0  0  0  0  0  0  0  0  0  0  0
   51.2324   65.7220    9.2913 H   0  0  0  0  0  0  0  0  0  0  0  0
   49.6944   64.9430    6.8686 H   0  0  0  0  0  0  0  0  0  0  0  0
   49.1856   64.5323    8.4889 H   0  0  0  0  0  0  0  0  0  0  0  0
   50.6213   63.8015    7.8124 H   0  0  0  0  0  0  0  0  0  0  0  0
  1 36  1  0  0  0  0
  1 37  1  0  0  0  0
  1 38  1  0  0  0  0
  2  4  1  0  0  0  0
  2  1  1  0  0  0  0
  3  2  2  0  0  0  0
  4 39  1  0  0  0  0
  5  8  1  0  0  0  0
  5  4  1  0  0  0  0
  5 40  1  6  0  0  0
  6  5  1  0  0  0  0
  6  9  1  0  0  0  0
  7  6  2  0  0  0  0
  8 41  1  0  0  0  0
  8 42  1  0  0  0  0
  8 43  1  0  0  0  0
  9 10  1  0  0  0  0
  9 44  1  0  0  0  0
 10 13  1  0  0  0  0
 10 45  1  6  0  0  0
 11 17  1  0  0  0  0
 11 10  1  0  0  0  0
 12 11  2  0  0  0  0
 13 14  1  0  0  0  0
 13 46  1  0  0  0  0
 13 47  1  0  0  0  0
 14 15  1  0  0  0  0
 14 48  1  0  0  0  0
 15 49  1  0  0  0  0
 15 50  1  0  0  0  0
 15 51  1  0  0  0  0
 16 14  1  0  0  0  0
 16 52  1  0  0  0  0
 16 53  1  0  0  0  0
 16 54  1  0  0  0  0
 17 55  1  0  0  0  0
 18 17  1  0  0  0  0
 18 21  1  0  0  0  0
 18 56  1  1  0  0  0
 19 18  1  0  0  0  0
 20 19  2  0  0  0  0
 21 22  1  0  0  0  0
 21 57  1  0  0  0  0
 21 58  1  0  0  0  0
 22 23  1  0  0  0  0
 22 59  1  0  0  0  0
 23 60  1  0  0  0  0
 23 61  1  0  0  0  0
 23 62  1  0  0  0  0
 24 22  1  0  0  0  0
 24 63  1  0  0  0  0
 24 64  1  0  0  0  0
 24 65  1  0  0  0  0
 25 19  1  0  0  0  0
 25 66  1  0  0  0  0
 26 25  1  0  0  0  0
 26 67  1  6  0  0  0
 27 26  1  0  0  0  0
 27 34  1  0  0  0  0
 28 27  2  0  0  0  0
 29 26  1  0  0  0  0
 29 68  1  0  0  0  0
 29 69  1  0  0  0  0
 30 29  1  0  0  0  0
 30 70  1  0  0  0  0
 30 71  1  0  0  0  0
 31 30  1  0  0  0  0
 31 32  1  0  0  0  0
 33 31  2  0  0  0  0
 34 72  1  0  0  0  0
 35 34  1  0  0  0  0
 35 73  1  0  0  0  0
 35 74  1  0  0  0  0
 35 75  1  0  0  0  0
M  CHG  1  32  -1
M  END
>  <MODEL>
       0

$$$$
selected_4mers/ALLE/111_noH.pdb
 OpenBabel03042517503D

 75 74  0  0  1  0  0  0  0  0999 V2000
   10.7140   -1.3990    1.8980 C   0  0  0  0  0  0  0  0  0  0  0  0
   10.4840   -2.4210    3.0150 C   0  0  0  0  0  0  0  0  0  0  0  0
   11.3630   -3.2290    3.3220 O   0  0  0  0  0  0  0  0  0  0  0  0
    9.2990   -2.3840    3.6210 N   0  0  0  0  0  0  0  0  0  0  0  0
    8.9660   -3.3100    4.7010 C   0  0  2  0  0  0  0  0  0  0  0  0
    8.9610   -4.7620    4.2210 C   0  0  0  0  0  0  0  0  0  0  0  0
    9.4320   -5.6630    4.9270 O   0  0  0  0  0  0  0  0  0  0  0  0
    7.6000   -2.9450    5.3000 C   0  0  0  0  0  0  0  0  0  0  0  0
    8.4260   -4.9950    3.0230 N   0  0  0  0  0  0  0  0  0  0  0  0
    8.3840   -6.3470    2.4740 C   0  0  2  0  0  0  0  0  0  0  0  0
    9.8030   -6.8440    2.2100 C   0  0  0  0  0  0  0  0  0  0  0  0
   10.1280   -7.9940    2.4910 O   0  0  0  0  0  0  0  0  0  0  0  0
    7.5720   -6.3770    1.1710 C   0  0  0  0  0  0  0  0  0  0  0  0
    7.5420   -7.7010    0.3970 C   0  0  0  0  0  0  0  0  0  0  0  0
    7.0040   -8.8290    1.2750 C   0  0  0  0  0  0  0  0  0  0  0  0
    6.6800   -7.5310   -0.8420 C   0  0  0  0  0  0  0  0  0  0  0  0
   10.6540   -5.9710    1.6750 N   0  0  0  0  0  0  0  0  0  0  0  0
   12.0270   -6.3700    1.3890 C   0  0  2  0  0  0  0  0  0  0  0  0
   12.7710   -6.7070    2.6800 C   0  0  0  0  0  0  0  0  0  0  0  0
   13.4980   -7.6940    2.7410 O   0  0  0  0  0  0  0  0  0  0  0  0
   12.7680   -5.2600    0.6380 C   0  0  0  0  0  0  0  0  0  0  0  0
   14.2450   -5.5080    0.3200 C   0  0  0  0  0  0  0  0  0  0  0  0
   14.4030   -6.8060   -0.4580 C   0  0  0  0  0  0  0  0  0  0  0  0
   14.7970   -4.3310   -0.4800 C   0  0  0  0  0  0  0  0  0  0  0  0
   12.5810   -5.8920    3.7130 N   0  0  0  0  0  0  0  0  0  0  0  0
   13.2570   -6.1380    4.9790 C   0  0  2  0  0  0  0  0  0  0  0  0
   12.7650   -7.4090    5.6580 C   0  0  0  0  0  0  0  0  0  0  0  0
   13.5420   -8.1160    6.2990 O   0  0  0  0  0  0  0  0  0  0  0  0
   13.1130   -4.9210    5.8950 C   0  0  0  0  0  0  0  0  0  0  0  0
   13.9750   -3.7600    5.4310 C   0  0  0  0  0  0  0  0  0  0  0  0
   13.9890   -2.5970    6.4020 C   0  0  0  0  0  0  0  0  0  0  0  0
   13.6150   -2.7920    7.5790 O   0  0  0  0  0  0  0  0  0  0  0  0
   14.3930   -1.4890    5.9890 O   0  0  0  0  0  0  0  0  0  0  0  0
   11.4770   -7.7070    5.5070 N   0  0  0  0  0  0  0  0  0  0  0  0
   10.9130   -8.9220    6.0820 C   0  0  0  0  0  0  0  0  0  0  0  0
   11.6956   -1.5288    1.4923 H   0  0  0  0  0  0  0  0  0  0  0  0
   10.6200   -0.4097    2.2948 H   0  0  0  0  0  0  0  0  0  0  0  0
    9.9871   -1.5443    1.1264 H   0  0  0  0  0  0  0  0  0  0  0  0
    8.6326   -1.7181    3.3351 H   0  0  0  0  0  0  0  0  0  0  0  0
    9.7211   -3.2214    5.4539 H   0  0  0  0  0  0  0  0  0  0  0  0
    6.8451   -3.0337    4.5469 H   0  0  0  0  0  0  0  0  0  0  0  0
    7.6266   -1.9383    5.6616 H   0  0  0  0  0  0  0  0  0  0  0  0
    7.3764   -3.6087    6.1090 H   0  0  0  0  0  0  0  0  0  0  0  0
    8.0547   -4.2466    2.5021 H   0  0  0  0  0  0  0  0  0  0  0  0
    7.9096   -6.9887    3.1868 H   0  0  0  0  0  0  0  0  0  0  0  0
    6.5616   -6.1232    1.4149 H   0  0  0  0  0  0  0  0  0  0  0  0
    8.0671   -5.6869    0.5202 H   0  0  0  0  0  0  0  0  0  0  0  0
    8.5377   -7.9626    0.1053 H   0  0  0  0  0  0  0  0  0  0  0  0
    6.0064   -8.5958    1.5837 H   0  0  0  0  0  0  0  0  0  0  0  0
    7.6279   -8.9382    2.1374 H   0  0  0  0  0  0  0  0  0  0  0  0
    7.0008   -9.7432    0.7190 H   0  0  0  0  0  0  0  0  0  0  0  0
    5.6842   -7.2694   -0.5506 H   0  0  0  0  0  0  0  0  0  0  0  0
    6.6612   -8.4486   -1.3921 H   0  0  0  0  0  0  0  0  0  0  0  0
    7.0873   -6.7553   -1.4562 H   0  0  0  0  0  0  0  0  0  0  0  0
   10.3559   -5.0549    1.4722 H   0  0  0  0  0  0  0  0  0  0  0  0
   11.9942   -7.2428    0.7709 H   0  0  0  0  0  0  0  0  0  0  0  0
   12.2593   -5.1018   -0.2900 H   0  0  0  0  0  0  0  0  0  0  0  0
   12.7618   -4.4208    1.3018 H   0  0  0  0  0  0  0  0  0  0  0  0
   14.7957   -5.5962    1.2331 H   0  0  0  0  0  0  0  0  0  0  0  0
   13.8589   -6.7395   -1.3770 H   0  0  0  0  0  0  0  0  0  0  0  0
   14.0222   -7.6192    0.1239 H   0  0  0  0  0  0  0  0  0  0  0  0
   15.4389   -6.9721   -0.6681 H   0  0  0  0  0  0  0  0  0  0  0  0
   14.2518   -4.2351   -1.3956 H   0  0  0  0  0  0  0  0  0  0  0  0
   15.8310   -4.5007   -0.6967 H   0  0  0  0  0  0  0  0  0  0  0  0
   14.6952   -3.4322    0.0916 H   0  0  0  0  0  0  0  0  0  0  0  0
   11.9798   -5.1177    3.6215 H   0  0  0  0  0  0  0  0  0  0  0  0
   14.2957   -6.2908    4.7726 H   0  0  0  0  0  0  0  0  0  0  0  0
   13.4078   -5.1967    6.8860 H   0  0  0  0  0  0  0  0  0  0  0  0
   12.0906   -4.6062    5.8711 H   0  0  0  0  0  0  0  0  0  0  0  0
   13.5995   -3.4129    4.4911 H   0  0  0  0  0  0  0  0  0  0  0  0
   14.9792   -4.1217    5.3559 H   0  0  0  0  0  0  0  0  0  0  0  0
   10.8953   -7.0968    4.9985 H   0  0  0  0  0  0  0  0  0  0  0  0
   11.6799   -9.4625    6.5963 H   0  0  0  0  0  0  0  0  0  0  0  0
   10.5092   -9.5320    5.3012 H   0  0  0  0  0  0  0  0  0  0  0  0
   10.1359   -8.6633    6.7706 H   0  0  0  0  0  0  0  0  0  0  0  0
  1 36  1  0  0  0  0
  1 37  1  0  0  0  0
  1 38  1  0  0  0  0
  2  4  1  0  0  0  0
  2  1  1  0  0  0  0
  3  2  2  0  0  0  0
  4 39  1  0  0  0  0
  5  8  1  0  0  0  0
  5  4  1  0  0  0  0
  5 40  1  6  0  0  0
  6  5  1  0  0  0  0
  6  9  1  0  0  0  0
  7  6  2  0  0  0  0
  8 41  1  0  0  0  0
  8 42  1  0  0  0  0
  8 43  1  0  0  0  0
  9 10  1  0  0  0  0
  9 44  1  0  0  0  0
 10 13  1  0  0  0  0
 10 45  1  6  0  0  0
 11 17  1  0  0  0  0
 11 10  1  0  0  0  0
 12 11  2  0  0  0  0
 13 14  1  0  0  0  0
 13 46  1  0  0  0  0
 13 47  1  0  0  0  0
 14 15  1  0  0  0  0
 14 48  1  0  0  0  0
 15 49  1  0  0  0  0
 15 50  1  0  0  0  0
 15 51  1  0  0  0  0
 16 14  1  0  0  0  0
 16 52  1  0  0  0  0
 16 53  1  0  0  0  0
 16 54  1  0  0  0  0
 17 55  1  0  0  0  0
 18 17  1  0  0  0  0
 18 21  1  0  0  0  0
 18 56  1  1  0  0  0
 19 18  1  0  0  0  0
 20 19  2  0  0  0  0
 21 22  1  0  0  0  0
 21 57  1  0  0  0  0
 21 58  1  0  0  0  0
 22 23  1  0  0  0  0
 22 59  1  0  0  0  0
 23 60  1  0  0  0  0
 23 61  1  0  0  0  0
 23 62  1  0  0  0  0
 24 22  1  0  0  0  0
 24 63  1  0  0  0  0
 24 64  1  0  0  0  0
 24 65  1  0  0  0  0
 25 19  1  0  0  0  0
 25 66  1  0  0  0  0
 26 25  1  0  0  0  0
 26 67  1  6  0  0  0
 27 26  1  0  0  0  0
 27 34  1  0  0  0  0
 28 27  2  0  0  0  0
 29 26  1  0  0  0  0
 29 68  1  0  0  0  0
 29 69  1  0  0  0  0
 30 29  1  0  0  0  0
 30 70  1  0  0  0  0
 30 71  1  0  0  0  0
 31 30  1  0  0  0  0
 31 32  1  0  0  0  0
 33 31  2  0  0  0  0
 34 72  1  0  0  0  0
 35 34  1  0  0  0  0
 35 73  1  0  0  0  0
 35 74  1  0  0  0  0
 35 75  1  0  0  0  0
M  CHG  1  32  -1
M  END
>  <MODEL>
       0

$$$$
selected_4mers/ALLE/112_noH.pdb
 OpenBabel03042517503D

 75 74  0  0  1  0  0  0  0  0999 V2000
    7.4960   24.6590   27.2170 C   0  0  0  0  0  0  0  0  0  0  0  0
    7.1660   23.2000   26.8900 C   0  0  0  0  0  0  0  0  0  0  0  0
    6.6740   22.8960   25.7860 O   0  0  0  0  0  0  0  0  0  0  0  0
    7.4920   22.3100   27.8200 N   0  0  0  0  0  0  0  0  0  0  0  0
    7.2470   20.8930   27.6650 C   0  0  2  0  0  0  0  0  0  0  0  0
    6.8580   20.3210   29.0300 C   0  0  0  0  0  0  0  0  0  0  0  0
    7.2490   20.8680   30.0660 O   0  0  0  0  0  0  0  0  0  0  0  0
    8.4540   20.1650   27.1290 C   0  0  0  0  0  0  0  0  0  0  0  0
    6.1400   19.1980   29.0210 N   0  0  0  0  0  0  0  0  0  0  0  0
    5.7080   18.5200   30.2170 C   0  0  2  0  0  0  0  0  0  0  0  0
    6.3330   17.1480   30.1760 C   0  0  0  0  0  0  0  0  0  0  0  0
    6.2130   16.4500   29.1630 O   0  0  0  0  0  0  0  0  0  0  0  0
    4.1850   18.4110   30.2300 C   0  0  0  0  0  0  0  0  0  0  0  0
    3.5090   19.7790   30.1380 C   0  0  0  0  0  0  0  0  0  0  0  0
    2.0540   19.6430   29.8210 C   0  0  0  0  0  0  0  0  0  0  0  0
    3.7100   20.5860   31.3800 C   0  0  0  0  0  0  0  0  0  0  0  0
    6.9790   16.7620   31.2750 N   0  0  0  0  0  0  0  0  0  0  0  0
    7.7210   15.5110   31.3510 C   0  0  2  0  0  0  0  0  0  0  0  0
    7.0320   14.5910   32.3600 C   0  0  0  0  0  0  0  0  0  0  0  0
    6.8760   14.9800   33.5150 O   0  0  0  0  0  0  0  0  0  0  0  0
    9.1730   15.7600   31.7830 C   0  0  0  0  0  0  0  0  0  0  0  0
    9.9080   16.9230   31.1110 C   0  0  0  0  0  0  0  0  0  0  0  0
   11.3340   16.9670   31.6000 C   0  0  0  0  0  0  0  0  0  0  0  0
    9.8660   16.8620   29.6210 C   0  0  0  0  0  0  0  0  0  0  0  0
    6.6310   13.3970   31.9300 N   0  0  0  0  0  0  0  0  0  0  0  0
    5.9890   12.4510   32.8230 C   0  0  2  0  0  0  0  0  0  0  0  0
    7.0350   11.4890   33.3700 C   0  0  0  0  0  0  0  0  0  0  0  0
    7.7660   10.8450   32.6150 O   0  0  0  0  0  0  0  0  0  0  0  0
    4.8950   11.6540   32.1020 C   0  0  0  0  0  0  0  0  0  0  0  0
    4.0400   10.8690   33.0570 C   0  0  0  0  0  0  0  0  0  0  0  0
    2.9260   10.0920   32.4090 C   0  0  0  0  0  0  0  0  0  0  0  0
    2.8400   10.0620   31.1780 O   0  0  0  0  0  0  0  0  0  0  0  0
    2.1070    9.5040   33.1500 O   0  0  0  0  0  0  0  0  0  0  0  0
    7.1210   11.4190   34.6920 N   0  0  0  0  0  0  0  0  0  0  0  0
    8.0070   10.4610   35.3450 C   0  0  0  0  0  0  0  0  0  0  0  0
    7.1923   25.2843   26.4036 H   0  0  0  0  0  0  0  0  0  0  0  0
    8.5500   24.7605   27.3706 H   0  0  0  0  0  0  0  0  0  0  0  0
    6.9763   24.9518   28.1053 H   0  0  0  0  0  0  0  0  0  0  0  0
    7.9179   22.6276   28.6489 H   0  0  0  0  0  0  0  0  0  0  0  0
    6.4580   20.7572   26.9552 H   0  0  0  0  0  0  0  0  0  0  0  0
    9.2700   20.2761   27.8122 H   0  0  0  0  0  0  0  0  0  0  0  0
    8.7256   20.5759   26.1791 H   0  0  0  0  0  0  0  0  0  0  0  0
    8.2228   19.1265   27.0154 H   0  0  0  0  0  0  0  0  0  0  0  0
    5.8915   18.8110   28.1506 H   0  0  0  0  0  0  0  0  0  0  0  0
    6.0022   19.0504   31.0985 H   0  0  0  0  0  0  0  0  0  0  0  0
    3.8747   17.8162   29.3964 H   0  0  0  0  0  0  0  0  0  0  0  0
    3.8950   17.9622   31.1570 H   0  0  0  0  0  0  0  0  0  0  0  0
    3.9781   20.3069   29.3342 H   0  0  0  0  0  0  0  0  0  0  0  0
    1.5640   19.1169   30.6134 H   0  0  0  0  0  0  0  0  0  0  0  0
    1.9374   19.0997   28.9066 H   0  0  0  0  0  0  0  0  0  0  0  0
    1.6194   20.6151   29.7161 H   0  0  0  0  0  0  0  0  0  0  0  0
    3.2520   20.0864   32.2080 H   0  0  0  0  0  0  0  0  0  0  0  0
    3.2644   21.5507   31.2546 H   0  0  0  0  0  0  0  0  0  0  0  0
    4.7576   20.6986   31.5665 H   0  0  0  0  0  0  0  0  0  0  0  0
    6.9539   17.3455   32.0675 H   0  0  0  0  0  0  0  0  0  0  0  0
    7.7364   15.0543   30.3835 H   0  0  0  0  0  0  0  0  0  0  0  0
    9.1689   15.9463   32.8366 H   0  0  0  0  0  0  0  0  0  0  0  0
    9.7069   14.8828   31.4823 H   0  0  0  0  0  0  0  0  0  0  0  0
    9.3979   17.8226   31.3858 H   0  0  0  0  0  0  0  0  0  0  0  0
   11.8350   16.0638   31.3204 H   0  0  0  0  0  0  0  0  0  0  0  0
   11.3428   17.0646   32.6655 H   0  0  0  0  0  0  0  0  0  0  0  0
   11.8359   17.8038   31.1610 H   0  0  0  0  0  0  0  0  0  0  0  0
   10.3647   15.9766   29.2861 H   0  0  0  0  0  0  0  0  0  0  0  0
   10.3556   17.7224   29.2149 H   0  0  0  0  0  0  0  0  0  0  0  0
    8.8476   16.8433   29.2934 H   0  0  0  0  0  0  0  0  0  0  0  0
    6.7728   13.1509   30.9874 H   0  0  0  0  0  0  0  0  0  0  0  0
    5.5323   12.9991   33.6204 H   0  0  0  0  0  0  0  0  0  0  0  0
    5.3583   10.9752   31.4168 H   0  0  0  0  0  0  0  0  0  0  0  0
    4.2628   12.3512   31.5929 H   0  0  0  0  0  0  0  0  0  0  0  0
    3.6066   11.5532   33.7562 H   0  0  0  0  0  0  0  0  0  0  0  0
    4.6835   10.1487   33.5174 H   0  0  0  0  0  0  0  0  0  0  0  0
    6.5761   12.0256   35.2436 H   0  0  0  0  0  0  0  0  0  0  0  0
    8.5199    9.8860   34.6025 H   0  0  0  0  0  0  0  0  0  0  0  0
    7.4304    9.8081   35.9664 H   0  0  0  0  0  0  0  0  0  0  0  0
    8.7204   10.9864   35.9449 H   0  0  0  0  0  0  0  0  0  0  0  0
  1 36  1  0  0  0  0
  1 37  1  0  0  0  0
  1 38  1  0  0  0  0
  2  4  1  0  0  0  0
  2  1  1  0  0  0  0
  3  2  2  0  0  0  0
  4 39  1  0  0  0  0
  5  8  1  0  0  0  0
  5  4  1  0  0  0  0
  5 40  1  6  0  0  0
  6  5  1  0  0  0  0
  6  9  1  0  0  0  0
  7  6  2  0  0  0  0
  8 41  1  0  0  0  0
  8 42  1  0  0  0  0
  8 43  1  0  0  0  0
  9 10  1  0  0  0  0
  9 44  1  0  0  0  0
 10 13  1  0  0  0  0
 10 45  1  6  0  0  0
 11 17  1  0  0  0  0
 11 10  1  0  0  0  0
 12 11  2  0  0  0  0
 13 14  1  0  0  0  0
 13 46  1  0  0  0  0
 13 47  1  0  0  0  0
 14 15  1  0  0  0  0
 14 48  1  0  0  0  0
 15 49  1  0  0  0  0
 15 50  1  0  0  0  0
 15 51  1  0  0  0  0
 16 14  1  0  0  0  0
 16 52  1  0  0  0  0
 16 53  1  0  0  0  0
 16 54  1  0  0  0  0
 17 55  1  0  0  0  0
 18 17  1  0  0  0  0
 18 21  1  0  0  0  0
 18 56  1  1  0  0  0
 19 18  1  0  0  0  0
 20 19  2  0  0  0  0
 21 22  1  0  0  0  0
 21 57  1  0  0  0  0
 21 58  1  0  0  0  0
 22 23  1  0  0  0  0
 22 59  1  0  0  0  0
 23 60  1  0  0  0  0
 23 61  1  0  0  0  0
 23 62  1  0  0  0  0
 24 22  1  0  0  0  0
 24 63  1  0  0  0  0
 24 64  1  0  0  0  0
 24 65  1  0  0  0  0
 25 19  1  0  0  0  0
 25 66  1  0  0  0  0
 26 25  1  0  0  0  0
 26 67  1  6  0  0  0
 27 26  1  0  0  0  0
 27 34  1  0  0  0  0
 28 27  2  0  0  0  0
 29 26  1  0  0  0  0
 29 68  1  0  0  0  0
 29 69  1  0  0  0  0
 30 29  1  0  0  0  0
 30 70  1  0  0  0  0
 30 71  1  0  0  0  0
 31 30  1  0  0  0  0
 31 32  1  0  0  0  0
 33 31  2  0  0  0  0
 34 72  1  0  0  0  0
 35 34  1  0  0  0  0
 35 73  1  0  0  0  0
 35 74  1  0  0  0  0
 35 75  1  0  0  0  0
M  CHG  1  32  -1
M  END
>  <MODEL>
       0

$$$$
selected_4mers/ALLE/113_noH.pdb
 OpenBabel03042517503D

 75 74  0  0  1  0  0  0  0  0999 V2000
   12.7550   10.8690  -15.4330 C   0  0  0  0  0  0  0  0  0  0  0  0
   13.0160   11.3800  -16.8390 C   0  0  0  0  0  0  0  0  0  0  0  0
   12.4630   10.8550  -17.8070 O   0  0  0  0  0  0  0  0  0  0  0  0
   13.8110   12.4370  -16.9500 N   0  0  0  0  0  0  0  0  0  0  0  0
   14.1520   12.9860  -18.2470 C   0  0  2  0  0  0  0  0  0  0  0  0
   15.2130   12.1010  -18.8900 C   0  0  0  0  0  0  0  0  0  0  0  0
   16.0430   11.5040  -18.1960 O   0  0  0  0  0  0  0  0  0  0  0  0
   14.6420   14.4290  -18.1150 C   0  0  0  0  0  0  0  0  0  0  0  0
   15.1600   12.0130  -20.2170 N   0  0  0  0  0  0  0  0  0  0  0  0
   16.0760   11.1780  -20.9920 C   0  0  2  0  0  0  0  0  0  0  0  0
   16.7700   12.0400  -22.0280 C   0  0  0  0  0  0  0  0  0  0  0  0
   16.1130   12.6360  -22.8840 O   0  0  0  0  0  0  0  0  0  0  0  0
   15.3290   10.0530  -21.7120 C   0  0  0  0  0  0  0  0  0  0  0  0
   14.6720    8.9590  -20.8790 C   0  0  0  0  0  0  0  0  0  0  0  0
   14.0010    7.9510  -21.8020 C   0  0  0  0  0  0  0  0  0  0  0  0
   15.6870    8.2760  -19.9930 C   0  0  0  0  0  0  0  0  0  0  0  0
   18.0990   12.1060  -21.9560 N   0  0  0  0  0  0  0  0  0  0  0  0
   18.8730   12.9180  -22.8860 C   0  0  2  0  0  0  0  0  0  0  0  0
   20.1770   12.2050  -23.2100 C   0  0  0  0  0  0  0  0  0  0  0  0
   20.9420   11.8780  -22.3050 O   0  0  0  0  0  0  0  0  0  0  0  0
   19.1650   14.2910  -22.2750 C   0  0  0  0  0  0  0  0  0  0  0  0
   19.9730   15.2620  -23.1400 C   0  0  0  0  0  0  0  0  0  0  0  0
   19.2010   15.6130  -24.4000 C   0  0  0  0  0  0  0  0  0  0  0  0
   20.3330   16.5190  -22.3500 C   0  0  0  0  0  0  0  0  0  0  0  0
   20.4100   11.9650  -24.5010 N   0  0  0  0  0  0  0  0  0  0  0  0
   21.6430   11.3200  -24.9800 C   0  0  2  0  0  0  0  0  0  0  0  0
   21.9370   10.0060  -24.2460 C   0  0  0  0  0  0  0  0  0  0  0  0
   23.0880    9.7110  -23.9110 O   0  0  0  0  0  0  0  0  0  0  0  0
   22.8290   12.2850  -24.8640 C   0  0  0  0  0  0  0  0  0  0  0  0
   22.6850   13.5480  -25.7090 C   0  0  0  0  0  0  0  0  0  0  0  0
   23.8850   14.4640  -25.5990 C   0  0  0  0  0  0  0  0  0  0  0  0
   23.9260   15.2880  -24.6600 O   0  0  0  0  0  0  0  0  0  0  0  0
   24.7860   14.3660  -26.4580 O   0  0  0  0  0  0  0  0  0  0  0  0
   20.8840    9.2340  -23.9920 N   0  0  0  0  0  0  0  0  0  0  0  0
   21.0040    7.9330  -23.3390 C   0  0  0  0  0  0  0  0  0  0  0  0
   12.1047   10.0205  -15.4769 H   0  0  0  0  0  0  0  0  0  0  0  0
   12.2950   11.6412  -14.8525 H   0  0  0  0  0  0  0  0  0  0  0  0
   13.6814   10.5853  -14.9789 H   0  0  0  0  0  0  0  0  0  0  0  0
   14.1755   12.8555  -16.1368 H   0  0  0  0  0  0  0  0  0  0  0  0
   13.2822   13.0041  -18.8698 H   0  0  0  0  0  0  0  0  0  0  0  0
   15.5148   14.4541  -17.4965 H   0  0  0  0  0  0  0  0  0  0  0  0
   13.8736   15.0275  -17.6720 H   0  0  0  0  0  0  0  0  0  0  0  0
   14.8804   14.8148  -19.0841 H   0  0  0  0  0  0  0  0  0  0  0  0
   14.4749   12.5322  -20.6969 H   0  0  0  0  0  0  0  0  0  0  0  0
   16.7845   10.7415  -20.3193 H   0  0  0  0  0  0  0  0  0  0  0  0
   16.0314    9.5746  -22.3621 H   0  0  0  0  0  0  0  0  0  0  0  0
   14.5066   10.5486  -22.1841 H   0  0  0  0  0  0  0  0  0  0  0  0
   13.9317    9.4020  -20.2461 H   0  0  0  0  0  0  0  0  0  0  0  0
   14.7368    7.5045  -22.4377 H   0  0  0  0  0  0  0  0  0  0  0  0
   13.2672    8.4490  -22.4008 H   0  0  0  0  0  0  0  0  0  0  0  0
   13.5274    7.1911  -21.2162 H   0  0  0  0  0  0  0  0  0  0  0  0
   16.4424    7.8223  -20.6000 H   0  0  0  0  0  0  0  0  0  0  0  0
   15.2007    7.5240  -19.4075 H   0  0  0  0  0  0  0  0  0  0  0  0
   16.1369    8.9979  -19.3439 H   0  0  0  0  0  0  0  0  0  0  0  0
   18.5688   11.5943  -21.2583 H   0  0  0  0  0  0  0  0  0  0  0  0
   18.3096   13.0588  -23.7847 H   0  0  0  0  0  0  0  0  0  0  0  0
   18.2267   14.7553  -22.0538 H   0  0  0  0  0  0  0  0  0  0  0  0
   19.7758   14.0972  -21.4181 H   0  0  0  0  0  0  0  0  0  0  0  0
   20.8857   14.7834  -23.4279 H   0  0  0  0  0  0  0  0  0  0  0  0
   18.2829   16.0936  -24.1335 H   0  0  0  0  0  0  0  0  0  0  0  0
   18.9895   14.7194  -24.9493 H   0  0  0  0  0  0  0  0  0  0  0  0
   19.7867   16.2733  -25.0049 H   0  0  0  0  0  0  0  0  0  0  0  0
   19.4367   17.0195  -22.0482 H   0  0  0  0  0  0  0  0  0  0  0  0
   20.9163   17.1720  -22.9651 H   0  0  0  0  0  0  0  0  0  0  0  0
   20.8982   16.2460  -21.4834 H   0  0  0  0  0  0  0  0  0  0  0  0
   19.7291   12.2302  -25.1608 H   0  0  0  0  0  0  0  0  0  0  0  0
   21.4939   11.0731  -26.0104 H   0  0  0  0  0  0  0  0  0  0  0  0
   22.9279   12.5752  -23.8389 H   0  0  0  0  0  0  0  0  0  0  0  0
   23.6895   11.7641  -25.2289 H   0  0  0  0  0  0  0  0  0  0  0  0
   22.5647   13.2628  -26.7333 H   0  0  0  0  0  0  0  0  0  0  0  0
   21.8339   14.0850  -25.3454 H   0  0  0  0  0  0  0  0  0  0  0  0
   19.9898    9.5516  -24.2541 H   0  0  0  0  0  0  0  0  0  0  0  0
   22.0330    7.7371  -23.1206 H   0  0  0  0  0  0  0  0  0  0  0  0
   20.6260    7.1716  -23.9888 H   0  0  0  0  0  0  0  0  0  0  0  0
   20.4409    7.9373  -22.4292 H   0  0  0  0  0  0  0  0  0  0  0  0
  1 36  1  0  0  0  0
  1 37  1  0  0  0  0
  1 38  1  0  0  0  0
  2  4  1  0  0  0  0
  2  1  1  0  0  0  0
  3  2  2  0  0  0  0
  4 39  1  0  0  0  0
  5  8  1  0  0  0  0
  5  4  1  0  0  0  0
  5 40  1  6  0  0  0
  6  5  1  0  0  0  0
  6  9  1  0  0  0  0
  7  6  2  0  0  0  0
  8 41  1  0  0  0  0
  8 42  1  0  0  0  0
  8 43  1  0  0  0  0
  9 10  1  0  0  0  0
  9 44  1  0  0  0  0
 10 13  1  0  0  0  0
 10 45  1  6  0  0  0
 11 17  1  0  0  0  0
 11 10  1  0  0  0  0
 12 11  2  0  0  0  0
 13 14  1  0  0  0  0
 13 46  1  0  0  0  0
 13 47  1  0  0  0  0
 14 15  1  0  0  0  0
 14 48  1  0  0  0  0
 15 49  1  0  0  0  0
 15 50  1  0  0  0  0
 15 51  1  0  0  0  0
 16 14  1  0  0  0  0
 16 52  1  0  0  0  0
 16 53  1  0  0  0  0
 16 54  1  0  0  0  0
 17 55  1  0  0  0  0
 18 17  1  0  0  0  0
 18 21  1  0  0  0  0
 18 56  1  1  0  0  0
 19 18  1  0  0  0  0
 20 19  2  0  0  0  0
 21 22  1  0  0  0  0
 21 57  1  0  0  0  0
 21 58  1  0  0  0  0
 22 23  1  0  0  0  0
 22 59  1  0  0  0  0
 23 60  1  0  0  0  0
 23 61  1  0  0  0  0
 23 62  1  0  0  0  0
 24 22  1  0  0  0  0
 24 63  1  0  0  0  0
 24 64  1  0  0  0  0
 24 65  1  0  0  0  0
 25 19  1  0  0  0  0
 25 66  1  0  0  0  0
 26 25  1  0  0  0  0
 26 67  1  6  0  0  0
 27 26  1  0  0  0  0
 27 34  1  0  0  0  0
 28 27  2  0  0  0  0
 29 26  1  0  0  0  0
 29 68  1  0  0  0  0
 29 69  1  0  0  0  0
 30 29  1  0  0  0  0
 30 70  1  0  0  0  0
 30 71  1  0  0  0  0
 31 30  1  0  0  0  0
 31 32  1  0  0  0  0
 33 31  2  0  0  0  0
 34 72  1  0  0  0  0
 35 34  1  0  0  0  0
 35 73  1  0  0  0  0
 35 74  1  0  0  0  0
 35 75  1  0  0  0  0
M  CHG  1  32  -1
M  END
>  <MODEL>
       0

$$$$
selected_4mers/ALLE/114_noH.pdb
 OpenBabel03042517503D

 75 74  0  0  1  0  0  0  0  0999 V2000
    1.6890  -24.7050  -16.3510 C   0  0  0  0  0  0  0  0  0  0  0  0
    1.5310  -25.8730  -15.3790 C   0  0  0  0  0  0  0  0  0  0  0  0
    0.6520  -25.8590  -14.5290 O   0  0  0  0  0  0  0  0  0  0  0  0
    2.3970  -26.8810  -15.5080 N   0  0  0  0  0  0  0  0  0  0  0  0
    2.3440  -28.0620  -14.6550 C   0  0  2  0  0  0  0  0  0  0  0  0
    2.6580  -27.6960  -13.2130 C   0  0  0  0  0  0  0  0  0  0  0  0
    1.9650  -28.0800  -12.3030 O   0  0  0  0  0  0  0  0  0  0  0  0
    3.3350  -29.1430  -15.1670 C   0  0  0  0  0  0  0  0  0  0  0  0
    3.7040  -26.9320  -13.0030 N   0  0  0  0  0  0  0  0  0  0  0  0
    4.0550  -26.5510  -11.6360 C   0  0  2  0  0  0  0  0  0  0  0  0
    3.0390  -25.6050  -11.0020 C   0  0  0  0  0  0  0  0  0  0  0  0
    2.8240  -25.6850   -9.8020 O   0  0  0  0  0  0  0  0  0  0  0  0
    5.4790  -26.0040  -11.5780 C   0  0  0  0  0  0  0  0  0  0  0  0
    5.8230  -24.6650  -12.2570 C   0  0  0  0  0  0  0  0  0  0  0  0
    5.5320  -23.4700  -11.2880 C   0  0  0  0  0  0  0  0  0  0  0  0
    7.3100  -24.6640  -12.6960 C   0  0  0  0  0  0  0  0  0  0  0  0
    2.4520  -24.7030  -11.7870 N   0  0  0  0  0  0  0  0  0  0  0  0
    1.4330  -23.8080  -11.2780 C   0  0  2  0  0  0  0  0  0  0  0  0
    0.2580  -24.6250  -10.7680 C   0  0  0  0  0  0  0  0  0  0  0  0
   -0.2050  -24.3970   -9.6420 O   0  0  0  0  0  0  0  0  0  0  0  0
    0.9760  -22.8030  -12.3360 C   0  0  0  0  0  0  0  0  0  0  0  0
    1.9520  -21.6290  -12.5450 C   0  0  0  0  0  0  0  0  0  0  0  0
    1.6660  -20.9210  -13.8840 C   0  0  0  0  0  0  0  0  0  0  0  0
    1.8850  -20.6730  -11.3970 C   0  0  0  0  0  0  0  0  0  0  0  0
   -0.1800  -25.6020  -11.5680 N   0  0  0  0  0  0  0  0  0  0  0  0
   -1.3110  -26.4370  -11.2020 C   0  0  2  0  0  0  0  0  0  0  0  0
   -1.0110  -27.2850   -9.9390 C   0  0  0  0  0  0  0  0  0  0  0  0
   -1.8490  -27.3550   -9.0290 O   0  0  0  0  0  0  0  0  0  0  0  0
   -1.7520  -27.3330  -12.3680 C   0  0  0  0  0  0  0  0  0  0  0  0
   -2.9350  -28.2420  -12.0270 C   0  0  0  0  0  0  0  0  0  0  0  0
   -3.3830  -29.1180  -13.2030 C   0  0  0  0  0  0  0  0  0  0  0  0
   -2.9860  -28.8440  -14.3710 O   0  0  0  0  0  0  0  0  0  0  0  0
   -4.1390  -30.0840  -12.9500 O   0  0  0  0  0  0  0  0  0  0  0  0
    0.1550  -27.9310   -9.8900 N   0  0  0  0  0  0  0  0  0  0  0  0
    0.5620  -28.6880   -8.6670 C   0  0  0  0  0  0  0  0  0  0  0  0
    2.5062  -24.9004  -17.0136 H   0  0  0  0  0  0  0  0  0  0  0  0
    1.8821  -23.8074  -15.8016 H   0  0  0  0  0  0  0  0  0  0  0  0
    0.7894  -24.5892  -16.9187 H   0  0  0  0  0  0  0  0  0  0  0  0
    3.0937  -26.8249  -16.2014 H   0  0  0  0  0  0  0  0  0  0  0  0
    1.3521  -28.4616  -14.6929 H   0  0  0  0  0  0  0  0  0  0  0  0
    4.3323  -28.7566  -15.1346 H   0  0  0  0  0  0  0  0  0  0  0  0
    3.0869  -29.4060  -16.1741 H   0  0  0  0  0  0  0  0  0  0  0  0
    3.2685  -30.0111  -14.5450 H   0  0  0  0  0  0  0  0  0  0  0  0
    4.2485  -26.6176  -13.7606 H   0  0  0  0  0  0  0  0  0  0  0  0
    4.0216  -27.4390  -11.0399 H   0  0  0  0  0  0  0  0  0  0  0  0
    5.7256  -25.8964  -10.5424 H   0  0  0  0  0  0  0  0  0  0  0  0
    6.0374  -26.7169  -12.1480 H   0  0  0  0  0  0  0  0  0  0  0  0
    5.2084  -24.5471  -13.1249 H   0  0  0  0  0  0  0  0  0  0  0  0
    6.1368  -23.5668  -10.4106 H   0  0  0  0  0  0  0  0  0  0  0  0
    4.4984  -23.4786  -11.0114 H   0  0  0  0  0  0  0  0  0  0  0  0
    5.7620  -22.5479  -11.7797 H   0  0  0  0  0  0  0  0  0  0  0  0
    7.9358  -24.7814  -11.8361 H   0  0  0  0  0  0  0  0  0  0  0  0
    7.5385  -23.7373  -13.1796 H   0  0  0  0  0  0  0  0  0  0  0  0
    7.4819  -25.4727  -13.3753 H   0  0  0  0  0  0  0  0  0  0  0  0
    2.7164  -24.6433  -12.7335 H   0  0  0  0  0  0  0  0  0  0  0  0
    1.8525  -23.2412  -10.4732 H   0  0  0  0  0  0  0  0  0  0  0  0
    0.8665  -23.3198  -13.2665 H   0  0  0  0  0  0  0  0  0  0  0  0
    0.0552  -22.3832  -11.9883 H   0  0  0  0  0  0  0  0  0  0  0  0
    2.9482  -22.0174  -12.5849 H   0  0  0  0  0  0  0  0  0  0  0  0
    0.6733  -20.5219  -13.8715 H   0  0  0  0  0  0  0  0  0  0  0  0
    1.7579  -21.6236  -14.6857 H   0  0  0  0  0  0  0  0  0  0  0  0
    2.3683  -20.1260  -14.0242 H   0  0  0  0  0  0  0  0  0  0  0  0
    0.8980  -20.2654  -11.3294 H   0  0  0  0  0  0  0  0  0  0  0  0
    2.5881  -19.8812  -11.5507 H   0  0  0  0  0  0  0  0  0  0  0  0
    2.1210  -21.1883  -10.4895 H   0  0  0  0  0  0  0  0  0  0  0  0
    0.2751  -25.7597  -12.4266 H   0  0  0  0  0  0  0  0  0  0  0  0
   -2.1219  -25.7789  -10.9688 H   0  0  0  0  0  0  0  0  0  0  0  0
   -2.0320  -26.7067  -13.1891 H   0  0  0  0  0  0  0  0  0  0  0  0
   -0.9251  -27.9691  -12.6058 H   0  0  0  0  0  0  0  0  0  0  0  0
   -2.6508  -28.8802  -11.2166 H   0  0  0  0  0  0  0  0  0  0  0  0
   -3.7586  -27.6089  -11.7706 H   0  0  0  0  0  0  0  0  0  0  0  0
    0.7556  -27.9089  -10.6698 H   0  0  0  0  0  0  0  0  0  0  0  0
   -0.2041  -28.6049   -7.9247 H   0  0  0  0  0  0  0  0  0  0  0  0
    1.4752  -28.2826   -8.2840 H   0  0  0  0  0  0  0  0  0  0  0  0
    0.7063  -29.7184   -8.9169 H   0  0  0  0  0  0  0  0  0  0  0  0
  1 36  1  0  0  0  0
  1 37  1  0  0  0  0
  1 38  1  0  0  0  0
  2  4  1  0  0  0  0
  2  1  1  0  0  0  0
  3  2  2  0  0  0  0
  4 39  1  0  0  0  0
  5  8  1  0  0  0  0
  5  4  1  0  0  0  0
  5 40  1  6  0  0  0
  6  5  1  0  0  0  0
  6  9  1  0  0  0  0
  7  6  2  0  0  0  0
  8 41  1  0  0  0  0
  8 42  1  0  0  0  0
  8 43  1  0  0  0  0
  9 10  1  0  0  0  0
  9 44  1  0  0  0  0
 10 13  1  0  0  0  0
 10 45  1  6  0  0  0
 11 17  1  0  0  0  0
 11 10  1  0  0  0  0
 12 11  2  0  0  0  0
 13 14  1  0  0  0  0
 13 46  1  0  0  0  0
 13 47  1  0  0  0  0
 14 15  1  0  0  0  0
 14 48  1  0  0  0  0
 15 49  1  0  0  0  0
 15 50  1  0  0  0  0
 15 51  1  0  0  0  0
 16 14  1  0  0  0  0
 16 52  1  0  0  0  0
 16 53  1  0  0  0  0
 16 54  1  0  0  0  0
 17 55  1  0  0  0  0
 18 17  1  0  0  0  0
 18 21  1  0  0  0  0
 18 56  1  1  0  0  0
 19 18  1  0  0  0  0
 20 19  2  0  0  0  0
 21 22  1  0  0  0  0
 21 57  1  0  0  0  0
 21 58  1  0  0  0  0
 22 23  1  0  0  0  0
 22 59  1  0  0  0  0
 23 60  1  0  0  0  0
 23 61  1  0  0  0  0
 23 62  1  0  0  0  0
 24 22  1  0  0  0  0
 24 63  1  0  0  0  0
 24 64  1  0  0  0  0
 24 65  1  0  0  0  0
 25 19  1  0  0  0  0
 25 66  1  0  0  0  0
 26 25  1  0  0  0  0
 26 67  1  6  0  0  0
 27 26  1  0  0  0  0
 27 34  1  0  0  0  0
 28 27  2  0  0  0  0
 29 26  1  0  0  0  0
 29 68  1  0  0  0  0
 29 69  1  0  0  0  0
 30 29  1  0  0  0  0
 30 70  1  0  0  0  0
 30 71  1  0  0  0  0
 31 30  1  0  0  0  0
 31 32  1  0  0  0  0
 33 31  2  0  0  0  0
 34 72  1  0  0  0  0
 35 34  1  0  0  0  0
 35 73  1  0  0  0  0
 35 74  1  0  0  0  0
 35 75  1  0  0  0  0
M  CHG  1  32  -1
M  END
>  <MODEL>
       0

$$$$
