selected_4mers/ALVA/395_noH.pdb
 OpenBabel03042517593D

 67 66  0  0  1  0  0  0  0  0999 V2000
  -21.5960    3.0370    7.0150 C   0  0  0  0  0  0  0  0  0  0  0  0
  -21.4070    1.8560    6.0840 C   0  0  0  0  0  0  0  0  0  0  0  0
  -20.5420    1.0190    6.3260 O   0  0  0  0  0  0  0  0  0  0  0  0
  -22.1760    1.8000    4.9930 N   0  0  0  0  0  0  0  0  0  0  0  0
  -21.9510    0.7400    3.9980 C   0  0  2  0  0  0  0  0  0  0  0  0
  -20.5600    0.8450    3.3680 C   0  0  0  0  0  0  0  0  0  0  0  0
  -19.8780   -0.1700    3.1480 O   0  0  0  0  0  0  0  0  0  0  0  0
  -23.0270    0.7570    2.9250 C   0  0  0  0  0  0  0  0  0  0  0  0
  -20.1370    2.0750    3.0700 N   0  0  0  0  0  0  0  0  0  0  0  0
  -18.8210    2.2560    2.4570 C   0  0  2  0  0  0  0  0  0  0  0  0
  -17.7100    1.8890    3.4390 C   0  0  0  0  0  0  0  0  0  0  0  0
  -16.7260    1.2350    3.0750 O   0  0  0  0  0  0  0  0  0  0  0  0
  -18.6570    3.7060    1.9660 C   0  0  0  0  0  0  0  0  0  0  0  0
  -17.2780    4.1290    1.4400 C   0  0  0  0  0  0  0  0  0  0  0  0
  -16.8510    3.3500    0.2100 C   0  0  0  0  0  0  0  0  0  0  0  0
  -17.2620    5.6490    1.1750 C   0  0  0  0  0  0  0  0  0  0  0  0
  -17.8770    2.3150    4.6870 N   0  0  0  0  0  0  0  0  0  0  0  0
  -16.9100    1.9980    5.7340 C   0  0  2  0  0  0  0  0  0  0  0  0
  -16.8510    0.4800    5.9470 C   0  0  0  0  0  0  0  0  0  0  0  0
  -15.7530   -0.0640    6.1140 O   0  0  0  0  0  0  0  0  0  0  0  0
  -17.2350    2.7650    7.0260 C   0  0  0  0  0  0  0  0  0  0  0  0
  -16.2910    2.3500    8.1530 C   0  0  0  0  0  0  0  0  0  0  0  0
  -17.1310    4.2700    6.7730 C   0  0  0  0  0  0  0  0  0  0  0  0
  -18.0040   -0.1890    5.9200 N   0  0  0  0  0  0  0  0  0  0  0  0
  -18.0270   -1.6490    6.0720 C   0  0  2  0  0  0  0  0  0  0  0  0
  -17.2350   -2.3410    4.9490 C   0  0  0  0  0  0  0  0  0  0  0  0
  -16.4580   -3.2700    5.2060 O   0  0  0  0  0  0  0  0  0  0  0  0
  -19.4560   -2.1450    6.1120 C   0  0  0  0  0  0  0  0  0  0  0  0
  -17.4210   -1.8910    3.7090 N   0  0  0  0  0  0  0  0  0  0  0  0
  -16.6520   -2.4090    2.5740 C   0  0  0  0  0  0  0  0  0  0  0  0
  -22.3878    3.6566    6.6489 H   0  0  0  0  0  0  0  0  0  0  0  0
  -20.6902    3.6048    7.0592 H   0  0  0  0  0  0  0  0  0  0  0  0
  -21.8434    2.6833    7.9941 H   0  0  0  0  0  0  0  0  0  0  0  0
  -22.8894    2.4645    4.8556 H   0  0  0  0  0  0  0  0  0  0  0  0
  -22.0069   -0.1957    4.5140 H   0  0  0  0  0  0  0  0  0  0  0  0
  -22.9884    1.6862    2.3959 H   0  0  0  0  0  0  0  0  0  0  0  0
  -23.9882    0.6464    3.3820 H   0  0  0  0  0  0  0  0  0  0  0  0
  -22.8620   -0.0497    2.2416 H   0  0  0  0  0  0  0  0  0  0  0  0
  -20.7064    2.8550    3.2613 H   0  0  0  0  0  0  0  0  0  0  0  0
  -18.7465    1.6007    1.6144 H   0  0  0  0  0  0  0  0  0  0  0  0
  -19.3611    3.8571    1.1746 H   0  0  0  0  0  0  0  0  0  0  0  0
  -18.8097    4.3062    2.8385 H   0  0  0  0  0  0  0  0  0  0  0  0
  -16.5595    3.8966    2.1981 H   0  0  0  0  0  0  0  0  0  0  0  0
  -17.5358    3.5422   -0.5894 H   0  0  0  0  0  0  0  0  0  0  0  0
  -16.8484    2.3036    0.4336 H   0  0  0  0  0  0  0  0  0  0  0  0
  -15.8677    3.6548   -0.0816 H   0  0  0  0  0  0  0  0  0  0  0  0
  -17.9792    5.8865    0.4173 H   0  0  0  0  0  0  0  0  0  0  0  0
  -16.2868    5.9438    0.8480 H   0  0  0  0  0  0  0  0  0  0  0  0
  -17.5090    6.1707    2.0759 H   0  0  0  0  0  0  0  0  0  0  0  0
  -18.6691    2.8554    4.9100 H   0  0  0  0  0  0  0  0  0  0  0  0
  -15.9356    2.3171    5.4281 H   0  0  0  0  0  0  0  0  0  0  0  0
  -18.2346    2.5274    7.3246 H   0  0  0  0  0  0  0  0  0  0  0  0
  -15.2830    2.5785    7.8762 H   0  0  0  0  0  0  0  0  0  0  0  0
  -16.3835    1.2982    8.3266 H   0  0  0  0  0  0  0  0  0  0  0  0
  -16.5453    2.8826    9.0455 H   0  0  0  0  0  0  0  0  0  0  0  0
  -16.1329    4.5133    6.4739 H   0  0  0  0  0  0  0  0  0  0  0  0
  -17.3737    4.8001    7.6702 H   0  0  0  0  0  0  0  0  0  0  0  0
  -17.8137    4.5494    5.9979 H   0  0  0  0  0  0  0  0  0  0  0  0
  -18.8488    0.3013    5.7968 H   0  0  0  0  0  0  0  0  0  0  0  0
  -17.5520   -1.8979    6.9979 H   0  0  0  0  0  0  0  0  0  0  0  0
  -19.9436   -1.9025    5.1910 H   0  0  0  0  0  0  0  0  0  0  0  0
  -19.9733   -1.6772    6.9234 H   0  0  0  0  0  0  0  0  0  0  0  0
  -19.4615   -3.2061    6.2499 H   0  0  0  0  0  0  0  0  0  0  0  0
  -18.0943   -1.1904    3.5505 H   0  0  0  0  0  0  0  0  0  0  0  0
  -15.9697   -3.1582    2.9177 H   0  0  0  0  0  0  0  0  0  0  0  0
  -16.1048   -1.6097    2.1194 H   0  0  0  0  0  0  0  0  0  0  0  0
  -17.3201   -2.8373    1.8563 H   0  0  0  0  0  0  0  0  0  0  0  0
  1 31  1  0  0  0  0
  1 32  1  0  0  0  0
  1 33  1  0  0  0  0
  2  3  2  0  0  0  0
  2  1  1  0  0  0  0
  4  2  1  0  0  0  0
  4 34  1  0  0  0  0
  5  4  1  0  0  0  0
  5 35  1  1  0  0  0
  6  5  1  0  0  0  0
  7  6  2  0  0  0  0
  8  5  1  0  0  0  0
  8 36  1  0  0  0  0
  8 37  1  0  0  0  0
  8 38  1  0  0  0  0
  9  6  1  0  0  0  0
  9 39  1  0  0  0  0
 10  9  1  0  0  0  0
 10 11  1  0  0  0  0
 10 40  1  6  0  0  0
 11 17  1  0  0  0  0
 12 11  2  0  0  0  0
 13 10  1  0  0  0  0
 13 41  1  0  0  0  0
 13 42  1  0  0  0  0
 14 13  1  0  0  0  0
 14 43  1  0  0  0  0
 15 14  1  0  0  0  0
 15 44  1  0  0  0  0
 15 45  1  0  0  0  0
 15 46  1  0  0  0  0
 16 14  1  0  0  0  0
 16 47  1  0  0  0  0
 16 48  1  0  0  0  0
 16 49  1  0  0  0  0
 17 18  1  0  0  0  0
 17 50  1  0  0  0  0
 18 19  1  0  0  0  0
 18 21  1  0  0  0  0
 18 51  1  6  0  0  0
 19 20  2  0  0  0  0
 21 22  1  0  0  0  0
 21 52  1  0  0  0  0
 22 53  1  0  0  0  0
 22 54  1  0  0  0  0
 22 55  1  0  0  0  0
 23 21  1  0  0  0  0
 23 56  1  0  0  0  0
 23 57  1  0  0  0  0
 23 58  1  0  0  0  0
 24 19  1  0  0  0  0
 24 25  1  0  0  0  0
 24 59  1  0  0  0  0
 25 28  1  0  0  0  0
 25 60  1  1  0  0  0
 26 27  2  0  0  0  0
 26 25  1  0  0  0  0
 28 61  1  0  0  0  0
 28 62  1  0  0  0  0
 28 63  1  0  0  0  0
 29 26  1  0  0  0  0
 29 64  1  0  0  0  0
 30 29  1  0  0  0  0
 30 65  1  0  0  0  0
 30 66  1  0  0  0  0
 30 67  1  0  0  0  0
M  END
>  <MODEL>
       0

$$$$
selected_4mers/ALVA/396_noH.pdb
 OpenBabel03042517593D

 67 66  0  0  1  0  0  0  0  0999 V2000
   17.4560   39.5660   18.7670 C   0  0  0  0  0  0  0  0  0  0  0  0
   16.7320   40.8990   18.6080 C   0  0  0  0  0  0  0  0  0  0  0  0
   15.8650   41.0140   17.7730 O   0  0  0  0  0  0  0  0  0  0  0  0
   17.0790   41.9200   19.3760 N   0  0  0  0  0  0  0  0  0  0  0  0
   16.3590   43.2000   19.2640 C   0  0  2  0  0  0  0  0  0  0  0  0
   16.8330   43.9880   18.0470 C   0  0  0  0  0  0  0  0  0  0  0  0
   18.0260   43.9320   17.7090 O   0  0  0  0  0  0  0  0  0  0  0  0
   16.5680   44.0520   20.5310 C   0  0  0  0  0  0  0  0  0  0  0  0
   15.9240   44.7200   17.4210 N   0  0  0  0  0  0  0  0  0  0  0  0
   16.2990   45.8220   16.5010 C   0  0  2  0  0  0  0  0  0  0  0  0
   16.7870   46.9870   17.3310 C   0  0  0  0  0  0  0  0  0  0  0  0
   16.0460   47.4910   18.1780 O   0  0  0  0  0  0  0  0  0  0  0  0
   15.1210   46.2660   15.6460 C   0  0  0  0  0  0  0  0  0  0  0  0
   15.3050   47.4900   14.7150 C   0  0  0  0  0  0  0  0  0  0  0  0
   16.4740   47.2750   13.7480 C   0  0  0  0  0  0  0  0  0  0  0  0
   14.0210   47.7690   13.9460 C   0  0  0  0  0  0  0  0  0  0  0  0
   18.0410   47.4120   17.1410 N   0  0  0  0  0  0  0  0  0  0  0  0
   18.5630   48.4470   18.0090 C   0  0  2  0  0  0  0  0  0  0  0  0
   18.8390   49.7870   17.2840 C   0  0  0  0  0  0  0  0  0  0  0  0
   19.5960   49.8190   16.3180 O   0  0  0  0  0  0  0  0  0  0  0  0
   19.8760   47.9900   18.7350 C   0  0  0  0  0  0  0  0  0  0  0  0
   20.2870   49.0510   19.7000 C   0  0  0  0  0  0  0  0  0  0  0  0
   19.6670   46.6430   19.4360 C   0  0  0  0  0  0  0  0  0  0  0  0
   18.2310   50.8720   17.7760 N   0  0  0  0  0  0  0  0  0  0  0  0
   18.5360   52.2290   17.3700 C   0  0  2  0  0  0  0  0  0  0  0  0
   19.7960   52.6870   18.1230 C   0  0  0  0  0  0  0  0  0  0  0  0
   19.7900   52.7930   19.3570 O   0  0  0  0  0  0  0  0  0  0  0  0
   17.3740   53.1620   17.6940 C   0  0  0  0  0  0  0  0  0  0  0  0
   20.8710   52.8980   17.3890 N   0  0  0  0  0  0  0  0  0  0  0  0
   22.1400   53.3880   17.9410 C   0  0  0  0  0  0  0  0  0  0  0  0
   17.0536   38.8567   18.0742 H   0  0  0  0  0  0  0  0  0  0  0  0
   17.3228   39.2046   19.7653 H   0  0  0  0  0  0  0  0  0  0  0  0
   18.4995   39.7015   18.5730 H   0  0  0  0  0  0  0  0  0  0  0  0
   17.8168   41.8239   20.0207 H   0  0  0  0  0  0  0  0  0  0  0  0
   15.3185   42.9770   19.1523 H   0  0  0  0  0  0  0  0  0  0  0  0
   17.6084   44.2752   20.6431 H   0  0  0  0  0  0  0  0  0  0  0  0
   16.2256   43.5085   21.3868 H   0  0  0  0  0  0  0  0  0  0  0  0
   16.0150   44.9638   20.4429 H   0  0  0  0  0  0  0  0  0  0  0  0
   14.9703   44.5270   17.5707 H   0  0  0  0  0  0  0  0  0  0  0  0
   17.0651   45.4739   15.8400 H   0  0  0  0  0  0  0  0  0  0  0  0
   14.8489   45.4364   15.0274 H   0  0  0  0  0  0  0  0  0  0  0  0
   14.3866   46.5843   16.3560 H   0  0  0  0  0  0  0  0  0  0  0  0
   15.5317   48.3402   15.3238 H   0  0  0  0  0  0  0  0  0  0  0  0
   16.2714   46.4281   13.1262 H   0  0  0  0  0  0  0  0  0  0  0  0
   17.3708   47.1019   14.3054 H   0  0  0  0  0  0  0  0  0  0  0  0
   16.5961   48.1449   13.1371 H   0  0  0  0  0  0  0  0  0  0  0  0
   13.7824   46.9256   13.3323 H   0  0  0  0  0  0  0  0  0  0  0  0
   14.1554   48.6326   13.3287 H   0  0  0  0  0  0  0  0  0  0  0  0
   13.2228   47.9449   14.6365 H   0  0  0  0  0  0  0  0  0  0  0  0
   18.5980   47.0288   16.4253 H   0  0  0  0  0  0  0  0  0  0  0  0
   17.7865   48.6138   18.7260 H   0  0  0  0  0  0  0  0  0  0  0  0
   20.6573   47.8515   18.0172 H   0  0  0  0  0  0  0  0  0  0  0  0
   19.5109   49.1964   20.4221 H   0  0  0  0  0  0  0  0  0  0  0  0
   20.4591   49.9658   19.1723 H   0  0  0  0  0  0  0  0  0  0  0  0
   21.1857   48.7518   20.1976 H   0  0  0  0  0  0  0  0  0  0  0  0
   18.8901   46.7374   20.1657 H   0  0  0  0  0  0  0  0  0  0  0  0
   20.5752   46.3472   19.9183 H   0  0  0  0  0  0  0  0  0  0  0  0
   19.3898   45.9041   18.7134 H   0  0  0  0  0  0  0  0  0  0  0  0
   17.5322   50.7403   18.4569 H   0  0  0  0  0  0  0  0  0  0  0  0
   18.7006   52.2580   16.3131 H   0  0  0  0  0  0  0  0  0  0  0  0
   17.1901   53.1499   18.7480 H   0  0  0  0  0  0  0  0  0  0  0  0
   16.4977   52.8337   17.1752 H   0  0  0  0  0  0  0  0  0  0  0  0
   17.6190   54.1570   17.3861 H   0  0  0  0  0  0  0  0  0  0  0  0
   20.8200   52.7179   16.4225 H   0  0  0  0  0  0  0  0  0  0  0  0
   22.0370   53.5350   18.9958 H   0  0  0  0  0  0  0  0  0  0  0  0
   22.3969   54.3163   17.4749 H   0  0  0  0  0  0  0  0  0  0  0  0
   22.9110   52.6699   17.7546 H   0  0  0  0  0  0  0  0  0  0  0  0
  1 31  1  0  0  0  0
  1 32  1  0  0  0  0
  1 33  1  0  0  0  0
  2  1  1  0  0  0  0
  2  4  1  0  0  0  0
  3  2  2  0  0  0  0
  4 34  1  0  0  0  0
  5  4  1  0  0  0  0
  5  8  1  0  0  0  0
  5 35  1  6  0  0  0
  6  5  1  0  0  0  0
  7  6  2  0  0  0  0
  8 36  1  0  0  0  0
  8 37  1  0  0  0  0
  8 38  1  0  0  0  0
  9  6  1  0  0  0  0
  9 39  1  0  0  0  0
 10 11  1  0  0  0  0
 10  9  1  0  0  0  0
 10 40  1  6  0  0  0
 11 12  2  0  0  0  0
 13 10  1  0  0  0  0
 13 41  1  0  0  0  0
 13 42  1  0  0  0  0
 14 13  1  0  0  0  0
 14 43  1  0  0  0  0
 15 14  1  0  0  0  0
 15 44  1  0  0  0  0
 15 45  1  0  0  0  0
 15 46  1  0  0  0  0
 16 14  1  0  0  0  0
 16 47  1  0  0  0  0
 16 48  1  0  0  0  0
 16 49  1  0  0  0  0
 17 11  1  0  0  0  0
 17 18  1  0  0  0  0
 17 50  1  0  0  0  0
 18 21  1  0  0  0  0
 18 51  1  1  0  0  0
 19 24  1  0  0  0  0
 19 18  1  0  0  0  0
 20 19  2  0  0  0  0
 21 23  1  0  0  0  0
 21 22  1  0  0  0  0
 21 52  1  0  0  0  0
 22 53  1  0  0  0  0
 22 54  1  0  0  0  0
 22 55  1  0  0  0  0
 23 56  1  0  0  0  0
 23 57  1  0  0  0  0
 23 58  1  0  0  0  0
 24 59  1  0  0  0  0
 25 28  1  0  0  0  0
 25 24  1  0  0  0  0
 25 26  1  0  0  0  0
 25 60  1  6  0  0  0
 26 27  2  0  0  0  0
 28 61  1  0  0  0  0
 28 62  1  0  0  0  0
 28 63  1  0  0  0  0
 29 30  1  0  0  0  0
 29 26  1  0  0  0  0
 29 64  1  0  0  0  0
 30 65  1  0  0  0  0
 30 66  1  0  0  0  0
 30 67  1  0  0  0  0
M  END
>  <MODEL>
       0

$$$$
selected_4mers/ALVA/397_noH.pdb
 OpenBabel03042517593D

 67 66  0  0  1  0  0  0  0  0999 V2000
   66.2950   19.3120   33.9440 C   0  0  0  0  0  0  0  0  0  0  0  0
   66.7530   18.1800   33.0270 C   0  0  0  0  0  0  0  0  0  0  0  0
   67.3080   17.1770   33.4880 O   0  0  0  0  0  0  0  0  0  0  0  0
   66.5160   18.3440   31.7290 N   0  0  0  0  0  0  0  0  0  0  0  0
   67.2150   17.5520   30.7210 C   0  0  2  0  0  0  0  0  0  0  0  0
   67.7130   18.4960   29.6380 C   0  0  0  0  0  0  0  0  0  0  0  0
   66.9860   19.3910   29.1990 O   0  0  0  0  0  0  0  0  0  0  0  0
   66.3230   16.4650   30.1340 C   0  0  0  0  0  0  0  0  0  0  0  0
   68.9700   18.3120   29.2500 N   0  0  0  0  0  0  0  0  0  0  0  0
   69.5950   19.1220   28.2140 C   0  0  2  0  0  0  0  0  0  0  0  0
   70.0000   18.1930   27.0830 C   0  0  0  0  0  0  0  0  0  0  0  0
   70.6850   17.1950   27.3160 O   0  0  0  0  0  0  0  0  0  0  0  0
   70.8190   19.8590   28.7790 C   0  0  0  0  0  0  0  0  0  0  0  0
   71.4980   20.9020   27.8840 C   0  0  0  0  0  0  0  0  0  0  0  0
   70.5770   22.1000   27.5970 C   0  0  0  0  0  0  0  0  0  0  0  0
   72.8120   21.3690   28.5090 C   0  0  0  0  0  0  0  0  0  0  0  0
   69.5610   18.5130   25.8660 N   0  0  0  0  0  0  0  0  0  0  0  0
   69.8080   17.6610   24.7030 C   0  0  2  0  0  0  0  0  0  0  0  0
   70.4850   18.4570   23.5960 C   0  0  0  0  0  0  0  0  0  0  0  0
   70.0140   19.5370   23.2260 O   0  0  0  0  0  0  0  0  0  0  0  0
   68.4970   17.0550   24.1400 C   0  0  0  0  0  0  0  0  0  0  0  0
   68.8060   16.1170   22.9700 C   0  0  0  0  0  0  0  0  0  0  0  0
   67.7070   16.3110   25.2360 C   0  0  0  0  0  0  0  0  0  0  0  0
   71.5870   17.9160   23.0730 N   0  0  0  0  0  0  0  0  0  0  0  0
   72.3060   18.5340   21.9620 C   0  0  2  0  0  0  0  0  0  0  0  0
   72.2750   17.6290   20.7430 C   0  0  0  0  0  0  0  0  0  0  0  0
   72.5800   16.4420   20.8440 O   0  0  0  0  0  0  0  0  0  0  0  0
   73.7580   18.8240   22.3580 C   0  0  0  0  0  0  0  0  0  0  0  0
   71.9230   18.2040   19.5950 N   0  0  0  0  0  0  0  0  0  0  0  0
   71.8710   17.4600   18.3380 C   0  0  0  0  0  0  0  0  0  0  0  0
   65.8409   20.0838   33.3584 H   0  0  0  0  0  0  0  0  0  0  0  0
   67.1389   19.7109   34.4670 H   0  0  0  0  0  0  0  0  0  0  0  0
   65.5843   18.9344   34.6491 H   0  0  0  0  0  0  0  0  0  0  0  0
   65.8547   19.0142   31.4412 H   0  0  0  0  0  0  0  0  0  0  0  0
   68.0409   17.0476   31.1775 H   0  0  0  0  0  0  0  0  0  0  0  0
   65.4753   16.9157   29.6616 H   0  0  0  0  0  0  0  0  0  0  0  0
   65.9914   15.8146   30.9163 H   0  0  0  0  0  0  0  0  0  0  0  0
   66.8759   15.9013   29.4119 H   0  0  0  0  0  0  0  0  0  0  0  0
   69.4990   17.6012   29.6791 H   0  0  0  0  0  0  0  0  0  0  0  0
   68.9123   19.8631   27.8539 H   0  0  0  0  0  0  0  0  0  0  0  0
   70.5070   20.3588   29.6722 H   0  0  0  0  0  0  0  0  0  0  0  0
   71.5567   19.0956   28.9126 H   0  0  0  0  0  0  0  0  0  0  0  0
   71.7095   20.4320   26.9463 H   0  0  0  0  0  0  0  0  0  0  0  0
   70.3424   22.5975   28.5148 H   0  0  0  0  0  0  0  0  0  0  0  0
   69.6745   21.7541   27.1380 H   0  0  0  0  0  0  0  0  0  0  0  0
   71.0734   22.7818   26.9385 H   0  0  0  0  0  0  0  0  0  0  0  0
   72.6123   21.8410   29.4483 H   0  0  0  0  0  0  0  0  0  0  0  0
   73.2905   22.0666   27.8538 H   0  0  0  0  0  0  0  0  0  0  0  0
   73.4533   20.5263   28.6625 H   0  0  0  0  0  0  0  0  0  0  0  0
   69.0547   19.3488   25.7461 H   0  0  0  0  0  0  0  0  0  0  0  0
   70.4429   16.8650   25.0320 H   0  0  0  0  0  0  0  0  0  0  0  0
   67.8857   17.8589   23.7865 H   0  0  0  0  0  0  0  0  0  0  0  0
   69.4174   15.3086   23.3128 H   0  0  0  0  0  0  0  0  0  0  0  0
   69.3251   16.6580   22.2066 H   0  0  0  0  0  0  0  0  0  0  0  0
   67.8914   15.7289   22.5729 H   0  0  0  0  0  0  0  0  0  0  0  0
   68.2946   15.4988   25.6101 H   0  0  0  0  0  0  0  0  0  0  0  0
   66.7956   15.9314   24.8234 H   0  0  0  0  0  0  0  0  0  0  0  0
   67.4827   16.9866   26.0348 H   0  0  0  0  0  0  0  0  0  0  0  0
   71.9268   17.0718   23.4487 H   0  0  0  0  0  0  0  0  0  0  0  0
   71.8223   19.4576   21.7213 H   0  0  0  0  0  0  0  0  0  0  0  0
   74.2515   17.9062   22.6010 H   0  0  0  0  0  0  0  0  0  0  0  0
   73.7729   19.4730   23.2086 H   0  0  0  0  0  0  0  0  0  0  0  0
   74.2632   19.2952   21.5409 H   0  0  0  0  0  0  0  0  0  0  0  0
   71.6904   19.1606   19.5927 H   0  0  0  0  0  0  0  0  0  0  0  0
   72.1506   16.4423   18.5141 H   0  0  0  0  0  0  0  0  0  0  0  0
   72.5478   17.8993   17.6352 H   0  0  0  0  0  0  0  0  0  0  0  0
   70.8766   17.4937   17.9445 H   0  0  0  0  0  0  0  0  0  0  0  0
  1 31  1  0  0  0  0
  1 32  1  0  0  0  0
  1 33  1  0  0  0  0
  2  3  2  0  0  0  0
  2  1  1  0  0  0  0
  4  2  1  0  0  0  0
  4 34  1  0  0  0  0
  5  4  1  0  0  0  0
  5 35  1  1  0  0  0
  6  5  1  0  0  0  0
  7  6  2  0  0  0  0
  8  5  1  0  0  0  0
  8 36  1  0  0  0  0
  8 37  1  0  0  0  0
  8 38  1  0  0  0  0
  9  6  1  0  0  0  0
  9 39  1  0  0  0  0
 10 13  1  0  0  0  0
 10  9  1  0  0  0  0
 10 40  1  6  0  0  0
 11 12  2  0  0  0  0
 11 10  1  0  0  0  0
 13 41  1  0  0  0  0
 13 42  1  0  0  0  0
 14 16  1  0  0  0  0
 14 13  1  0  0  0  0
 14 43  1  0  0  0  0
 15 14  1  0  0  0  0
 15 44  1  0  0  0  0
 15 45  1  0  0  0  0
 15 46  1  0  0  0  0
 16 47  1  0  0  0  0
 16 48  1  0  0  0  0
 16 49  1  0  0  0  0
 17 11  1  0  0  0  0
 17 50  1  0  0  0  0
 18 17  1  0  0  0  0
 18 51  1  1  0  0  0
 19 18  1  0  0  0  0
 20 19  2  0  0  0  0
 21 18  1  0  0  0  0
 21 23  1  0  0  0  0
 21 52  1  0  0  0  0
 22 21  1  0  0  0  0
 22 53  1  0  0  0  0
 22 54  1  0  0  0  0
 22 55  1  0  0  0  0
 23 56  1  0  0  0  0
 23 57  1  0  0  0  0
 23 58  1  0  0  0  0
 24 19  1  0  0  0  0
 24 59  1  0  0  0  0
 25 28  1  0  0  0  0
 25 24  1  0  0  0  0
 25 60  1  6  0  0  0
 26 27  2  0  0  0  0
 26 25  1  0  0  0  0
 28 61  1  0  0  0  0
 28 62  1  0  0  0  0
 28 63  1  0  0  0  0
 29 26  1  0  0  0  0
 29 64  1  0  0  0  0
 30 29  1  0  0  0  0
 30 65  1  0  0  0  0
 30 66  1  0  0  0  0
 30 67  1  0  0  0  0
M  END
>  <MODEL>
       0

$$$$
selected_4mers/ALVA/398_noH.pdb
 OpenBabel03042517593D

 67 66  0  0  1  0  0  0  0  0999 V2000
   20.8230   -2.9450   34.8100 C   0  0  0  0  0  0  0  0  0  0  0  0
   21.9060   -2.4840   33.8710 C   0  0  0  0  0  0  0  0  0  0  0  0
   22.5010   -3.3150   33.1700 O   0  0  0  0  0  0  0  0  0  0  0  0
   22.1910   -1.1810   33.8140 N   0  0  0  0  0  0  0  0  0  0  0  0
   23.2590   -0.6110   33.0060 C   0  0  2  0  0  0  0  0  0  0  0  0
   23.2330   -1.1960   31.5870 C   0  0  0  0  0  0  0  0  0  0  0  0
   22.1630   -1.2500   30.9530 O   0  0  0  0  0  0  0  0  0  0  0  0
   24.5940   -0.8560   33.6990 C   0  0  0  0  0  0  0  0  0  0  0  0
   24.3490   -1.6550   31.0230 N   0  0  0  0  0  0  0  0  0  0  0  0
   24.3530   -2.2790   29.7030 C   0  0  2  0  0  0  0  0  0  0  0  0
   24.7270   -3.7330   29.8240 C   0  0  0  0  0  0  0  0  0  0  0  0
   25.3650   -4.3020   28.9240 O   0  0  0  0  0  0  0  0  0  0  0  0
   25.3060   -1.5340   28.7720 C   0  0  0  0  0  0  0  0  0  0  0  0
   24.7840   -0.1820   28.2890 C   0  0  0  0  0  0  0  0  0  0  0  0
   25.8600    0.5250   27.4700 C   0  0  0  0  0  0  0  0  0  0  0  0
   23.5150   -0.3520   27.4960 C   0  0  0  0  0  0  0  0  0  0  0  0
   24.3280   -4.4020   30.9000 N   0  0  0  0  0  0  0  0  0  0  0  0
   24.6710   -5.7830   31.1220 C   0  0  2  0  0  0  0  0  0  0  0  0
   23.5210   -6.6180   30.5890 C   0  0  0  0  0  0  0  0  0  0  0  0
   22.4820   -6.7360   31.2530 O   0  0  0  0  0  0  0  0  0  0  0  0
   24.9030   -6.0880   32.6090 C   0  0  0  0  0  0  0  0  0  0  0  0
   25.3700   -7.5280   32.7720 C   0  0  0  0  0  0  0  0  0  0  0  0
   25.9050   -5.1030   33.2050 C   0  0  0  0  0  0  0  0  0  0  0  0
   23.6520   -7.2050   29.4010 N   0  0  0  0  0  0  0  0  0  0  0  0
   22.5850   -7.9230   28.7200 C   0  0  2  0  0  0  0  0  0  0  0  0
   21.9480   -8.9710   29.6160 C   0  0  0  0  0  0  0  0  0  0  0  0
   20.7240   -9.0820   29.6520 O   0  0  0  0  0  0  0  0  0  0  0  0
   23.1190   -8.5900   27.4460 C   0  0  0  0  0  0  0  0  0  0  0  0
   22.7110   -9.7630   30.3630 N   0  0  0  0  0  0  0  0  0  0  0  0
   22.1250  -10.8630   31.1170 C   0  0  0  0  0  0  0  0  0  0  0  0
   20.7171   -4.0073   34.7382 H   0  0  0  0  0  0  0  0  0  0  0  0
   19.8984   -2.4757   34.5459 H   0  0  0  0  0  0  0  0  0  0  0  0
   21.0839   -2.6796   35.8132 H   0  0  0  0  0  0  0  0  0  0  0  0
   21.6433   -0.5659   34.3534 H   0  0  0  0  0  0  0  0  0  0  0  0
   23.1173    0.4451   32.9093 H   0  0  0  0  0  0  0  0  0  0  0  0
   24.7531   -1.9088   33.8046 H   0  0  0  0  0  0  0  0  0  0  0  0
   24.5832   -0.3981   34.6660 H   0  0  0  0  0  0  0  0  0  0  0  0
   25.3830   -0.4331   33.1129 H   0  0  0  0  0  0  0  0  0  0  0  0
   25.1991   -1.5707   31.5123 H   0  0  0  0  0  0  0  0  0  0  0  0
   23.3716   -2.2227   29.2805 H   0  0  0  0  0  0  0  0  0  0  0  0
   26.2256   -1.3710   29.2943 H   0  0  0  0  0  0  0  0  0  0  0  0
   25.4247   -2.1453   27.9019 H   0  0  0  0  0  0  0  0  0  0  0  0
   24.5518    0.4258   29.1384 H   0  0  0  0  0  0  0  0  0  0  0  0
   26.1054   -0.0694   26.6148 H   0  0  0  0  0  0  0  0  0  0  0  0
   26.7340    0.6619   28.0719 H   0  0  0  0  0  0  0  0  0  0  0  0
   25.4951    1.4783   27.1490 H   0  0  0  0  0  0  0  0  0  0  0  0
   23.7105   -0.9571   26.6355 H   0  0  0  0  0  0  0  0  0  0  0  0
   23.1582    0.6073   27.1839 H   0  0  0  0  0  0  0  0  0  0  0  0
   22.7746   -0.8269   28.1052 H   0  0  0  0  0  0  0  0  0  0  0  0
   23.7775   -3.9366   31.5705 H   0  0  0  0  0  0  0  0  0  0  0  0
   25.5877   -6.0111   30.6195 H   0  0  0  0  0  0  0  0  0  0  0  0
   23.9827   -5.9727   33.1425 H   0  0  0  0  0  0  0  0  0  0  0  0
   26.2910   -7.6661   32.2452 H   0  0  0  0  0  0  0  0  0  0  0  0
   24.6293   -8.1903   32.3750 H   0  0  0  0  0  0  0  0  0  0  0  0
   25.5179   -7.7396   33.8104 H   0  0  0  0  0  0  0  0  0  0  0  0
   26.8403   -5.1919   32.6928 H   0  0  0  0  0  0  0  0  0  0  0  0
   26.0448   -5.3208   34.2432 H   0  0  0  0  0  0  0  0  0  0  0  0
   25.5324   -4.1058   33.0967 H   0  0  0  0  0  0  0  0  0  0  0  0
   24.5276   -7.1497   28.9543 H   0  0  0  0  0  0  0  0  0  0  0  0
   21.8336   -7.2062   28.4619 H   0  0  0  0  0  0  0  0  0  0  0  0
   23.8701   -9.3062   27.7064 H   0  0  0  0  0  0  0  0  0  0  0  0
   23.5429   -7.8458   26.8046 H   0  0  0  0  0  0  0  0  0  0  0  0
   22.3165   -9.0832   26.9384 H   0  0  0  0  0  0  0  0  0  0  0  0
   23.6817   -9.6045   30.4070 H   0  0  0  0  0  0  0  0  0  0  0  0
   21.0680  -10.8852   30.9522 H   0  0  0  0  0  0  0  0  0  0  0  0
   22.3205  -10.7247   32.1598 H   0  0  0  0  0  0  0  0  0  0  0  0
   22.5560  -11.7871   30.7928 H   0  0  0  0  0  0  0  0  0  0  0  0
  1 31  1  0  0  0  0
  1 32  1  0  0  0  0
  1 33  1  0  0  0  0
  2  1  1  0  0  0  0
  3  2  2  0  0  0  0
  4  2  1  0  0  0  0
  4 34  1  0  0  0  0
  5  8  1  0  0  0  0
  5  4  1  0  0  0  0
  5 35  1  6  0  0  0
  6  5  1  0  0  0  0
  7  6  2  0  0  0  0
  8 36  1  0  0  0  0
  8 37  1  0  0  0  0
  8 38  1  0  0  0  0
  9  6  1  0  0  0  0
  9 39  1  0  0  0  0
 10 11  1  0  0  0  0
 10  9  1  0  0  0  0
 10 40  1  6  0  0  0
 11 17  1  0  0  0  0
 12 11  2  0  0  0  0
 13 10  1  0  0  0  0
 13 41  1  0  0  0  0
 13 42  1  0  0  0  0
 14 13  1  0  0  0  0
 14 43  1  0  0  0  0
 15 14  1  0  0  0  0
 15 44  1  0  0  0  0
 15 45  1  0  0  0  0
 15 46  1  0  0  0  0
 16 14  1  0  0  0  0
 16 47  1  0  0  0  0
 16 48  1  0  0  0  0
 16 49  1  0  0  0  0
 17 18  1  0  0  0  0
 17 50  1  0  0  0  0
 18 21  1  0  0  0  0
 18 51  1  6  0  0  0
 19 18  1  0  0  0  0
 19 20  2  0  0  0  0
 21 22  1  0  0  0  0
 21 23  1  0  0  0  0
 21 52  1  0  0  0  0
 22 53  1  0  0  0  0
 22 54  1  0  0  0  0
 22 55  1  0  0  0  0
 23 56  1  0  0  0  0
 23 57  1  0  0  0  0
 23 58  1  0  0  0  0
 24 19  1  0  0  0  0
 24 59  1  0  0  0  0
 25 24  1  0  0  0  0
 25 26  1  0  0  0  0
 25 60  1  6  0  0  0
 26 27  2  0  0  0  0
 26 29  1  0  0  0  0
 28 25  1  0  0  0  0
 28 61  1  0  0  0  0
 28 62  1  0  0  0  0
 28 63  1  0  0  0  0
 29 30  1  0  0  0  0
 29 64  1  0  0  0  0
 30 65  1  0  0  0  0
 30 66  1  0  0  0  0
 30 67  1  0  0  0  0
M  END
>  <MODEL>
       0

$$$$
selected_4mers/ALVA/399_noH.pdb
 OpenBabel03042517593D

 67 66  0  0  1  0  0  0  0  0999 V2000
   49.7560   41.9760    9.3470 C   0  0  0  0  0  0  0  0  0  0  0  0
   49.5820   40.4560    9.3400 C   0  0  0  0  0  0  0  0  0  0  0  0
   48.9760   39.9030   10.2690 O   0  0  0  0  0  0  0  0  0  0  0  0
   50.0750   39.7870    8.2990 N   0  0  0  0  0  0  0  0  0  0  0  0
   50.0450   38.3230    8.2260 C   0  0  2  0  0  0  0  0  0  0  0  0
   51.4220   37.7560    8.5030 C   0  0  0  0  0  0  0  0  0  0  0  0
   52.3820   38.1450    7.8340 O   0  0  0  0  0  0  0  0  0  0  0  0
   49.5780   37.8550    6.8410 C   0  0  0  0  0  0  0  0  0  0  0  0
   51.5090   36.7880    9.4150 N   0  0  0  0  0  0  0  0  0  0  0  0
   52.7800   36.0870    9.7020 C   0  0  2  0  0  0  0  0  0  0  0  0
   52.8860   34.7530    8.9300 C   0  0  0  0  0  0  0  0  0  0  0  0
   52.9460   33.6730    9.5280 O   0  0  0  0  0  0  0  0  0  0  0  0
   52.9250   35.8520   11.2070 C   0  0  0  0  0  0  0  0  0  0  0  0
   52.9150   37.0790   12.1140 C   0  0  0  0  0  0  0  0  0  0  0  0
   53.2600   36.6950   13.5650 C   0  0  0  0  0  0  0  0  0  0  0  0
   53.8630   38.1690   11.5840 C   0  0  0  0  0  0  0  0  0  0  0  0
   52.9030   34.8600    7.5990 N   0  0  0  0  0  0  0  0  0  0  0  0
   52.9090   33.7030    6.7220 C   0  0  2  0  0  0  0  0  0  0  0  0
   54.3050   33.4170    6.1620 C   0  0  0  0  0  0  0  0  0  0  0  0
   54.6570   32.2550    6.0030 O   0  0  0  0  0  0  0  0  0  0  0  0
   51.8670   33.8190    5.5910 C   0  0  0  0  0  0  0  0  0  0  0  0
   50.4570   33.8480    6.1940 C   0  0  0  0  0  0  0  0  0  0  0  0
   52.1100   35.0310    4.7280 C   0  0  0  0  0  0  0  0  0  0  0  0
   55.1110   34.4580    5.9620 N   0  0  0  0  0  0  0  0  0  0  0  0
   56.5430   34.2910    5.6380 C   0  0  2  0  0  0  0  0  0  0  0  0
   57.3140   33.6120    6.7640 C   0  0  0  0  0  0  0  0  0  0  0  0
   56.7800   33.4210    7.8550 O   0  0  0  0  0  0  0  0  0  0  0  0
   57.1690   35.6380    5.3050 C   0  0  0  0  0  0  0  0  0  0  0  0
   58.5780   33.2540    6.5140 N   0  0  0  0  0  0  0  0  0  0  0  0
   59.3320   32.5300    7.5200 C   0  0  0  0  0  0  0  0  0  0  0  0
   50.2990   42.2769    8.4755 H   0  0  0  0  0  0  0  0  0  0  0  0
   50.2964   42.2691   10.2228 H   0  0  0  0  0  0  0  0  0  0  0  0
   48.7943   42.4451    9.3477 H   0  0  0  0  0  0  0  0  0  0  0  0
   50.4728   40.2925    7.5537 H   0  0  0  0  0  0  0  0  0  0  0  0
   49.3555   37.9709    8.9646 H   0  0  0  0  0  0  0  0  0  0  0  0
   50.2633   38.2037    6.0969 H   0  0  0  0  0  0  0  0  0  0  0  0
   48.6035   38.2492    6.6412 H   0  0  0  0  0  0  0  0  0  0  0  0
   49.5416   36.7858    6.8193 H   0  0  0  0  0  0  0  0  0  0  0  0
   50.7005   36.5308    9.9144 H   0  0  0  0  0  0  0  0  0  0  0  0
   53.5812   36.7127    9.3681 H   0  0  0  0  0  0  0  0  0  0  0  0
   53.8536   35.3442   11.3644 H   0  0  0  0  0  0  0  0  0  0  0  0
   52.0505   35.3008   11.4831 H   0  0  0  0  0  0  0  0  0  0  0  0
   51.9242   37.4829   12.1101 H   0  0  0  0  0  0  0  0  0  0  0  0
   54.2484   36.2868   13.6005 H   0  0  0  0  0  0  0  0  0  0  0  0
   52.5602   35.9661   13.9170 H   0  0  0  0  0  0  0  0  0  0  0  0
   53.2110   37.5653   14.1855 H   0  0  0  0  0  0  0  0  0  0  0  0
   54.8658   37.7959   11.5750 H   0  0  0  0  0  0  0  0  0  0  0  0
   53.8080   39.0288   12.2185 H   0  0  0  0  0  0  0  0  0  0  0  0
   53.5744   38.4402   10.5900 H   0  0  0  0  0  0  0  0  0  0  0  0
   52.9118   35.7585    7.1967 H   0  0  0  0  0  0  0  0  0  0  0  0
   52.6259   32.8665    7.3262 H   0  0  0  0  0  0  0  0  0  0  0  0
   51.9614   32.9627    4.9564 H   0  0  0  0  0  0  0  0  0  0  0  0
   50.3584   34.7032    6.8295 H   0  0  0  0  0  0  0  0  0  0  0  0
   50.2952   32.9582    6.7658 H   0  0  0  0  0  0  0  0  0  0  0  0
   49.7337   33.9029    5.4074 H   0  0  0  0  0  0  0  0  0  0  0  0
   52.0253   35.9158    5.3237 H   0  0  0  0  0  0  0  0  0  0  0  0
   51.3852   35.0599    3.9414 H   0  0  0  0  0  0  0  0  0  0  0  0
   53.0920   34.9776    4.3064 H   0  0  0  0  0  0  0  0  0  0  0  0
   54.7411   35.3677    6.0322 H   0  0  0  0  0  0  0  0  0  0  0  0
   56.6032   33.6515    4.7823 H   0  0  0  0  0  0  0  0  0  0  0  0
   57.1101   36.2796    6.1593 H   0  0  0  0  0  0  0  0  0  0  0  0
   56.6423   36.0837    4.4872 H   0  0  0  0  0  0  0  0  0  0  0  0
   58.1947   35.4975    5.0345 H   0  0  0  0  0  0  0  0  0  0  0  0
   58.9949   33.4807    5.6514 H   0  0  0  0  0  0  0  0  0  0  0  0
   58.7187   32.3759    8.3831 H   0  0  0  0  0  0  0  0  0  0  0  0
   60.1972   33.0969    7.7938 H   0  0  0  0  0  0  0  0  0  0  0  0
   59.6362   31.5833    7.1250 H   0  0  0  0  0  0  0  0  0  0  0  0
  1 31  1  0  0  0  0
  1 32  1  0  0  0  0
  1 33  1  0  0  0  0
  2  1  1  0  0  0  0
  2  3  2  0  0  0  0
  4  2  1  0  0  0  0
  4 34  1  0  0  0  0
  5  4  1  0  0  0  0
  5  6  1  0  0  0  0
  5 35  1  1  0  0  0
  6  9  1  0  0  0  0
  7  6  2  0  0  0  0
  8  5  1  0  0  0  0
  8 36  1  0  0  0  0
  8 37  1  0  0  0  0
  8 38  1  0  0  0  0
  9 10  1  0  0  0  0
  9 39  1  0  0  0  0
 10 13  1  0  0  0  0
 10 40  1  6  0  0  0
 11 12  2  0  0  0  0
 11 10  1  0  0  0  0
 13 14  1  0  0  0  0
 13 41  1  0  0  0  0
 13 42  1  0  0  0  0
 14 15  1  0  0  0  0
 14 43  1  0  0  0  0
 15 44  1  0  0  0  0
 15 45  1  0  0  0  0
 15 46  1  0  0  0  0
 16 14  1  0  0  0  0
 16 47  1  0  0  0  0
 16 48  1  0  0  0  0
 16 49  1  0  0  0  0
 17 11  1  0  0  0  0
 17 50  1  0  0  0  0
 18 17  1  0  0  0  0
 18 51  1  1  0  0  0
 19 18  1  0  0  0  0
 20 19  2  0  0  0  0
 21 22  1  0  0  0  0
 21 18  1  0  0  0  0
 21 52  1  0  0  0  0
 22 53  1  0  0  0  0
 22 54  1  0  0  0  0
 22 55  1  0  0  0  0
 23 21  1  0  0  0  0
 23 56  1  0  0  0  0
 23 57  1  0  0  0  0
 23 58  1  0  0  0  0
 24 19  1  0  0  0  0
 24 59  1  0  0  0  0
 25 24  1  0  0  0  0
 25 26  1  0  0  0  0
 25 60  1  6  0  0  0
 26 27  2  0  0  0  0
 28 25  1  0  0  0  0
 28 61  1  0  0  0  0
 28 62  1  0  0  0  0
 28 63  1  0  0  0  0
 29 26  1  0  0  0  0
 29 30  1  0  0  0  0
 29 64  1  0  0  0  0
 30 65  1  0  0  0  0
 30 66  1  0  0  0  0
 30 67  1  0  0  0  0
M  END
>  <MODEL>
       0

$$$$
