selected_4mers/ARAA/170_noH.pdb
 OpenBabel03042517503D

 66 65  0  0  1  0  0  0  0  0999 V2000
  -20.6890  -19.8100   -8.4710 C   0  0  0  0  0  0  0  0  0  0  0  0
  -21.8460  -20.7270   -8.9280 C   0  0  0  0  0  0  0  0  0  0  0  0
  -23.0140  -20.2870   -9.0300 O   0  0  0  0  0  0  0  0  0  0  0  0
  -21.5210  -21.9800   -9.1850 N   0  0  0  0  0  0  0  0  0  0  0  0
  -22.5530  -22.9900   -9.5370 C   0  0  2  0  0  0  0  0  0  0  0  0
  -23.5450  -23.1570   -8.3880 C   0  0  0  0  0  0  0  0  0  0  0  0
  -24.7610  -23.1740   -8.6140 O   0  0  0  0  0  0  0  0  0  0  0  0
  -21.9120  -24.3210   -9.8250 C   0  0  0  0  0  0  0  0  0  0  0  0
  -23.0190  -23.2220   -7.1650 N   0  0  0  0  0  0  0  0  0  0  0  0
  -23.8910  -23.3670   -5.9700 C   0  0  2  0  0  0  0  0  0  0  0  0
  -24.7860  -22.1310   -5.8390 C   0  0  0  0  0  0  0  0  0  0  0  0
  -25.9790  -22.2250   -5.5300 O   0  0  0  0  0  0  0  0  0  0  0  0
  -23.0580  -23.5940   -4.6960 C   0  0  0  0  0  0  0  0  0  0  0  0
  -22.5060  -25.0050   -4.5590 C   0  0  0  0  0  0  0  0  0  0  0  0
  -21.9010  -25.2280   -3.1650 C   0  0  0  0  0  0  0  0  0  0  0  0
  -20.8100  -24.3000   -2.7970 N   0  0  0  0  0  0  0  0  0  0  0  0
  -19.5170  -24.5690   -2.9770 C   0  0  0  0  0  0  0  0  0  0  0  0
  -19.1480  -25.6980   -3.6130 N   0  0  0  0  0  0  0  0  0  0  0  0
  -18.5970  -23.7090   -2.5400 N   0  0  0  0  0  0  0  0  0  0  0  0
  -24.2150  -20.9610   -6.1120 N   0  0  0  0  0  0  0  0  0  0  0  0
  -24.9910  -19.7400   -6.0350 C   0  0  2  0  0  0  0  0  0  0  0  0
  -26.0990  -19.7070   -7.0640 C   0  0  0  0  0  0  0  0  0  0  0  0
  -27.2100  -19.2470   -6.7810 O   0  0  0  0  0  0  0  0  0  0  0  0
  -24.0800  -18.5280   -6.1900 C   0  0  0  0  0  0  0  0  0  0  0  0
  -25.7890  -20.1600   -8.2770 N   0  0  0  0  0  0  0  0  0  0  0  0
  -26.7610  -20.2090   -9.3440 C   0  0  2  0  0  0  0  0  0  0  0  0
  -27.8960  -21.1730   -8.9900 C   0  0  0  0  0  0  0  0  0  0  0  0
  -29.0610  -20.8550   -9.2670 O   0  0  0  0  0  0  0  0  0  0  0  0
  -26.0820  -20.6450  -10.6400 C   0  0  0  0  0  0  0  0  0  0  0  0
  -27.5630  -22.2880   -8.3670 N   0  0  0  0  0  0  0  0  0  0  0  0
  -28.5890  -23.2570   -7.9590 C   0  0  0  0  0  0  0  0  0  0  0  0
  -19.7776  -20.3701   -8.4484 H   0  0  0  0  0  0  0  0  0  0  0  0
  -20.8992  -19.4313   -7.4926 H   0  0  0  0  0  0  0  0  0  0  0  0
  -20.5891  -18.9937   -9.1556 H   0  0  0  0  0  0  0  0  0  0  0  0
  -20.5756  -22.2513   -9.1427 H   0  0  0  0  0  0  0  0  0  0  0  0
  -23.0678  -22.6464  -10.4098 H   0  0  0  0  0  0  0  0  0  0  0  0
  -21.3970  -24.6651   -8.9525 H   0  0  0  0  0  0  0  0  0  0  0  0
  -21.2164  -24.2149  -10.6311 H   0  0  0  0  0  0  0  0  0  0  0  0
  -22.6669  -25.0292  -10.0961 H   0  0  0  0  0  0  0  0  0  0  0  0
  -22.0422  -23.1734   -7.0519 H   0  0  0  0  0  0  0  0  0  0  0  0
  -24.5108  -24.2302   -6.0947 H   0  0  0  0  0  0  0  0  0  0  0  0
  -23.6786  -23.3920   -3.8481 H   0  0  0  0  0  0  0  0  0  0  0  0
  -22.2155  -22.9372   -4.7567 H   0  0  0  0  0  0  0  0  0  0  0  0
  -21.7471  -25.1568   -5.2979 H   0  0  0  0  0  0  0  0  0  0  0  0
  -23.3085  -25.6992   -4.6967 H   0  0  0  0  0  0  0  0  0  0  0  0
  -21.5145  -26.2250   -3.1274 H   0  0  0  0  0  0  0  0  0  0  0  0
  -22.6913  -25.0497   -2.4660 H   0  0  0  0  0  0  0  0  0  0  0  0
  -21.0590  -23.4120   -2.3860 H   0  0  0  0  0  0  0  0  0  0  0  0
  -19.8327  -26.3289   -3.9332 H   0  0  0  0  0  0  0  0  0  0  0  0
  -18.1937  -25.8921   -3.7576 H   0  0  0  0  0  0  0  0  0  0  0  0
  -17.6406  -23.9028   -2.6704 H   0  0  0  0  0  0  0  0  0  0  0  0
  -18.8739  -22.8800   -2.0869 H   0  0  0  0  0  0  0  0  0  0  0  0
  -23.2647  -20.9248   -6.3665 H   0  0  0  0  0  0  0  0  0  0  0  0
  -25.4537  -19.7103   -5.0707 H   0  0  0  0  0  0  0  0  0  0  0  0
  -23.6144  -18.5526   -7.1531 H   0  0  0  0  0  0  0  0  0  0  0  0
  -23.3276  -18.5478   -5.4295 H   0  0  0  0  0  0  0  0  0  0  0  0
  -24.6584  -17.6327   -6.0963 H   0  0  0  0  0  0  0  0  0  0  0  0
  -24.8711  -20.4704   -8.4515 H   0  0  0  0  0  0  0  0  0  0  0  0
  -27.1778  -19.2327   -9.4782 H   0  0  0  0  0  0  0  0  0  0  0  0
  -25.6630  -21.6212  -10.5122 H   0  0  0  0  0  0  0  0  0  0  0  0
  -25.3043  -19.9524  -10.8857 H   0  0  0  0  0  0  0  0  0  0  0  0
  -26.8029  -20.6670  -11.4304 H   0  0  0  0  0  0  0  0  0  0  0  0
  -26.6155  -22.4725   -8.1734 H   0  0  0  0  0  0  0  0  0  0  0  0
  -29.5545  -22.8968   -8.2473 H   0  0  0  0  0  0  0  0  0  0  0  0
  -28.5580  -23.3834   -6.8969 H   0  0  0  0  0  0  0  0  0  0  0  0
  -28.4019  -24.1965   -8.4356 H   0  0  0  0  0  0  0  0  0  0  0  0
  1 32  1  0  0  0  0
  1 33  1  0  0  0  0
  1 34  1  0  0  0  0
  2  1  1  0  0  0  0
  3  2  2  0  0  0  0
  4  2  1  0  0  0  0
  4 35  1  0  0  0  0
  5  4  1  0  0  0  0
  5  6  1  0  0  0  0
  5 36  1  6  0  0  0
  6  9  1  0  0  0  0
  7  6  2  0  0  0  0
  8  5  1  0  0  0  0
  8 37  1  0  0  0  0
  8 38  1  0  0  0  0
  8 39  1  0  0  0  0
  9 10  1  0  0  0  0
  9 40  1  0  0  0  0
 10 11  1  0  0  0  0
 10 13  1  0  0  0  0
 10 41  1  6  0  0  0
 11 12  2  0  0  0  0
 13 14  1  0  0  0  0
 13 42  1  0  0  0  0
 13 43  1  0  0  0  0
 14 15  1  0  0  0  0
 14 44  1  0  0  0  0
 14 45  1  0  0  0  0
 15 16  1  0  0  0  0
 15 46  1  0  0  0  0
 15 47  1  0  0  0  0
 17 16  1  0  0  0  0
 16 48  1  0  0  0  0
 17 19  1  0  0  0  0
 18 17  2  0  0  0  0
 18 49  1  0  0  0  0
 18 50  1  0  0  0  0
 19 51  1  0  0  0  0
 19 52  1  0  0  0  0
 20 21  1  0  0  0  0
 20 11  1  0  0  0  0
 20 53  1  0  0  0  0
 21 54  1  1  0  0  0
 22 23  2  0  0  0  0
 22 21  1  0  0  0  0
 24 21  1  0  0  0  0
 24 55  1  0  0  0  0
 24 56  1  0  0  0  0
 24 57  1  0  0  0  0
 25 22  1  0  0  0  0
 25 58  1  0  0  0  0
 26 27  1  0  0  0  0
 26 25  1  0  0  0  0
 26 59  1  6  0  0  0
 27 30  1  0  0  0  0
 28 27  2  0  0  0  0
 29 26  1  0  0  0  0
 29 60  1  0  0  0  0
 29 61  1  0  0  0  0
 29 62  1  0  0  0  0
 30 31  1  0  0  0  0
 30 63  1  0  0  0  0
 31 64  1  0  0  0  0
 31 65  1  0  0  0  0
 31 66  1  0  0  0  0
M  CHG  1  18  1
M  END
>  <MODEL>
       0

$$$$
selected_4mers/ARAA/171_noH.pdb
 OpenBabel03042517503D

 66 65  0  0  1  0  0  0  0  0999 V2000
   20.4310   27.4720   64.7470 C   0  0  0  0  0  0  0  0  0  0  0  0
   21.2020   27.9850   63.5390 C   0  0  0  0  0  0  0  0  0  0  0  0
   22.1670   27.3430   63.1040 O   0  0  0  0  0  0  0  0  0  0  0  0
   20.7700   29.1150   62.9910 N   0  0  0  0  0  0  0  0  0  0  0  0
   21.6050   29.8350   62.0510 C   0  0  2  0  0  0  0  0  0  0  0  0
   22.8230   30.2970   62.8420 C   0  0  0  0  0  0  0  0  0  0  0  0
   22.7810   30.3530   64.0690 O   0  0  0  0  0  0  0  0  0  0  0  0
   20.8560   31.0250   61.4810 C   0  0  0  0  0  0  0  0  0  0  0  0
   23.9180   30.5980   62.1590 N   0  0  0  0  0  0  0  0  0  0  0  0
   25.1550   30.9270   62.8590 C   0  0  2  0  0  0  0  0  0  0  0  0
   26.0220   31.8820   62.0520 C   0  0  0  0  0  0  0  0  0  0  0  0
   26.0400   31.8410   60.8200 O   0  0  0  0  0  0  0  0  0  0  0  0
   25.9390   29.6400   63.1360 C   0  0  0  0  0  0  0  0  0  0  0  0
   27.1700   29.8030   64.0250 C   0  0  0  0  0  0  0  0  0  0  0  0
   27.7330   28.4310   64.4520 C   0  0  0  0  0  0  0  0  0  0  0  0
   28.2790   27.6400   63.3410 N   0  0  0  0  0  0  0  0  0  0  0  0
   28.5750   26.3430   63.4240 C   0  0  0  0  0  0  0  0  0  0  0  0
   28.3500   25.6820   64.5510 N   0  0  0  0  0  0  0  0  0  0  0  0
   29.0770   25.6960   62.3780 N   0  0  0  0  0  0  0  0  0  0  0  0
   26.7360   32.7500   62.7480 N   0  0  0  0  0  0  0  0  0  0  0  0
   27.7760   33.5480   62.1240 C   0  0  2  0  0  0  0  0  0  0  0  0
   29.0120   33.4410   62.9950 C   0  0  0  0  0  0  0  0  0  0  0  0
   28.9210   33.5250   64.2160 O   0  0  0  0  0  0  0  0  0  0  0  0
   27.3350   34.9930   61.9730 C   0  0  0  0  0  0  0  0  0  0  0  0
   30.1590   33.2070   62.3730 N   0  0  0  0  0  0  0  0  0  0  0  0
   31.4090   33.0620   63.1070 C   0  0  2  0  0  0  0  0  0  0  0  0
   32.4040   34.0910   62.6060 C   0  0  0  0  0  0  0  0  0  0  0  0
   32.7090   34.1470   61.4140 O   0  0  0  0  0  0  0  0  0  0  0  0
   31.9670   31.6690   62.9430 C   0  0  0  0  0  0  0  0  0  0  0  0
   32.9040   34.9150   63.5200 N   0  0  0  0  0  0  0  0  0  0  0  0
   33.7360   36.0390   63.1310 C   0  0  0  0  0  0  0  0  0  0  0  0
   19.6372   28.1512   64.9782 H   0  0  0  0  0  0  0  0  0  0  0  0
   21.0912   27.3963   65.5856 H   0  0  0  0  0  0  0  0  0  0  0  0
   20.0227   26.5079   64.5264 H   0  0  0  0  0  0  0  0  0  0  0  0
   19.8797   29.4645   63.2242 H   0  0  0  0  0  0  0  0  0  0  0  0
   21.8878   29.2182   61.2237 H   0  0  0  0  0  0  0  0  0  0  0  0
   20.5532   31.6711   62.2784 H   0  0  0  0  0  0  0  0  0  0  0  0
   19.9915   30.6822   60.9519 H   0  0  0  0  0  0  0  0  0  0  0  0
   21.4951   31.5610   60.8108 H   0  0  0  0  0  0  0  0  0  0  0  0
   23.8966   30.5996   61.1747 H   0  0  0  0  0  0  0  0  0  0  0  0
   24.8964   31.4117   63.7772 H   0  0  0  0  0  0  0  0  0  0  0  0
   26.2603   29.2403   62.1969 H   0  0  0  0  0  0  0  0  0  0  0  0
   25.2716   28.9968   63.6706 H   0  0  0  0  0  0  0  0  0  0  0  0
   26.8987   30.3568   64.8994 H   0  0  0  0  0  0  0  0  0  0  0  0
   27.9236   30.3216   63.4700 H   0  0  0  0  0  0  0  0  0  0  0  0
   28.5139   28.5944   65.1650 H   0  0  0  0  0  0  0  0  0  0  0  0
   26.9158   27.8727   64.8587 H   0  0  0  0  0  0  0  0  0  0  0  0
   28.4400   28.1080   62.4600 H   0  0  0  0  0  0  0  0  0  0  0  0
   28.5688   24.7240   64.6119 H   0  0  0  0  0  0  0  0  0  0  0  0
   27.9642   26.1491   65.3270 H   0  0  0  0  0  0  0  0  0  0  0  0
   29.2477   26.1779   61.5366 H   0  0  0  0  0  0  0  0  0  0  0  0
   29.2784   24.7346   62.4442 H   0  0  0  0  0  0  0  0  0  0  0  0
   26.5586   32.8576   63.7104 H   0  0  0  0  0  0  0  0  0  0  0  0
   27.9844   33.1870   61.1385 H   0  0  0  0  0  0  0  0  0  0  0  0
   27.1138   35.4010   62.9371 H   0  0  0  0  0  0  0  0  0  0  0  0
   26.4605   35.0366   61.3580 H   0  0  0  0  0  0  0  0  0  0  0  0
   28.1200   35.5597   61.5174 H   0  0  0  0  0  0  0  0  0  0  0  0
   30.1663   33.1294   61.3916 H   0  0  0  0  0  0  0  0  0  0  0  0
   31.2237   33.2219   64.1486 H   0  0  0  0  0  0  0  0  0  0  0  0
   32.1618   31.4825   61.9076 H   0  0  0  0  0  0  0  0  0  0  0  0
   31.2574   30.9554   63.3066 H   0  0  0  0  0  0  0  0  0  0  0  0
   32.8773   31.5817   63.4986 H   0  0  0  0  0  0  0  0  0  0  0  0
   32.7080   34.7616   64.4725 H   0  0  0  0  0  0  0  0  0  0  0  0
   33.8429   36.0521   62.0664 H   0  0  0  0  0  0  0  0  0  0  0  0
   34.7001   35.9431   63.5851 H   0  0  0  0  0  0  0  0  0  0  0  0
   33.2783   36.9504   63.4547 H   0  0  0  0  0  0  0  0  0  0  0  0
  1 32  1  0  0  0  0
  1 33  1  0  0  0  0
  1 34  1  0  0  0  0
  2  1  1  0  0  0  0
  3  2  2  0  0  0  0
  4  2  1  0  0  0  0
  4 35  1  0  0  0  0
  5  4  1  0  0  0  0
  5  6  1  0  0  0  0
  5 36  1  6  0  0  0
  6  9  1  0  0  0  0
  7  6  2  0  0  0  0
  8  5  1  0  0  0  0
  8 37  1  0  0  0  0
  8 38  1  0  0  0  0
  8 39  1  0  0  0  0
  9 10  1  0  0  0  0
  9 40  1  0  0  0  0
 10 11  1  0  0  0  0
 10 13  1  0  0  0  0
 10 41  1  6  0  0  0
 11 12  2  0  0  0  0
 13 14  1  0  0  0  0
 13 42  1  0  0  0  0
 13 43  1  0  0  0  0
 14 15  1  0  0  0  0
 14 44  1  0  0  0  0
 14 45  1  0  0  0  0
 15 16  1  0  0  0  0
 15 46  1  0  0  0  0
 15 47  1  0  0  0  0
 17 16  1  0  0  0  0
 16 48  1  0  0  0  0
 17 19  1  0  0  0  0
 18 17  2  0  0  0  0
 18 49  1  0  0  0  0
 18 50  1  0  0  0  0
 19 51  1  0  0  0  0
 19 52  1  0  0  0  0
 20 21  1  0  0  0  0
 20 11  1  0  0  0  0
 20 53  1  0  0  0  0
 21 54  1  1  0  0  0
 22 23  2  0  0  0  0
 22 21  1  0  0  0  0
 24 21  1  0  0  0  0
 24 55  1  0  0  0  0
 24 56  1  0  0  0  0
 24 57  1  0  0  0  0
 25 22  1  0  0  0  0
 25 58  1  0  0  0  0
 26 27  1  0  0  0  0
 26 25  1  0  0  0  0
 26 59  1  6  0  0  0
 27 30  1  0  0  0  0
 28 27  2  0  0  0  0
 29 26  1  0  0  0  0
 29 60  1  0  0  0  0
 29 61  1  0  0  0  0
 29 62  1  0  0  0  0
 30 31  1  0  0  0  0
 30 63  1  0  0  0  0
 31 64  1  0  0  0  0
 31 65  1  0  0  0  0
 31 66  1  0  0  0  0
M  CHG  1  18  1
M  END
>  <MODEL>
       0

$$$$
selected_4mers/ARAA/172_noH.pdb
 OpenBabel03042517503D

 66 65  0  0  1  0  0  0  0  0999 V2000
   -1.3010    6.6720   66.8250 C   0  0  0  0  0  0  0  0  0  0  0  0
   -1.5870    8.1090   67.2770 C   0  0  0  0  0  0  0  0  0  0  0  0
   -2.0970    8.3490   68.3450 O   0  0  0  0  0  0  0  0  0  0  0  0
   -1.3480    9.0720   66.3820 N   0  0  0  0  0  0  0  0  0  0  0  0
   -1.6560   10.4720   66.6760 C   0  0  2  0  0  0  0  0  0  0  0  0
   -3.1180   10.6330   67.0900 C   0  0  0  0  0  0  0  0  0  0  0  0
   -3.4310   11.3320   68.0510 O   0  0  0  0  0  0  0  0  0  0  0  0
   -1.3410   11.3540   65.4740 C   0  0  0  0  0  0  0  0  0  0  0  0
   -4.0240   10.0060   66.3380 N   0  0  0  0  0  0  0  0  0  0  0  0
   -5.4350   10.1220   66.6260 C   0  0  2  0  0  0  0  0  0  0  0  0
   -5.7850    9.6160   68.0230 C   0  0  0  0  0  0  0  0  0  0  0  0
   -6.4350   10.3170   68.8080 O   0  0  0  0  0  0  0  0  0  0  0  0
   -6.2400    9.3660   65.5660 C   0  0  0  0  0  0  0  0  0  0  0  0
   -7.7250    9.2590   65.8760 C   0  0  0  0  0  0  0  0  0  0  0  0
   -8.4780    8.7010   64.6900 C   0  0  0  0  0  0  0  0  0  0  0  0
   -8.5740    9.6550   63.5880 N   0  0  0  0  0  0  0  0  0  0  0  0
   -9.4620   10.6440   63.5390 C   0  0  0  0  0  0  0  0  0  0  0  0
  -10.3480   10.8140   64.5090 N   0  0  0  0  0  0  0  0  0  0  0  0
   -9.4760   11.4560   62.4960 N   0  0  0  0  0  0  0  0  0  0  0  0
   -5.3510    8.4000   68.3540 N   0  0  0  0  0  0  0  0  0  0  0  0
   -5.6390    7.8450   69.6780 C   0  0  2  0  0  0  0  0  0  0  0  0
   -5.0510    8.7060   70.7900 C   0  0  0  0  0  0  0  0  0  0  0  0
   -5.6850    8.9240   71.8180 O   0  0  0  0  0  0  0  0  0  0  0  0
   -5.1430    6.4080   69.7770 C   0  0  0  0  0  0  0  0  0  0  0  0
   -3.8550    9.2430   70.5740 N   0  0  0  0  0  0  0  0  0  0  0  0
   -3.2330   10.1260   71.5600 C   0  0  2  0  0  0  0  0  0  0  0  0
   -4.0470   11.3930   71.7800 C   0  0  0  0  0  0  0  0  0  0  0  0
   -4.1940   11.8560   72.9090 O   0  0  0  0  0  0  0  0  0  0  0  0
   -1.8120   10.4670   71.1440 C   0  0  0  0  0  0  0  0  0  0  0  0
   -4.5720   11.9690   70.7000 N   0  0  0  0  0  0  0  0  0  0  0  0
   -5.3340   13.2060   70.8010 C   0  0  0  0  0  0  0  0  0  0  0  0
   -0.8499    6.6864   65.8548 H   0  0  0  0  0  0  0  0  0  0  0  0
   -2.2178    6.1219   66.7840 H   0  0  0  0  0  0  0  0  0  0  0  0
   -0.6357    6.2050   67.5208 H   0  0  0  0  0  0  0  0  0  0  0  0
   -0.9579    8.8355   65.5096 H   0  0  0  0  0  0  0  0  0  0  0  0
   -1.0412   10.7825   67.4949 H   0  0  0  0  0  0  0  0  0  0  0  0
   -1.9481   11.0566   64.6446 H   0  0  0  0  0  0  0  0  0  0  0  0
   -0.3080   11.2491   65.2156 H   0  0  0  0  0  0  0  0  0  0  0  0
   -1.5458   12.3755   65.7178 H   0  0  0  0  0  0  0  0  0  0  0  0
   -3.7272    9.4569   65.5766 H   0  0  0  0  0  0  0  0  0  0  0  0
   -5.6891   11.1611   66.5992 H   0  0  0  0  0  0  0  0  0  0  0  0
   -6.1273    9.8750   64.6316 H   0  0  0  0  0  0  0  0  0  0  0  0
   -5.8566    8.3674   65.5404 H   0  0  0  0  0  0  0  0  0  0  0  0
   -7.8629    8.6112   66.7164 H   0  0  0  0  0  0  0  0  0  0  0  0
   -8.1025   10.2359   66.0954 H   0  0  0  0  0  0  0  0  0  0  0  0
   -7.9704    7.8255   64.3425 H   0  0  0  0  0  0  0  0  0  0  0  0
   -9.4731    8.4771   65.0133 H   0  0  0  0  0  0  0  0  0  0  0  0
   -7.9280    9.5580   62.8180 H   0  0  0  0  0  0  0  0  0  0  0  0
  -10.9987   11.5510   64.4577 H   0  0  0  0  0  0  0  0  0  0  0  0
  -10.3558   10.2033   65.2812 H   0  0  0  0  0  0  0  0  0  0  0  0
   -8.8212   11.3369   61.7706 H   0  0  0  0  0  0  0  0  0  0  0  0
  -10.1413   12.1799   62.4446 H   0  0  0  0  0  0  0  0  0  0  0  0
   -4.8335    7.8717   67.7042 H   0  0  0  0  0  0  0  0  0  0  0  0
   -6.7013    7.8443   69.8064 H   0  0  0  0  0  0  0  0  0  0  0  0
   -4.0806    6.3879   69.6509 H   0  0  0  0  0  0  0  0  0  0  0  0
   -5.6041    5.8181   69.0127 H   0  0  0  0  0  0  0  0  0  0  0  0
   -5.3958    6.0087   70.7370 H   0  0  0  0  0  0  0  0  0  0  0  0
   -3.3793    9.0430   69.7356 H   0  0  0  0  0  0  0  0  0  0  0  0
   -3.2041    9.6006   72.4916 H   0  0  0  0  0  0  0  0  0  0  0  0
   -1.8296   10.9932   70.2125 H   0  0  0  0  0  0  0  0  0  0  0  0
   -1.2466    9.5653   71.0337 H   0  0  0  0  0  0  0  0  0  0  0  0
   -1.3591   11.0826   71.8929 H   0  0  0  0  0  0  0  0  0  0  0  0
   -4.4427   11.5513   69.8179 H   0  0  0  0  0  0  0  0  0  0  0  0
   -5.3750   13.5171   71.8239 H   0  0  0  0  0  0  0  0  0  0  0  0
   -6.3272   13.0438   70.4374 H   0  0  0  0  0  0  0  0  0  0  0  0
   -4.8596   13.9659   70.2158 H   0  0  0  0  0  0  0  0  0  0  0  0
  1 32  1  0  0  0  0
  1 33  1  0  0  0  0
  1 34  1  0  0  0  0
  2  1  1  0  0  0  0
  3  2  2  0  0  0  0
  4  2  1  0  0  0  0
  4 35  1  0  0  0  0
  5  4  1  0  0  0  0
  5  6  1  0  0  0  0
  5 36  1  6  0  0  0
  6  9  1  0  0  0  0
  7  6  2  0  0  0  0
  8  5  1  0  0  0  0
  8 37  1  0  0  0  0
  8 38  1  0  0  0  0
  8 39  1  0  0  0  0
  9 10  1  0  0  0  0
  9 40  1  0  0  0  0
 10 11  1  0  0  0  0
 10 13  1  0  0  0  0
 10 41  1  6  0  0  0
 11 12  2  0  0  0  0
 13 14  1  0  0  0  0
 13 42  1  0  0  0  0
 13 43  1  0  0  0  0
 14 15  1  0  0  0  0
 14 44  1  0  0  0  0
 14 45  1  0  0  0  0
 15 16  1  0  0  0  0
 15 46  1  0  0  0  0
 15 47  1  0  0  0  0
 17 16  1  0  0  0  0
 16 48  1  0  0  0  0
 17 19  1  0  0  0  0
 18 17  2  0  0  0  0
 18 49  1  0  0  0  0
 18 50  1  0  0  0  0
 19 51  1  0  0  0  0
 19 52  1  0  0  0  0
 20 21  1  0  0  0  0
 20 11  1  0  0  0  0
 20 53  1  0  0  0  0
 21 54  1  1  0  0  0
 22 23  2  0  0  0  0
 22 21  1  0  0  0  0
 24 21  1  0  0  0  0
 24 55  1  0  0  0  0
 24 56  1  0  0  0  0
 24 57  1  0  0  0  0
 25 22  1  0  0  0  0
 25 58  1  0  0  0  0
 26 27  1  0  0  0  0
 26 25  1  0  0  0  0
 26 59  1  6  0  0  0
 27 30  1  0  0  0  0
 28 27  2  0  0  0  0
 29 26  1  0  0  0  0
 29 60  1  0  0  0  0
 29 61  1  0  0  0  0
 29 62  1  0  0  0  0
 30 31  1  0  0  0  0
 30 63  1  0  0  0  0
 31 64  1  0  0  0  0
 31 65  1  0  0  0  0
 31 66  1  0  0  0  0
M  CHG  1  18  1
M  END
>  <MODEL>
       0

$$$$
selected_4mers/ARAA/173_noH.pdb
 OpenBabel03042517503D

 66 65  0  0  1  0  0  0  0  0999 V2000
   40.2790  135.8680   66.8680 C   0  0  0  0  0  0  0  0  0  0  0  0
   38.7860  135.8110   67.1610 C   0  0  0  0  0  0  0  0  0  0  0  0
   38.3500  135.2890   68.2130 O   0  0  0  0  0  0  0  0  0  0  0  0
   38.0110  136.3460   66.2350 N   0  0  0  0  0  0  0  0  0  0  0  0
   36.5650  136.2620   66.2890 C   0  0  2  0  0  0  0  0  0  0  0  0
   36.0320  134.8260   66.2010 C   0  0  0  0  0  0  0  0  0  0  0  0
   36.7250  133.8500   65.9080 O   0  0  0  0  0  0  0  0  0  0  0  0
   36.0330  137.1370   65.1560 C   0  0  0  0  0  0  0  0  0  0  0  0
   34.7370  134.7490   66.4720 N   0  0  0  0  0  0  0  0  0  0  0  0
   33.9170  133.5520   66.4410 C   0  0  2  0  0  0  0  0  0  0  0  0
   32.4210  133.8710   66.6170 C   0  0  0  0  0  0  0  0  0  0  0  0
   31.5790  133.1240   66.0650 O   0  0  0  0  0  0  0  0  0  0  0  0
   34.4150  132.5800   67.5090 C   0  0  0  0  0  0  0  0  0  0  0  0
   35.5440  131.6360   67.1190 C   0  0  0  0  0  0  0  0  0  0  0  0
   36.8190  131.9350   67.9110 C   0  0  0  0  0  0  0  0  0  0  0  0
   36.8310  131.2650   69.2110 N   0  0  0  0  0  0  0  0  0  0  0  0
   37.2940  131.6100   70.3960 C   0  0  0  0  0  0  0  0  0  0  0  0
   37.9080  132.7660   70.6400 N   0  0  0  0  0  0  0  0  0  0  0  0
   37.1600  130.7750   71.4330 N   0  0  0  0  0  0  0  0  0  0  0  0
   32.0820  134.8890   67.3330 N   0  0  0  0  0  0  0  0  0  0  0  0
   31.2360  135.8430   67.9750 C   0  0  2  0  0  0  0  0  0  0  0  0
   29.7870  135.9780   67.4440 C   0  0  0  0  0  0  0  0  0  0  0  0
   29.0670  134.9580   67.5270 O   0  0  0  0  0  0  0  0  0  0  0  0
   31.9850  137.2000   67.9640 C   0  0  0  0  0  0  0  0  0  0  0  0
   29.3860  137.1220   66.9830 N   0  0  0  0  0  0  0  0  0  0  0  0
   28.4230  138.0160   66.3970 C   0  0  2  0  0  0  0  0  0  0  0  0
   27.0560  137.3630   66.1590 C   0  0  0  0  0  0  0  0  0  0  0  0
   26.8790  136.2290   66.6400 O   0  0  0  0  0  0  0  0  0  0  0  0
   29.0320  138.6480   65.1300 C   0  0  0  0  0  0  0  0  0  0  0  0
   26.1040  138.0180   65.4920 N   0  0  0  0  0  0  0  0  0  0  0  0
   24.6960  137.6430   65.5090 C   0  0  0  0  0  0  0  0  0  0  0  0
   40.4395  136.3501   65.9263 H   0  0  0  0  0  0  0  0  0  0  0  0
   40.6736  134.8741   66.8317 H   0  0  0  0  0  0  0  0  0  0  0  0
   40.7732  136.4199   67.6401 H   0  0  0  0  0  0  0  0  0  0  0  0
   38.4308  136.8191   65.4805 H   0  0  0  0  0  0  0  0  0  0  0  0
   36.2214  136.6092   67.2410 H   0  0  0  0  0  0  0  0  0  0  0  0
   36.3929  136.7655   64.2193 H   0  0  0  0  0  0  0  0  0  0  0  0
   36.3702  138.1431   65.2939 H   0  0  0  0  0  0  0  0  0  0  0  0
   34.9632  137.1155   65.1609 H   0  0  0  0  0  0  0  0  0  0  0  0
   34.2858  135.5884   66.7193 H   0  0  0  0  0  0  0  0  0  0  0  0
   34.0100  133.0955   65.4778 H   0  0  0  0  0  0  0  0  0  0  0  0
   33.5826  131.9790   67.8105 H   0  0  0  0  0  0  0  0  0  0  0  0
   34.8277  133.2012   68.2762 H   0  0  0  0  0  0  0  0  0  0  0  0
   35.7479  131.7495   66.0748 H   0  0  0  0  0  0  0  0  0  0  0  0
   35.2375  130.6347   67.3388 H   0  0  0  0  0  0  0  0  0  0  0  0
   36.8882  132.9913   68.0670 H   0  0  0  0  0  0  0  0  0  0  0  0
   37.6506  131.5699   67.3453 H   0  0  0  0  0  0  0  0  0  0  0  0
   36.3970  130.3530   69.1980 H   0  0  0  0  0  0  0  0  0  0  0  0
   38.0345  133.4190   69.9142 H   0  0  0  0  0  0  0  0  0  0  0  0
   38.2355  132.9678   71.5463 H   0  0  0  0  0  0  0  0  0  0  0  0
   36.7140  129.9059   71.3107 H   0  0  0  0  0  0  0  0  0  0  0  0
   37.5074  131.0298   72.3182 H   0  0  0  0  0  0  0  0  0  0  0  0
   32.9674  135.2136   67.6158 H   0  0  0  0  0  0  0  0  0  0  0  0
   31.0620  135.4783   68.9657 H   0  0  0  0  0  0  0  0  0  0  0  0
   32.1325  137.5178   66.9530 H   0  0  0  0  0  0  0  0  0  0  0  0
   32.9343  137.0873   68.4446 H   0  0  0  0  0  0  0  0  0  0  0  0
   31.4052  137.9317   68.4868 H   0  0  0  0  0  0  0  0  0  0  0  0
   30.1781  137.6954   67.0970 H   0  0  0  0  0  0  0  0  0  0  0  0
   28.2107  138.7976   67.0962 H   0  0  0  0  0  0  0  0  0  0  0  0
   29.2511  137.8797   64.4182 H   0  0  0  0  0  0  0  0  0  0  0  0
   29.9335  139.1639   65.3868 H   0  0  0  0  0  0  0  0  0  0  0  0
   28.3341  139.3391   64.7054 H   0  0  0  0  0  0  0  0  0  0  0  0
   26.3684  138.8009   64.9568 H   0  0  0  0  0  0  0  0  0  0  0  0
   24.5641  136.7806   66.1284 H   0  0  0  0  0  0  0  0  0  0  0  0
   24.3744  137.4196   64.5132 H   0  0  0  0  0  0  0  0  0  0  0  0
   24.1157  138.4535   65.8978 H   0  0  0  0  0  0  0  0  0  0  0  0
  1 32  1  0  0  0  0
  1 33  1  0  0  0  0
  1 34  1  0  0  0  0
  2  1  1  0  0  0  0
  3  2  2  0  0  0  0
  4  2  1  0  0  0  0
  4 35  1  0  0  0  0
  5  4  1  0  0  0  0
  5  6  1  0  0  0  0
  5 36  1  6  0  0  0
  6  9  1  0  0  0  0
  7  6  2  0  0  0  0
  8  5  1  0  0  0  0
  8 37  1  0  0  0  0
  8 38  1  0  0  0  0
  8 39  1  0  0  0  0
  9 10  1  0  0  0  0
  9 40  1  0  0  0  0
 10 11  1  0  0  0  0
 10 13  1  0  0  0  0
 10 41  1  6  0  0  0
 11 12  2  0  0  0  0
 13 14  1  0  0  0  0
 13 42  1  0  0  0  0
 13 43  1  0  0  0  0
 14 15  1  0  0  0  0
 14 44  1  0  0  0  0
 14 45  1  0  0  0  0
 15 16  1  0  0  0  0
 15 46  1  0  0  0  0
 15 47  1  0  0  0  0
 17 16  1  0  0  0  0
 16 48  1  0  0  0  0
 17 19  1  0  0  0  0
 18 17  2  0  0  0  0
 18 49  1  0  0  0  0
 18 50  1  0  0  0  0
 19 51  1  0  0  0  0
 19 52  1  0  0  0  0
 20 21  1  0  0  0  0
 20 11  1  0  0  0  0
 20 53  1  0  0  0  0
 21 54  1  1  0  0  0
 22 23  2  0  0  0  0
 22 21  1  0  0  0  0
 24 21  1  0  0  0  0
 24 55  1  0  0  0  0
 24 56  1  0  0  0  0
 24 57  1  0  0  0  0
 25 22  1  0  0  0  0
 25 58  1  0  0  0  0
 26 27  1  0  0  0  0
 26 25  1  0  0  0  0
 26 59  1  6  0  0  0
 27 30  1  0  0  0  0
 28 27  2  0  0  0  0
 29 26  1  0  0  0  0
 29 60  1  0  0  0  0
 29 61  1  0  0  0  0
 29 62  1  0  0  0  0
 30 31  1  0  0  0  0
 30 63  1  0  0  0  0
 31 64  1  0  0  0  0
 31 65  1  0  0  0  0
 31 66  1  0  0  0  0
M  CHG  1  18  1
M  END
>  <MODEL>
       0

$$$$
selected_4mers/ARAA/174_noH.pdb
 OpenBabel03042517503D

 66 65  0  0  1  0  0  0  0  0999 V2000
   55.6270   32.3460   57.6620 C   0  0  0  0  0  0  0  0  0  0  0  0
   55.0140   33.4870   56.8600 C   0  0  0  0  0  0  0  0  0  0  0  0
   55.5310   33.7980   55.7930 O   0  0  0  0  0  0  0  0  0  0  0  0
   53.9270   34.1180   57.3440 N   0  0  0  0  0  0  0  0  0  0  0  0
   53.3940   35.2960   56.6260 C   0  0  2  0  0  0  0  0  0  0  0  0
   54.4190   36.4200   56.4640 C   0  0  0  0  0  0  0  0  0  0  0  0
   54.5290   36.9940   55.3880 O   0  0  0  0  0  0  0  0  0  0  0  0
   52.0410   35.8360   57.2300 C   0  0  0  0  0  0  0  0  0  0  0  0
   55.1660   36.7330   57.5100 N   0  0  0  0  0  0  0  0  0  0  0  0
   56.2200   37.7840   57.3910 C   0  0  2  0  0  0  0  0  0  0  0  0
   57.3990   37.3100   56.4900 C   0  0  0  0  0  0  0  0  0  0  0  0
   57.9080   38.0630   55.6310 O   0  0  0  0  0  0  0  0  0  0  0  0
   56.7330   38.2570   58.7710 C   0  0  0  0  0  0  0  0  0  0  0  0
   57.8220   39.3690   58.7060 C   0  0  0  0  0  0  0  0  0  0  0  0
   58.6070   39.4310   60.0320 C   0  0  0  0  0  0  0  0  0  0  0  0
   59.8520   40.1850   59.8760 N   0  0  0  0  0  0  0  0  0  0  0  0
   60.8740   40.1960   60.7360 C   0  0  0  0  0  0  0  0  0  0  0  0
   60.8570   39.4580   61.8500 N   0  0  0  0  0  0  0  0  0  0  0  0
   61.9530   40.9310   60.4510 N   0  0  0  0  0  0  0  0  0  0  0  0
   57.8020   36.0520   56.6600 N   0  0  0  0  0  0  0  0  0  0  0  0
   58.8520   35.4620   55.8080 C   0  0  2  0  0  0  0  0  0  0  0  0
   58.4790   35.5890   54.3130 C   0  0  0  0  0  0  0  0  0  0  0  0
   59.3250   35.8970   53.4780 O   0  0  0  0  0  0  0  0  0  0  0  0
   59.0930   34.0110   56.1870 C   0  0  0  0  0  0  0  0  0  0  0  0
   57.2110   35.3670   53.9760 N   0  0  0  0  0  0  0  0  0  0  0  0
   56.7570   35.5870   52.6070 C   0  0  2  0  0  0  0  0  0  0  0  0
   56.7370   37.0810   52.2390 C   0  0  0  0  0  0  0  0  0  0  0  0
   57.0930   37.4300   51.1120 O   0  0  0  0  0  0  0  0  0  0  0  0
   55.3860   34.9410   52.3910 C   0  0  0  0  0  0  0  0  0  0  0  0
   56.3270   37.9430   53.1730 N   0  0  0  0  0  0  0  0  0  0  0  0
   56.3480   39.4100   52.9340 C   0  0  0  0  0  0  0  0  0  0  0  0
   56.4764   31.9586   57.1391 H   0  0  0  0  0  0  0  0  0  0  0  0
   54.9018   31.5696   57.7891 H   0  0  0  0  0  0  0  0  0  0  0  0
   55.9333   32.7084   58.6210 H   0  0  0  0  0  0  0  0  0  0  0  0
   53.4918   33.7984   58.1672 H   0  0  0  0  0  0  0  0  0  0  0  0
   53.1718   34.9345   55.6437 H   0  0  0  0  0  0  0  0  0  0  0  0
   52.2152   36.2098   58.2173 H   0  0  0  0  0  0  0  0  0  0  0  0
   51.3261   35.0409   57.2707 H   0  0  0  0  0  0  0  0  0  0  0  0
   51.6637   36.6236   56.6118 H   0  0  0  0  0  0  0  0  0  0  0  0
   55.0267   36.2720   58.3687 H   0  0  0  0  0  0  0  0  0  0  0  0
   55.7606   38.6269   56.9184 H   0  0  0  0  0  0  0  0  0  0  0  0
   57.1469   37.4127   59.2816 H   0  0  0  0  0  0  0  0  0  0  0  0
   55.8930   38.6815   59.2800 H   0  0  0  0  0  0  0  0  0  0  0  0
   57.3512   40.3137   58.5305 H   0  0  0  0  0  0  0  0  0  0  0  0
   58.5014   39.1434   57.9107 H   0  0  0  0  0  0  0  0  0  0  0  0
   58.8393   38.4351   60.3468 H   0  0  0  0  0  0  0  0  0  0  0  0
   58.0006   39.9258   60.7616 H   0  0  0  0  0  0  0  0  0  0  0  0
   59.9470   40.7480   59.0430 H   0  0  0  0  0  0  0  0  0  0  0  0
   60.0662   38.9135   62.0677 H   0  0  0  0  0  0  0  0  0  0  0  0
   61.6353   39.4588   62.4529 H   0  0  0  0  0  0  0  0  0  0  0  0
   61.9741   41.4776   59.6325 H   0  0  0  0  0  0  0  0  0  0  0  0
   62.7269   40.9259   61.0596 H   0  0  0  0  0  0  0  0  0  0  0  0
   57.3912   35.5051   57.3681 H   0  0  0  0  0  0  0  0  0  0  0  0
   59.7609   36.0035   55.9681 H   0  0  0  0  0  0  0  0  0  0  0  0
   58.1954   33.4488   56.0347 H   0  0  0  0  0  0  0  0  0  0  0  0
   59.3791   33.9541   57.2165 H   0  0  0  0  0  0  0  0  0  0  0  0
   59.8742   33.6080   55.5769 H   0  0  0  0  0  0  0  0  0  0  0  0
   56.5735   35.0514   54.6566 H   0  0  0  0  0  0  0  0  0  0  0  0
   57.4600   35.1185   51.9503 H   0  0  0  0  0  0  0  0  0  0  0  0
   54.6698   35.3985   53.0411 H   0  0  0  0  0  0  0  0  0  0  0  0
   55.4467   33.8948   52.6071 H   0  0  0  0  0  0  0  0  0  0  0  0
   55.0833   35.0782   51.3739 H   0  0  0  0  0  0  0  0  0  0  0  0
   56.0043   37.5999   54.0375 H   0  0  0  0  0  0  0  0  0  0  0  0
   56.7244   39.6060   51.9517 H   0  0  0  0  0  0  0  0  0  0  0  0
   56.9796   39.8804   53.6584 H   0  0  0  0  0  0  0  0  0  0  0  0
   55.3552   39.7996   53.0198 H   0  0  0  0  0  0  0  0  0  0  0  0
  1 32  1  0  0  0  0
  1 33  1  0  0  0  0
  1 34  1  0  0  0  0
  2  1  1  0  0  0  0
  3  2  2  0  0  0  0
  4  2  1  0  0  0  0
  4 35  1  0  0  0  0
  5  4  1  0  0  0  0
  5  6  1  0  0  0  0
  5 36  1  6  0  0  0
  6  9  1  0  0  0  0
  7  6  2  0  0  0  0
  8  5  1  0  0  0  0
  8 37  1  0  0  0  0
  8 38  1  0  0  0  0
  8 39  1  0  0  0  0
  9 10  1  0  0  0  0
  9 40  1  0  0  0  0
 10 11  1  0  0  0  0
 10 13  1  0  0  0  0
 10 41  1  6  0  0  0
 11 12  2  0  0  0  0
 13 14  1  0  0  0  0
 13 42  1  0  0  0  0
 13 43  1  0  0  0  0
 14 15  1  0  0  0  0
 14 44  1  0  0  0  0
 14 45  1  0  0  0  0
 15 16  1  0  0  0  0
 15 46  1  0  0  0  0
 15 47  1  0  0  0  0
 17 16  1  0  0  0  0
 16 48  1  0  0  0  0
 17 19  1  0  0  0  0
 18 17  2  0  0  0  0
 18 49  1  0  0  0  0
 18 50  1  0  0  0  0
 19 51  1  0  0  0  0
 19 52  1  0  0  0  0
 20 21  1  0  0  0  0
 20 11  1  0  0  0  0
 20 53  1  0  0  0  0
 21 54  1  1  0  0  0
 22 23  2  0  0  0  0
 22 21  1  0  0  0  0
 24 21  1  0  0  0  0
 24 55  1  0  0  0  0
 24 56  1  0  0  0  0
 24 57  1  0  0  0  0
 25 22  1  0  0  0  0
 25 58  1  0  0  0  0
 26 27  1  0  0  0  0
 26 25  1  0  0  0  0
 26 59  1  6  0  0  0
 27 30  1  0  0  0  0
 28 27  2  0  0  0  0
 29 26  1  0  0  0  0
 29 60  1  0  0  0  0
 29 61  1  0  0  0  0
 29 62  1  0  0  0  0
 30 31  1  0  0  0  0
 30 63  1  0  0  0  0
 31 64  1  0  0  0  0
 31 65  1  0  0  0  0
 31 66  1  0  0  0  0
M  CHG  1  18  1
M  END
>  <MODEL>
       0

$$$$
