selected_4mers/ASVV/450_noH.pdb
 OpenBabel03042517593D

 65 64  0  0  1  0  0  0  0  0999 V2000
   -2.0430    4.3040   37.0130 C   0  0  0  0  0  0  0  0  0  0  0  0
   -2.9710    3.4570   36.1280 C   0  0  0  0  0  0  0  0  0  0  0  0
   -2.8180    3.3990   34.8960 O   0  0  0  0  0  0  0  0  0  0  0  0
   -3.9580    2.8340   36.7720 N   0  0  0  0  0  0  0  0  0  0  0  0
   -4.9860    2.0350   36.0710 C   0  0  2  0  0  0  0  0  0  0  0  0
   -5.7060    2.8250   34.9860 C   0  0  0  0  0  0  0  0  0  0  0  0
   -5.9940    2.2920   33.9020 O   0  0  0  0  0  0  0  0  0  0  0  0
   -5.9850    1.5020   37.0730 C   0  0  0  0  0  0  0  0  0  0  0  0
   -5.9910    4.1010   35.2620 N   0  0  0  0  0  0  0  0  0  0  0  0
   -6.6520    4.9350   34.2630 C   0  0  2  0  0  0  0  0  0  0  0  0
   -5.7960    5.0960   32.9980 C   0  0  0  0  0  0  0  0  0  0  0  0
   -6.3390    5.0910   31.8880 O   0  0  0  0  0  0  0  0  0  0  0  0
   -7.0470    6.2980   34.8310 C   0  0  0  0  0  0  0  0  0  0  0  0
   -5.9050    7.1510   34.8280 O   0  0  0  0  0  0  0  0  0  0  0  0
   -4.4750    5.2280   33.1480 N   0  0  0  0  0  0  0  0  0  0  0  0
   -3.5970    5.3390   31.9960 C   0  0  2  0  0  0  0  0  0  0  0  0
   -3.5120    3.9780   31.2750 C   0  0  0  0  0  0  0  0  0  0  0  0
   -3.5790    3.9210   30.0660 O   0  0  0  0  0  0  0  0  0  0  0  0
   -2.1660    5.8480   32.3720 C   0  0  0  0  0  0  0  0  0  0  0  0
   -1.3290    6.0950   31.1010 C   0  0  0  0  0  0  0  0  0  0  0  0
   -2.2440    7.1140   33.2120 C   0  0  0  0  0  0  0  0  0  0  0  0
   -3.4160    2.8950   32.0360 N   0  0  0  0  0  0  0  0  0  0  0  0
   -3.4330    1.5380   31.4770 C   0  0  2  0  0  0  0  0  0  0  0  0
   -4.7140    1.2700   30.6520 C   0  0  0  0  0  0  0  0  0  0  0  0
   -4.6330    0.7580   29.5300 O   0  0  0  0  0  0  0  0  0  0  0  0
   -3.2590    0.4760   32.5950 C   0  0  0  0  0  0  0  0  0  0  0  0
   -3.2790   -0.9370   32.0080 C   0  0  0  0  0  0  0  0  0  0  0  0
   -1.9290    0.7170   33.3270 C   0  0  0  0  0  0  0  0  0  0  0  0
   -5.8770    1.6630   31.1790 N   0  0  0  0  0  0  0  0  0  0  0  0
   -7.1430    1.5320   30.4500 C   0  0  0  0  0  0  0  0  0  0  0  0
   -1.2891    4.7597   36.4057 H   0  0  0  0  0  0  0  0  0  0  0  0
   -1.5798    3.6774   37.7463 H   0  0  0  0  0  0  0  0  0  0  0  0
   -2.6140    5.0646   37.5032 H   0  0  0  0  0  0  0  0  0  0  0  0
   -4.0043    2.9088   37.7526 H   0  0  0  0  0  0  0  0  0  0  0  0
   -4.4836    1.2251   35.5845 H   0  0  0  0  0  0  0  0  0  0  0  0
   -6.4805    2.3202   37.5525 H   0  0  0  0  0  0  0  0  0  0  0  0
   -5.4748    0.9143   37.8073 H   0  0  0  0  0  0  0  0  0  0  0  0
   -6.7067    0.8943   36.5684 H   0  0  0  0  0  0  0  0  0  0  0  0
   -5.7549    4.4789   36.1399 H   0  0  0  0  0  0  0  0  0  0  0  0
   -7.5514    4.4264   33.9850 H   0  0  0  0  0  0  0  0  0  0  0  0
   -7.4035    6.1794   35.8329 H   0  0  0  0  0  0  0  0  0  0  0  0
   -7.8214    6.7288   34.2312 H   0  0  0  0  0  0  0  0  0  0  0  0
   -5.2057    6.7570   35.3726 H   0  0  0  0  0  0  0  0  0  0  0  0
   -4.0904    5.2504   34.0540 H   0  0  0  0  0  0  0  0  0  0  0  0
   -4.0197    6.0720   31.3411 H   0  0  0  0  0  0  0  0  0  0  0  0
   -1.6854    5.0899   32.9544 H   0  0  0  0  0  0  0  0  0  0  0  0
   -1.7973    6.8518   30.5070 H   0  0  0  0  0  0  0  0  0  0  0  0
   -1.2623    5.1887   30.5362 H   0  0  0  0  0  0  0  0  0  0  0  0
   -0.3465    6.4159   31.3777 H   0  0  0  0  0  0  0  0  0  0  0  0
   -2.7223    7.8873   32.6480 H   0  0  0  0  0  0  0  0  0  0  0  0
   -1.2560    7.4263   33.4791 H   0  0  0  0  0  0  0  0  0  0  0  0
   -2.8086    6.9188   34.0997 H   0  0  0  0  0  0  0  0  0  0  0  0
   -3.3303    3.0058   33.0105 H   0  0  0  0  0  0  0  0  0  0  0  0
   -2.6024    1.4590   30.8071 H   0  0  0  0  0  0  0  0  0  0  0  0
   -4.0720    0.5664   33.2848 H   0  0  0  0  0  0  0  0  0  0  0  0
   -2.4716   -1.0466   31.3145 H   0  0  0  0  0  0  0  0  0  0  0  0
   -4.2079   -1.1001   31.5026 H   0  0  0  0  0  0  0  0  0  0  0  0
   -3.1715   -1.6523   32.7965 H   0  0  0  0  0  0  0  0  0  0  0  0
   -1.1189    0.6258   32.6340 H   0  0  0  0  0  0  0  0  0  0  0  0
   -1.8147   -0.0069   34.1066 H   0  0  0  0  0  0  0  0  0  0  0  0
   -1.9276    1.6999   33.7499 H   0  0  0  0  0  0  0  0  0  0  0  0
   -5.8845    2.0520   32.0834 H   0  0  0  0  0  0  0  0  0  0  0  0
   -6.9588    1.0943   29.4912 H   0  0  0  0  0  0  0  0  0  0  0  0
   -7.5826    2.4991   30.3220 H   0  0  0  0  0  0  0  0  0  0  0  0
   -7.8111    0.9071   31.0050 H   0  0  0  0  0  0  0  0  0  0  0  0
  1 31  1  0  0  0  0
  1 32  1  0  0  0  0
  1 33  1  0  0  0  0
  2  4  1  0  0  0  0
  2  1  1  0  0  0  0
  3  2  2  0  0  0  0
  4 34  1  0  0  0  0
  5  4  1  0  0  0  0
  5  8  1  0  0  0  0
  5 35  1  6  0  0  0
  6  9  1  0  0  0  0
  6  5  1  0  0  0  0
  7  6  2  0  0  0  0
  8 36  1  0  0  0  0
  8 37  1  0  0  0  0
  8 38  1  0  0  0  0
  9 39  1  0  0  0  0
 10 13  1  0  0  0  0
 10  9  1  0  0  0  0
 10 40  1  6  0  0  0
 11 15  1  0  0  0  0
 11 10  1  0  0  0  0
 12 11  2  0  0  0  0
 13 41  1  0  0  0  0
 13 42  1  0  0  0  0
 14 13  1  0  0  0  0
 14 43  1  0  0  0  0
 15 44  1  0  0  0  0
 16 19  1  0  0  0  0
 16 15  1  0  0  0  0
 16 45  1  6  0  0  0
 17 16  1  0  0  0  0
 17 22  1  0  0  0  0
 18 17  2  0  0  0  0
 19 21  1  0  0  0  0
 19 46  1  0  0  0  0
 20 19  1  0  0  0  0
 20 47  1  0  0  0  0
 20 48  1  0  0  0  0
 20 49  1  0  0  0  0
 21 50  1  0  0  0  0
 21 51  1  0  0  0  0
 21 52  1  0  0  0  0
 22 53  1  0  0  0  0
 23 22  1  0  0  0  0
 23 26  1  0  0  0  0
 23 54  1  6  0  0  0
 24 29  1  0  0  0  0
 24 23  1  0  0  0  0
 25 24  2  0  0  0  0
 26 28  1  0  0  0  0
 26 55  1  0  0  0  0
 27 26  1  0  0  0  0
 27 56  1  0  0  0  0
 27 57  1  0  0  0  0
 27 58  1  0  0  0  0
 28 59  1  0  0  0  0
 28 60  1  0  0  0  0
 28 61  1  0  0  0  0
 29 62  1  0  0  0  0
 30 29  1  0  0  0  0
 30 63  1  0  0  0  0
 30 64  1  0  0  0  0
 30 65  1  0  0  0  0
M  END
>  <MODEL>
       0

$$$$
selected_4mers/ASVV/451_noH.pdb
 OpenBabel03042517593D

 65 64  0  0  1  0  0  0  0  0999 V2000
   28.7980   45.1450    7.4340 C   0  0  0  0  0  0  0  0  0  0  0  0
   28.3210   45.2780    5.9780 C   0  0  0  0  0  0  0  0  0  0  0  0
   29.0100   44.8170    5.0670 O   0  0  0  0  0  0  0  0  0  0  0  0
   27.1600   45.9030    5.7500 N   0  0  0  0  0  0  0  0  0  0  0  0
   26.6330   46.0900    4.4070 C   0  0  2  0  0  0  0  0  0  0  0  0
   27.5310   46.9540    3.5320 C   0  0  0  0  0  0  0  0  0  0  0  0
   27.4410   46.8560    2.3060 O   0  0  0  0  0  0  0  0  0  0  0  0
   25.2500   46.7350    4.4850 C   0  0  0  0  0  0  0  0  0  0  0  0
   28.3240   47.8320    4.1650 N   0  0  0  0  0  0  0  0  0  0  0  0
   29.0270   48.8720    3.4100 C   0  0  2  0  0  0  0  0  0  0  0  0
   30.1030   48.3160    2.4770 C   0  0  0  0  0  0  0  0  0  0  0  0
   30.4990   49.0330    1.5520 O   0  0  0  0  0  0  0  0  0  0  0  0
   29.6270   49.9260    4.3450 C   0  0  0  0  0  0  0  0  0  0  0  0
   30.6960   49.4180    5.1190 O   0  0  0  0  0  0  0  0  0  0  0  0
   30.5530   47.0730    2.6830 N   0  0  0  0  0  0  0  0  0  0  0  0
   31.5470   46.4790    1.7860 C   0  0  2  0  0  0  0  0  0  0  0  0
   30.9230   45.6590    0.6720 C   0  0  0  0  0  0  0  0  0  0  0  0
   31.6550   45.1620   -0.1760 O   0  0  0  0  0  0  0  0  0  0  0  0
   32.6000   45.6460    2.5310 C   0  0  0  0  0  0  0  0  0  0  0  0
   33.4370   46.5350    3.4620 C   0  0  0  0  0  0  0  0  0  0  0  0
   31.9730   44.4880    3.2210 C   0  0  0  0  0  0  0  0  0  0  0  0
   29.6000   45.5340    0.6410 N   0  0  0  0  0  0  0  0  0  0  0  0
   28.9470   44.7850   -0.4320 C   0  0  2  0  0  0  0  0  0  0  0  0
   28.9300   45.6490   -1.6860 C   0  0  0  0  0  0  0  0  0  0  0  0
   28.5030   46.7990   -1.6640 O   0  0  0  0  0  0  0  0  0  0  0  0
   27.5010   44.3980   -0.0300 C   0  0  0  0  0  0  0  0  0  0  0  0
   26.7910   43.7010   -1.1750 C   0  0  0  0  0  0  0  0  0  0  0  0
   27.4880   43.4900    1.2160 C   0  0  0  0  0  0  0  0  0  0  0  0
   29.4160   45.0640   -2.7980 N   0  0  0  0  0  0  0  0  0  0  0  0
   29.4440   45.7560   -4.0840 C   0  0  0  0  0  0  0  0  0  0  0  0
   29.7338   44.6266    7.4568 H   0  0  0  0  0  0  0  0  0  0  0  0
   28.0727   44.5968    7.9983 H   0  0  0  0  0  0  0  0  0  0  0  0
   28.9194   46.1190    7.8599 H   0  0  0  0  0  0  0  0  0  0  0  0
   26.6459   46.2474    6.5157 H   0  0  0  0  0  0  0  0  0  0  0  0
   26.5802   45.1206    3.9571 H   0  0  0  0  0  0  0  0  0  0  0  0
   25.3320   47.7010    4.9379 H   0  0  0  0  0  0  0  0  0  0  0  0
   24.6019   46.1193    5.0730 H   0  0  0  0  0  0  0  0  0  0  0  0
   24.8476   46.8364    3.4987 H   0  0  0  0  0  0  0  0  0  0  0  0
   28.4339   47.7770    5.1418 H   0  0  0  0  0  0  0  0  0  0  0  0
   28.2875   49.3349    2.7906 H   0  0  0  0  0  0  0  0  0  0  0  0
   28.8608   50.2749    5.0054 H   0  0  0  0  0  0  0  0  0  0  0  0
   30.0132   50.7175    3.7373 H   0  0  0  0  0  0  0  0  0  0  0  0
   30.3736   48.6966    5.6815 H   0  0  0  0  0  0  0  0  0  0  0  0
   30.2124   46.5520    3.4457 H   0  0  0  0  0  0  0  0  0  0  0  0
   32.0448   47.3136    1.3382 H   0  0  0  0  0  0  0  0  0  0  0  0
   33.2831   45.2300    1.8202 H   0  0  0  0  0  0  0  0  0  0  0  0
   32.8003   46.9798    4.1980 H   0  0  0  0  0  0  0  0  0  0  0  0
   33.9115   47.3042    2.8892 H   0  0  0  0  0  0  0  0  0  0  0  0
   34.1825   45.9406    3.9476 H   0  0  0  0  0  0  0  0  0  0  0  0
   31.2744   44.8426    3.9497 H   0  0  0  0  0  0  0  0  0  0  0  0
   32.7308   43.9086    3.7057 H   0  0  0  0  0  0  0  0  0  0  0  0
   31.4626   43.8793    2.5041 H   0  0  0  0  0  0  0  0  0  0  0  0
   29.0544   45.9497    1.3472 H   0  0  0  0  0  0  0  0  0  0  0  0
   29.4890   43.8811   -0.6168 H   0  0  0  0  0  0  0  0  0  0  0  0
   26.9829   45.3045    0.2039 H   0  0  0  0  0  0  0  0  0  0  0  0
   27.3048   42.7932   -1.4135 H   0  0  0  0  0  0  0  0  0  0  0  0
   26.7822   44.3416   -2.0320 H   0  0  0  0  0  0  0  0  0  0  0  0
   25.7852   43.4765   -0.8872 H   0  0  0  0  0  0  0  0  0  0  0  0
   28.0031   42.5778    0.9980 H   0  0  0  0  0  0  0  0  0  0  0  0
   26.4763   43.2721    1.4880 H   0  0  0  0  0  0  0  0  0  0  0  0
   27.9756   43.9899    2.0267 H   0  0  0  0  0  0  0  0  0  0  0  0
   29.7621   44.1440   -2.7422 H   0  0  0  0  0  0  0  0  0  0  0  0
   29.0344   46.7378   -3.9697 H   0  0  0  0  0  0  0  0  0  0  0  0
   28.8635   45.2081   -4.7966 H   0  0  0  0  0  0  0  0  0  0  0  0
   30.4546   45.8290   -4.4278 H   0  0  0  0  0  0  0  0  0  0  0  0
  1 31  1  0  0  0  0
  1 32  1  0  0  0  0
  1 33  1  0  0  0  0
  2  1  1  0  0  0  0
  3  2  2  0  0  0  0
  4  2  1  0  0  0  0
  4 34  1  0  0  0  0
  5  8  1  0  0  0  0
  5  4  1  0  0  0  0
  5 35  1  6  0  0  0
  6  9  1  0  0  0  0
  6  5  1  0  0  0  0
  7  6  2  0  0  0  0
  8 36  1  0  0  0  0
  8 37  1  0  0  0  0
  8 38  1  0  0  0  0
  9 39  1  0  0  0  0
 10  9  1  0  0  0  0
 10 13  1  0  0  0  0
 10 40  1  6  0  0  0
 11 15  1  0  0  0  0
 11 10  1  0  0  0  0
 12 11  2  0  0  0  0
 13 14  1  0  0  0  0
 13 41  1  0  0  0  0
 13 42  1  0  0  0  0
 14 43  1  0  0  0  0
 15 44  1  0  0  0  0
 16 19  1  0  0  0  0
 16 15  1  0  0  0  0
 16 45  1  6  0  0  0
 17 16  1  0  0  0  0
 18 17  2  0  0  0  0
 19 21  1  0  0  0  0
 19 20  1  0  0  0  0
 19 46  1  0  0  0  0
 20 47  1  0  0  0  0
 20 48  1  0  0  0  0
 20 49  1  0  0  0  0
 21 50  1  0  0  0  0
 21 51  1  0  0  0  0
 21 52  1  0  0  0  0
 22 17  1  0  0  0  0
 22 53  1  0  0  0  0
 23 26  1  0  0  0  0
 23 22  1  0  0  0  0
 23 54  1  6  0  0  0
 24 25  2  0  0  0  0
 24 23  1  0  0  0  0
 26 28  1  0  0  0  0
 26 55  1  0  0  0  0
 27 26  1  0  0  0  0
 27 56  1  0  0  0  0
 27 57  1  0  0  0  0
 27 58  1  0  0  0  0
 28 59  1  0  0  0  0
 28 60  1  0  0  0  0
 28 61  1  0  0  0  0
 29 24  1  0  0  0  0
 29 62  1  0  0  0  0
 30 29  1  0  0  0  0
 30 63  1  0  0  0  0
 30 64  1  0  0  0  0
 30 65  1  0  0  0  0
M  END
>  <MODEL>
       0

$$$$
selected_4mers/ASVV/452_noH.pdb
 OpenBabel03042517593D

 65 64  0  0  1  0  0  0  0  0999 V2000
   17.2490  -23.0530   65.3040 C   0  0  0  0  0  0  0  0  0  0  0  0
   18.3360  -22.1520   65.8960 C   0  0  0  0  0  0  0  0  0  0  0  0
   19.1740  -22.6020   66.6540 O   0  0  0  0  0  0  0  0  0  0  0  0
   18.3240  -20.8660   65.5230 N   0  0  0  0  0  0  0  0  0  0  0  0
   19.3170  -19.8770   65.9900 C   0  0  2  0  0  0  0  0  0  0  0  0
   18.9430  -19.2400   67.3230 C   0  0  0  0  0  0  0  0  0  0  0  0
   19.7990  -18.6570   67.9790 O   0  0  0  0  0  0  0  0  0  0  0  0
   19.4300  -18.7630   64.9490 C   0  0  0  0  0  0  0  0  0  0  0  0
   17.6780  -19.2920   67.7180 N   0  0  0  0  0  0  0  0  0  0  0  0
   17.2330  -18.4990   68.8590 C   0  0  2  0  0  0  0  0  0  0  0  0
   16.9600  -19.3450   70.0910 C   0  0  0  0  0  0  0  0  0  0  0  0
   16.8160  -18.8010   71.1950 O   0  0  0  0  0  0  0  0  0  0  0  0
   16.0150  -17.6340   68.4920 C   0  0  0  0  0  0  0  0  0  0  0  0
   14.8320  -18.4420   68.3610 O   0  0  0  0  0  0  0  0  0  0  0  0
   16.9040  -20.6720   69.9100 N   0  0  0  0  0  0  0  0  0  0  0  0
   16.6810  -21.5550   71.0590 C   0  0  2  0  0  0  0  0  0  0  0  0
   17.7500  -21.4400   72.1680 C   0  0  0  0  0  0  0  0  0  0  0  0
   17.4360  -21.5420   73.3620 O   0  0  0  0  0  0  0  0  0  0  0  0
   16.3900  -23.0200   70.6510 C   0  0  0  0  0  0  0  0  0  0  0  0
   17.4860  -23.5730   69.8530 C   0  0  0  0  0  0  0  0  0  0  0  0
   16.0680  -23.9320   71.8910 C   0  0  0  0  0  0  0  0  0  0  0  0
   18.9990  -21.2190   71.7920 N   0  0  0  0  0  0  0  0  0  0  0  0
   20.0700  -21.1570   72.7800 C   0  0  2  0  0  0  0  0  0  0  0  0
   19.8550  -20.0920   73.8950 C   0  0  0  0  0  0  0  0  0  0  0  0
   19.7380  -20.4700   75.0780 O   0  0  0  0  0  0  0  0  0  0  0  0
   21.4690  -21.1240   72.0820 C   0  0  0  0  0  0  0  0  0  0  0  0
   22.5940  -20.8270   73.1280 C   0  0  0  0  0  0  0  0  0  0  0  0
   21.7480  -22.4760   71.3890 C   0  0  0  0  0  0  0  0  0  0  0  0
   19.7980  -18.7670   73.5340 N   0  0  0  0  0  0  0  0  0  0  0  0
   19.5750  -17.7130   74.5320 C   0  0  0  0  0  0  0  0  0  0  0  0
   16.6138  -22.4740   64.6667 H   0  0  0  0  0  0  0  0  0  0  0  0
   16.6680  -23.4782   66.0956 H   0  0  0  0  0  0  0  0  0  0  0  0
   17.7055  -23.8365   64.7360 H   0  0  0  0  0  0  0  0  0  0  0  0
   17.6180  -20.5645   64.9066 H   0  0  0  0  0  0  0  0  0  0  0  0
   20.2410  -20.3996   66.1240 H   0  0  0  0  0  0  0  0  0  0  0  0
   18.4853  -18.2706   64.8496 H   0  0  0  0  0  0  0  0  0  0  0  0
   19.7143  -19.1828   64.0068 H   0  0  0  0  0  0  0  0  0  0  0  0
   20.1695  -18.0559   65.2621 H   0  0  0  0  0  0  0  0  0  0  0  0
   17.0376  -19.8671   67.2401 H   0  0  0  0  0  0  0  0  0  0  0  0
   18.0417  -17.8461   69.1134 H   0  0  0  0  0  0  0  0  0  0  0  0
   15.8584  -16.9057   69.2600 H   0  0  0  0  0  0  0  0  0  0  0  0
   16.2065  -17.1540   67.5551 H   0  0  0  0  0  0  0  0  0  0  0  0
   14.6468  -18.8834   69.2047 H   0  0  0  0  0  0  0  0  0  0  0  0
   17.0123  -21.0525   69.0085 H   0  0  0  0  0  0  0  0  0  0  0  0
   15.7832  -21.1863   71.5094 H   0  0  0  0  0  0  0  0  0  0  0  0
   15.5106  -23.0062   70.0417 H   0  0  0  0  0  0  0  0  0  0  0  0
   18.3790  -23.5972   70.4419 H   0  0  0  0  0  0  0  0  0  0  0  0
   17.6440  -22.9597   68.9906 H   0  0  0  0  0  0  0  0  0  0  0  0
   17.2359  -24.5662   69.5433 H   0  0  0  0  0  0  0  0  0  0  0  0
   16.9230  -23.9763   72.5328 H   0  0  0  0  0  0  0  0  0  0  0  0
   15.8230  -24.9178   71.5547 H   0  0  0  0  0  0  0  0  0  0  0  0
   15.2389  -23.5224   72.4292 H   0  0  0  0  0  0  0  0  0  0  0  0
   19.2071  -21.0954   70.8377 H   0  0  0  0  0  0  0  0  0  0  0  0
   20.0395  -22.0680   73.3403 H   0  0  0  0  0  0  0  0  0  0  0  0
   21.4634  -20.3455   71.3479 H   0  0  0  0  0  0  0  0  0  0  0  0
   22.6073  -21.6008   73.8669 H   0  0  0  0  0  0  0  0  0  0  0  0
   22.4025  -19.8862   73.6003 H   0  0  0  0  0  0  0  0  0  0  0  0
   23.5415  -20.7909   72.6322 H   0  0  0  0  0  0  0  0  0  0  0  0
   21.7543  -23.2570   72.1203 H   0  0  0  0  0  0  0  0  0  0  0  0
   22.6993  -22.4369   70.9007 H   0  0  0  0  0  0  0  0  0  0  0  0
   20.9837  -22.6706   70.6659 H   0  0  0  0  0  0  0  0  0  0  0  0
   19.9089  -18.5196   72.5876 H   0  0  0  0  0  0  0  0  0  0  0  0
   19.4766  -18.1549   75.5015 H   0  0  0  0  0  0  0  0  0  0  0  0
   18.6803  -17.1777   74.2916 H   0  0  0  0  0  0  0  0  0  0  0  0
   20.4056  -17.0385   74.5301 H   0  0  0  0  0  0  0  0  0  0  0  0
  1  2  1  0  0  0  0
  1 31  1  0  0  0  0
  1 32  1  0  0  0  0
  1 33  1  0  0  0  0
  2  3  2  0  0  0  0
  4  2  1  0  0  0  0
  4  5  1  0  0  0  0
  4 34  1  0  0  0  0
  5  6  1  0  0  0  0
  5 35  1  1  0  0  0
  6  9  1  0  0  0  0
  6  7  2  0  0  0  0
  8  5  1  0  0  0  0
  8 36  1  0  0  0  0
  8 37  1  0  0  0  0
  8 38  1  0  0  0  0
  9 10  1  0  0  0  0
  9 39  1  0  0  0  0
 10 11  1  0  0  0  0
 10 40  1  1  0  0  0
 11 12  2  0  0  0  0
 13 10  1  0  0  0  0
 13 41  1  0  0  0  0
 13 42  1  0  0  0  0
 14 13  1  0  0  0  0
 14 43  1  0  0  0  0
 15 11  1  0  0  0  0
 15 16  1  0  0  0  0
 15 44  1  0  0  0  0
 16 17  1  0  0  0  0
 16 45  1  1  0  0  0
 17 18  2  0  0  0  0
 19 16  1  0  0  0  0
 19 21  1  0  0  0  0
 19 46  1  0  0  0  0
 20 19  1  0  0  0  0
 20 47  1  0  0  0  0
 20 48  1  0  0  0  0
 20 49  1  0  0  0  0
 21 50  1  0  0  0  0
 21 51  1  0  0  0  0
 21 52  1  0  0  0  0
 22 17  1  0  0  0  0
 22 23  1  0  0  0  0
 22 53  1  0  0  0  0
 23 24  1  0  0  0  0
 23 54  1  1  0  0  0
 24 25  2  0  0  0  0
 26 23  1  0  0  0  0
 26 27  1  0  0  0  0
 26 55  1  0  0  0  0
 27 56  1  0  0  0  0
 27 57  1  0  0  0  0
 27 58  1  0  0  0  0
 28 26  1  0  0  0  0
 28 59  1  0  0  0  0
 28 60  1  0  0  0  0
 28 61  1  0  0  0  0
 29 24  1  0  0  0  0
 29 30  1  0  0  0  0
 29 62  1  0  0  0  0
 30 63  1  0  0  0  0
 30 64  1  0  0  0  0
 30 65  1  0  0  0  0
M  END
>  <MODEL>
       0

$$$$
selected_4mers/ASVV/453_noH.pdb
 OpenBabel03042517593D

 65 64  0  0  1  0  0  0  0  0999 V2000
   17.4540   36.2070   -1.8080 C   0  0  0  0  0  0  0  0  0  0  0  0
   16.3560   35.6060   -2.6620 C   0  0  0  0  0  0  0  0  0  0  0  0
   15.1830   35.9280   -2.5010 O   0  0  0  0  0  0  0  0  0  0  0  0
   16.7400   34.7160   -3.5630 N   0  0  0  0  0  0  0  0  0  0  0  0
   15.7900   34.1060   -4.4840 C   0  0  2  0  0  0  0  0  0  0  0  0
   16.0690   32.6210   -4.5930 C   0  0  0  0  0  0  0  0  0  0  0  0
   17.1370   32.2140   -5.0530 O   0  0  0  0  0  0  0  0  0  0  0  0
   15.9000   34.7590   -5.8520 C   0  0  0  0  0  0  0  0  0  0  0  0
   15.1100   31.8060   -4.1780 N   0  0  0  0  0  0  0  0  0  0  0  0
   15.2430   30.3640   -4.3180 C   0  0  2  0  0  0  0  0  0  0  0  0
   14.2710   29.8880   -5.3800 C   0  0  0  0  0  0  0  0  0  0  0  0
   13.0810   30.1970   -5.3170 O   0  0  0  0  0  0  0  0  0  0  0  0
   14.9640   29.6540   -2.9890 C   0  0  0  0  0  0  0  0  0  0  0  0
   15.9210   30.0090   -1.9990 O   0  0  0  0  0  0  0  0  0  0  0  0
   14.7850   29.1590   -6.3660 N   0  0  0  0  0  0  0  0  0  0  0  0
   13.9410   28.5350   -7.3740 C   0  0  2  0  0  0  0  0  0  0  0  0
   13.9210   27.0480   -7.0810 C   0  0  0  0  0  0  0  0  0  0  0  0
   14.9650   26.4370   -6.8990 O   0  0  0  0  0  0  0  0  0  0  0  0
   14.4880   28.7730   -8.7800 C   0  0  0  0  0  0  0  0  0  0  0  0
   13.4850   28.3050   -9.8290 C   0  0  0  0  0  0  0  0  0  0  0  0
   14.8270   30.2440   -8.9660 C   0  0  0  0  0  0  0  0  0  0  0  0
   12.7370   26.4640   -7.0170 N   0  0  0  0  0  0  0  0  0  0  0  0
   12.6200   25.0660   -6.6390 C   0  0  2  0  0  0  0  0  0  0  0  0
   12.1250   24.2350   -7.8090 C   0  0  0  0  0  0  0  0  0  0  0  0
   11.1650   24.6150   -8.4840 O   0  0  0  0  0  0  0  0  0  0  0  0
   11.6480   24.8960   -5.4320 C   0  0  0  0  0  0  0  0  0  0  0  0
   11.4190   23.4390   -5.1440 C   0  0  0  0  0  0  0  0  0  0  0  0
   12.2130   25.6130   -4.1980 C   0  0  0  0  0  0  0  0  0  0  0  0
   12.7960   23.1080   -8.0320 N   0  0  0  0  0  0  0  0  0  0  0  0
   12.4160   22.1340   -9.0470 C   0  0  0  0  0  0  0  0  0  0  0  0
   18.3985   35.7995   -2.1027 H   0  0  0  0  0  0  0  0  0  0  0  0
   17.2718   35.9771   -0.7790 H   0  0  0  0  0  0  0  0  0  0  0  0
   17.4671   37.2688   -1.9393 H   0  0  0  0  0  0  0  0  0  0  0  0
   17.6894   34.4602   -3.6121 H   0  0  0  0  0  0  0  0  0  0  0  0
   14.7970   34.2502   -4.1125 H   0  0  0  0  0  0  0  0  0  0  0  0
   16.8898   34.6213   -6.2344 H   0  0  0  0  0  0  0  0  0  0  0  0
   15.6934   35.8053   -5.7654 H   0  0  0  0  0  0  0  0  0  0  0  0
   15.1942   34.3101   -6.5193 H   0  0  0  0  0  0  0  0  0  0  0  0
   14.2967   32.1813   -3.7695 H   0  0  0  0  0  0  0  0  0  0  0  0
   16.2463   30.1293   -4.6067 H   0  0  0  0  0  0  0  0  0  0  0  0
   15.0011   28.5961   -3.1452 H   0  0  0  0  0  0  0  0  0  0  0  0
   13.9965   29.9538   -2.6442 H   0  0  0  0  0  0  0  0  0  0  0  0
   16.8059   29.7442   -2.2951 H   0  0  0  0  0  0  0  0  0  0  0  0
   15.7608   29.0384   -6.4154 H   0  0  0  0  0  0  0  0  0  0  0  0
   12.9581   28.9563   -7.3372 H   0  0  0  0  0  0  0  0  0  0  0  0
   15.3847   28.2026   -8.9048 H   0  0  0  0  0  0  0  0  0  0  0  0
   12.5763   28.8606   -9.7266 H   0  0  0  0  0  0  0  0  0  0  0  0
   13.2837   27.2633   -9.6902 H   0  0  0  0  0  0  0  0  0  0  0  0
   13.8912   28.4627  -10.8063 H   0  0  0  0  0  0  0  0  0  0  0  0
   13.9414   30.8322   -8.8448 H   0  0  0  0  0  0  0  0  0  0  0  0
   15.2252   30.3969   -9.9473 H   0  0  0  0  0  0  0  0  0  0  0  0
   15.5529   30.5377   -8.2368 H   0  0  0  0  0  0  0  0  0  0  0  0
   11.9263   26.9814   -7.2276 H   0  0  0  0  0  0  0  0  0  0  0  0
   13.5923   24.7239   -6.3518 H   0  0  0  0  0  0  0  0  0  0  0  0
   10.7057   25.3378   -5.6806 H   0  0  0  0  0  0  0  0  0  0  0  0
   12.3495   22.9746   -4.8923 H   0  0  0  0  0  0  0  0  0  0  0  0
   11.0065   22.9648   -6.0100 H   0  0  0  0  0  0  0  0  0  0  0  0
   10.7379   23.3401   -4.3247 H   0  0  0  0  0  0  0  0  0  0  0  0
   13.1568   25.1822   -3.9362 H   0  0  0  0  0  0  0  0  0  0  0  0
   11.5322   25.5047   -3.3797 H   0  0  0  0  0  0  0  0  0  0  0  0
   12.3439   26.6519   -4.4179 H   0  0  0  0  0  0  0  0  0  0  0  0
   13.5913   22.9223   -7.4822 H   0  0  0  0  0  0  0  0  0  0  0  0
   11.5392   22.4742   -9.5573 H   0  0  0  0  0  0  0  0  0  0  0  0
   12.2143   21.1926   -8.5801 H   0  0  0  0  0  0  0  0  0  0  0  0
   13.2155   22.0200   -9.7489 H   0  0  0  0  0  0  0  0  0  0  0  0
  1 31  1  0  0  0  0
  1 32  1  0  0  0  0
  1 33  1  0  0  0  0
  2  3  2  0  0  0  0
  2  1  1  0  0  0  0
  4  2  1  0  0  0  0
  4 34  1  0  0  0  0
  5  4  1  0  0  0  0
  5 35  1  1  0  0  0
  6  5  1  0  0  0  0
  6  9  1  0  0  0  0
  7  6  2  0  0  0  0
  8  5  1  0  0  0  0
  8 36  1  0  0  0  0
  8 37  1  0  0  0  0
  8 38  1  0  0  0  0
  9 39  1  0  0  0  0
 10  9  1  0  0  0  0
 10 13  1  0  0  0  0
 10 40  1  6  0  0  0
 11 12  2  0  0  0  0
 11 10  1  0  0  0  0
 13 14  1  0  0  0  0
 13 41  1  0  0  0  0
 13 42  1  0  0  0  0
 14 43  1  0  0  0  0
 15 11  1  0  0  0  0
 15 44  1  0  0  0  0
 16 17  1  0  0  0  0
 16 15  1  0  0  0  0
 16 45  1  1  0  0  0
 17 22  1  0  0  0  0
 17 18  2  0  0  0  0
 19 16  1  0  0  0  0
 19 46  1  0  0  0  0
 20 19  1  0  0  0  0
 20 47  1  0  0  0  0
 20 48  1  0  0  0  0
 20 49  1  0  0  0  0
 21 19  1  0  0  0  0
 21 50  1  0  0  0  0
 21 51  1  0  0  0  0
 21 52  1  0  0  0  0
 22 23  1  0  0  0  0
 22 53  1  0  0  0  0
 23 26  1  0  0  0  0
 23 54  1  1  0  0  0
 24 23  1  0  0  0  0
 25 24  2  0  0  0  0
 26 27  1  0  0  0  0
 26 28  1  0  0  0  0
 26 55  1  0  0  0  0
 27 56  1  0  0  0  0
 27 57  1  0  0  0  0
 27 58  1  0  0  0  0
 28 59  1  0  0  0  0
 28 60  1  0  0  0  0
 28 61  1  0  0  0  0
 29 24  1  0  0  0  0
 29 62  1  0  0  0  0
 30 29  1  0  0  0  0
 30 63  1  0  0  0  0
 30 64  1  0  0  0  0
 30 65  1  0  0  0  0
M  END
>  <MODEL>
       0

$$$$
selected_4mers/ASVV/454_noH.pdb
 OpenBabel03042517593D

 65 64  0  0  1  0  0  0  0  0999 V2000
  -23.9670  -10.2080   26.6130 C   0  0  0  0  0  0  0  0  0  0  0  0
  -25.0160  -10.5010   25.5360 C   0  0  0  0  0  0  0  0  0  0  0  0
  -26.1490  -10.8970   25.8620 O   0  0  0  0  0  0  0  0  0  0  0  0
  -24.6540  -10.3410   24.2660 N   0  0  0  0  0  0  0  0  0  0  0  0
  -25.6260  -10.4820   23.1790 C   0  0  2  0  0  0  0  0  0  0  0  0
  -25.8900  -11.9480   22.8730 C   0  0  0  0  0  0  0  0  0  0  0  0
  -25.0090  -12.8010   23.1050 O   0  0  0  0  0  0  0  0  0  0  0  0
  -25.1310   -9.7580   21.9030 C   0  0  0  0  0  0  0  0  0  0  0  0
  -27.1050  -12.2310   22.3830 N   0  0  0  0  0  0  0  0  0  0  0  0
  -27.4190  -13.4880   21.7130 C   0  0  2  0  0  0  0  0  0  0  0  0
  -26.9980  -13.2720   20.2510 C   0  0  0  0  0  0  0  0  0  0  0  0
  -27.5110  -12.3590   19.5810 O   0  0  0  0  0  0  0  0  0  0  0  0
  -28.9290  -13.8110   21.7650 C   0  0  0  0  0  0  0  0  0  0  0  0
  -29.3920  -14.1290   23.0640 O   0  0  0  0  0  0  0  0  0  0  0  0
  -26.0920  -14.1100   19.7450 N   0  0  0  0  0  0  0  0  0  0  0  0
  -25.5680  -13.9320   18.3930 C   0  0  2  0  0  0  0  0  0  0  0  0
  -26.1660  -14.9470   17.4170 C   0  0  0  0  0  0  0  0  0  0  0  0
  -26.3990  -16.1100   17.7750 O   0  0  0  0  0  0  0  0  0  0  0  0
  -23.9960  -13.9580   18.3550 C   0  0  0  0  0  0  0  0  0  0  0  0
  -23.4600  -13.7350   16.9380 C   0  0  0  0  0  0  0  0  0  0  0  0
  -23.4110  -12.9310   19.3200 C   0  0  0  0  0  0  0  0  0  0  0  0
  -26.4410  -14.4840   16.2000 N   0  0  0  0  0  0  0  0  0  0  0  0
  -26.8360  -15.3530   15.1100 C   0  0  2  0  0  0  0  0  0  0  0  0
  -25.6540  -15.3200   14.1410 C   0  0  0  0  0  0  0  0  0  0  0  0
  -25.2440  -14.2480   13.6700 O   0  0  0  0  0  0  0  0  0  0  0  0
  -28.1540  -14.9180   14.4420 C   0  0  0  0  0  0  0  0  0  0  0  0
  -28.5100  -15.8890   13.2710 C   0  0  0  0  0  0  0  0  0  0  0  0
  -29.3050  -14.8540   15.4900 C   0  0  0  0  0  0  0  0  0  0  0  0
  -25.0890  -16.4910   13.8890 N   0  0  0  0  0  0  0  0  0  0  0  0
  -23.8950  -16.6120   13.0700 C   0  0  0  0  0  0  0  0  0  0  0  0
  -23.0606   -9.8803   26.1483 H   0  0  0  0  0  0  0  0  0  0  0  0
  -23.7773  -11.0971   27.1773 H   0  0  0  0  0  0  0  0  0  0  0  0
  -24.3303   -9.4420   27.2657 H   0  0  0  0  0  0  0  0  0  0  0  0
  -23.7176  -10.1243   24.0531 H   0  0  0  0  0  0  0  0  0  0  0  0
  -26.5412  -10.0296   23.4993 H   0  0  0  0  0  0  0  0  0  0  0  0
  -24.2153  -10.2025   21.5732 H   0  0  0  0  0  0  0  0  0  0  0  0
  -24.9670   -8.7233   22.1209 H   0  0  0  0  0  0  0  0  0  0  0  0
  -25.8686   -9.8478   21.1331 H   0  0  0  0  0  0  0  0  0  0  0  0
  -27.8184  -11.5595   22.4798 H   0  0  0  0  0  0  0  0  0  0  0  0
  -26.9159  -14.3057   22.1855 H   0  0  0  0  0  0  0  0  0  0  0  0
  -29.1194  -14.6458   21.1234 H   0  0  0  0  0  0  0  0  0  0  0  0
  -29.4509  -12.9314   21.4505 H   0  0  0  0  0  0  0  0  0  0  0  0
  -28.9386  -14.9250   23.3830 H   0  0  0  0  0  0  0  0  0  0  0  0
  -25.7705  -14.8623   20.2927 H   0  0  0  0  0  0  0  0  0  0  0  0
  -25.8719  -12.9573   18.0729 H   0  0  0  0  0  0  0  0  0  0  0  0
  -23.6854  -14.9327   18.6686 H   0  0  0  0  0  0  0  0  0  0  0  0
  -23.7543  -12.7656   16.5938 H   0  0  0  0  0  0  0  0  0  0  0  0
  -23.8590  -14.4820   16.2841 H   0  0  0  0  0  0  0  0  0  0  0  0
  -22.3921  -13.8016   16.9460 H   0  0  0  0  0  0  0  0  0  0  0  0
  -23.7120  -11.9487   19.0210 H   0  0  0  0  0  0  0  0  0  0  0  0
  -22.3431  -12.9965   19.3063 H   0  0  0  0  0  0  0  0  0  0  0  0
  -23.7677  -13.1276   20.3095 H   0  0  0  0  0  0  0  0  0  0  0  0
  -26.3736  -13.5159   16.0343 H   0  0  0  0  0  0  0  0  0  0  0  0
  -27.0445  -16.3440   15.4556 H   0  0  0  0  0  0  0  0  0  0  0  0
  -28.0277  -13.9361   14.0360 H   0  0  0  0  0  0  0  0  0  0  0  0
  -28.6409  -16.8788   13.6557 H   0  0  0  0  0  0  0  0  0  0  0  0
  -27.7169  -15.8875   12.5528 H   0  0  0  0  0  0  0  0  0  0  0  0
  -29.4160  -15.5657   12.8025 H   0  0  0  0  0  0  0  0  0  0  0  0
  -29.4550  -15.8246   15.9147 H   0  0  0  0  0  0  0  0  0  0  0  0
  -30.2058  -14.5311   15.0112 H   0  0  0  0  0  0  0  0  0  0  0  0
  -29.0447  -14.1624   16.2638 H   0  0  0  0  0  0  0  0  0  0  0  0
  -25.4909  -17.3056   14.2688 H   0  0  0  0  0  0  0  0  0  0  0  0
  -23.5898  -15.6414   12.7388 H   0  0  0  0  0  0  0  0  0  0  0  0
  -24.1056  -17.2286   12.2213 H   0  0  0  0  0  0  0  0  0  0  0  0
  -23.1102  -17.0551   13.6468 H   0  0  0  0  0  0  0  0  0  0  0  0
  1 31  1  0  0  0  0
  1 32  1  0  0  0  0
  1 33  1  0  0  0  0
  2  3  2  0  0  0  0
  2  1  1  0  0  0  0
  4  2  1  0  0  0  0
  4 34  1  0  0  0  0
  5  4  1  0  0  0  0
  5 35  1  1  0  0  0
  6  7  2  0  0  0  0
  6  5  1  0  0  0  0
  8  5  1  0  0  0  0
  8 36  1  0  0  0  0
  8 37  1  0  0  0  0
  8 38  1  0  0  0  0
  9  6  1  0  0  0  0
  9 39  1  0  0  0  0
 10 13  1  0  0  0  0
 10  9  1  0  0  0  0
 10 40  1  1  0  0  0
 11 10  1  0  0  0  0
 12 11  2  0  0  0  0
 13 14  1  0  0  0  0
 13 41  1  0  0  0  0
 13 42  1  0  0  0  0
 14 43  1  0  0  0  0
 15 11  1  0  0  0  0
 15 44  1  0  0  0  0
 16 15  1  0  0  0  0
 16 45  1  6  0  0  0
 17 18  2  0  0  0  0
 17 16  1  0  0  0  0
 19 16  1  0  0  0  0
 19 21  1  0  0  0  0
 19 46  1  0  0  0  0
 20 19  1  0  0  0  0
 20 47  1  0  0  0  0
 20 48  1  0  0  0  0
 20 49  1  0  0  0  0
 21 50  1  0  0  0  0
 21 51  1  0  0  0  0
 21 52  1  0  0  0  0
 22 17  1  0  0  0  0
 22 53  1  0  0  0  0
 23 22  1  0  0  0  0
 23 54  1  1  0  0  0
 24 23  1  0  0  0  0
 25 24  2  0  0  0  0
 26 23  1  0  0  0  0
 26 28  1  0  0  0  0
 26 55  1  0  0  0  0
 27 26  1  0  0  0  0
 27 56  1  0  0  0  0
 27 57  1  0  0  0  0
 27 58  1  0  0  0  0
 28 59  1  0  0  0  0
 28 60  1  0  0  0  0
 28 61  1  0  0  0  0
 29 24  1  0  0  0  0
 29 62  1  0  0  0  0
 30 29  1  0  0  0  0
 30 63  1  0  0  0  0
 30 64  1  0  0  0  0
 30 65  1  0  0  0  0
M  END
>  <MODEL>
       0

$$$$
