selected_4mers/AVAA/555_noH.pdb
 OpenBabel03042518233D

 58 57  0  0  1  0  0  0  0  0999 V2000
    0.3230   31.3160    8.4500 C   0  0  0  0  0  0  0  0  0  0  0  0
    1.0630   31.2760    9.7780 C   0  0  0  0  0  0  0  0  0  0  0  0
    1.9230   32.1270   10.0150 O   0  0  0  0  0  0  0  0  0  0  0  0
    0.7160   30.3290   10.6500 N   0  0  0  0  0  0  0  0  0  0  0  0
    1.3990   30.2280   11.9440 C   0  0  2  0  0  0  0  0  0  0  0  0
    2.8580   29.8190   11.7260 C   0  0  0  0  0  0  0  0  0  0  0  0
    3.7360   30.3650   12.4040 O   0  0  0  0  0  0  0  0  0  0  0  0
    0.6600   29.2150   12.7760 C   0  0  0  0  0  0  0  0  0  0  0  0
    3.1270   28.9190   10.8280 N   0  0  0  0  0  0  0  0  0  0  0  0
    4.5120   28.5350   10.5210 C   0  0  2  0  0  0  0  0  0  0  0  0
    5.2690   29.7070    9.9270 C   0  0  0  0  0  0  0  0  0  0  0  0
    6.4160   29.9510   10.3060 O   0  0  0  0  0  0  0  0  0  0  0  0
    4.5590   27.2620    9.6280 C   0  0  0  0  0  0  0  0  0  0  0  0
    5.9830   27.0130    9.1370 C   0  0  0  0  0  0  0  0  0  0  0  0
    4.0240   26.0790   10.3740 C   0  0  0  0  0  0  0  0  0  0  0  0
    4.6390   30.4550    9.0080 N   0  0  0  0  0  0  0  0  0  0  0  0
    5.3160   31.5980    8.4210 C   0  0  2  0  0  0  0  0  0  0  0  0
    5.6690   32.6410    9.4740 C   0  0  0  0  0  0  0  0  0  0  0  0
    6.7730   33.2010    9.4670 O   0  0  0  0  0  0  0  0  0  0  0  0
    4.4510   32.2180    7.3240 C   0  0  0  0  0  0  0  0  0  0  0  0
    4.7430   32.9080   10.3820 N   0  0  0  0  0  0  0  0  0  0  0  0
    5.0060   33.8940   11.4480 C   0  0  2  0  0  0  0  0  0  0  0  0
    6.1520   33.4400   12.3620 C   0  0  0  0  0  0  0  0  0  0  0  0
    6.9690   34.2390   12.7770 O   0  0  0  0  0  0  0  0  0  0  0  0
    3.7420   34.1270   12.2470 C   0  0  0  0  0  0  0  0  0  0  0  0
    6.1580   32.1280   12.6710 N   0  0  0  0  0  0  0  0  0  0  0  0
    7.2160   31.5740   13.5670 C   0  0  0  0  0  0  0  0  0  0  0  0
    0.7022   32.1200    7.8545 H   0  0  0  0  0  0  0  0  0  0  0  0
   -0.7214   31.4658    8.6280 H   0  0  0  0  0  0  0  0  0  0  0  0
    0.4675   30.3903    7.9331 H   0  0  0  0  0  0  0  0  0  0  0  0
   -0.0021   29.6945   10.4242 H   0  0  0  0  0  0  0  0  0  0  0  0
    1.4030   31.1690   12.4534 H   0  0  0  0  0  0  0  0  0  0  0  0
    0.6544   28.2728   12.2689 H   0  0  0  0  0  0  0  0  0  0  0  0
   -0.3467   29.5443   12.9279 H   0  0  0  0  0  0  0  0  0  0  0  0
    1.1468   29.1076   13.7228 H   0  0  0  0  0  0  0  0  0  0  0  0
    2.3878   28.4855   10.3434 H   0  0  0  0  0  0  0  0  0  0  0  0
    5.0092   28.2751   11.4321 H   0  0  0  0  0  0  0  0  0  0  0  0
    3.9367   27.4159    8.7713 H   0  0  0  0  0  0  0  0  0  0  0  0
    6.6274   26.8556    9.9766 H   0  0  0  0  0  0  0  0  0  0  0  0
    6.3222   27.8621    8.5812 H   0  0  0  0  0  0  0  0  0  0  0  0
    5.9974   26.1468    8.5090 H   0  0  0  0  0  0  0  0  0  0  0  0
    4.6279   25.8999   11.2389 H   0  0  0  0  0  0  0  0  0  0  0  0
    4.0454   25.2177    9.7395 H   0  0  0  0  0  0  0  0  0  0  0  0
    3.0164   26.2741   10.6767 H   0  0  0  0  0  0  0  0  0  0  0  0
    3.7210   30.2297    8.7327 H   0  0  0  0  0  0  0  0  0  0  0  0
    6.2315   31.2512    7.9891 H   0  0  0  0  0  0  0  0  0  0  0  0
    3.5330   32.5674    7.7484 H   0  0  0  0  0  0  0  0  0  0  0  0
    4.2409   31.4817    6.5766 H   0  0  0  0  0  0  0  0  0  0  0  0
    4.9735   33.0389    6.8790 H   0  0  0  0  0  0  0  0  0  0  0  0
    3.8743   32.4462   10.3458 H   0  0  0  0  0  0  0  0  0  0  0  0
    5.3087   34.8137   10.9925 H   0  0  0  0  0  0  0  0  0  0  0  0
    3.4352   33.2098   12.7046 H   0  0  0  0  0  0  0  0  0  0  0  0
    2.9682   34.4772   11.5963 H   0  0  0  0  0  0  0  0  0  0  0  0
    3.9290   34.8587   13.0050 H   0  0  0  0  0  0  0  0  0  0  0  0
    5.4634   31.5339   12.3052 H   0  0  0  0  0  0  0  0  0  0  0  0
    7.8784   32.3597   13.8650 H   0  0  0  0  0  0  0  0  0  0  0  0
    7.7680   30.8212   13.0440 H   0  0  0  0  0  0  0  0  0  0  0  0
    6.7598   31.1440   14.4341 H   0  0  0  0  0  0  0  0  0  0  0  0
  1  2  1  0  0  0  0
  1 28  1  0  0  0  0
  1 29  1  0  0  0  0
  1 30  1  0  0  0  0
  2  3  2  0  0  0  0
  2  4  1  0  0  0  0
  4  5  1  0  0  0  0
  4 31  1  0  0  0  0
  5  8  1  0  0  0  0
  5 32  1  1  0  0  0
  6  5  1  0  0  0  0
  6  7  2  0  0  0  0
  8 33  1  0  0  0  0
  8 34  1  0  0  0  0
  8 35  1  0  0  0  0
  9  6  1  0  0  0  0
  9 36  1  0  0  0  0
 10  9  1  0  0  0  0
 10 37  1  1  0  0  0
 11 12  2  0  0  0  0
 11 10  1  0  0  0  0
 13 15  1  0  0  0  0
 13 10  1  0  0  0  0
 13 38  1  0  0  0  0
 14 13  1  0  0  0  0
 14 39  1  0  0  0  0
 14 40  1  0  0  0  0
 14 41  1  0  0  0  0
 15 42  1  0  0  0  0
 15 43  1  0  0  0  0
 15 44  1  0  0  0  0
 16 11  1  0  0  0  0
 16 45  1  0  0  0  0
 17 16  1  0  0  0  0
 17 18  1  0  0  0  0
 17 46  1  6  0  0  0
 18 21  1  0  0  0  0
 19 18  2  0  0  0  0
 20 17  1  0  0  0  0
 20 47  1  0  0  0  0
 20 48  1  0  0  0  0
 20 49  1  0  0  0  0
 21 22  1  0  0  0  0
 21 50  1  0  0  0  0
 22 25  1  0  0  0  0
 22 23  1  0  0  0  0
 22 51  1  6  0  0  0
 23 26  1  0  0  0  0
 23 24  2  0  0  0  0
 25 52  1  0  0  0  0
 25 53  1  0  0  0  0
 25 54  1  0  0  0  0
 26 27  1  0  0  0  0
 26 55  1  0  0  0  0
 27 56  1  0  0  0  0
 27 57  1  0  0  0  0
 27 58  1  0  0  0  0
M  END
>  <MODEL>
       0

$$$$
selected_4mers/AVAA/556_noH.pdb
 OpenBabel03042518233D

 58 57  0  0  1  0  0  0  0  0999 V2000
   45.7810    9.1020    8.4030 C   0  0  0  0  0  0  0  0  0  0  0  0
   45.1200    7.8330    8.9070 C   0  0  0  0  0  0  0  0  0  0  0  0
   43.8560    7.6910    8.8330 O   0  0  0  0  0  0  0  0  0  0  0  0
   45.9290    6.8860    9.3810 N   0  0  0  0  0  0  0  0  0  0  0  0
   45.3970    5.6190    9.8310 C   0  0  2  0  0  0  0  0  0  0  0  0
   44.4790    5.7880   11.0750 C   0  0  0  0  0  0  0  0  0  0  0  0
   43.3630    5.2770   11.1230 O   0  0  0  0  0  0  0  0  0  0  0  0
   46.5330    4.6410   10.0960 C   0  0  0  0  0  0  0  0  0  0  0  0
   44.9830    6.5050   12.0680 N   0  0  0  0  0  0  0  0  0  0  0  0
   44.1910    6.8400   13.2400 C   0  0  2  0  0  0  0  0  0  0  0  0
   42.9060    7.5830   12.8830 C   0  0  0  0  0  0  0  0  0  0  0  0
   41.8540    7.2780   13.3930 O   0  0  0  0  0  0  0  0  0  0  0  0
   45.0240    7.5870   14.3020 C   0  0  0  0  0  0  0  0  0  0  0  0
   44.1350    8.1560   15.3880 C   0  0  0  0  0  0  0  0  0  0  0  0
   46.0480    6.5900   14.8480 C   0  0  0  0  0  0  0  0  0  0  0  0
   42.9920    8.5760   11.9920 N   0  0  0  0  0  0  0  0  0  0  0  0
   41.8080    9.3040   11.5830 C   0  0  2  0  0  0  0  0  0  0  0  0
   40.7540    8.4100   11.0010 C   0  0  0  0  0  0  0  0  0  0  0  0
   39.5880    8.5450   11.3020 O   0  0  0  0  0  0  0  0  0  0  0  0
   42.1830   10.3990   10.5610 C   0  0  0  0  0  0  0  0  0  0  0  0
   41.1500    7.4620   10.1580 N   0  0  0  0  0  0  0  0  0  0  0  0
   40.2070    6.5370    9.5910 C   0  0  2  0  0  0  0  0  0  0  0  0
   39.5660    5.6060   10.6500 C   0  0  0  0  0  0  0  0  0  0  0  0
   38.3570    5.3180   10.6550 O   0  0  0  0  0  0  0  0  0  0  0  0
   40.9040    5.6650    8.4940 C   0  0  0  0  0  0  0  0  0  0  0  0
   40.4210    5.1340   11.5540 N   0  0  0  0  0  0  0  0  0  0  0  0
   39.9580    4.2950   12.6680 C   0  0  0  0  0  0  0  0  0  0  0  0
   45.0311    9.7793    8.0511 H   0  0  0  0  0  0  0  0  0  0  0  0
   46.4491    8.8624    7.6023 H   0  0  0  0  0  0  0  0  0  0  0  0
   46.3290    9.5595    9.2000 H   0  0  0  0  0  0  0  0  0  0  0  0
   46.8986    7.0507    9.4252 H   0  0  0  0  0  0  0  0  0  0  0  0
   44.7820    5.2171    9.0531 H   0  0  0  0  0  0  0  0  0  0  0  0
   47.1608    5.0255   10.8725 H   0  0  0  0  0  0  0  0  0  0  0  0
   47.1084    4.5122    9.2031 H   0  0  0  0  0  0  0  0  0  0  0  0
   46.1283    3.6978   10.3987 H   0  0  0  0  0  0  0  0  0  0  0  0
   45.9147    6.8180   12.0111 H   0  0  0  0  0  0  0  0  0  0  0  0
   43.8867    5.9134   13.6801 H   0  0  0  0  0  0  0  0  0  0  0  0
   45.5302    8.4277   13.8756 H   0  0  0  0  0  0  0  0  0  0  0  0
   43.5951    7.3616   15.8596 H   0  0  0  0  0  0  0  0  0  0  0  0
   43.4441    8.8497   14.9563 H   0  0  0  0  0  0  0  0  0  0  0  0
   44.7377    8.6587   16.1153 H   0  0  0  0  0  0  0  0  0  0  0  0
   45.5375    5.7513   15.2733 H   0  0  0  0  0  0  0  0  0  0  0  0
   46.6421    7.0650   15.6006 H   0  0  0  0  0  0  0  0  0  0  0  0
   46.6805    6.2565   14.0521 H   0  0  0  0  0  0  0  0  0  0  0  0
   43.8676    8.8147   11.6104 H   0  0  0  0  0  0  0  0  0  0  0  0
   41.3979    9.7511   12.4644 H   0  0  0  0  0  0  0  0  0  0  0  0
   42.5919    9.9430    9.6836 H   0  0  0  0  0  0  0  0  0  0  0  0
   42.9087   11.0563   10.9926 H   0  0  0  0  0  0  0  0  0  0  0  0
   41.3083   10.9565   10.2985 H   0  0  0  0  0  0  0  0  0  0  0  0
   42.1024    7.3923    9.9185 H   0  0  0  0  0  0  0  0  0  0  0  0
   39.4228    7.1241    9.1607 H   0  0  0  0  0  0  0  0  0  0  0  0
   41.6842    5.0855    8.9415 H   0  0  0  0  0  0  0  0  0  0  0  0
   41.3199    6.3029    7.7423 H   0  0  0  0  0  0  0  0  0  0  0  0
   40.1844    5.0105    8.0482 H   0  0  0  0  0  0  0  0  0  0  0  0
   41.3782    5.3502   11.4752 H   0  0  0  0  0  0  0  0  0  0  0  0
   38.8985    4.1627   12.5985 H   0  0  0  0  0  0  0  0  0  0  0  0
   40.1979    4.7703   13.5961 H   0  0  0  0  0  0  0  0  0  0  0  0
   40.4404    3.3411   12.6206 H   0  0  0  0  0  0  0  0  0  0  0  0
  1  2  1  0  0  0  0
  1 28  1  0  0  0  0
  1 29  1  0  0  0  0
  1 30  1  0  0  0  0
  2  4  1  0  0  0  0
  3  2  2  0  0  0  0
  4  5  1  0  0  0  0
  4 31  1  0  0  0  0
  5  8  1  0  0  0  0
  5  6  1  0  0  0  0
  5 32  1  6  0  0  0
  6  7  2  0  0  0  0
  6  9  1  0  0  0  0
  8 33  1  0  0  0  0
  8 34  1  0  0  0  0
  8 35  1  0  0  0  0
  9 10  1  0  0  0  0
  9 36  1  0  0  0  0
 10 13  1  0  0  0  0
 10 37  1  1  0  0  0
 11 10  1  0  0  0  0
 11 12  2  0  0  0  0
 13 15  1  0  0  0  0
 13 14  1  0  0  0  0
 13 38  1  0  0  0  0
 14 39  1  0  0  0  0
 14 40  1  0  0  0  0
 14 41  1  0  0  0  0
 15 42  1  0  0  0  0
 15 43  1  0  0  0  0
 15 44  1  0  0  0  0
 16 11  1  0  0  0  0
 16 45  1  0  0  0  0
 17 16  1  0  0  0  0
 17 46  1  1  0  0  0
 18 19  2  0  0  0  0
 18 17  1  0  0  0  0
 20 17  1  0  0  0  0
 20 47  1  0  0  0  0
 20 48  1  0  0  0  0
 20 49  1  0  0  0  0
 21 18  1  0  0  0  0
 21 50  1  0  0  0  0
 22 21  1  0  0  0  0
 22 23  1  0  0  0  0
 22 51  1  6  0  0  0
 23 24  2  0  0  0  0
 23 26  1  0  0  0  0
 25 22  1  0  0  0  0
 25 52  1  0  0  0  0
 25 53  1  0  0  0  0
 25 54  1  0  0  0  0
 26 27  1  0  0  0  0
 26 55  1  0  0  0  0
 27 56  1  0  0  0  0
 27 57  1  0  0  0  0
 27 58  1  0  0  0  0
M  END
>  <MODEL>
       0

$$$$
selected_4mers/AVAA/557_noH.pdb
 OpenBabel03042518233D

 58 57  0  0  1  0  0  0  0  0999 V2000
   15.2070  -34.8960   35.2660 C   0  0  0  0  0  0  0  0  0  0  0  0
   15.3580  -33.5220   34.6540 C   0  0  0  0  0  0  0  0  0  0  0  0
   14.3750  -32.9440   34.2010 O   0  0  0  0  0  0  0  0  0  0  0  0
   16.5780  -33.0020   34.6110 N   0  0  0  0  0  0  0  0  0  0  0  0
   16.8460  -31.7000   34.0420 C   0  0  2  0  0  0  0  0  0  0  0  0
   16.9750  -31.7820   32.5340 C   0  0  0  0  0  0  0  0  0  0  0  0
   17.7640  -32.5710   31.9880 O   0  0  0  0  0  0  0  0  0  0  0  0
   18.1490  -31.1420   34.5920 C   0  0  0  0  0  0  0  0  0  0  0  0
   16.2440  -30.8950   31.8510 N   0  0  0  0  0  0  0  0  0  0  0  0
   16.1510  -30.9220   30.3900 C   0  0  2  0  0  0  0  0  0  0  0  0
   16.7990  -29.6960   29.7860 C   0  0  0  0  0  0  0  0  0  0  0  0
   16.4380  -28.5360   30.0740 O   0  0  0  0  0  0  0  0  0  0  0  0
   14.6560  -30.9940   29.9670 C   0  0  0  0  0  0  0  0  0  0  0  0
   14.5480  -31.0390   28.4480 C   0  0  0  0  0  0  0  0  0  0  0  0
   14.0060  -32.2370   30.5810 C   0  0  0  0  0  0  0  0  0  0  0  0
   17.7630  -29.9580   28.9010 N   0  0  0  0  0  0  0  0  0  0  0  0
   18.4350  -28.9750   28.0990 C   0  0  2  0  0  0  0  0  0  0  0  0
   17.7110  -28.7930   26.7770 C   0  0  0  0  0  0  0  0  0  0  0  0
   17.0670  -29.6970   26.2500 O   0  0  0  0  0  0  0  0  0  0  0  0
   19.8500  -29.4000   27.8680 C   0  0  0  0  0  0  0  0  0  0  0  0
   17.8830  -27.5730   26.2100 N   0  0  0  0  0  0  0  0  0  0  0  0
   17.2880  -27.2160   24.9150 C   0  0  2  0  0  0  0  0  0  0  0  0
   18.1570  -27.3850   23.7430 C   0  0  0  0  0  0  0  0  0  0  0  0
   19.2370  -26.8040   23.7130 O   0  0  0  0  0  0  0  0  0  0  0  0
   16.7750  -25.7700   24.9930 C   0  0  0  0  0  0  0  0  0  0  0  0
   17.6710  -28.0950   22.7280 N   0  0  0  0  0  0  0  0  0  0  0  0
   18.3070  -28.1610   21.4070 C   0  0  0  0  0  0  0  0  0  0  0  0
   14.1784  -35.1892   35.2350 H   0  0  0  0  0  0  0  0  0  0  0  0
   15.5406  -34.8724   36.2824 H   0  0  0  0  0  0  0  0  0  0  0  0
   15.7951  -35.5990   34.7138 H   0  0  0  0  0  0  0  0  0  0  0  0
   17.3283  -33.5218   34.9801 H   0  0  0  0  0  0  0  0  0  0  0  0
   16.0261  -31.0634   34.3016 H   0  0  0  0  0  0  0  0  0  0  0  0
   18.9564  -31.7905   34.3230 H   0  0  0  0  0  0  0  0  0  0  0  0
   18.0861  -31.0740   35.6580 H   0  0  0  0  0  0  0  0  0  0  0  0
   18.3215  -30.1688   34.1821 H   0  0  0  0  0  0  0  0  0  0  0  0
   15.7522  -30.2010   32.3467 H   0  0  0  0  0  0  0  0  0  0  0  0
   16.6690  -31.7861   30.0295 H   0  0  0  0  0  0  0  0  0  0  0  0
   14.1457  -30.1231   30.3220 H   0  0  0  0  0  0  0  0  0  0  0  0
   15.0549  -31.9064   28.0799 H   0  0  0  0  0  0  0  0  0  0  0  0
   14.9962  -30.1608   28.0324 H   0  0  0  0  0  0  0  0  0  0  0  0
   13.5170  -31.0814   28.1648 H   0  0  0  0  0  0  0  0  0  0  0  0
   14.5106  -33.1132   30.2309 H   0  0  0  0  0  0  0  0  0  0  0  0
   12.9762  -32.2798   30.2937 H   0  0  0  0  0  0  0  0  0  0  0  0
   14.0770  -32.1867   31.6475 H   0  0  0  0  0  0  0  0  0  0  0  0
   18.0342  -30.8978   28.7895 H   0  0  0  0  0  0  0  0  0  0  0  0
   18.4336  -28.0373   28.6143 H   0  0  0  0  0  0  0  0  0  0  0  0
   19.8612  -30.3377   27.3527 H   0  0  0  0  0  0  0  0  0  0  0  0
   20.3493  -29.5040   28.8087 H   0  0  0  0  0  0  0  0  0  0  0  0
   20.3520  -28.6624   27.2774 H   0  0  0  0  0  0  0  0  0  0  0  0
   18.4263  -26.9022   26.6834 H   0  0  0  0  0  0  0  0  0  0  0  0
   16.4939  -27.9148   24.7541 H   0  0  0  0  0  0  0  0  0  0  0  0
   17.5995  -25.1073   25.1540 H   0  0  0  0  0  0  0  0  0  0  0  0
   16.0820  -25.6806   25.8034 H   0  0  0  0  0  0  0  0  0  0  0  0
   16.2862  -25.5150   24.0760 H   0  0  0  0  0  0  0  0  0  0  0  0
   16.8401  -28.6034   22.8708 H   0  0  0  0  0  0  0  0  0  0  0  0
   19.1932  -27.5614   21.4075 H   0  0  0  0  0  0  0  0  0  0  0  0
   17.6284  -27.7939   20.6657 H   0  0  0  0  0  0  0  0  0  0  0  0
   18.5631  -29.1758   21.1848 H   0  0  0  0  0  0  0  0  0  0  0  0
  1 28  1  0  0  0  0
  1 29  1  0  0  0  0
  1 30  1  0  0  0  0
  2  1  1  0  0  0  0
  3  2  2  0  0  0  0
  4  2  1  0  0  0  0
  4 31  1  0  0  0  0
  5  8  1  0  0  0  0
  5  4  1  0  0  0  0
  5 32  1  1  0  0  0
  6  5  1  0  0  0  0
  7  6  2  0  0  0  0
  8 33  1  0  0  0  0
  8 34  1  0  0  0  0
  8 35  1  0  0  0  0
  9  6  1  0  0  0  0
  9 36  1  0  0  0  0
 10  9  1  0  0  0  0
 10 37  1  6  0  0  0
 11 12  2  0  0  0  0
 11 10  1  0  0  0  0
 13 10  1  0  0  0  0
 13 15  1  0  0  0  0
 13 38  1  0  0  0  0
 14 13  1  0  0  0  0
 14 39  1  0  0  0  0
 14 40  1  0  0  0  0
 14 41  1  0  0  0  0
 15 42  1  0  0  0  0
 15 43  1  0  0  0  0
 15 44  1  0  0  0  0
 16 11  1  0  0  0  0
 16 45  1  0  0  0  0
 17 16  1  0  0  0  0
 17 46  1  1  0  0  0
 18 17  1  0  0  0  0
 19 18  2  0  0  0  0
 20 17  1  0  0  0  0
 20 47  1  0  0  0  0
 20 48  1  0  0  0  0
 20 49  1  0  0  0  0
 21 18  1  0  0  0  0
 21 50  1  0  0  0  0
 22 25  1  0  0  0  0
 22 21  1  0  0  0  0
 22 51  1  6  0  0  0
 23 22  1  0  0  0  0
 24 23  2  0  0  0  0
 25 52  1  0  0  0  0
 25 53  1  0  0  0  0
 25 54  1  0  0  0  0
 26 23  1  0  0  0  0
 26 55  1  0  0  0  0
 27 26  1  0  0  0  0
 27 56  1  0  0  0  0
 27 57  1  0  0  0  0
 27 58  1  0  0  0  0
M  END
>  <MODEL>
       0

$$$$
selected_4mers/AVAA/558_noH.pdb
 OpenBabel03042518233D

 58 57  0  0  1  0  0  0  0  0999 V2000
   35.3980   76.9160   22.9410 C   0  0  0  0  0  0  0  0  0  0  0  0
   36.0660   75.8220   22.0830 C   0  0  0  0  0  0  0  0  0  0  0  0
   35.3670   75.1040   21.3490 O   0  0  0  0  0  0  0  0  0  0  0  0
   37.3810   75.7170   22.1750 N   0  0  0  0  0  0  0  0  0  0  0  0
   38.1150   74.6370   21.4690 C   0  0  2  0  0  0  0  0  0  0  0  0
   37.8210   73.2800   22.1160 C   0  0  0  0  0  0  0  0  0  0  0  0
   37.7280   72.2430   21.4320 O   0  0  0  0  0  0  0  0  0  0  0  0
   39.5860   74.9260   21.4890 C   0  0  0  0  0  0  0  0  0  0  0  0
   37.7220   73.2580   23.4430 N   0  0  0  0  0  0  0  0  0  0  0  0
   37.4490   71.9660   24.1140 C   0  0  2  0  0  0  0  0  0  0  0  0
   36.0160   71.5490   23.8010 C   0  0  0  0  0  0  0  0  0  0  0  0
   35.7530   70.3910   23.5140 O   0  0  0  0  0  0  0  0  0  0  0  0
   37.7650   71.9920   25.6130 C   0  0  0  0  0  0  0  0  0  0  0  0
   37.4100   70.6340   26.2570 C   0  0  0  0  0  0  0  0  0  0  0  0
   39.2560   72.3120   25.8270 C   0  0  0  0  0  0  0  0  0  0  0  0
   35.0970   72.5030   23.7630 N   0  0  0  0  0  0  0  0  0  0  0  0
   33.7350   72.1900   23.3100 C   0  0  2  0  0  0  0  0  0  0  0  0
   33.7150   71.7730   21.8280 C   0  0  0  0  0  0  0  0  0  0  0  0
   33.0340   70.8100   21.4780 O   0  0  0  0  0  0  0  0  0  0  0  0
   32.7600   73.3550   23.5720 C   0  0  0  0  0  0  0  0  0  0  0  0
   34.4400   72.4840   20.9570 N   0  0  0  0  0  0  0  0  0  0  0  0
   34.4480   72.1310   19.5180 C   0  0  2  0  0  0  0  0  0  0  0  0
   34.8890   70.6900   19.3160 C   0  0  0  0  0  0  0  0  0  0  0  0
   34.3080   69.9730   18.4850 O   0  0  0  0  0  0  0  0  0  0  0  0
   35.3150   73.0520   18.7290 C   0  0  0  0  0  0  0  0  0  0  0  0
   35.9220   70.2770   20.0650 N   0  0  0  0  0  0  0  0  0  0  0  0
   36.4530   68.8960   20.0060 C   0  0  0  0  0  0  0  0  0  0  0  0
   34.3404   76.8998   22.7795 H   0  0  0  0  0  0  0  0  0  0  0  0
   35.7865   77.8736   22.6636 H   0  0  0  0  0  0  0  0  0  0  0  0
   35.6037   76.7335   23.9751 H   0  0  0  0  0  0  0  0  0  0  0  0
   37.8815   76.3658   22.7207 H   0  0  0  0  0  0  0  0  0  0  0  0
   37.7859   74.5986   20.4516 H   0  0  0  0  0  0  0  0  0  0  0  0
   39.9277   74.9670   22.5022 H   0  0  0  0  0  0  0  0  0  0  0  0
   39.7714   75.8655   21.0117 H   0  0  0  0  0  0  0  0  0  0  0  0
   40.1087   74.1517   20.9674 H   0  0  0  0  0  0  0  0  0  0  0  0
   37.8281   74.0839   23.9682 H   0  0  0  0  0  0  0  0  0  0  0  0
   38.1130   71.2215   23.7270 H   0  0  0  0  0  0  0  0  0  0  0  0
   37.1764   72.7536   26.0802 H   0  0  0  0  0  0  0  0  0  0  0  0
   37.9909   69.8600   25.8004 H   0  0  0  0  0  0  0  0  0  0  0  0
   36.3694   70.4317   26.1120 H   0  0  0  0  0  0  0  0  0  0  0  0
   37.6238   70.6694   27.3048 H   0  0  0  0  0  0  0  0  0  0  0  0
   39.8534   71.5553   25.3629 H   0  0  0  0  0  0  0  0  0  0  0  0
   39.4678   72.3405   26.8754 H   0  0  0  0  0  0  0  0  0  0  0  0
   39.4829   73.2626   25.3913 H   0  0  0  0  0  0  0  0  0  0  0  0
   35.3266   73.4200   24.0379 H   0  0  0  0  0  0  0  0  0  0  0  0
   33.3983   71.3555   23.8889 H   0  0  0  0  0  0  0  0  0  0  0  0
   33.0665   74.2105   23.0071 H   0  0  0  0  0  0  0  0  0  0  0  0
   32.7640   73.5958   24.6145 H   0  0  0  0  0  0  0  0  0  0  0  0
   31.7728   73.0673   23.2762 H   0  0  0  0  0  0  0  0  0  0  0  0
   34.9728   73.2484   21.2749 H   0  0  0  0  0  0  0  0  0  0  0  0
   33.4452   72.2372   19.1602 H   0  0  0  0  0  0  0  0  0  0  0  0
   36.3267   72.9663   19.0668 H   0  0  0  0  0  0  0  0  0  0  0  0
   34.9789   74.0592   18.8614 H   0  0  0  0  0  0  0  0  0  0  0  0
   35.2617   72.7916   17.6925 H   0  0  0  0  0  0  0  0  0  0  0  0
   36.3450   70.9190   20.6799 H   0  0  0  0  0  0  0  0  0  0  0  0
   35.8897   68.3273   19.2959 H   0  0  0  0  0  0  0  0  0  0  0  0
   36.3726   68.4414   20.9713 H   0  0  0  0  0  0  0  0  0  0  0  0
   37.4804   68.9213   19.7081 H   0  0  0  0  0  0  0  0  0  0  0  0
  1 28  1  0  0  0  0
  1 29  1  0  0  0  0
  1 30  1  0  0  0  0
  2  4  1  0  0  0  0
  2  1  1  0  0  0  0
  3  2  2  0  0  0  0
  4 31  1  0  0  0  0
  5  8  1  0  0  0  0
  5  6  1  0  0  0  0
  5  4  1  0  0  0  0
  5 32  1  6  0  0  0
  6  9  1  0  0  0  0
  7  6  2  0  0  0  0
  8 33  1  0  0  0  0
  8 34  1  0  0  0  0
  8 35  1  0  0  0  0
  9 10  1  0  0  0  0
  9 36  1  0  0  0  0
 10 13  1  0  0  0  0
 10 37  1  6  0  0  0
 11 10  1  0  0  0  0
 12 11  2  0  0  0  0
 13 15  1  0  0  0  0
 13 14  1  0  0  0  0
 13 38  1  0  0  0  0
 14 39  1  0  0  0  0
 14 40  1  0  0  0  0
 14 41  1  0  0  0  0
 15 42  1  0  0  0  0
 15 43  1  0  0  0  0
 15 44  1  0  0  0  0
 16 11  1  0  0  0  0
 16 45  1  0  0  0  0
 17 20  1  0  0  0  0
 17 16  1  0  0  0  0
 17 46  1  1  0  0  0
 18 17  1  0  0  0  0
 19 18  2  0  0  0  0
 20 47  1  0  0  0  0
 20 48  1  0  0  0  0
 20 49  1  0  0  0  0
 21 18  1  0  0  0  0
 21 50  1  0  0  0  0
 22 21  1  0  0  0  0
 22 51  1  6  0  0  0
 23 22  1  0  0  0  0
 23 26  1  0  0  0  0
 24 23  2  0  0  0  0
 25 22  1  0  0  0  0
 25 52  1  0  0  0  0
 25 53  1  0  0  0  0
 25 54  1  0  0  0  0
 26 55  1  0  0  0  0
 27 26  1  0  0  0  0
 27 56  1  0  0  0  0
 27 57  1  0  0  0  0
 27 58  1  0  0  0  0
M  END
>  <MODEL>
       0

$$$$
selected_4mers/AVAA/559_noH.pdb
 OpenBabel03042518233D

 58 57  0  0  1  0  0  0  0  0999 V2000
   24.5740   10.0530    1.1440 C   0  0  0  0  0  0  0  0  0  0  0  0
   25.9580    9.5050    0.7610 C   0  0  0  0  0  0  0  0  0  0  0  0
   26.0540    8.6600   -0.1570 O   0  0  0  0  0  0  0  0  0  0  0  0
   27.0060    9.9620    1.4250 N   0  0  0  0  0  0  0  0  0  0  0  0
   28.3710    9.4620    1.1710 C   0  0  2  0  0  0  0  0  0  0  0  0
   28.5030    7.9430    1.3580 C   0  0  0  0  0  0  0  0  0  0  0  0
   29.2320    7.2850    0.6060 O   0  0  0  0  0  0  0  0  0  0  0  0
   29.4020   10.2130    2.0330 C   0  0  0  0  0  0  0  0  0  0  0  0
   27.7200    7.3700    2.2620 N   0  0  0  0  0  0  0  0  0  0  0  0
   27.7950    5.9610    2.5560 C   0  0  2  0  0  0  0  0  0  0  0  0
   27.2900    5.0830    1.4010 C   0  0  0  0  0  0  0  0  0  0  0  0
   27.5250    3.8830    1.4030 O   0  0  0  0  0  0  0  0  0  0  0  0
   27.0610    5.6680    3.9170 C   0  0  0  0  0  0  0  0  0  0  0  0
   25.5240    5.6590    3.7490 C   0  0  0  0  0  0  0  0  0  0  0  0
   27.6100    4.4440    4.5750 C   0  0  0  0  0  0  0  0  0  0  0  0
   26.6170    5.6760    0.3990 N   0  0  0  0  0  0  0  0  0  0  0  0
   26.2460    4.9710   -0.8370 C   0  0  2  0  0  0  0  0  0  0  0  0
   27.4470    4.5630   -1.6210 C   0  0  0  0  0  0  0  0  0  0  0  0
   27.3170    3.6980   -2.5000 O   0  0  0  0  0  0  0  0  0  0  0  0
   25.4160    5.8660   -1.7250 C   0  0  0  0  0  0  0  0  0  0  0  0
   28.5860    5.2070   -1.3930 N   0  0  0  0  0  0  0  0  0  0  0  0
   29.8260    4.9190   -2.1160 C   0  0  2  0  0  0  0  0  0  0  0  0
   30.8260    3.9710   -1.4240 C   0  0  0  0  0  0  0  0  0  0  0  0
   31.9010    3.7150   -1.9920 O   0  0  0  0  0  0  0  0  0  0  0  0
   30.5240    6.2020   -2.4230 C   0  0  0  0  0  0  0  0  0  0  0  0
   30.4950    3.4490   -0.2350 N   0  0  0  0  0  0  0  0  0  0  0  0
   31.4150    2.5450    0.4510 C   0  0  0  0  0  0  0  0  0  0  0  0
   23.8270    9.5971    0.5283 H   0  0  0  0  0  0  0  0  0  0  0  0
   24.5575   11.1130    0.9990 H   0  0  0  0  0  0  0  0  0  0  0  0
   24.3740    9.8304    2.1713 H   0  0  0  0  0  0  0  0  0  0  0  0
   26.8717   10.6568    2.1095 H   0  0  0  0  0  0  0  0  0  0  0  0
   28.5756    9.6580    0.1392 H   0  0  0  0  0  0  0  0  0  0  0  0
   29.2069   10.0241    3.0680 H   0  0  0  0  0  0  0  0  0  0  0  0
   29.3290   11.2633    1.8422 H   0  0  0  0  0  0  0  0  0  0  0  0
   30.3867    9.8736    1.7880 H   0  0  0  0  0  0  0  0  0  0  0  0
   27.0671    7.9244    2.7474 H   0  0  0  0  0  0  0  0  0  0  0  0
   28.8251    5.6936    2.6667 H   0  0  0  0  0  0  0  0  0  0  0  0
   27.2634    6.4747    4.5901 H   0  0  0  0  0  0  0  0  0  0  0  0
   25.2427    4.8707    3.0825 H   0  0  0  0  0  0  0  0  0  0  0  0
   25.2037    6.5974    3.3469 H   0  0  0  0  0  0  0  0  0  0  0  0
   25.0620    5.5027    4.7014 H   0  0  0  0  0  0  0  0  0  0  0  0
   27.4384    3.5944    3.9476 H   0  0  0  0  0  0  0  0  0  0  0  0
   27.1232    4.2963    5.5164 H   0  0  0  0  0  0  0  0  0  0  0  0
   28.6615    4.5647    4.7322 H   0  0  0  0  0  0  0  0  0  0  0  0
   26.3620    6.6218    0.4971 H   0  0  0  0  0  0  0  0  0  0  0  0
   25.6945    4.1036   -0.5399 H   0  0  0  0  0  0  0  0  0  0  0  0
   25.9918    6.7231   -2.0057 H   0  0  0  0  0  0  0  0  0  0  0  0
   24.5414    6.1817   -1.1956 H   0  0  0  0  0  0  0  0  0  0  0  0
   25.1264    5.3277   -2.6032 H   0  0  0  0  0  0  0  0  0  0  0  0
   28.5969    5.9114   -0.7053 H   0  0  0  0  0  0  0  0  0  0  0  0
   29.5060    4.3942   -2.9919 H   0  0  0  0  0  0  0  0  0  0  0  0
   30.8172    6.6760   -1.5096 H   0  0  0  0  0  0  0  0  0  0  0  0
   29.8632    6.8471   -2.9634 H   0  0  0  0  0  0  0  0  0  0  0  0
   31.3920    6.0028   -3.0161 H   0  0  0  0  0  0  0  0  0  0  0  0
   29.6300    3.6752    0.1771 H   0  0  0  0  0  0  0  0  0  0  0  0
   32.2966    2.4162   -0.1415 H   0  0  0  0  0  0  0  0  0  0  0  0
   30.9412    1.5967    0.5962 H   0  0  0  0  0  0  0  0  0  0  0  0
   31.6810    2.9600    1.4007 H   0  0  0  0  0  0  0  0  0  0  0  0
  1 28  1  0  0  0  0
  1 29  1  0  0  0  0
  1 30  1  0  0  0  0
  2  1  1  0  0  0  0
  2  4  1  0  0  0  0
  3  2  2  0  0  0  0
  4 31  1  0  0  0  0
  5  6  1  0  0  0  0
  5  4  1  0  0  0  0
  5  8  1  0  0  0  0
  5 32  1  6  0  0  0
  6  9  1  0  0  0  0
  7  6  2  0  0  0  0
  8 33  1  0  0  0  0
  8 34  1  0  0  0  0
  8 35  1  0  0  0  0
  9 10  1  0  0  0  0
  9 36  1  0  0  0  0
 10 13  1  0  0  0  0
 10 37  1  1  0  0  0
 11 12  2  0  0  0  0
 11 10  1  0  0  0  0
 13 15  1  0  0  0  0
 13 38  1  0  0  0  0
 14 13  1  0  0  0  0
 14 39  1  0  0  0  0
 14 40  1  0  0  0  0
 14 41  1  0  0  0  0
 15 42  1  0  0  0  0
 15 43  1  0  0  0  0
 15 44  1  0  0  0  0
 16 11  1  0  0  0  0
 16 45  1  0  0  0  0
 17 16  1  0  0  0  0
 17 46  1  1  0  0  0
 18 21  1  0  0  0  0
 18 17  1  0  0  0  0
 19 18  2  0  0  0  0
 20 17  1  0  0  0  0
 20 47  1  0  0  0  0
 20 48  1  0  0  0  0
 20 49  1  0  0  0  0
 21 50  1  0  0  0  0
 22 23  1  0  0  0  0
 22 21  1  0  0  0  0
 22 51  1  6  0  0  0
 23 26  1  0  0  0  0
 24 23  2  0  0  0  0
 25 22  1  0  0  0  0
 25 52  1  0  0  0  0
 25 53  1  0  0  0  0
 25 54  1  0  0  0  0
 26 27  1  0  0  0  0
 26 55  1  0  0  0  0
 27 56  1  0  0  0  0
 27 57  1  0  0  0  0
 27 58  1  0  0  0  0
M  END
>  <MODEL>
       0

$$$$
