selected_4mers/AVAE/590_noH.pdb
 OpenBabel03042518233D

 63 62  0  0  1  0  0  0  0  0999 V2000
  -20.0130   34.2980   36.0770 C   0  0  0  0  0  0  0  0  0  0  0  0
  -21.0640   33.6220   36.9410 C   0  0  0  0  0  0  0  0  0  0  0  0
  -21.0870   33.8030   38.1540 O   0  0  0  0  0  0  0  0  0  0  0  0
  -21.9520   32.8720   36.2930 N   0  0  0  0  0  0  0  0  0  0  0  0
  -23.0350   32.1720   36.9800 C   0  0  2  0  0  0  0  0  0  0  0  0
  -22.4940   31.1040   37.9260 C   0  0  0  0  0  0  0  0  0  0  0  0
  -23.0070   30.9220   39.0310 O   0  0  0  0  0  0  0  0  0  0  0  0
  -23.9790   31.5380   35.9560 C   0  0  0  0  0  0  0  0  0  0  0  0
  -21.4610   30.3930   37.4880 N   0  0  0  0  0  0  0  0  0  0  0  0
  -20.8760   29.3560   38.3220 C   0  0  2  0  0  0  0  0  0  0  0  0
  -20.2240   29.9750   39.5590 C   0  0  0  0  0  0  0  0  0  0  0  0
  -20.3290   29.4240   40.6570 O   0  0  0  0  0  0  0  0  0  0  0  0
  -19.8260   28.5360   37.5350 C   0  0  0  0  0  0  0  0  0  0  0  0
  -19.1710   27.4990   38.4500 C   0  0  0  0  0  0  0  0  0  0  0  0
  -20.5030   27.8500   36.3570 C   0  0  0  0  0  0  0  0  0  0  0  0
  -19.5550   31.1130   39.3760 N   0  0  0  0  0  0  0  0  0  0  0  0
  -18.9000   31.8080   40.4840 C   0  0  2  0  0  0  0  0  0  0  0  0
  -19.9400   32.2600   41.5140 C   0  0  0  0  0  0  0  0  0  0  0  0
  -19.6950   32.1980   42.7210 O   0  0  0  0  0  0  0  0  0  0  0  0
  -18.1130   33.0100   39.9620 C   0  0  0  0  0  0  0  0  0  0  0  0
  -21.1000   32.7080   41.0350 N   0  0  0  0  0  0  0  0  0  0  0  0
  -22.1720   33.1450   41.9300 C   0  0  2  0  0  0  0  0  0  0  0  0
  -22.6940   31.9690   42.7500 C   0  0  0  0  0  0  0  0  0  0  0  0
  -22.9720   32.1120   43.9440 O   0  0  0  0  0  0  0  0  0  0  0  0
  -23.3320   33.7670   41.1410 C   0  0  0  0  0  0  0  0  0  0  0  0
  -23.0750   35.1840   40.6420 C   0  0  0  0  0  0  0  0  0  0  0  0
  -24.2590   35.7570   39.8670 C   0  0  0  0  0  0  0  0  0  0  0  0
  -25.3870   35.7820   40.4210 O   0  0  0  0  0  0  0  0  0  0  0  0
  -24.0620   36.1840   38.7020 O   0  0  0  0  0  0  0  0  0  0  0  0
  -22.8390   30.8090   42.1100 N   0  0  0  0  0  0  0  0  0  0  0  0
  -23.3150   29.6280   42.8250 C   0  0  0  0  0  0  0  0  0  0  0  0
  -20.1577   34.0178   35.0545 H   0  0  0  0  0  0  0  0  0  0  0  0
  -19.0385   33.9923   36.3961 H   0  0  0  0  0  0  0  0  0  0  0  0
  -20.1026   35.3600   36.1718 H   0  0  0  0  0  0  0  0  0  0  0  0
  -21.8765   32.7857   35.3152 H   0  0  0  0  0  0  0  0  0  0  0  0
  -23.5744   32.8874   37.5650 H   0  0  0  0  0  0  0  0  0  0  0  0
  -23.4410   30.8223   35.3702 H   0  0  0  0  0  0  0  0  0  0  0  0
  -24.3735   32.2990   35.3155 H   0  0  0  0  0  0  0  0  0  0  0  0
  -24.7826   31.0494   36.4663 H   0  0  0  0  0  0  0  0  0  0  0  0
  -21.0895   30.5693   36.5935 H   0  0  0  0  0  0  0  0  0  0  0  0
  -21.6621   28.6978   38.6280 H   0  0  0  0  0  0  0  0  0  0  0  0
  -19.0636   29.1922   37.1703 H   0  0  0  0  0  0  0  0  0  0  0  0
  -19.9186   26.8320   38.8257 H   0  0  0  0  0  0  0  0  0  0  0  0
  -18.6931   27.9963   39.2680 H   0  0  0  0  0  0  0  0  0  0  0  0
  -18.4433   26.9436   37.8961 H   0  0  0  0  0  0  0  0  0  0  0  0
  -21.2664   27.1927   36.7177 H   0  0  0  0  0  0  0  0  0  0  0  0
  -19.7779   27.2869   35.8074 H   0  0  0  0  0  0  0  0  0  0  0  0
  -20.9406   28.5881   35.7178 H   0  0  0  0  0  0  0  0  0  0  0  0
  -19.5002   31.4962   38.4708 H   0  0  0  0  0  0  0  0  0  0  0  0
  -18.2189   31.1331   40.9589 H   0  0  0  0  0  0  0  0  0  0  0  0
  -18.7824   33.6943   39.4839 H   0  0  0  0  0  0  0  0  0  0  0  0
  -17.3797   32.6774   39.2574 H   0  0  0  0  0  0  0  0  0  0  0  0
  -17.6260   33.4997   40.7793 H   0  0  0  0  0  0  0  0  0  0  0  0
  -21.2383   32.7457   40.0610 H   0  0  0  0  0  0  0  0  0  0  0  0
  -21.7645   33.8856   42.5861 H   0  0  0  0  0  0  0  0  0  0  0  0
  -23.5292   33.1455   40.2926 H   0  0  0  0  0  0  0  0  0  0  0  0
  -24.1584   33.8300   41.8177 H   0  0  0  0  0  0  0  0  0  0  0  0
  -22.8797   35.8139   41.4846 H   0  0  0  0  0  0  0  0  0  0  0  0
  -22.2389   35.1463   39.9754 H   0  0  0  0  0  0  0  0  0  0  0  0
  -22.6243   30.7480   41.1511 H   0  0  0  0  0  0  0  0  0  0  0  0
  -23.4962   29.8800   43.8490 H   0  0  0  0  0  0  0  0  0  0  0  0
  -22.5748   28.8571   42.7729 H   0  0  0  0  0  0  0  0  0  0  0  0
  -24.2228   29.2816   42.3769 H   0  0  0  0  0  0  0  0  0  0  0  0
  1  2  1  0  0  0  0
  1 32  1  0  0  0  0
  1 33  1  0  0  0  0
  1 34  1  0  0  0  0
  2  3  2  0  0  0  0
  4  2  1  0  0  0  0
  4  5  1  0  0  0  0
  4 35  1  0  0  0  0
  5  6  1  0  0  0  0
  5 36  1  1  0  0  0
  6  7  2  0  0  0  0
  8  5  1  0  0  0  0
  8 37  1  0  0  0  0
  8 38  1  0  0  0  0
  8 39  1  0  0  0  0
  9  6  1  0  0  0  0
  9 10  1  0  0  0  0
  9 40  1  0  0  0  0
 10 11  1  0  0  0  0
 10 41  1  1  0  0  0
 11 12  2  0  0  0  0
 13 10  1  0  0  0  0
 13 14  1  0  0  0  0
 13 42  1  0  0  0  0
 14 43  1  0  0  0  0
 14 44  1  0  0  0  0
 14 45  1  0  0  0  0
 15 13  1  0  0  0  0
 15 46  1  0  0  0  0
 15 47  1  0  0  0  0
 15 48  1  0  0  0  0
 16 11  1  0  0  0  0
 16 17  1  0  0  0  0
 16 49  1  0  0  0  0
 17 18  1  0  0  0  0
 17 50  1  1  0  0  0
 18 19  2  0  0  0  0
 20 17  1  0  0  0  0
 20 51  1  0  0  0  0
 20 52  1  0  0  0  0
 20 53  1  0  0  0  0
 21 18  1  0  0  0  0
 21 22  1  0  0  0  0
 21 54  1  0  0  0  0
 22 23  1  0  0  0  0
 22 55  1  1  0  0  0
 23 24  2  0  0  0  0
 25 22  1  0  0  0  0
 25 56  1  0  0  0  0
 25 57  1  0  0  0  0
 26 25  1  0  0  0  0
 26 58  1  0  0  0  0
 26 59  1  0  0  0  0
 27 28  1  0  0  0  0
 27 26  1  0  0  0  0
 29 27  2  0  0  0  0
 30 23  1  0  0  0  0
 30 31  1  0  0  0  0
 30 60  1  0  0  0  0
 31 61  1  0  0  0  0
 31 62  1  0  0  0  0
 31 63  1  0  0  0  0
M  CHG  1  28  -1
M  END
>  <MODEL>
       0

$$$$
selected_4mers/AVAE/591_noH.pdb
 OpenBabel03042518233D

 63 62  0  0  1  0  0  0  0  0999 V2000
  -16.3790    8.6820   14.9260 C   0  0  0  0  0  0  0  0  0  0  0  0
  -15.0540    8.3780   14.2310 C   0  0  0  0  0  0  0  0  0  0  0  0
  -14.0900    7.9600   14.8770 O   0  0  0  0  0  0  0  0  0  0  0  0
  -14.9930    8.5810   12.9210 N   0  0  0  0  0  0  0  0  0  0  0  0
  -13.7330    8.3610   12.2080 C   0  0  2  0  0  0  0  0  0  0  0  0
  -12.6050    9.2720   12.7530 C   0  0  0  0  0  0  0  0  0  0  0  0
  -11.4370    8.8390   12.8800 O   0  0  0  0  0  0  0  0  0  0  0  0
  -13.9290    8.5940   10.7110 C   0  0  0  0  0  0  0  0  0  0  0  0
  -12.9620   10.5190   13.0800 N   0  0  0  0  0  0  0  0  0  0  0  0
  -11.9610   11.4500   13.6090 C   0  0  2  0  0  0  0  0  0  0  0  0
  -11.4820   10.9830   14.9970 C   0  0  0  0  0  0  0  0  0  0  0  0
  -10.2670   10.9430   15.2660 O   0  0  0  0  0  0  0  0  0  0  0  0
  -12.4800   12.8950   13.6220 C   0  0  0  0  0  0  0  0  0  0  0  0
  -11.5530   13.8180   14.4210 C   0  0  0  0  0  0  0  0  0  0  0  0
  -12.6000   13.3950   12.1950 C   0  0  0  0  0  0  0  0  0  0  0  0
  -12.4310   10.6140   15.8680 N   0  0  0  0  0  0  0  0  0  0  0  0
  -12.0660   10.1230   17.2030 C   0  0  2  0  0  0  0  0  0  0  0  0
  -11.2050    8.8640   17.1310 C   0  0  0  0  0  0  0  0  0  0  0  0
  -10.2800    8.7030   17.9140 O   0  0  0  0  0  0  0  0  0  0  0  0
  -13.3150    9.8620   18.0620 C   0  0  0  0  0  0  0  0  0  0  0  0
  -11.5570    7.9380   16.2360 N   0  0  0  0  0  0  0  0  0  0  0  0
  -10.7580    6.7310   16.0840 C   0  0  2  0  0  0  0  0  0  0  0  0
   -9.3250    7.0420   15.6310 C   0  0  0  0  0  0  0  0  0  0  0  0
   -8.3620    6.4710   16.1740 O   0  0  0  0  0  0  0  0  0  0  0  0
  -11.4830    5.7160   15.1770 C   0  0  0  0  0  0  0  0  0  0  0  0
  -12.6440    5.1010   15.9760 C   0  0  0  0  0  0  0  0  0  0  0  0
  -13.4110    4.0600   15.1920 C   0  0  0  0  0  0  0  0  0  0  0  0
  -13.1140    3.8590   13.9960 O   0  0  0  0  0  0  0  0  0  0  0  0
  -14.3200    3.4430   15.7750 O   0  0  0  0  0  0  0  0  0  0  0  0
   -9.1800    7.9720   14.6800 N   0  0  0  0  0  0  0  0  0  0  0  0
   -7.8500    8.3460   14.2260 C   0  0  0  0  0  0  0  0  0  0  0  0
  -17.0880    9.0315   14.2049 H   0  0  0  0  0  0  0  0  0  0  0  0
  -16.2267    9.4353   15.6705 H   0  0  0  0  0  0  0  0  0  0  0  0
  -16.7509    7.7923   15.3897 H   0  0  0  0  0  0  0  0  0  0  0  0
  -15.7926    8.8787   12.4299 H   0  0  0  0  0  0  0  0  0  0  0  0
  -13.4361    7.3457   12.3689 H   0  0  0  0  0  0  0  0  0  0  0  0
  -14.2262    9.6082   10.5438 H   0  0  0  0  0  0  0  0  0  0  0  0
  -14.6877    7.9349   10.3438 H   0  0  0  0  0  0  0  0  0  0  0  0
  -13.0104    8.4021   10.1969 H   0  0  0  0  0  0  0  0  0  0  0  0
  -13.8952   10.8109   12.9656 H   0  0  0  0  0  0  0  0  0  0  0  0
  -11.1142   11.4466   12.9549 H   0  0  0  0  0  0  0  0  0  0  0  0
  -13.4387   12.9053   14.0971 H   0  0  0  0  0  0  0  0  0  0  0  0
  -10.5834   13.8283   13.9685 H   0  0  0  0  0  0  0  0  0  0  0  0
  -11.4736   13.4603   15.4263 H   0  0  0  0  0  0  0  0  0  0  0  0
  -11.9548   14.8097   14.4259 H   0  0  0  0  0  0  0  0  0  0  0  0
  -11.6365   13.3805   11.7298 H   0  0  0  0  0  0  0  0  0  0  0  0
  -12.9794   14.3955   12.1983 H   0  0  0  0  0  0  0  0  0  0  0  0
  -13.2687   12.7618   11.6502 H   0  0  0  0  0  0  0  0  0  0  0  0
  -13.3796   10.6725   15.6112 H   0  0  0  0  0  0  0  0  0  0  0  0
  -11.4863   10.8932   17.6673 H   0  0  0  0  0  0  0  0  0  0  0  0
  -13.9050    9.0929   17.6090 H   0  0  0  0  0  0  0  0  0  0  0  0
  -13.8929   10.7597   18.1331 H   0  0  0  0  0  0  0  0  0  0  0  0
  -13.0159    9.5519   19.0414 H   0  0  0  0  0  0  0  0  0  0  0  0
  -12.3574    8.0717   15.6786 H   0  0  0  0  0  0  0  0  0  0  0  0
  -10.6528    6.2703   17.0440 H   0  0  0  0  0  0  0  0  0  0  0  0
  -11.8637    6.2130   14.3093 H   0  0  0  0  0  0  0  0  0  0  0  0
  -10.8045    4.9507   14.8627 H   0  0  0  0  0  0  0  0  0  0  0  0
  -13.3183    5.8833   16.2555 H   0  0  0  0  0  0  0  0  0  0  0  0
  -12.2232    4.6139   16.8307 H   0  0  0  0  0  0  0  0  0  0  0  0
   -9.9735    8.4030   14.2877 H   0  0  0  0  0  0  0  0  0  0  0  0
   -7.1177    7.7779   14.7607 H   0  0  0  0  0  0  0  0  0  0  0  0
   -7.6924    9.3891   14.4046 H   0  0  0  0  0  0  0  0  0  0  0  0
   -7.7613    8.1461   13.1786 H   0  0  0  0  0  0  0  0  0  0  0  0
  1  2  1  0  0  0  0
  1 32  1  0  0  0  0
  1 33  1  0  0  0  0
  1 34  1  0  0  0  0
  2  3  2  0  0  0  0
  4  2  1  0  0  0  0
  4  5  1  0  0  0  0
  4 35  1  0  0  0  0
  5  6  1  0  0  0  0
  5 36  1  1  0  0  0
  6  7  2  0  0  0  0
  8  5  1  0  0  0  0
  8 37  1  0  0  0  0
  8 38  1  0  0  0  0
  8 39  1  0  0  0  0
  9  6  1  0  0  0  0
  9 10  1  0  0  0  0
  9 40  1  0  0  0  0
 10 11  1  0  0  0  0
 10 41  1  1  0  0  0
 11 12  2  0  0  0  0
 13 10  1  0  0  0  0
 13 14  1  0  0  0  0
 13 42  1  0  0  0  0
 14 43  1  0  0  0  0
 14 44  1  0  0  0  0
 14 45  1  0  0  0  0
 15 13  1  0  0  0  0
 15 46  1  0  0  0  0
 15 47  1  0  0  0  0
 15 48  1  0  0  0  0
 16 11  1  0  0  0  0
 16 17  1  0  0  0  0
 16 49  1  0  0  0  0
 17 18  1  0  0  0  0
 17 50  1  1  0  0  0
 18 19  2  0  0  0  0
 20 17  1  0  0  0  0
 20 51  1  0  0  0  0
 20 52  1  0  0  0  0
 20 53  1  0  0  0  0
 21 18  1  0  0  0  0
 21 22  1  0  0  0  0
 21 54  1  0  0  0  0
 22 23  1  0  0  0  0
 22 55  1  1  0  0  0
 23 24  2  0  0  0  0
 25 22  1  0  0  0  0
 25 56  1  0  0  0  0
 25 57  1  0  0  0  0
 26 25  1  0  0  0  0
 26 58  1  0  0  0  0
 26 59  1  0  0  0  0
 27 28  1  0  0  0  0
 27 26  1  0  0  0  0
 29 27  2  0  0  0  0
 30 23  1  0  0  0  0
 30 31  1  0  0  0  0
 30 60  1  0  0  0  0
 31 61  1  0  0  0  0
 31 62  1  0  0  0  0
 31 63  1  0  0  0  0
M  CHG  1  28  -1
M  END
>  <MODEL>
       0

$$$$
selected_4mers/AVAE/592_noH.pdb
 OpenBabel03042518233D

 63 62  0  0  1  0  0  0  0  0999 V2000
   28.0700   20.3670  119.7130 C   0  0  0  0  0  0  0  0  0  0  0  0
   29.3600   20.5530  120.5130 C   0  0  0  0  0  0  0  0  0  0  0  0
   30.4580   20.6300  119.9350 O   0  0  0  0  0  0  0  0  0  0  0  0
   29.2280   20.6260  121.8370 N   0  0  0  0  0  0  0  0  0  0  0  0
   30.3970   20.7190  122.7180 C   0  0  2  0  0  0  0  0  0  0  0  0
   30.3480   19.5570  123.6830 C   0  0  0  0  0  0  0  0  0  0  0  0
   29.3590   19.4190  124.4210 O   0  0  0  0  0  0  0  0  0  0  0  0
   30.4100   22.0510  123.4780 C   0  0  0  0  0  0  0  0  0  0  0  0
   31.3980   18.7280  123.6820 N   0  0  0  0  0  0  0  0  0  0  0  0
   31.4550   17.5220  124.5250 C   0  0  2  0  0  0  0  0  0  0  0  0
   32.6720   17.5470  125.4530 C   0  0  0  0  0  0  0  0  0  0  0  0
   33.8040   17.6500  124.9910 O   0  0  0  0  0  0  0  0  0  0  0  0
   31.4580   16.2460  123.6630 C   0  0  0  0  0  0  0  0  0  0  0  0
   31.3780   14.9960  124.5260 C   0  0  0  0  0  0  0  0  0  0  0  0
   30.2840   16.2870  122.6820 C   0  0  0  0  0  0  0  0  0  0  0  0
   32.4090   17.4690  126.7560 N   0  0  0  0  0  0  0  0  0  0  0  0
   33.4660   17.4830  127.7790 C   0  0  2  0  0  0  0  0  0  0  0  0
   33.5530   16.1180  128.4460 C   0  0  0  0  0  0  0  0  0  0  0  0
   32.5220   15.5480  128.8230 O   0  0  0  0  0  0  0  0  0  0  0  0
   33.1540   18.5310  128.8390 C   0  0  0  0  0  0  0  0  0  0  0  0
   34.7630   15.5870  128.5790 N   0  0  0  0  0  0  0  0  0  0  0  0
   34.9820   14.4210  129.4440 C   0  0  2  0  0  0  0  0  0  0  0  0
   35.9070   14.7960  130.5970 C   0  0  0  0  0  0  0  0  0  0  0  0
   37.0200   15.2860  130.3730 O   0  0  0  0  0  0  0  0  0  0  0  0
   35.5480   13.2230  128.6870 C   0  0  0  0  0  0  0  0  0  0  0  0
   35.8800   12.0650  129.6410 C   0  0  0  0  0  0  0  0  0  0  0  0
   36.2590   10.7810  128.9710 C   0  0  0  0  0  0  0  0  0  0  0  0
   36.3180   10.7150  127.7220 O   0  0  0  0  0  0  0  0  0  0  0  0
   36.5320    9.8270  129.7250 O   0  0  0  0  0  0  0  0  0  0  0  0
   35.4370   14.5870  131.8290 N   0  0  0  0  0  0  0  0  0  0  0  0
   36.2980   14.7600  133.0030 C   0  0  0  0  0  0  0  0  0  0  0  0
   28.3009   20.3226  118.6692 H   0  0  0  0  0  0  0  0  0  0  0  0
   27.4134   21.1913  119.8983 H   0  0  0  0  0  0  0  0  0  0  0  0
   27.5931   19.4570  120.0118 H   0  0  0  0  0  0  0  0  0  0  0  0
   28.3264   20.6173  122.2324 H   0  0  0  0  0  0  0  0  0  0  0  0
   31.2936   20.6794  122.1354 H   0  0  0  0  0  0  0  0  0  0  0  0
   29.5257   22.1295  124.0753 H   0  0  0  0  0  0  0  0  0  0  0  0
   30.4410   22.8603  122.7788 H   0  0  0  0  0  0  0  0  0  0  0  0
   31.2723   22.0926  124.1101 H   0  0  0  0  0  0  0  0  0  0  0  0
   32.1618   18.9320  123.0952 H   0  0  0  0  0  0  0  0  0  0  0  0
   30.5758   17.5142  125.1348 H   0  0  0  0  0  0  0  0  0  0  0  0
   32.3783   16.2083  123.1185 H   0  0  0  0  0  0  0  0  0  0  0  0
   30.4651   15.0057  125.0841 H   0  0  0  0  0  0  0  0  0  0  0  0
   32.2083   14.9746  125.2006 H   0  0  0  0  0  0  0  0  0  0  0  0
   31.4043   14.1284  123.9004 H   0  0  0  0  0  0  0  0  0  0  0  0
   29.3644   16.3247  123.2277 H   0  0  0  0  0  0  0  0  0  0  0  0
   30.2999   15.4095  122.0699 H   0  0  0  0  0  0  0  0  0  0  0  0
   30.3670   17.1555  122.0625 H   0  0  0  0  0  0  0  0  0  0  0  0
   31.4708   17.3993  127.0460 H   0  0  0  0  0  0  0  0  0  0  0  0
   34.3972   17.7177  127.3071 H   0  0  0  0  0  0  0  0  0  0  0  0
   32.2227   18.2954  129.3102 H   0  0  0  0  0  0  0  0  0  0  0  0
   33.0872   19.4947  128.3789 H   0  0  0  0  0  0  0  0  0  0  0  0
   33.9329   18.5392  129.5726 H   0  0  0  0  0  0  0  0  0  0  0  0
   35.5226   15.9801  128.0915 H   0  0  0  0  0  0  0  0  0  0  0  0
   34.0260   14.1267  129.8239 H   0  0  0  0  0  0  0  0  0  0  0  0
   36.4406   13.5223  128.1784 H   0  0  0  0  0  0  0  0  0  0  0  0
   34.8099   12.8849  127.9899 H   0  0  0  0  0  0  0  0  0  0  0  0
   35.0200   11.8801  130.2502 H   0  0  0  0  0  0  0  0  0  0  0  0
   36.7383   12.3750  130.1997 H   0  0  0  0  0  0  0  0  0  0  0  0
   34.4993   14.3129  131.9508 H   0  0  0  0  0  0  0  0  0  0  0  0
   37.2761   15.0574  132.6872 H   0  0  0  0  0  0  0  0  0  0  0  0
   36.3617   13.8355  133.5380 H   0  0  0  0  0  0  0  0  0  0  0  0
   35.8846   15.5133  133.6406 H   0  0  0  0  0  0  0  0  0  0  0  0
  1  2  1  0  0  0  0
  1 32  1  0  0  0  0
  1 33  1  0  0  0  0
  1 34  1  0  0  0  0
  2  3  2  0  0  0  0
  4  2  1  0  0  0  0
  4  5  1  0  0  0  0
  4 35  1  0  0  0  0
  5  6  1  0  0  0  0
  5 36  1  1  0  0  0
  6  7  2  0  0  0  0
  8  5  1  0  0  0  0
  8 37  1  0  0  0  0
  8 38  1  0  0  0  0
  8 39  1  0  0  0  0
  9  6  1  0  0  0  0
  9 10  1  0  0  0  0
  9 40  1  0  0  0  0
 10 11  1  0  0  0  0
 10 41  1  1  0  0  0
 11 12  2  0  0  0  0
 13 10  1  0  0  0  0
 13 14  1  0  0  0  0
 13 42  1  0  0  0  0
 14 43  1  0  0  0  0
 14 44  1  0  0  0  0
 14 45  1  0  0  0  0
 15 13  1  0  0  0  0
 15 46  1  0  0  0  0
 15 47  1  0  0  0  0
 15 48  1  0  0  0  0
 16 11  1  0  0  0  0
 16 17  1  0  0  0  0
 16 49  1  0  0  0  0
 17 18  1  0  0  0  0
 17 50  1  1  0  0  0
 18 19  2  0  0  0  0
 20 17  1  0  0  0  0
 20 51  1  0  0  0  0
 20 52  1  0  0  0  0
 20 53  1  0  0  0  0
 21 18  1  0  0  0  0
 21 22  1  0  0  0  0
 21 54  1  0  0  0  0
 22 23  1  0  0  0  0
 22 55  1  1  0  0  0
 23 24  2  0  0  0  0
 25 22  1  0  0  0  0
 25 56  1  0  0  0  0
 25 57  1  0  0  0  0
 26 25  1  0  0  0  0
 26 58  1  0  0  0  0
 26 59  1  0  0  0  0
 27 28  1  0  0  0  0
 27 26  1  0  0  0  0
 29 27  2  0  0  0  0
 30 23  1  0  0  0  0
 30 31  1  0  0  0  0
 30 60  1  0  0  0  0
 31 61  1  0  0  0  0
 31 62  1  0  0  0  0
 31 63  1  0  0  0  0
M  CHG  1  28  -1
M  END
>  <MODEL>
       0

$$$$
selected_4mers/AVAE/593_noH.pdb
 OpenBabel03042518233D

 63 62  0  0  1  0  0  0  0  0999 V2000
    2.5580   26.3930    6.8570 C   0  0  0  0  0  0  0  0  0  0  0  0
    3.6120   27.2190    6.1040 C   0  0  0  0  0  0  0  0  0  0  0  0
    4.6270   26.6820    5.6710 O   0  0  0  0  0  0  0  0  0  0  0  0
    3.3620   28.5210    5.9480 N   0  0  0  0  0  0  0  0  0  0  0  0
    4.3710   29.4610    5.4450 C   0  0  2  0  0  0  0  0  0  0  0  0
    4.8000   30.3440    6.6140 C   0  0  0  0  0  0  0  0  0  0  0  0
    3.9610   31.0040    7.2310 O   0  0  0  0  0  0  0  0  0  0  0  0
    3.7980   30.3180    4.3280 C   0  0  0  0  0  0  0  0  0  0  0  0
    6.0870   30.3710    6.9340 N   0  0  0  0  0  0  0  0  0  0  0  0
    6.5670   31.2290    8.0090 C   0  0  2  0  0  0  0  0  0  0  0  0
    8.0490   31.4900    7.7350 C   0  0  0  0  0  0  0  0  0  0  0  0
    8.6140   30.9400    6.7910 O   0  0  0  0  0  0  0  0  0  0  0  0
    6.3340   30.5620    9.4090 C   0  0  0  0  0  0  0  0  0  0  0  0
    7.2400   29.3370    9.5830 C   0  0  0  0  0  0  0  0  0  0  0  0
    6.5110   31.5910   10.5520 C   0  0  0  0  0  0  0  0  0  0  0  0
    8.6650   32.3540    8.5180 N   0  0  0  0  0  0  0  0  0  0  0  0
   10.1110   32.5120    8.4900 C   0  0  2  0  0  0  0  0  0  0  0  0
   10.6490   32.5380    9.9080 C   0  0  0  0  0  0  0  0  0  0  0  0
    9.8800   32.6750   10.8840 O   0  0  0  0  0  0  0  0  0  0  0  0
   10.5310   33.7880    7.6750 C   0  0  0  0  0  0  0  0  0  0  0  0
   11.9740   32.3780   10.0100 N   0  0  0  0  0  0  0  0  0  0  0  0
   12.7370   32.3590   11.2460 C   0  0  2  0  0  0  0  0  0  0  0  0
   12.4790   31.1280   12.1130 C   0  0  0  0  0  0  0  0  0  0  0  0
   13.4220   30.5790   12.6820 O   0  0  0  0  0  0  0  0  0  0  0  0
   12.5850   33.6530   12.0700 C   0  0  0  0  0  0  0  0  0  0  0  0
   13.6290   33.7280   13.1900 C   0  0  0  0  0  0  0  0  0  0  0  0
   13.8270   35.1420   13.7710 C   0  0  0  0  0  0  0  0  0  0  0  0
   13.1080   36.0680   13.3530 O   0  0  0  0  0  0  0  0  0  0  0  0
   14.7260   35.3100   14.6360 O   0  0  0  0  0  0  0  0  0  0  0  0
   11.2060   30.7300   12.2120 N   0  0  0  0  0  0  0  0  0  0  0  0
   10.7950   29.6470   13.1080 C   0  0  0  0  0  0  0  0  0  0  0  0
    2.8771   25.3732    6.9127 H   0  0  0  0  0  0  0  0  0  0  0  0
    1.6245   26.4467    6.3369 H   0  0  0  0  0  0  0  0  0  0  0  0
    2.4383   26.7838    7.8459 H   0  0  0  0  0  0  0  0  0  0  0  0
    2.4682   28.8633    6.1787 H   0  0  0  0  0  0  0  0  0  0  0  0
    5.2070   28.9254    5.0463 H   0  0  0  0  0  0  0  0  0  0  0  0
    2.9573   30.8682    4.6960 H   0  0  0  0  0  0  0  0  0  0  0  0
    3.4868   29.6894    3.5200 H   0  0  0  0  0  0  0  0  0  0  0  0
    4.5465   30.9997    3.9817 H   0  0  0  0  0  0  0  0  0  0  0  0
    6.7240   29.8057    6.4402 H   0  0  0  0  0  0  0  0  0  0  0  0
    6.0291   32.1536    8.0356 H   0  0  0  0  0  0  0  0  0  0  0  0
    5.3223   30.2169    9.4576 H   0  0  0  0  0  0  0  0  0  0  0  0
    8.2646   29.6422    9.5401 H   0  0  0  0  0  0  0  0  0  0  0  0
    7.0441   28.6344    8.8001 H   0  0  0  0  0  0  0  0  0  0  0  0
    7.0434   28.8797   10.5302 H   0  0  0  0  0  0  0  0  0  0  0  0
    7.5133   31.9655   10.5427 H   0  0  0  0  0  0  0  0  0  0  0  0
    6.3159   31.1176   11.4915 H   0  0  0  0  0  0  0  0  0  0  0  0
    5.8262   32.4011   10.4118 H   0  0  0  0  0  0  0  0  0  0  0  0
    8.1335   32.9055    9.1365 H   0  0  0  0  0  0  0  0  0  0  0  0
   10.5433   31.6743    7.9839 H   0  0  0  0  0  0  0  0  0  0  0  0
   10.1220   34.6598    8.1415 H   0  0  0  0  0  0  0  0  0  0  0  0
   10.1588   33.7109    6.6748 H   0  0  0  0  0  0  0  0  0  0  0  0
   11.5982   33.8623    7.6537 H   0  0  0  0  0  0  0  0  0  0  0  0
   12.4769   32.2628    9.1715 H   0  0  0  0  0  0  0  0  0  0  0  0
   13.7554   32.2991   10.9233 H   0  0  0  0  0  0  0  0  0  0  0  0
   11.6070   33.6770   12.5034 H   0  0  0  0  0  0  0  0  0  0  0  0
   12.7311   34.4877   11.4167 H   0  0  0  0  0  0  0  0  0  0  0  0
   14.5662   33.3909   12.7991 H   0  0  0  0  0  0  0  0  0  0  0  0
   13.2698   33.1133   13.9888 H   0  0  0  0  0  0  0  0  0  0  0  0
   10.5227   31.1800   11.6644 H   0  0  0  0  0  0  0  0  0  0  0  0
   11.6512   29.2686   13.6263 H   0  0  0  0  0  0  0  0  0  0  0  0
   10.3482   28.8609   12.5359 H   0  0  0  0  0  0  0  0  0  0  0  0
   10.0853   30.0202   13.8165 H   0  0  0  0  0  0  0  0  0  0  0  0
  1  2  1  0  0  0  0
  1 32  1  0  0  0  0
  1 33  1  0  0  0  0
  1 34  1  0  0  0  0
  2  3  2  0  0  0  0
  4  2  1  0  0  0  0
  4  5  1  0  0  0  0
  4 35  1  0  0  0  0
  5  6  1  0  0  0  0
  5 36  1  1  0  0  0
  6  7  2  0  0  0  0
  8  5  1  0  0  0  0
  8 37  1  0  0  0  0
  8 38  1  0  0  0  0
  8 39  1  0  0  0  0
  9  6  1  0  0  0  0
  9 10  1  0  0  0  0
  9 40  1  0  0  0  0
 10 11  1  0  0  0  0
 10 41  1  1  0  0  0
 11 12  2  0  0  0  0
 13 10  1  0  0  0  0
 13 14  1  0  0  0  0
 13 42  1  0  0  0  0
 14 43  1  0  0  0  0
 14 44  1  0  0  0  0
 14 45  1  0  0  0  0
 15 13  1  0  0  0  0
 15 46  1  0  0  0  0
 15 47  1  0  0  0  0
 15 48  1  0  0  0  0
 16 11  1  0  0  0  0
 16 17  1  0  0  0  0
 16 49  1  0  0  0  0
 17 18  1  0  0  0  0
 17 50  1  1  0  0  0
 18 19  2  0  0  0  0
 20 17  1  0  0  0  0
 20 51  1  0  0  0  0
 20 52  1  0  0  0  0
 20 53  1  0  0  0  0
 21 18  1  0  0  0  0
 21 22  1  0  0  0  0
 21 54  1  0  0  0  0
 22 23  1  0  0  0  0
 22 55  1  1  0  0  0
 23 24  2  0  0  0  0
 25 22  1  0  0  0  0
 25 56  1  0  0  0  0
 25 57  1  0  0  0  0
 26 25  1  0  0  0  0
 26 58  1  0  0  0  0
 26 59  1  0  0  0  0
 27 28  1  0  0  0  0
 27 26  1  0  0  0  0
 29 27  2  0  0  0  0
 30 23  1  0  0  0  0
 30 31  1  0  0  0  0
 30 60  1  0  0  0  0
 31 61  1  0  0  0  0
 31 62  1  0  0  0  0
 31 63  1  0  0  0  0
M  CHG  1  28  -1
M  END
>  <MODEL>
       0

$$$$
selected_4mers/AVAE/594_noH.pdb
 OpenBabel03042518233D

 63 62  0  0  1  0  0  0  0  0999 V2000
   19.7310   -2.2300   12.3080 C   0  0  0  0  0  0  0  0  0  0  0  0
   20.5630   -3.4120   11.8130 C   0  0  0  0  0  0  0  0  0  0  0  0
   21.4740   -3.8890   12.5040 O   0  0  0  0  0  0  0  0  0  0  0  0
   20.2130   -3.9180   10.6190 N   0  0  0  0  0  0  0  0  0  0  0  0
   20.8640   -5.0800   10.0310 C   0  0  2  0  0  0  0  0  0  0  0  0
   21.9880   -4.6750    9.1070 C   0  0  0  0  0  0  0  0  0  0  0  0
   21.8550   -3.7230    8.3520 O   0  0  0  0  0  0  0  0  0  0  0  0
   19.8190   -5.9420    9.2610 C   0  0  0  0  0  0  0  0  0  0  0  0
   23.1130   -5.3980    9.1980 N   0  0  0  0  0  0  0  0  0  0  0  0
   24.2390   -5.2070    8.2910 C   0  0  2  0  0  0  0  0  0  0  0  0
   24.7260   -6.5720    7.8000 C   0  0  0  0  0  0  0  0  0  0  0  0
   24.5940   -7.5920    8.4930 O   0  0  0  0  0  0  0  0  0  0  0  0
   25.4300   -4.4700    8.9720 C   0  0  0  0  0  0  0  0  0  0  0  0
   24.9790   -3.1350    9.5770 C   0  0  0  0  0  0  0  0  0  0  0  0
   26.1090   -5.3490   10.0520 C   0  0  0  0  0  0  0  0  0  0  0  0
   25.2390   -6.5850    6.5610 N   0  0  0  0  0  0  0  0  0  0  0  0
   25.8340   -7.7820    5.9620 C   0  0  2  0  0  0  0  0  0  0  0  0
   27.3380   -7.5760    5.8770 C   0  0  0  0  0  0  0  0  0  0  0  0
   27.7970   -6.5080    5.5030 O   0  0  0  0  0  0  0  0  0  0  0  0
   25.2530   -8.0400    4.5720 C   0  0  0  0  0  0  0  0  0  0  0  0
   28.1050   -8.5800    6.2170 N   0  0  0  0  0  0  0  0  0  0  0  0
   29.5630   -8.4790    6.1370 C   0  0  2  0  0  0  0  0  0  0  0  0
   29.9670   -8.3590    4.6580 C   0  0  0  0  0  0  0  0  0  0  0  0
   29.5450   -9.1760    3.8520 O   0  0  0  0  0  0  0  0  0  0  0  0
   30.2390   -9.6910    6.8290 C   0  0  0  0  0  0  0  0  0  0  0  0
   29.8400   -9.8270    8.3170 C   0  0  0  0  0  0  0  0  0  0  0  0
   30.5940  -10.8660    9.0710 C   0  0  0  0  0  0  0  0  0  0  0  0
   31.6450  -11.3300    8.5840 O   0  0  0  0  0  0  0  0  0  0  0  0
   30.1200  -11.2230   10.1820 O   0  0  0  0  0  0  0  0  0  0  0  0
   30.8020   -7.3820    4.3020 N   0  0  0  0  0  0  0  0  0  0  0  0
   31.1930   -7.2270    2.8920 C   0  0  0  0  0  0  0  0  0  0  0  0
   19.0021   -1.9722   11.5683 H   0  0  0  0  0  0  0  0  0  0  0  0
   20.3720   -1.3916   12.4844 H   0  0  0  0  0  0  0  0  0  0  0  0
   19.2362   -2.4983   13.2180 H   0  0  0  0  0  0  0  0  0  0  0  0
   19.4841   -3.4840   10.1194 H   0  0  0  0  0  0  0  0  0  0  0  0
   21.2864   -5.6600   10.8248 H   0  0  0  0  0  0  0  0  0  0  0  0
   19.3954   -5.3636    8.4667 H   0  0  0  0  0  0  0  0  0  0  0  0
   19.0439   -6.2471    9.9326 H   0  0  0  0  0  0  0  0  0  0  0  0
   20.3001   -6.8072    8.8549 H   0  0  0  0  0  0  0  0  0  0  0  0
   23.1817   -6.0825    9.9023 H   0  0  0  0  0  0  0  0  0  0  0  0
   23.8966   -4.6016    7.4779 H   0  0  0  0  0  0  0  0  0  0  0  0
   26.1535   -4.2717    8.2091 H   0  0  0  0  0  0  0  0  0  0  0  0
   24.2542   -3.3172   10.3427 H   0  0  0  0  0  0  0  0  0  0  0  0
   24.5445   -2.5256    8.8124 H   0  0  0  0  0  0  0  0  0  0  0  0
   25.8236   -2.6308    9.9980 H   0  0  0  0  0  0  0  0  0  0  0  0
   25.4068   -5.5638   10.8302 H   0  0  0  0  0  0  0  0  0  0  0  0
   26.9473   -4.8258   10.4624 H   0  0  0  0  0  0  0  0  0  0  0  0
   26.4419   -6.2645    9.6093 H   0  0  0  0  0  0  0  0  0  0  0  0
   25.2147   -5.7552    6.0318 H   0  0  0  0  0  0  0  0  0  0  0  0
   25.6130   -8.6357    6.5680 H   0  0  0  0  0  0  0  0  0  0  0  0
   25.4574   -7.2020    3.9388 H   0  0  0  0  0  0  0  0  0  0  0  0
   24.1949   -8.1799    4.6480 H   0  0  0  0  0  0  0  0  0  0  0  0
   25.7000   -8.9187    4.1561 H   0  0  0  0  0  0  0  0  0  0  0  0
   27.6945   -9.4176    6.5320 H   0  0  0  0  0  0  0  0  0  0  0  0
   29.8990   -7.6065    6.6574 H   0  0  0  0  0  0  0  0  0  0  0  0
   31.3006   -9.5714    6.7687 H   0  0  0  0  0  0  0  0  0  0  0  0
   29.9114  -10.5757    6.3242 H   0  0  0  0  0  0  0  0  0  0  0  0
   28.7994  -10.0720    8.3619 H   0  0  0  0  0  0  0  0  0  0  0  0
   30.0724   -8.8902    8.7789 H   0  0  0  0  0  0  0  0  0  0  0  0
   31.1566   -6.7649    4.9822 H   0  0  0  0  0  0  0  0  0  0  0  0
   30.7132   -7.9812    2.3039 H   0  0  0  0  0  0  0  0  0  0  0  0
   32.2546   -7.3270    2.8032 H   0  0  0  0  0  0  0  0  0  0  0  0
   30.8955   -6.2600    2.5436 H   0  0  0  0  0  0  0  0  0  0  0  0
  1  2  1  0  0  0  0
  1 32  1  0  0  0  0
  1 33  1  0  0  0  0
  1 34  1  0  0  0  0
  2  3  2  0  0  0  0
  4  2  1  0  0  0  0
  4  5  1  0  0  0  0
  4 35  1  0  0  0  0
  5  6  1  0  0  0  0
  5 36  1  1  0  0  0
  6  7  2  0  0  0  0
  8  5  1  0  0  0  0
  8 37  1  0  0  0  0
  8 38  1  0  0  0  0
  8 39  1  0  0  0  0
  9  6  1  0  0  0  0
  9 10  1  0  0  0  0
  9 40  1  0  0  0  0
 10 11  1  0  0  0  0
 10 41  1  1  0  0  0
 11 12  2  0  0  0  0
 13 10  1  0  0  0  0
 13 14  1  0  0  0  0
 13 42  1  0  0  0  0
 14 43  1  0  0  0  0
 14 44  1  0  0  0  0
 14 45  1  0  0  0  0
 15 13  1  0  0  0  0
 15 46  1  0  0  0  0
 15 47  1  0  0  0  0
 15 48  1  0  0  0  0
 16 11  1  0  0  0  0
 16 17  1  0  0  0  0
 16 49  1  0  0  0  0
 17 18  1  0  0  0  0
 17 50  1  1  0  0  0
 18 19  2  0  0  0  0
 20 17  1  0  0  0  0
 20 51  1  0  0  0  0
 20 52  1  0  0  0  0
 20 53  1  0  0  0  0
 21 18  1  0  0  0  0
 21 22  1  0  0  0  0
 21 54  1  0  0  0  0
 22 23  1  0  0  0  0
 22 55  1  1  0  0  0
 23 24  2  0  0  0  0
 25 22  1  0  0  0  0
 25 56  1  0  0  0  0
 25 57  1  0  0  0  0
 26 25  1  0  0  0  0
 26 58  1  0  0  0  0
 26 59  1  0  0  0  0
 27 28  1  0  0  0  0
 27 26  1  0  0  0  0
 29 27  2  0  0  0  0
 30 23  1  0  0  0  0
 30 31  1  0  0  0  0
 30 60  1  0  0  0  0
 31 61  1  0  0  0  0
 31 62  1  0  0  0  0
 31 63  1  0  0  0  0
M  CHG  1  28  -1
M  END
>  <MODEL>
       0

$$$$
