selected_4mers/AVAG/615_noH.pdb
 OpenBabel03042518233D

 55 54  0  0  1  0  0  0  0  0999 V2000
    6.1420  -11.0940   -6.7790 C   0  0  0  0  0  0  0  0  0  0  0  0
    5.6310  -11.6440   -5.4330 C   0  0  0  0  0  0  0  0  0  0  0  0
    6.4130  -12.1420   -4.6070 O   0  0  0  0  0  0  0  0  0  0  0  0
    4.3100  -11.5700   -5.2270 N   0  0  0  0  0  0  0  0  0  0  0  0
    3.6680  -12.1580   -4.0430 C   0  0  2  0  0  0  0  0  0  0  0  0
    3.8930  -13.6590   -4.0430 C   0  0  0  0  0  0  0  0  0  0  0  0
    4.3080  -14.2330   -3.0220 O   0  0  0  0  0  0  0  0  0  0  0  0
    2.1650  -11.8400   -3.9910 C   0  0  0  0  0  0  0  0  0  0  0  0
    3.6770  -14.2790   -5.1950 N   0  0  0  0  0  0  0  0  0  0  0  0
    3.7770  -15.7440   -5.3220 C   0  0  2  0  0  0  0  0  0  0  0  0
    5.2320  -16.2260   -5.2140 C   0  0  0  0  0  0  0  0  0  0  0  0
    5.4930  -17.3280   -4.6940 O   0  0  0  0  0  0  0  0  0  0  0  0
    3.0840  -16.2580   -6.6320 C   0  0  0  0  0  0  0  0  0  0  0  0
    3.4660  -17.6940   -6.9290 C   0  0  0  0  0  0  0  0  0  0  0  0
    1.5860  -16.1510   -6.5150 C   0  0  0  0  0  0  0  0  0  0  0  0
    6.1770  -15.4000   -5.6690 N   0  0  0  0  0  0  0  0  0  0  0  0
    7.5980  -15.7690   -5.6170 C   0  0  2  0  0  0  0  0  0  0  0  0
    8.0890  -15.8590   -4.1640 C   0  0  0  0  0  0  0  0  0  0  0  0
    9.0860  -16.5430   -3.8760 O   0  0  0  0  0  0  0  0  0  0  0  0
    8.4540  -14.7850   -6.4410 C   0  0  0  0  0  0  0  0  0  0  0  0
    7.3830  -15.1920   -3.2480 N   0  0  0  0  0  0  0  0  0  0  0  0
    7.6150  -15.3610   -1.8090 C   0  0  0  0  0  0  0  0  0  0  0  0
    8.5790  -14.3440   -1.2360 C   0  0  0  0  0  0  0  0  0  0  0  0
    9.1100  -13.5220   -1.9690 O   0  0  0  0  0  0  0  0  0  0  0  0
    8.8190  -14.3940    0.0870 N   0  0  0  0  0  0  0  0  0  0  0  0
    9.6600  -13.3850    0.7180 C   0  0  0  0  0  0  0  0  0  0  0  0
    5.3178  -10.7111   -7.3438 H   0  0  0  0  0  0  0  0  0  0  0  0
    6.6164  -11.8801   -7.3285 H   0  0  0  0  0  0  0  0  0  0  0  0
    6.8465  -10.3090   -6.5992 H   0  0  0  0  0  0  0  0  0  0  0  0
    3.7501  -11.1062   -5.8909 H   0  0  0  0  0  0  0  0  0  0  0  0
    4.1119  -11.7262   -3.1704 H   0  0  0  0  0  0  0  0  0  0  0  0
    1.6824  -12.2566   -4.8503 H   0  0  0  0  0  0  0  0  0  0  0  0
    2.0250  -10.7792   -3.9825 H   0  0  0  0  0  0  0  0  0  0  0  0
    1.7415  -12.2628   -3.1040 H   0  0  0  0  0  0  0  0  0  0  0  0
    3.4430  -13.7453   -5.9885 H   0  0  0  0  0  0  0  0  0  0  0  0
    3.2459  -16.1722   -4.4977 H   0  0  0  0  0  0  0  0  0  0  0  0
    3.4220  -15.6407   -7.4380 H   0  0  0  0  0  0  0  0  0  0  0  0
    3.1339  -18.3239   -6.1303 H   0  0  0  0  0  0  0  0  0  0  0  0
    4.5293  -17.7680   -7.0232 H   0  0  0  0  0  0  0  0  0  0  0  0
    3.0045  -18.0040   -7.8432 H   0  0  0  0  0  0  0  0  0  0  0  0
    1.2462  -16.7677   -5.7093 H   0  0  0  0  0  0  0  0  0  0  0  0
    1.1328  -16.4756   -7.4283 H   0  0  0  0  0  0  0  0  0  0  0  0
    1.3149  -15.1336   -6.3242 H   0  0  0  0  0  0  0  0  0  0  0  0
    5.9171  -14.5285   -6.0459 H   0  0  0  0  0  0  0  0  0  0  0  0
    7.7064  -16.7386   -6.0563 H   0  0  0  0  0  0  0  0  0  0  0  0
    8.3670  -13.8026   -6.0260 H   0  0  0  0  0  0  0  0  0  0  0  0
    8.1107  -14.7757   -7.4544 H   0  0  0  0  0  0  0  0  0  0  0  0
    9.4780  -15.0942   -6.4142 H   0  0  0  0  0  0  0  0  0  0  0  0
    6.6842  -14.5666   -3.5477 H   0  0  0  0  0  0  0  0  0  0  0  0
    8.0141  -16.3396   -1.6417 H   0  0  0  0  0  0  0  0  0  0  0  0
    6.6753  -15.2202   -1.3171 H   0  0  0  0  0  0  0  0  0  0  0  0
    8.4253  -15.1144    0.6303 H   0  0  0  0  0  0  0  0  0  0  0  0
    9.9965  -12.6882   -0.0210 H   0  0  0  0  0  0  0  0  0  0  0  0
   10.5050  -13.8585    1.1726 H   0  0  0  0  0  0  0  0  0  0  0  0
    9.0961  -12.8674    1.4657 H   0  0  0  0  0  0  0  0  0  0  0  0
  1  2  1  0  0  0  0
  1 27  1  0  0  0  0
  1 28  1  0  0  0  0
  1 29  1  0  0  0  0
  2  4  1  0  0  0  0
  2  3  2  0  0  0  0
  4  5  1  0  0  0  0
  4 30  1  0  0  0  0
  5  6  1  0  0  0  0
  5  8  1  0  0  0  0
  5 31  1  1  0  0  0
  6  7  2  0  0  0  0
  8 32  1  0  0  0  0
  8 33  1  0  0  0  0
  8 34  1  0  0  0  0
  9  6  1  0  0  0  0
  9 35  1  0  0  0  0
 10 11  1  0  0  0  0
 10  9  1  0  0  0  0
 10 36  1  1  0  0  0
 11 12  2  0  0  0  0
 13 15  1  0  0  0  0
 13 10  1  0  0  0  0
 13 37  1  0  0  0  0
 14 13  1  0  0  0  0
 14 38  1  0  0  0  0
 14 39  1  0  0  0  0
 14 40  1  0  0  0  0
 15 41  1  0  0  0  0
 15 42  1  0  0  0  0
 15 43  1  0  0  0  0
 16 17  1  0  0  0  0
 16 11  1  0  0  0  0
 16 44  1  0  0  0  0
 17 18  1  0  0  0  0
 17 45  1  6  0  0  0
 18 19  2  0  0  0  0
 18 21  1  0  0  0  0
 20 17  1  0  0  0  0
 20 46  1  0  0  0  0
 20 47  1  0  0  0  0
 20 48  1  0  0  0  0
 21 22  1  0  0  0  0
 21 49  1  0  0  0  0
 22 23  1  0  0  0  0
 22 50  1  0  0  0  0
 22 51  1  0  0  0  0
 23 25  1  0  0  0  0
 24 23  2  0  0  0  0
 25 26  1  0  0  0  0
 25 52  1  0  0  0  0
 26 53  1  0  0  0  0
 26 54  1  0  0  0  0
 26 55  1  0  0  0  0
M  END
>  <MODEL>
       0

$$$$
selected_4mers/AVAG/616_noH.pdb
 OpenBabel03042518233D

 55 54  0  0  1  0  0  0  0  0999 V2000
    6.6030   11.5270    9.8910 C   0  0  0  0  0  0  0  0  0  0  0  0
    5.8020   12.3600   10.8790 C   0  0  0  0  0  0  0  0  0  0  0  0
    6.0980   12.3560   12.0930 O   0  0  0  0  0  0  0  0  0  0  0  0
    4.8080   13.0880   10.3670 N   0  0  0  0  0  0  0  0  0  0  0  0
    3.9680   13.9210   11.2450 C   0  0  2  0  0  0  0  0  0  0  0  0
    3.1730   13.0540   12.2060 C   0  0  0  0  0  0  0  0  0  0  0  0
    3.0400   13.3610   13.3930 O   0  0  0  0  0  0  0  0  0  0  0  0
    3.1120   14.8690   10.3900 C   0  0  0  0  0  0  0  0  0  0  0  0
    2.5890   11.9560   11.7150 N   0  0  0  0  0  0  0  0  0  0  0  0
    1.8250   11.0800   12.5940 C   0  0  2  0  0  0  0  0  0  0  0  0
    2.7330   10.4610   13.6500 C   0  0  0  0  0  0  0  0  0  0  0  0
    2.3970   10.4210   14.8450 O   0  0  0  0  0  0  0  0  0  0  0  0
    1.0890    9.9990   11.7820 C   0  0  0  0  0  0  0  0  0  0  0  0
    0.5800    8.8890   12.6880 C   0  0  0  0  0  0  0  0  0  0  0  0
   -0.0990   10.5810   11.0180 C   0  0  0  0  0  0  0  0  0  0  0  0
    3.9130   10.0030   13.2510 N   0  0  0  0  0  0  0  0  0  0  0  0
    4.8760    9.4280   14.1740 C   0  0  2  0  0  0  0  0  0  0  0  0
    5.3180   10.4380   15.2280 C   0  0  0  0  0  0  0  0  0  0  0  0
    5.4620   10.1000   16.3980 O   0  0  0  0  0  0  0  0  0  0  0  0
    6.0880    8.8700   13.4480 C   0  0  0  0  0  0  0  0  0  0  0  0
    5.4800   11.7000   14.8280 N   0  0  0  0  0  0  0  0  0  0  0  0
    5.8800   12.7330   15.7790 C   0  0  0  0  0  0  0  0  0  0  0  0
    4.7840   12.9000   16.8110 C   0  0  0  0  0  0  0  0  0  0  0  0
    5.0610   13.1110   17.9900 O   0  0  0  0  0  0  0  0  0  0  0  0
    3.5180   12.9130   16.3670 N   0  0  0  0  0  0  0  0  0  0  0  0
    2.4120   13.0440   17.3180 C   0  0  0  0  0  0  0  0  0  0  0  0
    6.2033   11.6585    8.9072 H   0  0  0  0  0  0  0  0  0  0  0  0
    6.5439   10.4943   10.1649 H   0  0  0  0  0  0  0  0  0  0  0  0
    7.6255   11.8419    9.9056 H   0  0  0  0  0  0  0  0  0  0  0  0
    4.6351   13.0684    9.3980 H   0  0  0  0  0  0  0  0  0  0  0  0
    4.5783   14.5424   11.8666 H   0  0  0  0  0  0  0  0  0  0  0  0
    2.4791   14.2949    9.7460 H   0  0  0  0  0  0  0  0  0  0  0  0
    3.7511   15.4917    9.7994 H   0  0  0  0  0  0  0  0  0  0  0  0
    2.5100   15.4803   11.0293 H   0  0  0  0  0  0  0  0  0  0  0  0
    2.6752   11.7391   10.7586 H   0  0  0  0  0  0  0  0  0  0  0  0
    1.0848   11.6650   13.0988 H   0  0  0  0  0  0  0  0  0  0  0  0
    1.7983    9.6040   11.0850 H   0  0  0  0  0  0  0  0  0  0  0  0
   -0.1283    9.2914   13.3817 H   0  0  0  0  0  0  0  0  0  0  0  0
    1.4013    8.4616   13.2244 H   0  0  0  0  0  0  0  0  0  0  0  0
    0.1089    8.1328   12.0955 H   0  0  0  0  0  0  0  0  0  0  0  0
   -0.8103   10.9769   11.7124 H   0  0  0  0  0  0  0  0  0  0  0  0
   -0.5600    9.8111   10.4352 H   0  0  0  0  0  0  0  0  0  0  0  0
    0.2412   11.3626   10.3713 H   0  0  0  0  0  0  0  0  0  0  0  0
    4.1439   10.0548   12.2954 H   0  0  0  0  0  0  0  0  0  0  0  0
    4.3789    8.6196   14.6683 H   0  0  0  0  0  0  0  0  0  0  0  0
    6.6000    9.6642   12.9461 H   0  0  0  0  0  0  0  0  0  0  0  0
    5.7704    8.1415   12.7315 H   0  0  0  0  0  0  0  0  0  0  0  0
    6.7473    8.4112   14.1550 H   0  0  0  0  0  0  0  0  0  0  0  0
    5.3287   11.9367   13.8844 H   0  0  0  0  0  0  0  0  0  0  0  0
    6.0310   13.6578   15.2625 H   0  0  0  0  0  0  0  0  0  0  0  0
    6.7919   12.4487   16.2611 H   0  0  0  0  0  0  0  0  0  0  0  0
    3.3328   12.8346   15.4033 H   0  0  0  0  0  0  0  0  0  0  0  0
    2.8026   13.1165   18.3115 H   0  0  0  0  0  0  0  0  0  0  0  0
    1.7765   12.1862   17.2463 H   0  0  0  0  0  0  0  0  0  0  0  0
    1.8488   13.9250   17.0910 H   0  0  0  0  0  0  0  0  0  0  0  0
  1  2  1  0  0  0  0
  1 27  1  0  0  0  0
  1 28  1  0  0  0  0
  1 29  1  0  0  0  0
  2  3  2  0  0  0  0
  4  2  1  0  0  0  0
  4  5  1  0  0  0  0
  4 30  1  0  0  0  0
  5  6  1  0  0  0  0
  5 31  1  1  0  0  0
  6  7  2  0  0  0  0
  8  5  1  0  0  0  0
  8 32  1  0  0  0  0
  8 33  1  0  0  0  0
  8 34  1  0  0  0  0
  9  6  1  0  0  0  0
  9 10  1  0  0  0  0
  9 35  1  0  0  0  0
 10 11  1  0  0  0  0
 10 36  1  1  0  0  0
 11 12  2  0  0  0  0
 13 10  1  0  0  0  0
 13 14  1  0  0  0  0
 13 37  1  0  0  0  0
 14 38  1  0  0  0  0
 14 39  1  0  0  0  0
 14 40  1  0  0  0  0
 15 13  1  0  0  0  0
 15 41  1  0  0  0  0
 15 42  1  0  0  0  0
 15 43  1  0  0  0  0
 16 11  1  0  0  0  0
 16 17  1  0  0  0  0
 16 44  1  0  0  0  0
 17 18  1  0  0  0  0
 17 45  1  1  0  0  0
 18 19  2  0  0  0  0
 20 17  1  0  0  0  0
 20 46  1  0  0  0  0
 20 47  1  0  0  0  0
 20 48  1  0  0  0  0
 21 18  1  0  0  0  0
 21 22  1  0  0  0  0
 21 49  1  0  0  0  0
 22 23  1  0  0  0  0
 22 50  1  0  0  0  0
 22 51  1  0  0  0  0
 23 24  2  0  0  0  0
 25 23  1  0  0  0  0
 25 26  1  0  0  0  0
 25 52  1  0  0  0  0
 26 53  1  0  0  0  0
 26 54  1  0  0  0  0
 26 55  1  0  0  0  0
M  END
>  <MODEL>
       0

$$$$
selected_4mers/AVAG/617_noH.pdb
 OpenBabel03042518233D

 55 54  0  0  1  0  0  0  0  0999 V2000
    1.5370  -24.9250   47.8160 C   0  0  0  0  0  0  0  0  0  0  0  0
    3.0240  -25.1100   48.0800 C   0  0  0  0  0  0  0  0  0  0  0  0
    3.7400  -25.6560   47.2540 O   0  0  0  0  0  0  0  0  0  0  0  0
    3.4650  -24.6140   49.2280 N   0  0  0  0  0  0  0  0  0  0  0  0
    4.8000  -24.9230   49.7670 C   0  0  2  0  0  0  0  0  0  0  0  0
    4.6580  -25.8990   50.9050 C   0  0  0  0  0  0  0  0  0  0  0  0
    4.0710  -25.5780   51.9520 O   0  0  0  0  0  0  0  0  0  0  0  0
    5.5350  -23.6810   50.2280 C   0  0  0  0  0  0  0  0  0  0  0  0
    5.2000  -27.0920   50.6970 N   0  0  0  0  0  0  0  0  0  0  0  0
    5.1850  -28.0800   51.7700 C   0  0  2  0  0  0  0  0  0  0  0  0
    6.5490  -28.1320   52.4320 C   0  0  0  0  0  0  0  0  0  0  0  0
    7.6250  -28.1780   51.8000 O   0  0  0  0  0  0  0  0  0  0  0  0
    4.7280  -29.5010   51.3890 C   0  0  0  0  0  0  0  0  0  0  0  0
    3.2400  -29.5260   51.0700 C   0  0  0  0  0  0  0  0  0  0  0  0
    5.5850  -30.0720   50.2540 C   0  0  0  0  0  0  0  0  0  0  0  0
    6.4880  -28.0930   53.7470 N   0  0  0  0  0  0  0  0  0  0  0  0
    7.6560  -28.1850   54.5960 C   0  0  2  0  0  0  0  0  0  0  0  0
    7.6540  -29.5550   55.2840 C   0  0  0  0  0  0  0  0  0  0  0  0
    6.6120  -30.1220   55.5940 O   0  0  0  0  0  0  0  0  0  0  0  0
    7.6430  -27.0370   55.6490 C   0  0  0  0  0  0  0  0  0  0  0  0
    8.8350  -30.0830   55.5210 N   0  0  0  0  0  0  0  0  0  0  0  0
    8.9950  -31.3640   56.2080 C   0  0  0  0  0  0  0  0  0  0  0  0
   10.4500  -31.5200   56.6380 C   0  0  0  0  0  0  0  0  0  0  0  0
   11.2740  -30.6950   56.3340 O   0  0  0  0  0  0  0  0  0  0  0  0
   10.7690  -32.6050   57.3250 N   0  0  0  0  0  0  0  0  0  0  0  0
   12.1420  -32.8370   57.7760 C   0  0  0  0  0  0  0  0  0  0  0  0
    1.2861  -25.3579   46.8702 H   0  0  0  0  0  0  0  0  0  0  0  0
    1.3042  -23.8807   47.8033 H   0  0  0  0  0  0  0  0  0  0  0  0
    0.9749  -25.4063   48.5889 H   0  0  0  0  0  0  0  0  0  0  0  0
    2.8758  -24.0147   49.7408 H   0  0  0  0  0  0  0  0  0  0  0  0
    5.3840  -25.3550   48.9813 H   0  0  0  0  0  0  0  0  0  0  0  0
    4.9847  -23.2133   51.0176 H   0  0  0  0  0  0  0  0  0  0  0  0
    5.6324  -22.9995   49.4089 H   0  0  0  0  0  0  0  0  0  0  0  0
    6.5070  -23.9530   50.5832 H   0  0  0  0  0  0  0  0  0  0  0  0
    5.6081  -27.3082   49.8275 H   0  0  0  0  0  0  0  0  0  0  0  0
    4.4290  -27.7354   52.4443 H   0  0  0  0  0  0  0  0  0  0  0  0
    4.8743  -30.1418   52.2333 H   0  0  0  0  0  0  0  0  0  0  0  0
    3.0452  -28.8958   50.2275 H   0  0  0  0  0  0  0  0  0  0  0  0
    2.6880  -29.1720   51.9155 H   0  0  0  0  0  0  0  0  0  0  0  0
    2.9407  -30.5278   50.8427 H   0  0  0  0  0  0  0  0  0  0  0  0
    5.4729  -29.4630   49.3814 H   0  0  0  0  0  0  0  0  0  0  0  0
    5.2680  -31.0703   50.0353 H   0  0  0  0  0  0  0  0  0  0  0  0
    6.6124  -30.0814   50.5529 H   0  0  0  0  0  0  0  0  0  0  0  0
    5.6055  -27.9966   54.1727 H   0  0  0  0  0  0  0  0  0  0  0  0
    8.5456  -28.0836   54.0102 H   0  0  0  0  0  0  0  0  0  0  0  0
    6.7614  -27.1146   56.2504 H   0  0  0  0  0  0  0  0  0  0  0  0
    7.6501  -26.0922   55.1467 H   0  0  0  0  0  0  0  0  0  0  0  0
    8.5086  -27.1157   56.2731 H   0  0  0  0  0  0  0  0  0  0  0  0
    9.6397  -29.5988   55.2255 H   0  0  0  0  0  0  0  0  0  0  0  0
    8.7293  -32.1615   55.5460 H   0  0  0  0  0  0  0  0  0  0  0  0
    8.3592  -31.3942   57.0681 H   0  0  0  0  0  0  0  0  0  0  0  0
   10.0715  -33.2669   57.5362 H   0  0  0  0  0  0  0  0  0  0  0  0
   12.7628  -32.0242   57.4617 H   0  0  0  0  0  0  0  0  0  0  0  0
   12.5072  -33.7492   57.3524 H   0  0  0  0  0  0  0  0  0  0  0  0
   12.1597  -32.9072   58.8435 H   0  0  0  0  0  0  0  0  0  0  0  0
  1  2  1  0  0  0  0
  1 27  1  0  0  0  0
  1 28  1  0  0  0  0
  1 29  1  0  0  0  0
  2  4  1  0  0  0  0
  3  2  2  0  0  0  0
  4  5  1  0  0  0  0
  4 30  1  0  0  0  0
  5  8  1  0  0  0  0
  5  6  1  0  0  0  0
  5 31  1  6  0  0  0
  6  7  2  0  0  0  0
  8 32  1  0  0  0  0
  8 33  1  0  0  0  0
  8 34  1  0  0  0  0
  9  6  1  0  0  0  0
  9 10  1  0  0  0  0
  9 35  1  0  0  0  0
 10 11  1  0  0  0  0
 10 36  1  1  0  0  0
 11 16  1  0  0  0  0
 12 11  2  0  0  0  0
 13 10  1  0  0  0  0
 13 37  1  0  0  0  0
 14 13  1  0  0  0  0
 14 38  1  0  0  0  0
 14 39  1  0  0  0  0
 14 40  1  0  0  0  0
 15 13  1  0  0  0  0
 15 41  1  0  0  0  0
 15 42  1  0  0  0  0
 15 43  1  0  0  0  0
 16 17  1  0  0  0  0
 16 44  1  0  0  0  0
 17 18  1  0  0  0  0
 17 20  1  0  0  0  0
 17 45  1  6  0  0  0
 18 21  1  0  0  0  0
 18 19  2  0  0  0  0
 20 46  1  0  0  0  0
 20 47  1  0  0  0  0
 20 48  1  0  0  0  0
 21 22  1  0  0  0  0
 21 49  1  0  0  0  0
 22 23  1  0  0  0  0
 22 50  1  0  0  0  0
 22 51  1  0  0  0  0
 23 25  1  0  0  0  0
 24 23  2  0  0  0  0
 25 26  1  0  0  0  0
 25 52  1  0  0  0  0
 26 53  1  0  0  0  0
 26 54  1  0  0  0  0
 26 55  1  0  0  0  0
M  END
>  <MODEL>
       0

$$$$
selected_4mers/AVAG/618_noH.pdb
 OpenBabel03042518233D

 55 54  0  0  1  0  0  0  0  0999 V2000
   73.3590  -13.8210   94.5800 C   0  0  0  0  0  0  0  0  0  0  0  0
   71.9050  -13.4810   94.8330 C   0  0  0  0  0  0  0  0  0  0  0  0
   71.0720  -14.3770   95.0060 O   0  0  0  0  0  0  0  0  0  0  0  0
   71.5940  -12.1880   94.8380 N   0  0  0  0  0  0  0  0  0  0  0  0
   70.2430  -11.7190   95.1630 C   0  0  2  0  0  0  0  0  0  0  0  0
   69.2150  -12.2120   94.1510 C   0  0  0  0  0  0  0  0  0  0  0  0
   68.0380  -12.3830   94.4730 O   0  0  0  0  0  0  0  0  0  0  0  0
   70.2120  -10.1840   95.2600 C   0  0  0  0  0  0  0  0  0  0  0  0
   69.6650  -12.4250   92.9190 N   0  0  0  0  0  0  0  0  0  0  0  0
   68.8050  -12.9900   91.8880 C   0  0  2  0  0  0  0  0  0  0  0  0
   69.5590  -14.0630   91.1240 C   0  0  0  0  0  0  0  0  0  0  0  0
   70.7960  -14.0850   91.1040 O   0  0  0  0  0  0  0  0  0  0  0  0
   68.3180  -11.9300   90.8700 C   0  0  0  0  0  0  0  0  0  0  0  0
   67.5400  -10.8270   91.5680 C   0  0  0  0  0  0  0  0  0  0  0  0
   69.4930  -11.3680   90.0860 C   0  0  0  0  0  0  0  0  0  0  0  0
   68.8050  -14.9550   90.4970 N   0  0  0  0  0  0  0  0  0  0  0  0
   69.3800  -15.9420   89.5990 C   0  0  2  0  0  0  0  0  0  0  0  0
   69.0240  -15.5420   88.1740 C   0  0  0  0  0  0  0  0  0  0  0  0
   67.8980  -15.1170   87.8980 O   0  0  0  0  0  0  0  0  0  0  0  0
   68.8470  -17.3390   89.9190 C   0  0  0  0  0  0  0  0  0  0  0  0
   69.9800  -15.6620   87.2660 N   0  0  0  0  0  0  0  0  0  0  0  0
   69.7120  -15.3260   85.8820 C   0  0  0  0  0  0  0  0  0  0  0  0
   70.9120  -15.5550   84.9950 C   0  0  0  0  0  0  0  0  0  0  0  0
   71.8350  -16.2840   85.3570 O   0  0  0  0  0  0  0  0  0  0  0  0
   70.8910  -14.9330   83.8250 N   0  0  0  0  0  0  0  0  0  0  0  0
   72.0050  -15.0340   82.8890 C   0  0  0  0  0  0  0  0  0  0  0  0
   73.9200  -12.9183   94.4558 H   0  0  0  0  0  0  0  0  0  0  0  0
   73.4374  -14.4145   93.6932 H   0  0  0  0  0  0  0  0  0  0  0  0
   73.7469  -14.3703   95.4123 H   0  0  0  0  0  0  0  0  0  0  0  0
   72.2899  -11.5274   94.6174 H   0  0  0  0  0  0  0  0  0  0  0  0
   69.9804  -12.1297   96.1155 H   0  0  0  0  0  0  0  0  0  0  0  0
   70.4732   -9.7614   94.3123 H   0  0  0  0  0  0  0  0  0  0  0  0
   70.9126   -9.8592   96.0007 H   0  0  0  0  0  0  0  0  0  0  0  0
   69.2286   -9.8638   95.5345 H   0  0  0  0  0  0  0  0  0  0  0  0
   70.5970  -12.1967   92.6989 H   0  0  0  0  0  0  0  0  0  0  0  0
   67.9504  -13.3943   92.3891 H   0  0  0  0  0  0  0  0  0  0  0  0
   67.6546  -12.4037   90.1769 H   0  0  0  0  0  0  0  0  0  0  0  0
   68.1767  -10.3312   92.2706 H   0  0  0  0  0  0  0  0  0  0  0  0
   66.7033  -11.2514   92.0825 H   0  0  0  0  0  0  0  0  0  0  0  0
   67.1922  -10.1218   90.8424 H   0  0  0  0  0  0  0  0  0  0  0  0
   70.1731  -10.8877   90.7580 H   0  0  0  0  0  0  0  0  0  0  0  0
   69.1368  -10.6568   89.3703 H   0  0  0  0  0  0  0  0  0  0  0  0
   69.9961  -12.1640   89.5779 H   0  0  0  0  0  0  0  0  0  0  0  0
   67.8315  -14.9485   90.6434 H   0  0  0  0  0  0  0  0  0  0  0  0
   70.4430  -15.9729   89.7172 H   0  0  0  0  0  0  0  0  0  0  0  0
   67.7825  -17.3479   89.8113 H   0  0  0  0  0  0  0  0  0  0  0  0
   69.1060  -17.5979   90.9244 H   0  0  0  0  0  0  0  0  0  0  0  0
   69.2796  -18.0488   89.2452 H   0  0  0  0  0  0  0  0  0  0  0  0
   70.8733  -15.9796   87.5311 H   0  0  0  0  0  0  0  0  0  0  0  0
   68.9036  -15.9326   85.5308 H   0  0  0  0  0  0  0  0  0  0  0  0
   69.4665  -14.2854   85.8390 H   0  0  0  0  0  0  0  0  0  0  0  0
   70.1060  -14.3907   83.5822 H   0  0  0  0  0  0  0  0  0  0  0  0
   72.7677  -15.6566   83.3081 H   0  0  0  0  0  0  0  0  0  0  0  0
   72.4034  -14.0587   82.7022 H   0  0  0  0  0  0  0  0  0  0  0  0
   71.6612  -15.4609   81.9701 H   0  0  0  0  0  0  0  0  0  0  0  0
  1  2  1  0  0  0  0
  1 27  1  0  0  0  0
  1 28  1  0  0  0  0
  1 29  1  0  0  0  0
  2  4  1  0  0  0  0
  2  3  2  0  0  0  0
  4  5  1  0  0  0  0
  4 30  1  0  0  0  0
  5  8  1  0  0  0  0
  5 31  1  1  0  0  0
  6  7  2  0  0  0  0
  6  5  1  0  0  0  0
  8 32  1  0  0  0  0
  8 33  1  0  0  0  0
  8 34  1  0  0  0  0
  9  6  1  0  0  0  0
  9 35  1  0  0  0  0
 10  9  1  0  0  0  0
 10 36  1  1  0  0  0
 11 10  1  0  0  0  0
 12 11  2  0  0  0  0
 13 14  1  0  0  0  0
 13 10  1  0  0  0  0
 13 37  1  0  0  0  0
 14 38  1  0  0  0  0
 14 39  1  0  0  0  0
 14 40  1  0  0  0  0
 15 13  1  0  0  0  0
 15 41  1  0  0  0  0
 15 42  1  0  0  0  0
 15 43  1  0  0  0  0
 16 11  1  0  0  0  0
 16 44  1  0  0  0  0
 17 20  1  0  0  0  0
 17 16  1  0  0  0  0
 17 45  1  1  0  0  0
 18 17  1  0  0  0  0
 19 18  2  0  0  0  0
 20 46  1  0  0  0  0
 20 47  1  0  0  0  0
 20 48  1  0  0  0  0
 21 18  1  0  0  0  0
 21 49  1  0  0  0  0
 22 21  1  0  0  0  0
 22 50  1  0  0  0  0
 22 51  1  0  0  0  0
 23 24  2  0  0  0  0
 23 22  1  0  0  0  0
 25 23  1  0  0  0  0
 25 52  1  0  0  0  0
 26 25  1  0  0  0  0
 26 53  1  0  0  0  0
 26 54  1  0  0  0  0
 26 55  1  0  0  0  0
M  END
>  <MODEL>
       0

$$$$
selected_4mers/AVAG/619_noH.pdb
 OpenBabel03042518233D

 55 54  0  0  1  0  0  0  0  0999 V2000
  -10.9500   78.5350   88.6480 C   0  0  0  0  0  0  0  0  0  0  0  0
  -11.5780   77.7510   87.5040 C   0  0  0  0  0  0  0  0  0  0  0  0
  -10.8960   77.3310   86.5740 O   0  0  0  0  0  0  0  0  0  0  0  0
  -12.8910   77.5690   87.5950 N   0  0  0  0  0  0  0  0  0  0  0  0
  -13.6960   77.0320   86.4920 C   0  0  2  0  0  0  0  0  0  0  0  0
  -13.3410   75.6290   86.0320 C   0  0  0  0  0  0  0  0  0  0  0  0
  -13.5470   75.2830   84.8600 O   0  0  0  0  0  0  0  0  0  0  0  0
  -13.7030   78.0090   85.2970 C   0  0  0  0  0  0  0  0  0  0  0  0
  -12.8290   74.8220   86.9590 N   0  0  0  0  0  0  0  0  0  0  0  0
  -12.5170   73.4330   86.6460 C   0  0  2  0  0  0  0  0  0  0  0  0
  -13.7820   72.5900   86.8140 C   0  0  0  0  0  0  0  0  0  0  0  0
  -14.7350   73.0150   87.4760 O   0  0  0  0  0  0  0  0  0  0  0  0
  -11.3420   72.9010   87.4780 C   0  0  0  0  0  0  0  0  0  0  0  0
  -10.0640   73.6330   87.0890 C   0  0  0  0  0  0  0  0  0  0  0  0
  -11.6080   73.0620   88.9830 C   0  0  0  0  0  0  0  0  0  0  0  0
  -13.7890   71.4050   86.2060 N   0  0  0  0  0  0  0  0  0  0  0  0
  -14.9750   70.5460   86.1950 C   0  0  2  0  0  0  0  0  0  0  0  0
  -15.4850   70.1450   87.5810 C   0  0  0  0  0  0  0  0  0  0  0  0
  -16.6970   69.9940   87.7820 O   0  0  0  0  0  0  0  0  0  0  0  0
  -14.7260   69.2900   85.3140 C   0  0  0  0  0  0  0  0  0  0  0  0
  -14.5680   69.9780   88.5320 N   0  0  0  0  0  0  0  0  0  0  0  0
  -14.9380   69.6000   89.8860 C   0  0  0  0  0  0  0  0  0  0  0  0
  -15.7810   70.6500   90.5940 C   0  0  0  0  0  0  0  0  0  0  0  0
  -16.6110   70.3260   91.4430 O   0  0  0  0  0  0  0  0  0  0  0  0
  -15.5520   71.9130   90.2580 N   0  0  0  0  0  0  0  0  0  0  0  0
  -16.3290   72.9920   90.8590 C   0  0  0  0  0  0  0  0  0  0  0  0
   -9.8969   78.6264   88.4819 H   0  0  0  0  0  0  0  0  0  0  0  0
  -11.1223   78.0202   89.5701 H   0  0  0  0  0  0  0  0  0  0  0  0
  -11.3894   79.5095   88.6960 H   0  0  0  0  0  0  0  0  0  0  0  0
  -13.3426   77.8042   88.4376 H   0  0  0  0  0  0  0  0  0  0  0  0
  -14.6792   76.9372   86.9033 H   0  0  0  0  0  0  0  0  0  0  0  0
  -12.7135   78.0920   84.8984 H   0  0  0  0  0  0  0  0  0  0  0  0
  -14.0373   78.9711   85.6249 H   0  0  0  0  0  0  0  0  0  0  0  0
  -14.3631   77.6412   84.5394 H   0  0  0  0  0  0  0  0  0  0  0  0
  -12.6594   75.1670   87.8653 H   0  0  0  0  0  0  0  0  0  0  0  0
  -12.1933   73.3683   85.6282 H   0  0  0  0  0  0  0  0  0  0  0  0
  -11.2303   71.8566   87.2741 H   0  0  0  0  0  0  0  0  0  0  0  0
  -10.1752   74.6775   87.2927 H   0  0  0  0  0  0  0  0  0  0  0  0
   -9.8753   73.4912   86.0454 H   0  0  0  0  0  0  0  0  0  0  0  0
   -9.2438   73.2444   87.6557 H   0  0  0  0  0  0  0  0  0  0  0  0
  -11.7241   74.0999   89.2156 H   0  0  0  0  0  0  0  0  0  0  0  0
  -10.7834   72.6626   89.5357 H   0  0  0  0  0  0  0  0  0  0  0  0
  -12.5017   72.5355   89.2456 H   0  0  0  0  0  0  0  0  0  0  0  0
  -12.9724   71.0973   85.7503 H   0  0  0  0  0  0  0  0  0  0  0  0
  -15.7569   71.1398   85.7697 H   0  0  0  0  0  0  0  0  0  0  0  0
  -13.9433   68.7014   85.7451 H   0  0  0  0  0  0  0  0  0  0  0  0
  -14.4409   69.5960   84.3291 H   0  0  0  0  0  0  0  0  0  0  0  0
  -15.6223   68.7080   85.2612 H   0  0  0  0  0  0  0  0  0  0  0  0
  -13.6178   70.1136   88.3131 H   0  0  0  0  0  0  0  0  0  0  0  0
  -14.0433   69.4445   90.4519 H   0  0  0  0  0  0  0  0  0  0  0  0
  -15.5303   68.7116   89.8167 H   0  0  0  0  0  0  0  0  0  0  0  0
  -14.8525   72.1238   89.5981 H   0  0  0  0  0  0  0  0  0  0  0  0
  -17.0376   72.5807   91.5473 H   0  0  0  0  0  0  0  0  0  0  0  0
  -16.8471   73.5286   90.0918 H   0  0  0  0  0  0  0  0  0  0  0  0
  -15.6722   73.6579   91.3786 H   0  0  0  0  0  0  0  0  0  0  0  0
  1 27  1  0  0  0  0
  1 28  1  0  0  0  0
  1 29  1  0  0  0  0
  2  4  1  0  0  0  0
  2  1  1  0  0  0  0
  3  2  2  0  0  0  0
  4 30  1  0  0  0  0
  5  4  1  0  0  0  0
  5 31  1  1  0  0  0
  6  5  1  0  0  0  0
  6  9  1  0  0  0  0
  7  6  2  0  0  0  0
  8  5  1  0  0  0  0
  8 32  1  0  0  0  0
  8 33  1  0  0  0  0
  8 34  1  0  0  0  0
  9 35  1  0  0  0  0
 10 11  1  0  0  0  0
 10  9  1  0  0  0  0
 10 13  1  0  0  0  0
 10 36  1  6  0  0  0
 11 12  2  0  0  0  0
 13 15  1  0  0  0  0
 13 37  1  0  0  0  0
 14 13  1  0  0  0  0
 14 38  1  0  0  0  0
 14 39  1  0  0  0  0
 14 40  1  0  0  0  0
 15 41  1  0  0  0  0
 15 42  1  0  0  0  0
 15 43  1  0  0  0  0
 16 11  1  0  0  0  0
 16 44  1  0  0  0  0
 17 16  1  0  0  0  0
 17 18  1  0  0  0  0
 17 45  1  6  0  0  0
 18 19  2  0  0  0  0
 18 21  1  0  0  0  0
 20 17  1  0  0  0  0
 20 46  1  0  0  0  0
 20 47  1  0  0  0  0
 20 48  1  0  0  0  0
 21 22  1  0  0  0  0
 21 49  1  0  0  0  0
 22 23  1  0  0  0  0
 22 50  1  0  0  0  0
 22 51  1  0  0  0  0
 23 24  2  0  0  0  0
 25 23  1  0  0  0  0
 25 26  1  0  0  0  0
 25 52  1  0  0  0  0
 26 53  1  0  0  0  0
 26 54  1  0  0  0  0
 26 55  1  0  0  0  0
M  END
>  <MODEL>
       0

$$$$
