selected_4mers/AVAL/600_noH.pdb
 OpenBabel03042518233D

 67 66  0  0  1  0  0  0  0  0999 V2000
   65.3420   21.8100    0.9630 C   0  0  0  0  0  0  0  0  0  0  0  0
   65.0580   21.8470    2.4620 C   0  0  0  0  0  0  0  0  0  0  0  0
   65.0170   20.8010    3.1100 O   0  0  0  0  0  0  0  0  0  0  0  0
   64.8630   23.0390    3.0150 N   0  0  0  0  0  0  0  0  0  0  0  0
   64.5800   23.1640    4.4440 C   0  0  2  0  0  0  0  0  0  0  0  0
   63.2390   22.5140    4.7740 C   0  0  0  0  0  0  0  0  0  0  0  0
   63.1030   21.8180    5.7800 O   0  0  0  0  0  0  0  0  0  0  0  0
   64.5700   24.6320    4.8520 C   0  0  0  0  0  0  0  0  0  0  0  0
   62.2420   22.7420    3.9250 N   0  0  0  0  0  0  0  0  0  0  0  0
   60.9310   22.1500    4.1500 C   0  0  2  0  0  0  0  0  0  0  0  0
   61.0280   20.6300    4.0790 C   0  0  0  0  0  0  0  0  0  0  0  0
   60.4710   19.9210    4.9140 O   0  0  0  0  0  0  0  0  0  0  0  0
   59.9050   22.6400    3.1050 C   0  0  0  0  0  0  0  0  0  0  0  0
   58.5770   21.9320    3.3100 C   0  0  0  0  0  0  0  0  0  0  0  0
   59.7200   24.1450    3.2310 C   0  0  0  0  0  0  0  0  0  0  0  0
   61.7480   20.1330    3.0770 N   0  0  0  0  0  0  0  0  0  0  0  0
   61.9220   18.6970    2.8970 C   0  0  2  0  0  0  0  0  0  0  0  0
   62.6210   18.0850    4.1070 C   0  0  0  0  0  0  0  0  0  0  0  0
   62.2520   17.0030    4.5660 O   0  0  0  0  0  0  0  0  0  0  0  0
   62.7320   18.4260    1.6400 C   0  0  0  0  0  0  0  0  0  0  0  0
   63.6310   18.7840    4.6160 N   0  0  0  0  0  0  0  0  0  0  0  0
   64.3790   18.3030    5.7740 C   0  0  2  0  0  0  0  0  0  0  0  0
   63.5080   18.3340    7.0260 C   0  0  0  0  0  0  0  0  0  0  0  0
   63.5630   17.4220    7.8500 O   0  0  0  0  0  0  0  0  0  0  0  0
   65.6300   19.1600    5.9930 C   0  0  0  0  0  0  0  0  0  0  0  0
   66.5180   18.7750    7.1840 C   0  0  0  0  0  0  0  0  0  0  0  0
   67.0560   17.3630    7.0020 C   0  0  0  0  0  0  0  0  0  0  0  0
   67.6660   19.7640    7.3020 C   0  0  0  0  0  0  0  0  0  0  0  0
   62.7060   19.3860    7.1670 N   0  0  0  0  0  0  0  0  0  0  0  0
   61.8210   19.5120    8.3220 C   0  0  0  0  0  0  0  0  0  0  0  0
   65.3381   22.8070    0.5745 H   0  0  0  0  0  0  0  0  0  0  0  0
   64.5873   21.2326    0.4711 H   0  0  0  0  0  0  0  0  0  0  0  0
   66.2997   21.3645    0.7923 H   0  0  0  0  0  0  0  0  0  0  0  0
   64.9096   23.8480    2.4559 H   0  0  0  0  0  0  0  0  0  0  0  0
   65.3489   22.6613    4.9926 H   0  0  0  0  0  0  0  0  0  0  0  0
   63.8047   25.1475    4.3103 H   0  0  0  0  0  0  0  0  0  0  0  0
   65.5207   25.0702    4.6304 H   0  0  0  0  0  0  0  0  0  0  0  0
   64.3776   24.7091    5.9017 H   0  0  0  0  0  0  0  0  0  0  0  0
   62.3911   23.3152    3.1386 H   0  0  0  0  0  0  0  0  0  0  0  0
   60.5994   22.4521    5.1214 H   0  0  0  0  0  0  0  0  0  0  0  0
   60.2685   22.4145    2.1242 H   0  0  0  0  0  0  0  0  0  0  0  0
   58.2036   22.1506    4.2886 H   0  0  0  0  0  0  0  0  0  0  0  0
   58.7165   20.8759    3.2092 H   0  0  0  0  0  0  0  0  0  0  0  0
   57.8753   22.2707    2.5766 H   0  0  0  0  0  0  0  0  0  0  0  0
   59.3564   24.3789    4.2097 H   0  0  0  0  0  0  0  0  0  0  0  0
   59.0151   24.4802    2.4991 H   0  0  0  0  0  0  0  0  0  0  0  0
   60.6584   24.6342    3.0728 H   0  0  0  0  0  0  0  0  0  0  0  0
   62.1745   20.7511    2.4404 H   0  0  0  0  0  0  0  0  0  0  0  0
   60.9561   18.2476    2.7978 H   0  0  0  0  0  0  0  0  0  0  0  0
   63.6990   18.8740    1.7353 H   0  0  0  0  0  0  0  0  0  0  0  0
   62.2275   18.8433    0.7937 H   0  0  0  0  0  0  0  0  0  0  0  0
   62.8398   17.3699    1.5060 H   0  0  0  0  0  0  0  0  0  0  0  0
   63.8794   19.6429    4.2039 H   0  0  0  0  0  0  0  0  0  0  0  0
   64.6755   17.2925    5.5844 H   0  0  0  0  0  0  0  0  0  0  0  0
   65.3113   20.1712    6.1374 H   0  0  0  0  0  0  0  0  0  0  0  0
   66.2359   19.0076    5.1244 H   0  0  0  0  0  0  0  0  0  0  0  0
   65.9362   18.8037    8.0816 H   0  0  0  0  0  0  0  0  0  0  0  0
   67.6411   17.3168    6.1074 H   0  0  0  0  0  0  0  0  0  0  0  0
   66.2385   16.6765    6.9293 H   0  0  0  0  0  0  0  0  0  0  0  0
   67.6666   17.1030    7.8413 H   0  0  0  0  0  0  0  0  0  0  0  0
   68.2514   19.7394    6.4067 H   0  0  0  0  0  0  0  0  0  0  0  0
   68.2803   19.4994    8.1372 H   0  0  0  0  0  0  0  0  0  0  0  0
   67.2745   20.7495    7.4452 H   0  0  0  0  0  0  0  0  0  0  0  0
   62.7091   20.0919    6.4808 H   0  0  0  0  0  0  0  0  0  0  0  0
   61.9460   18.6632    8.9614 H   0  0  0  0  0  0  0  0  0  0  0  0
   60.8052   19.5614    7.9893 H   0  0  0  0  0  0  0  0  0  0  0  0
   62.0634   20.4037    8.8615 H   0  0  0  0  0  0  0  0  0  0  0  0
  1  2  1  0  0  0  0
  1 31  1  0  0  0  0
  1 32  1  0  0  0  0
  1 33  1  0  0  0  0
  2  4  1  0  0  0  0
  2  3  2  0  0  0  0
  4  5  1  0  0  0  0
  4 34  1  0  0  0  0
  5  6  1  0  0  0  0
  5  8  1  0  0  0  0
  5 35  1  1  0  0  0
  6  7  2  0  0  0  0
  8 36  1  0  0  0  0
  8 37  1  0  0  0  0
  8 38  1  0  0  0  0
  9 10  1  0  0  0  0
  9  6  1  0  0  0  0
  9 39  1  0  0  0  0
 10 40  1  1  0  0  0
 11 10  1  0  0  0  0
 11 12  2  0  0  0  0
 13 15  1  0  0  0  0
 13 14  1  0  0  0  0
 13 10  1  0  0  0  0
 13 41  1  0  0  0  0
 14 42  1  0  0  0  0
 14 43  1  0  0  0  0
 14 44  1  0  0  0  0
 15 45  1  0  0  0  0
 15 46  1  0  0  0  0
 15 47  1  0  0  0  0
 16 11  1  0  0  0  0
 16 48  1  0  0  0  0
 17 16  1  0  0  0  0
 17 18  1  0  0  0  0
 17 49  1  6  0  0  0
 18 19  2  0  0  0  0
 18 21  1  0  0  0  0
 20 17  1  0  0  0  0
 20 50  1  0  0  0  0
 20 51  1  0  0  0  0
 20 52  1  0  0  0  0
 21 22  1  0  0  0  0
 21 53  1  0  0  0  0
 22 25  1  0  0  0  0
 22 23  1  0  0  0  0
 22 54  1  6  0  0  0
 23 29  1  0  0  0  0
 23 24  2  0  0  0  0
 25 26  1  0  0  0  0
 25 55  1  0  0  0  0
 25 56  1  0  0  0  0
 26 28  1  0  0  0  0
 26 57  1  0  0  0  0
 27 26  1  0  0  0  0
 27 58  1  0  0  0  0
 27 59  1  0  0  0  0
 27 60  1  0  0  0  0
 28 61  1  0  0  0  0
 28 62  1  0  0  0  0
 28 63  1  0  0  0  0
 29 30  1  0  0  0  0
 29 64  1  0  0  0  0
 30 65  1  0  0  0  0
 30 66  1  0  0  0  0
 30 67  1  0  0  0  0
M  END
>  <MODEL>
       0

$$$$
selected_4mers/AVAL/601_noH.pdb
 OpenBabel03042518233D

 67 66  0  0  1  0  0  0  0  0999 V2000
    7.1470  -43.1560   34.8090 C   0  0  0  0  0  0  0  0  0  0  0  0
    8.0400  -43.8310   33.7830 C   0  0  0  0  0  0  0  0  0  0  0  0
    7.8150  -45.0090   33.3920 O   0  0  0  0  0  0  0  0  0  0  0  0
    9.0300  -43.0860   33.2850 N   0  0  0  0  0  0  0  0  0  0  0  0
    9.9760  -43.6190   32.3120 C   0  0  2  0  0  0  0  0  0  0  0  0
   11.1570  -44.3740   32.9690 C   0  0  0  0  0  0  0  0  0  0  0  0
   11.4810  -44.1680   34.1530 O   0  0  0  0  0  0  0  0  0  0  0  0
   10.5030  -42.4820   31.3930 C   0  0  0  0  0  0  0  0  0  0  0  0
   11.7720  -45.2470   32.1730 N   0  0  0  0  0  0  0  0  0  0  0  0
   12.9380  -46.0210   32.5790 C   0  0  2  0  0  0  0  0  0  0  0  0
   14.0840  -45.6870   31.6820 C   0  0  0  0  0  0  0  0  0  0  0  0
   13.9770  -45.8200   30.4620 O   0  0  0  0  0  0  0  0  0  0  0  0
   12.6630  -47.5400   32.4850 C   0  0  0  0  0  0  0  0  0  0  0  0
   13.9750  -48.3530   32.7540 C   0  0  0  0  0  0  0  0  0  0  0  0
   11.5370  -47.9100   33.4640 C   0  0  0  0  0  0  0  0  0  0  0  0
   15.2000  -45.2890   32.2980 N   0  0  0  0  0  0  0  0  0  0  0  0
   16.4010  -44.9260   31.5860 C   0  0  2  0  0  0  0  0  0  0  0  0
   17.5820  -45.8210   31.9320 C   0  0  0  0  0  0  0  0  0  0  0  0
   17.8990  -45.9830   33.0820 O   0  0  0  0  0  0  0  0  0  0  0  0
   16.7870  -43.4870   31.9060 C   0  0  0  0  0  0  0  0  0  0  0  0
   18.2690  -46.3120   30.9030 N   0  0  0  0  0  0  0  0  0  0  0  0
   19.5000  -47.0910   31.0410 C   0  0  2  0  0  0  0  0  0  0  0  0
   20.7020  -46.2110   30.8010 C   0  0  0  0  0  0  0  0  0  0  0  0
   20.8540  -45.6590   29.7000 O   0  0  0  0  0  0  0  0  0  0  0  0
   19.4970  -48.2440   30.0300 C   0  0  0  0  0  0  0  0  0  0  0  0
   20.6280  -49.2930   30.0850 C   0  0  0  0  0  0  0  0  0  0  0  0
   20.1420  -50.5690   29.3610 C   0  0  0  0  0  0  0  0  0  0  0  0
   21.9600  -48.8230   29.5150 C   0  0  0  0  0  0  0  0  0  0  0  0
   21.5760  -46.0930   31.8070 N   0  0  0  0  0  0  0  0  0  0  0  0
   22.7720  -45.2500   31.7340 C   0  0  0  0  0  0  0  0  0  0  0  0
    7.5087  -42.1675   35.0014 H   0  0  0  0  0  0  0  0  0  0  0  0
    7.1559  -43.7221   35.7170 H   0  0  0  0  0  0  0  0  0  0  0  0
    6.1472  -43.1028   34.4316 H   0  0  0  0  0  0  0  0  0  0  0  0
    9.1236  -42.1523   33.5827 H   0  0  0  0  0  0  0  0  0  0  0  0
    9.4429  -44.3360   31.7233 H   0  0  0  0  0  0  0  0  0  0  0  0
   11.0360  -41.7653   31.9822 H   0  0  0  0  0  0  0  0  0  0  0  0
    9.6776  -42.0029   30.9093 H   0  0  0  0  0  0  0  0  0  0  0  0
   11.1583  -42.8949   30.6548 H   0  0  0  0  0  0  0  0  0  0  0  0
   11.4204  -45.3762   31.2625 H   0  0  0  0  0  0  0  0  0  0  0  0
   13.1655  -45.7753   33.5952 H   0  0  0  0  0  0  0  0  0  0  0  0
   12.3414  -47.7931   31.4964 H   0  0  0  0  0  0  0  0  0  0  0  0
   14.3366  -48.1317   33.7364 H   0  0  0  0  0  0  0  0  0  0  0  0
   14.7166  -48.0825   32.0317 H   0  0  0  0  0  0  0  0  0  0  0  0
   13.7678  -49.4000   32.6776 H   0  0  0  0  0  0  0  0  0  0  0  0
   11.8369  -47.6651   34.4615 H   0  0  0  0  0  0  0  0  0  0  0  0
   11.3382  -48.9593   33.3988 H   0  0  0  0  0  0  0  0  0  0  0  0
   10.6522  -47.3631   33.2131 H   0  0  0  0  0  0  0  0  0  0  0  0
   15.2033  -45.2412   33.2813 H   0  0  0  0  0  0  0  0  0  0  0  0
   16.1809  -45.0428   30.5454 H   0  0  0  0  0  0  0  0  0  0  0  0
   17.0013  -43.3991   32.9506 H   0  0  0  0  0  0  0  0  0  0  0  0
   15.9771  -42.8356   31.6520 H   0  0  0  0  0  0  0  0  0  0  0  0
   17.6537  -43.2159   31.3401 H   0  0  0  0  0  0  0  0  0  0  0  0
   17.9287  -46.1409   29.9952 H   0  0  0  0  0  0  0  0  0  0  0  0
   19.5507  -47.4866   32.0339 H   0  0  0  0  0  0  0  0  0  0  0  0
   18.5747  -48.7709   30.1586 H   0  0  0  0  0  0  0  0  0  0  0  0
   19.6442  -47.7584   29.0879 H   0  0  0  0  0  0  0  0  0  0  0  0
   20.8311  -49.4842   31.1180 H   0  0  0  0  0  0  0  0  0  0  0  0
   19.9484  -50.3440   28.3330 H   0  0  0  0  0  0  0  0  0  0  0  0
   19.2443  -50.9218   29.8241 H   0  0  0  0  0  0  0  0  0  0  0  0
   20.8969  -51.3246   29.4246 H   0  0  0  0  0  0  0  0  0  0  0  0
   21.8459  -48.6073   28.4732 H   0  0  0  0  0  0  0  0  0  0  0  0
   22.6934  -49.5917   29.6418 H   0  0  0  0  0  0  0  0  0  0  0  0
   22.2764  -47.9398   30.0295 H   0  0  0  0  0  0  0  0  0  0  0  0
   21.4074  -46.5967   32.6359 H   0  0  0  0  0  0  0  0  0  0  0  0
   22.8137  -44.7721   30.7775 H   0  0  0  0  0  0  0  0  0  0  0  0
   23.6439  -45.8555   31.8685 H   0  0  0  0  0  0  0  0  0  0  0  0
   22.7319  -44.5067   32.5026 H   0  0  0  0  0  0  0  0  0  0  0  0
  1 31  1  0  0  0  0
  1 32  1  0  0  0  0
  1 33  1  0  0  0  0
  2  1  1  0  0  0  0
  3  2  2  0  0  0  0
  4  2  1  0  0  0  0
  4 34  1  0  0  0  0
  5  6  1  0  0  0  0
  5  4  1  0  0  0  0
  5 35  1  6  0  0  0
  6  7  2  0  0  0  0
  8  5  1  0  0  0  0
  8 36  1  0  0  0  0
  8 37  1  0  0  0  0
  8 38  1  0  0  0  0
  9 10  1  0  0  0  0
  9  6  1  0  0  0  0
  9 39  1  0  0  0  0
 10 40  1  1  0  0  0
 11 16  1  0  0  0  0
 11 10  1  0  0  0  0
 12 11  2  0  0  0  0
 13 10  1  0  0  0  0
 13 14  1  0  0  0  0
 13 15  1  0  0  0  0
 13 41  1  0  0  0  0
 14 42  1  0  0  0  0
 14 43  1  0  0  0  0
 14 44  1  0  0  0  0
 15 45  1  0  0  0  0
 15 46  1  0  0  0  0
 15 47  1  0  0  0  0
 16 48  1  0  0  0  0
 17 20  1  0  0  0  0
 17 18  1  0  0  0  0
 17 16  1  0  0  0  0
 17 49  1  6  0  0  0
 18 19  2  0  0  0  0
 20 50  1  0  0  0  0
 20 51  1  0  0  0  0
 20 52  1  0  0  0  0
 21 22  1  0  0  0  0
 21 18  1  0  0  0  0
 21 53  1  0  0  0  0
 22 54  1  1  0  0  0
 23 22  1  0  0  0  0
 23 29  1  0  0  0  0
 24 23  2  0  0  0  0
 25 26  1  0  0  0  0
 25 22  1  0  0  0  0
 25 55  1  0  0  0  0
 25 56  1  0  0  0  0
 26 57  1  0  0  0  0
 27 26  1  0  0  0  0
 27 58  1  0  0  0  0
 27 59  1  0  0  0  0
 27 60  1  0  0  0  0
 28 26  1  0  0  0  0
 28 61  1  0  0  0  0
 28 62  1  0  0  0  0
 28 63  1  0  0  0  0
 29 64  1  0  0  0  0
 30 29  1  0  0  0  0
 30 65  1  0  0  0  0
 30 66  1  0  0  0  0
 30 67  1  0  0  0  0
M  END
>  <MODEL>
       0

$$$$
selected_4mers/AVAL/602_noH.pdb
 OpenBabel03042518233D

 67 66  0  0  1  0  0  0  0  0999 V2000
   23.4670    0.8950   43.2910 C   0  0  0  0  0  0  0  0  0  0  0  0
   24.2820    1.8810   42.4650 C   0  0  0  0  0  0  0  0  0  0  0  0
   24.1150    3.0770   42.6330 O   0  0  0  0  0  0  0  0  0  0  0  0
   25.1350    1.3940   41.5660 N   0  0  0  0  0  0  0  0  0  0  0  0
   26.0850    2.2640   40.8550 C   0  0  2  0  0  0  0  0  0  0  0  0
   25.7810    2.4710   39.3660 C   0  0  0  0  0  0  0  0  0  0  0  0
   26.3880    3.3360   38.7370 O   0  0  0  0  0  0  0  0  0  0  0  0
   27.5380    1.7260   41.0420 C   0  0  0  0  0  0  0  0  0  0  0  0
   24.9030    1.6520   38.7950 N   0  0  0  0  0  0  0  0  0  0  0  0
   24.5450    1.7670   37.3630 C   0  0  2  0  0  0  0  0  0  0  0  0
   23.0570    2.1560   37.2420 C   0  0  0  0  0  0  0  0  0  0  0  0
   22.7390    3.1650   36.6120 O   0  0  0  0  0  0  0  0  0  0  0  0
   24.9150    0.4910   36.5530 C   0  0  0  0  0  0  0  0  0  0  0  0
   24.5270    0.6350   35.0660 C   0  0  0  0  0  0  0  0  0  0  0  0
   26.4020    0.2150   36.6700 C   0  0  0  0  0  0  0  0  0  0  0  0
   22.1620    1.3800   37.8580 N   0  0  0  0  0  0  0  0  0  0  0  0
   20.7560    1.7670   37.9680 C   0  0  2  0  0  0  0  0  0  0  0  0
   20.5160    2.9350   38.9620 C   0  0  0  0  0  0  0  0  0  0  0  0
   19.4430    3.5620   38.9600 O   0  0  0  0  0  0  0  0  0  0  0  0
   19.9070    0.5590   38.3520 C   0  0  0  0  0  0  0  0  0  0  0  0
   21.5060    3.1970   39.8150 N   0  0  0  0  0  0  0  0  0  0  0  0
   21.5090    4.3540   40.7380 C   0  0  2  0  0  0  0  0  0  0  0  0
   20.3730    4.3510   41.7580 C   0  0  0  0  0  0  0  0  0  0  0  0
   19.8800    5.4100   42.2100 O   0  0  0  0  0  0  0  0  0  0  0  0
   21.5770    5.6720   39.9600 C   0  0  0  0  0  0  0  0  0  0  0  0
   22.8380    5.8030   39.0910 C   0  0  0  0  0  0  0  0  0  0  0  0
   22.7310    7.0710   38.2480 C   0  0  0  0  0  0  0  0  0  0  0  0
   24.1690    5.7720   39.9090 C   0  0  0  0  0  0  0  0  0  0  0  0
   20.0090    3.1480   42.1780 N   0  0  0  0  0  0  0  0  0  0  0  0
   19.0270    2.9930   43.2290 C   0  0  0  0  0  0  0  0  0  0  0  0
   23.7355   -0.1047   43.0201 H   0  0  0  0  0  0  0  0  0  0  0  0
   22.4248    1.0479   43.1027 H   0  0  0  0  0  0  0  0  0  0  0  0
   23.6680    1.0490   44.3306 H   0  0  0  0  0  0  0  0  0  0  0  0
   25.1299    0.4287   41.3724 H   0  0  0  0  0  0  0  0  0  0  0  0
   25.9797    3.2317   41.2993 H   0  0  0  0  0  0  0  0  0  0  0  0
   27.6211    0.7592   40.5912 H   0  0  0  0  0  0  0  0  0  0  0  0
   27.7596    1.6529   42.0862 H   0  0  0  0  0  0  0  0  0  0  0  0
   28.2294    2.3971   40.5767 H   0  0  0  0  0  0  0  0  0  0  0  0
   24.4792    0.9497   39.3394 H   0  0  0  0  0  0  0  0  0  0  0  0
   25.1297    2.5454   36.9190 H   0  0  0  0  0  0  0  0  0  0  0  0
   24.3641   -0.3294   36.9632 H   0  0  0  0  0  0  0  0  0  0  0  0
   25.0670    1.4514   34.6339 H   0  0  0  0  0  0  0  0  0  0  0  0
   23.4762    0.8213   34.9880 H   0  0  0  0  0  0  0  0  0  0  0  0
   24.7687   -0.2679   34.5453 H   0  0  0  0  0  0  0  0  0  0  0  0
   26.9507    1.0367   36.2592 H   0  0  0  0  0  0  0  0  0  0  0  0
   26.6423   -0.6786   36.1327 H   0  0  0  0  0  0  0  0  0  0  0  0
   26.6620    0.0922   37.7007 H   0  0  0  0  0  0  0  0  0  0  0  0
   22.4561    0.5253   38.2482 H   0  0  0  0  0  0  0  0  0  0  0  0
   20.4606    2.1258   37.0042 H   0  0  0  0  0  0  0  0  0  0  0  0
   20.2065    0.2045   39.3161 H   0  0  0  0  0  0  0  0  0  0  0  0
   20.0434   -0.2173   37.6284 H   0  0  0  0  0  0  0  0  0  0  0  0
   18.8757    0.8425   38.3808 H   0  0  0  0  0  0  0  0  0  0  0  0
   22.2784    2.5868   39.8321 H   0  0  0  0  0  0  0  0  0  0  0  0
   22.3982    4.2569   41.3252 H   0  0  0  0  0  0  0  0  0  0  0  0
   20.7187    5.7353   39.3242 H   0  0  0  0  0  0  0  0  0  0  0  0
   21.6058    6.4629   40.6801 H   0  0  0  0  0  0  0  0  0  0  0  0
   22.8839    4.9435   38.4554 H   0  0  0  0  0  0  0  0  0  0  0  0
   22.6857    7.9245   38.8917 H   0  0  0  0  0  0  0  0  0  0  0  0
   21.8448    7.0280   37.6499 H   0  0  0  0  0  0  0  0  0  0  0  0
   23.5875    7.1494   37.6114 H   0  0  0  0  0  0  0  0  0  0  0  0
   24.1981    6.6092   40.5747 H   0  0  0  0  0  0  0  0  0  0  0  0
   25.0012    5.8207   39.2381 H   0  0  0  0  0  0  0  0  0  0  0  0
   24.2192    4.8649   40.4743 H   0  0  0  0  0  0  0  0  0  0  0  0
   20.4125    2.3485   41.7691 H   0  0  0  0  0  0  0  0  0  0  0  0
   18.6977    3.9576   43.5545 H   0  0  0  0  0  0  0  0  0  0  0  0
   19.4656    2.4692   44.0525 H   0  0  0  0  0  0  0  0  0  0  0  0
   18.1914    2.4375   42.8573 H   0  0  0  0  0  0  0  0  0  0  0  0
  1 31  1  0  0  0  0
  1 32  1  0  0  0  0
  1 33  1  0  0  0  0
  2  3  2  0  0  0  0
  2  1  1  0  0  0  0
  4  2  1  0  0  0  0
  4 34  1  0  0  0  0
  5  8  1  0  0  0  0
  5  4  1  0  0  0  0
  5 35  1  1  0  0  0
  6  5  1  0  0  0  0
  7  6  2  0  0  0  0
  8 36  1  0  0  0  0
  8 37  1  0  0  0  0
  8 38  1  0  0  0  0
  9  6  1  0  0  0  0
  9 39  1  0  0  0  0
 10  9  1  0  0  0  0
 10 40  1  6  0  0  0
 11 10  1  0  0  0  0
 11 16  1  0  0  0  0
 12 11  2  0  0  0  0
 13 15  1  0  0  0  0
 13 10  1  0  0  0  0
 13 41  1  0  0  0  0
 14 13  1  0  0  0  0
 14 42  1  0  0  0  0
 14 43  1  0  0  0  0
 14 44  1  0  0  0  0
 15 45  1  0  0  0  0
 15 46  1  0  0  0  0
 15 47  1  0  0  0  0
 16 17  1  0  0  0  0
 16 48  1  0  0  0  0
 17 20  1  0  0  0  0
 17 18  1  0  0  0  0
 17 49  1  6  0  0  0
 18 21  1  0  0  0  0
 19 18  2  0  0  0  0
 20 50  1  0  0  0  0
 20 51  1  0  0  0  0
 20 52  1  0  0  0  0
 21 22  1  0  0  0  0
 21 53  1  0  0  0  0
 22 23  1  0  0  0  0
 22 54  1  1  0  0  0
 23 29  1  0  0  0  0
 23 24  2  0  0  0  0
 25 22  1  0  0  0  0
 25 55  1  0  0  0  0
 25 56  1  0  0  0  0
 26 28  1  0  0  0  0
 26 25  1  0  0  0  0
 26 57  1  0  0  0  0
 27 26  1  0  0  0  0
 27 58  1  0  0  0  0
 27 59  1  0  0  0  0
 27 60  1  0  0  0  0
 28 61  1  0  0  0  0
 28 62  1  0  0  0  0
 28 63  1  0  0  0  0
 29 30  1  0  0  0  0
 29 64  1  0  0  0  0
 30 65  1  0  0  0  0
 30 66  1  0  0  0  0
 30 67  1  0  0  0  0
M  END
>  <MODEL>
       0

$$$$
selected_4mers/AVAL/603_noH.pdb
 OpenBabel03042518233D

 67 66  0  0  1  0  0  0  0  0999 V2000
  -49.2730  -49.5890   41.5570 C   0  0  0  0  0  0  0  0  0  0  0  0
  -50.0890  -48.3970   41.0660 C   0  0  0  0  0  0  0  0  0  0  0  0
  -49.7130  -47.2540   41.3140 O   0  0  0  0  0  0  0  0  0  0  0  0
  -51.2010  -48.6630   40.3990 N   0  0  0  0  0  0  0  0  0  0  0  0
  -52.0270  -47.5960   39.8350 C   0  0  2  0  0  0  0  0  0  0  0  0
  -52.4760  -46.5910   40.8890 C   0  0  0  0  0  0  0  0  0  0  0  0
  -52.6860  -45.4240   40.5830 O   0  0  0  0  0  0  0  0  0  0  0  0
  -53.2460  -48.1910   39.1140 C   0  0  0  0  0  0  0  0  0  0  0  0
  -52.6410  -47.0440   42.1250 N   0  0  0  0  0  0  0  0  0  0  0  0
  -53.0920  -46.1630   43.2030 C   0  0  2  0  0  0  0  0  0  0  0  0
  -51.9610  -45.7930   44.1950 C   0  0  0  0  0  0  0  0  0  0  0  0
  -52.2120  -45.1480   45.2190 O   0  0  0  0  0  0  0  0  0  0  0  0
  -54.2680  -46.7970   43.9640 C   0  0  0  0  0  0  0  0  0  0  0  0
  -55.4490  -47.0430   43.0250 C   0  0  0  0  0  0  0  0  0  0  0  0
  -53.8370  -48.0800   44.6230 C   0  0  0  0  0  0  0  0  0  0  0  0
  -50.7260  -46.1870   43.8880 N   0  0  0  0  0  0  0  0  0  0  0  0
  -49.5750  -45.8990   44.7710 C   0  0  2  0  0  0  0  0  0  0  0  0
  -49.3640  -44.3930   44.9520 C   0  0  0  0  0  0  0  0  0  0  0  0
  -49.6800  -43.5870   44.0570 O   0  0  0  0  0  0  0  0  0  0  0  0
  -48.2860  -46.5440   44.2320 C   0  0  0  0  0  0  0  0  0  0  0  0
  -48.8160  -44.0240   46.1090 N   0  0  0  0  0  0  0  0  0  0  0  0
  -48.6100  -42.6240   46.4460 C   0  0  2  0  0  0  0  0  0  0  0  0
  -47.2410  -42.0940   45.9960 C   0  0  0  0  0  0  0  0  0  0  0  0
  -46.9060  -40.9430   46.2550 O   0  0  0  0  0  0  0  0  0  0  0  0
  -48.7980  -42.4260   47.9530 C   0  0  0  0  0  0  0  0  0  0  0  0
  -50.1420  -42.9060   48.4980 C   0  0  0  0  0  0  0  0  0  0  0  0
  -50.2740  -42.5790   49.9750 C   0  0  0  0  0  0  0  0  0  0  0  0
  -51.2770  -42.2640   47.7030 C   0  0  0  0  0  0  0  0  0  0  0  0
  -46.4550  -42.9470   45.3480 N   0  0  0  0  0  0  0  0  0  0  0  0
  -45.1590  -42.5670   44.7890 C   0  0  0  0  0  0  0  0  0  0  0  0
  -49.7484  -50.4972   41.2504 H   0  0  0  0  0  0  0  0  0  0  0  0
  -49.2098  -49.5624   42.6248 H   0  0  0  0  0  0  0  0  0  0  0  0
  -48.2886  -49.5433   41.1402 H   0  0  0  0  0  0  0  0  0  0  0  0
  -51.4782  -49.6001   40.2799 H   0  0  0  0  0  0  0  0  0  0  0  0
  -51.4206  -47.0659   39.1306 H   0  0  0  0  0  0  0  0  0  0  0  0
  -53.8529  -48.7212   39.8178 H   0  0  0  0  0  0  0  0  0  0  0  0
  -52.9155  -48.8635   38.3502 H   0  0  0  0  0  0  0  0  0  0  0  0
  -53.8187  -47.4027   38.6718 H   0  0  0  0  0  0  0  0  0  0  0  0
  -52.4565  -47.9910   42.3208 H   0  0  0  0  0  0  0  0  0  0  0  0
  -53.4121  -45.2549   42.7362 H   0  0  0  0  0  0  0  0  0  0  0  0
  -54.5841  -46.1153   44.7257 H   0  0  0  0  0  0  0  0  0  0  0  0
  -55.1553  -47.7235   42.2533 H   0  0  0  0  0  0  0  0  0  0  0  0
  -55.7547  -46.1163   42.5860 H   0  0  0  0  0  0  0  0  0  0  0  0
  -56.2636  -47.4613   43.5785 H   0  0  0  0  0  0  0  0  0  0  0  0
  -53.5169  -48.7751   43.8751 H   0  0  0  0  0  0  0  0  0  0  0  0
  -54.6594  -48.4952   45.1672 H   0  0  0  0  0  0  0  0  0  0  0  0
  -53.0283  -47.8817   45.2950 H   0  0  0  0  0  0  0  0  0  0  0  0
  -50.5755  -46.6831   43.0511 H   0  0  0  0  0  0  0  0  0  0  0  0
  -49.8021  -46.3247   45.7261 H   0  0  0  0  0  0  0  0  0  0  0  0
  -48.0500  -46.1247   43.2763 H   0  0  0  0  0  0  0  0  0  0  0  0
  -48.4300  -47.5996   44.1326 H   0  0  0  0  0  0  0  0  0  0  0  0
  -47.4818  -46.3562   44.9123 H   0  0  0  0  0  0  0  0  0  0  0  0
  -48.5433  -44.7171   46.7528 H   0  0  0  0  0  0  0  0  0  0  0  0
  -49.3412  -42.0551   45.9106 H   0  0  0  0  0  0  0  0  0  0  0  0
  -48.7061  -41.3814   48.1658 H   0  0  0  0  0  0  0  0  0  0  0  0
  -48.0484  -43.0210   48.4314 H   0  0  0  0  0  0  0  0  0  0  0  0
  -50.1976  -43.9692   48.3913 H   0  0  0  0  0  0  0  0  0  0  0  0
  -50.2217  -41.5191   50.1117 H   0  0  0  0  0  0  0  0  0  0  0  0
  -49.4793  -43.0481   50.5166 H   0  0  0  0  0  0  0  0  0  0  0  0
  -51.2140  -42.9394   50.3375 H   0  0  0  0  0  0  0  0  0  0  0  0
  -51.2270  -41.2001   47.8056 H   0  0  0  0  0  0  0  0  0  0  0  0
  -52.2166  -42.6146   48.0761 H   0  0  0  0  0  0  0  0  0  0  0  0
  -51.1826  -42.5275   46.6703 H   0  0  0  0  0  0  0  0  0  0  0  0
  -46.7592  -43.8770   45.2395 H   0  0  0  0  0  0  0  0  0  0  0  0
  -44.9740  -41.5322   44.9888 H   0  0  0  0  0  0  0  0  0  0  0  0
  -45.1649  -42.7306   43.7316 H   0  0  0  0  0  0  0  0  0  0  0  0
  -44.3895  -43.1600   45.2374 H   0  0  0  0  0  0  0  0  0  0  0  0
  1 31  1  0  0  0  0
  1 32  1  0  0  0  0
  1 33  1  0  0  0  0
  2  3  2  0  0  0  0
  2  1  1  0  0  0  0
  4  2  1  0  0  0  0
  4 34  1  0  0  0  0
  5  4  1  0  0  0  0
  5  6  1  0  0  0  0
  5 35  1  6  0  0  0
  6  9  1  0  0  0  0
  7  6  2  0  0  0  0
  8  5  1  0  0  0  0
  8 36  1  0  0  0  0
  8 37  1  0  0  0  0
  8 38  1  0  0  0  0
  9 10  1  0  0  0  0
  9 39  1  0  0  0  0
 10 13  1  0  0  0  0
 10 11  1  0  0  0  0
 10 40  1  6  0  0  0
 11 12  2  0  0  0  0
 13 15  1  0  0  0  0
 13 41  1  0  0  0  0
 14 13  1  0  0  0  0
 14 42  1  0  0  0  0
 14 43  1  0  0  0  0
 14 44  1  0  0  0  0
 15 45  1  0  0  0  0
 15 46  1  0  0  0  0
 15 47  1  0  0  0  0
 16 11  1  0  0  0  0
 16 17  1  0  0  0  0
 16 48  1  0  0  0  0
 17 18  1  0  0  0  0
 17 49  1  1  0  0  0
 18 21  1  0  0  0  0
 19 18  2  0  0  0  0
 20 17  1  0  0  0  0
 20 50  1  0  0  0  0
 20 51  1  0  0  0  0
 20 52  1  0  0  0  0
 21 22  1  0  0  0  0
 21 53  1  0  0  0  0
 22 25  1  0  0  0  0
 22 54  1  6  0  0  0
 23 24  2  0  0  0  0
 23 22  1  0  0  0  0
 25 26  1  0  0  0  0
 25 55  1  0  0  0  0
 25 56  1  0  0  0  0
 26 27  1  0  0  0  0
 26 57  1  0  0  0  0
 27 58  1  0  0  0  0
 27 59  1  0  0  0  0
 27 60  1  0  0  0  0
 28 26  1  0  0  0  0
 28 61  1  0  0  0  0
 28 62  1  0  0  0  0
 28 63  1  0  0  0  0
 29 23  1  0  0  0  0
 29 64  1  0  0  0  0
 30 29  1  0  0  0  0
 30 65  1  0  0  0  0
 30 66  1  0  0  0  0
 30 67  1  0  0  0  0
M  END
>  <MODEL>
       0

$$$$
selected_4mers/AVAL/604_noH.pdb
 OpenBabel03042518233D

 67 66  0  0  1  0  0  0  0  0999 V2000
   42.0960   10.2110   47.1330 C   0  0  0  0  0  0  0  0  0  0  0  0
   41.2640    9.9540   45.8770 C   0  0  0  0  0  0  0  0  0  0  0  0
   40.7380   10.8950   45.2640 O   0  0  0  0  0  0  0  0  0  0  0  0
   41.1730    8.6710   45.5280 N   0  0  0  0  0  0  0  0  0  0  0  0
   40.2420    8.1330   44.5330 C   0  0  2  0  0  0  0  0  0  0  0  0
   39.2780    7.1840   45.2370 C   0  0  0  0  0  0  0  0  0  0  0  0
   39.5990    6.6260   46.3020 O   0  0  0  0  0  0  0  0  0  0  0  0
   41.0100    7.3940   43.4530 C   0  0  0  0  0  0  0  0  0  0  0  0
   38.0810    7.0350   44.6760 N   0  0  0  0  0  0  0  0  0  0  0  0
   37.1030    6.0960   45.2160 C   0  0  2  0  0  0  0  0  0  0  0  0
   36.6240    5.1340   44.1320 C   0  0  0  0  0  0  0  0  0  0  0  0
   36.3150    5.5430   43.0110 O   0  0  0  0  0  0  0  0  0  0  0  0
   35.8990    6.8350   45.8530 C   0  0  0  0  0  0  0  0  0  0  0  0
   35.1930    7.7000   44.8210 C   0  0  0  0  0  0  0  0  0  0  0  0
   34.9110    5.8510   46.4740 C   0  0  0  0  0  0  0  0  0  0  0  0
   36.5550    3.8600   44.4810 N   0  0  0  0  0  0  0  0  0  0  0  0
   36.0370    2.8410   43.5850 C   0  0  2  0  0  0  0  0  0  0  0  0
   34.8220    2.1810   44.2340 C   0  0  0  0  0  0  0  0  0  0  0  0
   34.8520    1.8490   45.4190 O   0  0  0  0  0  0  0  0  0  0  0  0
   37.1320    1.8000   43.2480 C   0  0  0  0  0  0  0  0  0  0  0  0
   33.7440    2.0550   43.4530 N   0  0  0  0  0  0  0  0  0  0  0  0
   32.5740    1.2970   43.8440 C   0  0  2  0  0  0  0  0  0  0  0  0
   32.6900   -0.1850   43.4520 C   0  0  0  0  0  0  0  0  0  0  0  0
   32.8740   -0.5170   42.2920 O   0  0  0  0  0  0  0  0  0  0  0  0
   31.3230    1.9080   43.2160 C   0  0  0  0  0  0  0  0  0  0  0  0
   30.0210    1.1670   43.5040 C   0  0  0  0  0  0  0  0  0  0  0  0
   29.6650    1.2970   45.0170 C   0  0  0  0  0  0  0  0  0  0  0  0
   28.8810    1.6510   42.6230 C   0  0  0  0  0  0  0  0  0  0  0  0
   32.5850   -1.0710   44.4340 N   0  0  0  0  0  0  0  0  0  0  0  0
   32.5650   -2.5030   44.1440 C   0  0  0  0  0  0  0  0  0  0  0  0
   42.1159   11.2608   47.3390 H   0  0  0  0  0  0  0  0  0  0  0  0
   43.0944    9.8590   46.9776 H   0  0  0  0  0  0  0  0  0  0  0  0
   41.6602    9.6931   47.9617 H   0  0  0  0  0  0  0  0  0  0  0  0
   41.7785    8.0353   45.9735 H   0  0  0  0  0  0  0  0  0  0  0  0
   39.6953    8.9293   44.0726 H   0  0  0  0  0  0  0  0  0  0  0  0
   41.5642    6.5923   43.8946 H   0  0  0  0  0  0  0  0  0  0  0  0
   41.6841    8.0695   42.9691 H   0  0  0  0  0  0  0  0  0  0  0  0
   40.3232    6.9991   42.7337 H   0  0  0  0  0  0  0  0  0  0  0  0
   37.8505    7.5684   43.8813 H   0  0  0  0  0  0  0  0  0  0  0  0
   37.5869    5.5321   45.9859 H   0  0  0  0  0  0  0  0  0  0  0  0
   36.2799    7.4639   46.6303 H   0  0  0  0  0  0  0  0  0  0  0  0
   34.8082    7.0796   44.0387 H   0  0  0  0  0  0  0  0  0  0  0  0
   35.8871    8.4030   44.4099 H   0  0  0  0  0  0  0  0  0  0  0  0
   34.3869    8.2262   45.2881 H   0  0  0  0  0  0  0  0  0  0  0  0
   34.5177    5.2115   45.7116 H   0  0  0  0  0  0  0  0  0  0  0  0
   34.1104    6.3918   46.9339 H   0  0  0  0  0  0  0  0  0  0  0  0
   35.4123    5.2600   47.2118 H   0  0  0  0  0  0  0  0  0  0  0  0
   36.8647    3.5940   45.3768 H   0  0  0  0  0  0  0  0  0  0  0  0
   35.7364    3.2921   42.6625 H   0  0  0  0  0  0  0  0  0  0  0  0
   37.4609    1.3242   44.1482 H   0  0  0  0  0  0  0  0  0  0  0  0
   37.9599    2.2916   42.7814 H   0  0  0  0  0  0  0  0  0  0  0  0
   36.7320    1.0647   42.5815 H   0  0  0  0  0  0  0  0  0  0  0  0
   33.7459    2.4971   42.5734 H   0  0  0  0  0  0  0  0  0  0  0  0
   32.5006    1.3430   44.9105 H   0  0  0  0  0  0  0  0  0  0  0  0
   31.2228    2.9077   43.5841 H   0  0  0  0  0  0  0  0  0  0  0  0
   31.4666    1.8536   42.1571 H   0  0  0  0  0  0  0  0  0  0  0  0
   30.1664    0.1333   43.2692 H   0  0  0  0  0  0  0  0  0  0  0  0
   29.5176    2.3282   45.2614 H   0  0  0  0  0  0  0  0  0  0  0  0
   30.4652    0.9015   45.6070 H   0  0  0  0  0  0  0  0  0  0  0  0
   28.7679    0.7505   45.2206 H   0  0  0  0  0  0  0  0  0  0  0  0
   28.6933    2.6860   42.8192 H   0  0  0  0  0  0  0  0  0  0  0  0
   27.9999    1.0822   42.8354 H   0  0  0  0  0  0  0  0  0  0  0  0
   29.1472    1.5255   41.5943 H   0  0  0  0  0  0  0  0  0  0  0  0
   32.5200   -0.7609   45.3661 H   0  0  0  0  0  0  0  0  0  0  0  0
   32.6447   -2.6541   43.0877 H   0  0  0  0  0  0  0  0  0  0  0  0
   31.6473   -2.9255   44.4965 H   0  0  0  0  0  0  0  0  0  0  0  0
   33.3883   -2.9780   44.6354 H   0  0  0  0  0  0  0  0  0  0  0  0
  1 31  1  0  0  0  0
  1 32  1  0  0  0  0
  1 33  1  0  0  0  0
  2  1  1  0  0  0  0
  3  2  2  0  0  0  0
  4  2  1  0  0  0  0
  4 34  1  0  0  0  0
  5  6  1  0  0  0  0
  5  4  1  0  0  0  0
  5 35  1  6  0  0  0
  6  7  2  0  0  0  0
  8  5  1  0  0  0  0
  8 36  1  0  0  0  0
  8 37  1  0  0  0  0
  8 38  1  0  0  0  0
  9 10  1  0  0  0  0
  9  6  1  0  0  0  0
  9 39  1  0  0  0  0
 10 13  1  0  0  0  0
 10 40  1  1  0  0  0
 11 16  1  0  0  0  0
 11 10  1  0  0  0  0
 12 11  2  0  0  0  0
 13 15  1  0  0  0  0
 13 41  1  0  0  0  0
 14 13  1  0  0  0  0
 14 42  1  0  0  0  0
 14 43  1  0  0  0  0
 14 44  1  0  0  0  0
 15 45  1  0  0  0  0
 15 46  1  0  0  0  0
 15 47  1  0  0  0  0
 16 48  1  0  0  0  0
 17 18  1  0  0  0  0
 17 16  1  0  0  0  0
 17 49  1  6  0  0  0
 18 19  2  0  0  0  0
 20 17  1  0  0  0  0
 20 50  1  0  0  0  0
 20 51  1  0  0  0  0
 20 52  1  0  0  0  0
 21 22  1  0  0  0  0
 21 18  1  0  0  0  0
 21 53  1  0  0  0  0
 22 54  1  1  0  0  0
 23 22  1  0  0  0  0
 23 29  1  0  0  0  0
 24 23  2  0  0  0  0
 25 26  1  0  0  0  0
 25 22  1  0  0  0  0
 25 55  1  0  0  0  0
 25 56  1  0  0  0  0
 26 27  1  0  0  0  0
 26 57  1  0  0  0  0
 27 58  1  0  0  0  0
 27 59  1  0  0  0  0
 27 60  1  0  0  0  0
 28 26  1  0  0  0  0
 28 61  1  0  0  0  0
 28 62  1  0  0  0  0
 28 63  1  0  0  0  0
 29 64  1  0  0  0  0
 30 29  1  0  0  0  0
 30 65  1  0  0  0  0
 30 66  1  0  0  0  0
 30 67  1  0  0  0  0
M  END
>  <MODEL>
       0

$$$$
