selected_4mers/AVEA/595_noH.pdb
 OpenBabel03042518233D

 63 62  0  0  1  0  0  0  0  0999 V2000
   38.3910   25.8010   95.1080 C   0  0  0  0  0  0  0  0  0  0  0  0
   39.4040   26.8400   94.5770 C   0  0  0  0  0  0  0  0  0  0  0  0
   39.6000   27.8940   95.1920 O   0  0  0  0  0  0  0  0  0  0  0  0
   39.9850   26.5810   93.4130 N   0  0  0  0  0  0  0  0  0  0  0  0
   40.9720   27.5150   92.8440 C   0  0  2  0  0  0  0  0  0  0  0  0
   40.3050   28.8240   92.4630 C   0  0  0  0  0  0  0  0  0  0  0  0
   40.8620   29.9070   92.6810 O   0  0  0  0  0  0  0  0  0  0  0  0
   41.6200   26.8960   91.6400 C   0  0  0  0  0  0  0  0  0  0  0  0
   39.1080   28.7070   91.8720 N   0  0  0  0  0  0  0  0  0  0  0  0
   38.3170   29.8580   91.4850 C   0  0  2  0  0  0  0  0  0  0  0  0
   37.9690   30.6750   92.7220 C   0  0  0  0  0  0  0  0  0  0  0  0
   38.1270   31.8940   92.7180 O   0  0  0  0  0  0  0  0  0  0  0  0
   37.0000   29.4080   90.7470 C   0  0  0  0  0  0  0  0  0  0  0  0
   36.0170   30.5750   90.6480 C   0  0  0  0  0  0  0  0  0  0  0  0
   37.3370   28.9120   89.3340 C   0  0  0  0  0  0  0  0  0  0  0  0
   37.4950   30.0200   93.7850 N   0  0  0  0  0  0  0  0  0  0  0  0
   37.1790   30.7400   95.0290 C   0  0  2  0  0  0  0  0  0  0  0  0
   38.3920   31.4900   95.6100 C   0  0  0  0  0  0  0  0  0  0  0  0
   38.2820   32.6280   96.0620 O   0  0  0  0  0  0  0  0  0  0  0  0
   36.5900   29.7620   96.0520 C   0  0  0  0  0  0  0  0  0  0  0  0
   35.2070   29.3130   95.5870 C   0  0  0  0  0  0  0  0  0  0  0  0
   34.4340   28.4700   96.5620 C   0  0  0  0  0  0  0  0  0  0  0  0
   35.0480   27.7360   97.3530 O   0  0  0  0  0  0  0  0  0  0  0  0
   33.1850   28.5260   96.4970 O   0  0  0  0  0  0  0  0  0  0  0  0
   39.5570   30.8690   95.5660 N   0  0  0  0  0  0  0  0  0  0  0  0
   40.7520   31.5410   96.0650 C   0  0  2  0  0  0  0  0  0  0  0  0
   41.0610   32.7860   95.2150 C   0  0  0  0  0  0  0  0  0  0  0  0
   41.4010   33.8380   95.7530 O   0  0  0  0  0  0  0  0  0  0  0  0
   41.9330   30.5730   96.0270 C   0  0  0  0  0  0  0  0  0  0  0  0
   40.9170   32.6820   93.8900 N   0  0  0  0  0  0  0  0  0  0  0  0
   41.2170   33.8280   93.0370 C   0  0  0  0  0  0  0  0  0  0  0  0
   38.3600   24.9618   94.4448 H   0  0  0  0  0  0  0  0  0  0  0  0
   37.4199   26.2466   95.1650 H   0  0  0  0  0  0  0  0  0  0  0  0
   38.6916   25.4751   96.0818 H   0  0  0  0  0  0  0  0  0  0  0  0
   39.7546   25.7575   92.9251 H   0  0  0  0  0  0  0  0  0  0  0  0
   41.7207   27.7182   93.5809 H   0  0  0  0  0  0  0  0  0  0  0  0
   40.8750   26.6908   90.8999 H   0  0  0  0  0  0  0  0  0  0  0  0
   42.1017   25.9836   91.9237 H   0  0  0  0  0  0  0  0  0  0  0  0
   42.3453   27.5722   91.2381 H   0  0  0  0  0  0  0  0  0  0  0  0
   38.7529   27.8061   91.6942 H   0  0  0  0  0  0  0  0  0  0  0  0
   38.8903   30.4584   90.8099 H   0  0  0  0  0  0  0  0  0  0  0  0
   36.5503   28.6171   91.3102 H   0  0  0  0  0  0  0  0  0  0  0  0
   36.4617   31.3692   90.0855 H   0  0  0  0  0  0  0  0  0  0  0  0
   35.7780   30.9243   91.6307 H   0  0  0  0  0  0  0  0  0  0  0  0
   35.1234   30.2481   90.1585 H   0  0  0  0  0  0  0  0  0  0  0  0
   37.7863   29.7061   88.7750 H   0  0  0  0  0  0  0  0  0  0  0  0
   36.4404   28.5940   88.8443 H   0  0  0  0  0  0  0  0  0  0  0  0
   38.0193   28.0902   89.3977 H   0  0  0  0  0  0  0  0  0  0  0  0
   37.3557   29.0466   93.7359 H   0  0  0  0  0  0  0  0  0  0  0  0
   36.4537   31.4911   94.7951 H   0  0  0  0  0  0  0  0  0  0  0  0
   36.5071   30.2466   97.0024 H   0  0  0  0  0  0  0  0  0  0  0  0
   37.2309   28.9098   96.1416 H   0  0  0  0  0  0  0  0  0  0  0  0
   35.3303   28.7462   94.6879 H   0  0  0  0  0  0  0  0  0  0  0  0
   34.6366   30.2093   95.4598 H   0  0  0  0  0  0  0  0  0  0  0  0
   39.6186   29.9577   95.1985 H   0  0  0  0  0  0  0  0  0  0  0  0
   40.5820   31.8541   97.0739 H   0  0  0  0  0  0  0  0  0  0  0  0
   42.1044   30.2589   95.0186 H   0  0  0  0  0  0  0  0  0  0  0  0
   41.7143   29.7195   96.6342 H   0  0  0  0  0  0  0  0  0  0  0  0
   42.8076   31.0625   96.4016 H   0  0  0  0  0  0  0  0  0  0  0  0
   40.6099   31.8359   93.4911 H   0  0  0  0  0  0  0  0  0  0  0  0
   41.5338   34.6507   93.6434 H   0  0  0  0  0  0  0  0  0  0  0  0
   40.3399   34.1049   92.4902 H   0  0  0  0  0  0  0  0  0  0  0  0
   41.9971   33.5684   92.3522 H   0  0  0  0  0  0  0  0  0  0  0  0
  1 32  1  0  0  0  0
  1 33  1  0  0  0  0
  1 34  1  0  0  0  0
  2  1  1  0  0  0  0
  2  3  2  0  0  0  0
  4  2  1  0  0  0  0
  4 35  1  0  0  0  0
  5  4  1  0  0  0  0
  5 36  1  1  0  0  0
  6  7  2  0  0  0  0
  6  5  1  0  0  0  0
  8  5  1  0  0  0  0
  8 37  1  0  0  0  0
  8 38  1  0  0  0  0
  8 39  1  0  0  0  0
  9  6  1  0  0  0  0
  9 40  1  0  0  0  0
 10  9  1  0  0  0  0
 10 11  1  0  0  0  0
 10 41  1  6  0  0  0
 11 16  1  0  0  0  0
 12 11  2  0  0  0  0
 13 10  1  0  0  0  0
 13 42  1  0  0  0  0
 14 13  1  0  0  0  0
 14 43  1  0  0  0  0
 14 44  1  0  0  0  0
 14 45  1  0  0  0  0
 15 13  1  0  0  0  0
 15 46  1  0  0  0  0
 15 47  1  0  0  0  0
 15 48  1  0  0  0  0
 16 17  1  0  0  0  0
 16 49  1  0  0  0  0
 17 18  1  0  0  0  0
 17 20  1  0  0  0  0
 17 50  1  6  0  0  0
 18 19  2  0  0  0  0
 20 51  1  0  0  0  0
 20 52  1  0  0  0  0
 21 20  1  0  0  0  0
 21 22  1  0  0  0  0
 21 53  1  0  0  0  0
 21 54  1  0  0  0  0
 22 23  1  0  0  0  0
 24 22  2  0  0  0  0
 25 18  1  0  0  0  0
 25 26  1  0  0  0  0
 25 55  1  0  0  0  0
 26 56  1  1  0  0  0
 27 28  2  0  0  0  0
 27 26  1  0  0  0  0
 29 26  1  0  0  0  0
 29 57  1  0  0  0  0
 29 58  1  0  0  0  0
 29 59  1  0  0  0  0
 30 27  1  0  0  0  0
 30 60  1  0  0  0  0
 31 30  1  0  0  0  0
 31 61  1  0  0  0  0
 31 62  1  0  0  0  0
 31 63  1  0  0  0  0
M  CHG  1  23  -1
M  END
>  <MODEL>
       0

$$$$
selected_4mers/AVEA/596_noH.pdb
 OpenBabel03042518233D

 63 62  0  0  1  0  0  0  0  0999 V2000
   23.9450   13.2520    3.7480 C   0  0  0  0  0  0  0  0  0  0  0  0
   22.4930   13.5620    3.5810 C   0  0  0  0  0  0  0  0  0  0  0  0
   22.1760   14.4260    2.7830 O   0  0  0  0  0  0  0  0  0  0  0  0
   21.6150   12.8610    4.2940 N   0  0  0  0  0  0  0  0  0  0  0  0
   20.1720   13.0380    4.1530 C   0  0  2  0  0  0  0  0  0  0  0  0
   19.6400   14.2530    4.9270 C   0  0  0  0  0  0  0  0  0  0  0  0
   18.5860   14.7700    4.5890 O   0  0  0  0  0  0  0  0  0  0  0  0
   19.4790   11.8230    4.5930 C   0  0  0  0  0  0  0  0  0  0  0  0
   20.3730   14.7190    5.9350 N   0  0  0  0  0  0  0  0  0  0  0  0
   19.8750   15.7700    6.8320 C   0  0  2  0  0  0  0  0  0  0  0  0
   20.9560   16.8400    7.0100 C   0  0  0  0  0  0  0  0  0  0  0  0
   21.9880   16.5820    7.6330 O   0  0  0  0  0  0  0  0  0  0  0  0
   19.4380   15.1930    8.1910 C   0  0  0  0  0  0  0  0  0  0  0  0
   18.7600   16.2510    9.0340 C   0  0  0  0  0  0  0  0  0  0  0  0
   18.4920   13.9860    8.0150 C   0  0  0  0  0  0  0  0  0  0  0  0
   20.7180   18.0310    6.4500 N   0  0  0  0  0  0  0  0  0  0  0  0
   21.7410   19.0740    6.3850 C   0  0  2  0  0  0  0  0  0  0  0  0
   22.2590   19.3970    7.7700 C   0  0  0  0  0  0  0  0  0  0  0  0
   23.4520   19.5100    7.9740 O   0  0  0  0  0  0  0  0  0  0  0  0
   21.2570   20.3660    5.6770 C   0  0  0  0  0  0  0  0  0  0  0  0
   22.3650   21.0460    4.8720 C   0  0  0  0  0  0  0  0  0  0  0  0
   22.0690   22.4970    4.4880 C   0  0  0  0  0  0  0  0  0  0  0  0
   21.0910   23.0830    5.0130 O   0  0  0  0  0  0  0  0  0  0  0  0
   22.8240   23.0640    3.6500 O   0  0  0  0  0  0  0  0  0  0  0  0
   21.3540   19.5240    8.7180 N   0  0  0  0  0  0  0  0  0  0  0  0
   21.7100   19.8260   10.0980 C   0  0  2  0  0  0  0  0  0  0  0  0
   22.5680   18.7290   10.7830 C   0  0  0  0  0  0  0  0  0  0  0  0
   23.3080   19.0090   11.7130 O   0  0  0  0  0  0  0  0  0  0  0  0
   20.4420   20.0530   10.9080 C   0  0  0  0  0  0  0  0  0  0  0  0
   22.3830   17.4700   10.4250 N   0  0  0  0  0  0  0  0  0  0  0  0
   23.1680   16.3940   11.0510 C   0  0  0  0  0  0  0  0  0  0  0  0
   24.5217   13.8929    3.1143 H   0  0  0  0  0  0  0  0  0  0  0  0
   24.1247   12.2314    3.4816 H   0  0  0  0  0  0  0  0  0  0  0  0
   24.2284   13.4097    4.7677 H   0  0  0  0  0  0  0  0  0  0  0  0
   21.9504   12.1986    4.9405 H   0  0  0  0  0  0  0  0  0  0  0  0
   19.9777   13.2205    3.1167 H   0  0  0  0  0  0  0  0  0  0  0  0
   19.6816   11.6524    5.6297 H   0  0  0  0  0  0  0  0  0  0  0  0
   19.8245   10.9880    4.0200 H   0  0  0  0  0  0  0  0  0  0  0  0
   18.4252   11.9419    4.4504 H   0  0  0  0  0  0  0  0  0  0  0  0
   21.2733   14.3494    6.0835 H   0  0  0  0  0  0  0  0  0  0  0  0
   19.0085   16.2158    6.3901 H   0  0  0  0  0  0  0  0  0  0  0  0
   20.3232   14.8604    8.6917 H   0  0  0  0  0  0  0  0  0  0  0  0
   17.8735   16.5879    8.5384 H   0  0  0  0  0  0  0  0  0  0  0  0
   19.4261   17.0766    9.1738 H   0  0  0  0  0  0  0  0  0  0  0  0
   18.5009   15.8366    9.9859 H   0  0  0  0  0  0  0  0  0  0  0  0
   17.6002   14.3017    7.5151 H   0  0  0  0  0  0  0  0  0  0  0  0
   18.2403   13.5871    8.9754 H   0  0  0  0  0  0  0  0  0  0  0  0
   18.9797   13.2325    7.4325 H   0  0  0  0  0  0  0  0  0  0  0  0
   19.8277   18.2109    6.0703 H   0  0  0  0  0  0  0  0  0  0  0  0
   22.5358   18.6782    5.7879 H   0  0  0  0  0  0  0  0  0  0  0  0
   20.4567   20.1137    5.0131 H   0  0  0  0  0  0  0  0  0  0  0  0
   20.9399   21.0514    6.4350 H   0  0  0  0  0  0  0  0  0  0  0  0
   23.2608   21.0309    5.4569 H   0  0  0  0  0  0  0  0  0  0  0  0
   22.4551   20.5004    3.9560 H   0  0  0  0  0  0  0  0  0  0  0  0
   20.4039   19.4110    8.4862 H   0  0  0  0  0  0  0  0  0  0  0  0
   22.3151   20.7079   10.0676 H   0  0  0  0  0  0  0  0  0  0  0  0
   19.8604   19.1550   10.9192 H   0  0  0  0  0  0  0  0  0  0  0  0
   19.8716   20.8419   10.4640 H   0  0  0  0  0  0  0  0  0  0  0  0
   20.7024   20.3218   11.9104 H   0  0  0  0  0  0  0  0  0  0  0  0
   21.7157   17.2507    9.7351 H   0  0  0  0  0  0  0  0  0  0  0  0
   23.8381   16.8143   11.7716 H   0  0  0  0  0  0  0  0  0  0  0  0
   23.7294   15.8788   10.2999 H   0  0  0  0  0  0  0  0  0  0  0  0
   22.5072   15.7067   11.5367 H   0  0  0  0  0  0  0  0  0  0  0  0
  1 32  1  0  0  0  0
  1 33  1  0  0  0  0
  1 34  1  0  0  0  0
  2  1  1  0  0  0  0
  2  3  2  0  0  0  0
  4  2  1  0  0  0  0
  4 35  1  0  0  0  0
  5  4  1  0  0  0  0
  5 36  1  1  0  0  0
  6  7  2  0  0  0  0
  6  5  1  0  0  0  0
  8  5  1  0  0  0  0
  8 37  1  0  0  0  0
  8 38  1  0  0  0  0
  8 39  1  0  0  0  0
  9  6  1  0  0  0  0
  9 40  1  0  0  0  0
 10  9  1  0  0  0  0
 10 11  1  0  0  0  0
 10 41  1  6  0  0  0
 11 16  1  0  0  0  0
 12 11  2  0  0  0  0
 13 10  1  0  0  0  0
 13 42  1  0  0  0  0
 14 13  1  0  0  0  0
 14 43  1  0  0  0  0
 14 44  1  0  0  0  0
 14 45  1  0  0  0  0
 15 13  1  0  0  0  0
 15 46  1  0  0  0  0
 15 47  1  0  0  0  0
 15 48  1  0  0  0  0
 16 17  1  0  0  0  0
 16 49  1  0  0  0  0
 17 18  1  0  0  0  0
 17 20  1  0  0  0  0
 17 50  1  6  0  0  0
 18 19  2  0  0  0  0
 20 51  1  0  0  0  0
 20 52  1  0  0  0  0
 21 20  1  0  0  0  0
 21 22  1  0  0  0  0
 21 53  1  0  0  0  0
 21 54  1  0  0  0  0
 22 23  1  0  0  0  0
 24 22  2  0  0  0  0
 25 18  1  0  0  0  0
 25 26  1  0  0  0  0
 25 55  1  0  0  0  0
 26 56  1  1  0  0  0
 27 28  2  0  0  0  0
 27 26  1  0  0  0  0
 29 26  1  0  0  0  0
 29 57  1  0  0  0  0
 29 58  1  0  0  0  0
 29 59  1  0  0  0  0
 30 27  1  0  0  0  0
 30 60  1  0  0  0  0
 31 30  1  0  0  0  0
 31 61  1  0  0  0  0
 31 62  1  0  0  0  0
 31 63  1  0  0  0  0
M  CHG  1  23  -1
M  END
>  <MODEL>
       0

$$$$
selected_4mers/AVEA/597_noH.pdb
 OpenBabel03042518233D

 63 62  0  0  1  0  0  0  0  0999 V2000
   53.0050   42.6790   -6.9280 C   0  0  0  0  0  0  0  0  0  0  0  0
   52.7990   43.3200   -5.5760 C   0  0  0  0  0  0  0  0  0  0  0  0
   52.1460   42.7650   -4.6950 O   0  0  0  0  0  0  0  0  0  0  0  0
   53.3260   44.5220   -5.4210 N   0  0  0  0  0  0  0  0  0  0  0  0
   53.1400   45.2660   -4.1840 C   0  0  2  0  0  0  0  0  0  0  0  0
   51.6570   45.4780   -3.8580 C   0  0  0  0  0  0  0  0  0  0  0  0
   50.8240   45.7230   -4.7410 O   0  0  0  0  0  0  0  0  0  0  0  0
   53.8320   46.6280   -4.3080 C   0  0  0  0  0  0  0  0  0  0  0  0
   51.3390   45.4330   -2.5680 N   0  0  0  0  0  0  0  0  0  0  0  0
   49.9710   45.6970   -2.1340 C   0  0  2  0  0  0  0  0  0  0  0  0
   49.4300   47.0240   -2.6960 C   0  0  0  0  0  0  0  0  0  0  0  0
   48.3040   47.0860   -3.2090 O   0  0  0  0  0  0  0  0  0  0  0  0
   49.8650   45.6940   -0.6120 C   0  0  0  0  0  0  0  0  0  0  0  0
   48.4360   45.9760   -0.1900 C   0  0  0  0  0  0  0  0  0  0  0  0
   50.2490   44.3090   -0.0520 C   0  0  0  0  0  0  0  0  0  0  0  0
   50.2400   48.0710   -2.6130 N   0  0  0  0  0  0  0  0  0  0  0  0
   49.7790   49.3810   -3.0950 C   0  0  2  0  0  0  0  0  0  0  0  0
   49.3460   49.3400   -4.5640 C   0  0  0  0  0  0  0  0  0  0  0  0
   48.3270   49.9580   -4.9290 O   0  0  0  0  0  0  0  0  0  0  0  0
   50.8060   50.4660   -2.8770 C   0  0  0  0  0  0  0  0  0  0  0  0
   50.0990   51.8230   -2.9490 C   0  0  0  0  0  0  0  0  0  0  0  0
   51.0270   53.0000   -2.8190 C   0  0  0  0  0  0  0  0  0  0  0  0
   52.2500   52.7860   -2.7480 O   0  0  0  0  0  0  0  0  0  0  0  0
   50.5210   54.1480   -2.7890 O   0  0  0  0  0  0  0  0  0  0  0  0
   50.0770   48.5820   -5.3730 N   0  0  0  0  0  0  0  0  0  0  0  0
   49.7950   48.4710   -6.8030 C   0  0  2  0  0  0  0  0  0  0  0  0
   48.4980   47.6920   -7.0370 C   0  0  0  0  0  0  0  0  0  0  0  0
   47.7120   48.0390   -7.9180 O   0  0  0  0  0  0  0  0  0  0  0  0
   50.9640   47.8230   -7.5350 C   0  0  0  0  0  0  0  0  0  0  0  0
   48.2720   46.6350   -6.2710 N   0  0  0  0  0  0  0  0  0  0  0  0
   47.0200   45.9020   -6.4290 C   0  0  0  0  0  0  0  0  0  0  0  0
   53.5979   43.3242   -7.5420 H   0  0  0  0  0  0  0  0  0  0  0  0
   52.0556   42.5165   -7.3940 H   0  0  0  0  0  0  0  0  0  0  0  0
   53.5074   41.7422   -6.8058 H   0  0  0  0  0  0  0  0  0  0  0  0
   53.8516   44.9196   -6.1523 H   0  0  0  0  0  0  0  0  0  0  0  0
   53.5700   44.6945   -3.3881 H   0  0  0  0  0  0  0  0  0  0  0  0
   53.3876   47.1823   -5.1081 H   0  0  0  0  0  0  0  0  0  0  0  0
   54.8726   46.4823   -4.5099 H   0  0  0  0  0  0  0  0  0  0  0  0
   53.7188   47.1702   -3.3925 H   0  0  0  0  0  0  0  0  0  0  0  0
   52.0311   45.2201   -1.9010 H   0  0  0  0  0  0  0  0  0  0  0  0
   49.3681   44.9042   -2.5251 H   0  0  0  0  0  0  0  0  0  0  0  0
   50.5259   46.4461   -0.2346 H   0  0  0  0  0  0  0  0  0  0  0  0
   47.7927   45.2136   -0.5771 H   0  0  0  0  0  0  0  0  0  0  0  0
   48.1321   46.9276   -0.5734 H   0  0  0  0  0  0  0  0  0  0  0  0
   48.3749   45.9858    0.8782 H   0  0  0  0  0  0  0  0  0  0  0  0
   49.5792   43.5697   -0.4388 H   0  0  0  0  0  0  0  0  0  0  0  0
   50.1839   44.3255    1.0159 H   0  0  0  0  0  0  0  0  0  0  0  0
   51.2503   44.0711   -0.3446 H   0  0  0  0  0  0  0  0  0  0  0  0
   51.1423   47.9717   -2.2318 H   0  0  0  0  0  0  0  0  0  0  0  0
   48.9186   49.6221   -2.5063 H   0  0  0  0  0  0  0  0  0  0  0  0
   51.5579   50.4096   -3.6362 H   0  0  0  0  0  0  0  0  0  0  0  0
   51.2717   50.3445   -1.9214 H   0  0  0  0  0  0  0  0  0  0  0  0
   49.3804   51.8712   -2.1576 H   0  0  0  0  0  0  0  0  0  0  0  0
   49.6479   51.8879   -3.9171 H   0  0  0  0  0  0  0  0  0  0  0  0
   50.8344   48.0778   -4.9970 H   0  0  0  0  0  0  0  0  0  0  0  0
   49.6654   49.4564   -7.1993 H   0  0  0  0  0  0  0  0  0  0  0  0
   51.1167   46.8334   -7.1577 H   0  0  0  0  0  0  0  0  0  0  0  0
   51.8487   48.4044   -7.3794 H   0  0  0  0  0  0  0  0  0  0  0  0
   50.7475   47.7761   -8.5818 H   0  0  0  0  0  0  0  0  0  0  0  0
   48.9384   46.3484   -5.6054 H   0  0  0  0  0  0  0  0  0  0  0  0
   46.4314   46.3623   -7.1949 H   0  0  0  0  0  0  0  0  0  0  0  0
   46.4790   45.9170   -5.5060 H   0  0  0  0  0  0  0  0  0  0  0  0
   47.2316   44.8893   -6.7020 H   0  0  0  0  0  0  0  0  0  0  0  0
  1 32  1  0  0  0  0
  1 33  1  0  0  0  0
  1 34  1  0  0  0  0
  2  1  1  0  0  0  0
  2  3  2  0  0  0  0
  4  2  1  0  0  0  0
  4 35  1  0  0  0  0
  5  4  1  0  0  0  0
  5 36  1  1  0  0  0
  6  7  2  0  0  0  0
  6  5  1  0  0  0  0
  8  5  1  0  0  0  0
  8 37  1  0  0  0  0
  8 38  1  0  0  0  0
  8 39  1  0  0  0  0
  9  6  1  0  0  0  0
  9 40  1  0  0  0  0
 10  9  1  0  0  0  0
 10 11  1  0  0  0  0
 10 41  1  6  0  0  0
 11 16  1  0  0  0  0
 12 11  2  0  0  0  0
 13 10  1  0  0  0  0
 13 42  1  0  0  0  0
 14 13  1  0  0  0  0
 14 43  1  0  0  0  0
 14 44  1  0  0  0  0
 14 45  1  0  0  0  0
 15 13  1  0  0  0  0
 15 46  1  0  0  0  0
 15 47  1  0  0  0  0
 15 48  1  0  0  0  0
 16 17  1  0  0  0  0
 16 49  1  0  0  0  0
 17 18  1  0  0  0  0
 17 20  1  0  0  0  0
 17 50  1  6  0  0  0
 18 19  2  0  0  0  0
 20 51  1  0  0  0  0
 20 52  1  0  0  0  0
 21 20  1  0  0  0  0
 21 22  1  0  0  0  0
 21 53  1  0  0  0  0
 21 54  1  0  0  0  0
 22 23  1  0  0  0  0
 24 22  2  0  0  0  0
 25 18  1  0  0  0  0
 25 26  1  0  0  0  0
 25 55  1  0  0  0  0
 26 56  1  1  0  0  0
 27 28  2  0  0  0  0
 27 26  1  0  0  0  0
 29 26  1  0  0  0  0
 29 57  1  0  0  0  0
 29 58  1  0  0  0  0
 29 59  1  0  0  0  0
 30 27  1  0  0  0  0
 30 60  1  0  0  0  0
 31 30  1  0  0  0  0
 31 61  1  0  0  0  0
 31 62  1  0  0  0  0
 31 63  1  0  0  0  0
M  CHG  1  23  -1
M  END
>  <MODEL>
       0

$$$$
selected_4mers/AVEA/598_noH.pdb
 OpenBabel03042518233D

 63 62  0  0  1  0  0  0  0  0999 V2000
  -22.7860  -45.9990  120.1290 C   0  0  0  0  0  0  0  0  0  0  0  0
  -23.2880  -47.4250  120.2580 C   0  0  0  0  0  0  0  0  0  0  0  0
  -22.7500  -48.1940  121.0390 O   0  0  0  0  0  0  0  0  0  0  0  0
  -24.3390  -47.7760  119.5240 N   0  0  0  0  0  0  0  0  0  0  0  0
  -24.9660  -49.0910  119.6980 C   0  0  2  0  0  0  0  0  0  0  0  0
  -25.4000  -49.6850  118.3700 C   0  0  0  0  0  0  0  0  0  0  0  0
  -25.6350  -48.9540  117.4090 O   0  0  0  0  0  0  0  0  0  0  0  0
  -26.1510  -49.0000  120.6860 C   0  0  0  0  0  0  0  0  0  0  0  0
  -25.4650  -51.0070  118.2930 N   0  0  0  0  0  0  0  0  0  0  0  0
  -25.8470  -51.6390  117.0440 C   0  0  2  0  0  0  0  0  0  0  0  0
  -27.2580  -52.1570  117.2510 C   0  0  0  0  0  0  0  0  0  0  0  0
  -27.4900  -52.9780  118.1490 O   0  0  0  0  0  0  0  0  0  0  0  0
  -24.8670  -52.7570  116.6000 C   0  0  0  0  0  0  0  0  0  0  0  0
  -25.1490  -53.1530  115.1630 C   0  0  0  0  0  0  0  0  0  0  0  0
  -23.4150  -52.2900  116.7210 C   0  0  0  0  0  0  0  0  0  0  0  0
  -28.1940  -51.6440  116.4480 N   0  0  0  0  0  0  0  0  0  0  0  0
  -29.6280  -51.8930  116.6460 C   0  0  2  0  0  0  0  0  0  0  0  0
  -30.1990  -52.8150  115.5810 C   0  0  0  0  0  0  0  0  0  0  0  0
  -30.1390  -52.4970  114.3810 O   0  0  0  0  0  0  0  0  0  0  0  0
  -30.4320  -50.5910  116.5810 C   0  0  0  0  0  0  0  0  0  0  0  0
  -29.7950  -49.3800  117.2410 C   0  0  0  0  0  0  0  0  0  0  0  0
  -30.7220  -48.1910  117.2680 C   0  0  0  0  0  0  0  0  0  0  0  0
  -31.2380  -47.7870  116.1940 O   0  0  0  0  0  0  0  0  0  0  0  0
  -30.9260  -47.6480  118.3760 O   0  0  0  0  0  0  0  0  0  0  0  0
  -30.8020  -53.9190  116.0220 N   0  0  0  0  0  0  0  0  0  0  0  0
  -31.4450  -54.8520  115.1150 C   0  0  2  0  0  0  0  0  0  0  0  0
  -32.8480  -55.2320  115.6070 C   0  0  0  0  0  0  0  0  0  0  0  0
  -33.0310  -55.5020  116.7850 O   0  0  0  0  0  0  0  0  0  0  0  0
  -30.5830  -56.0940  114.9750 C   0  0  0  0  0  0  0  0  0  0  0  0
  -33.8350  -55.2310  114.7110 N   0  0  0  0  0  0  0  0  0  0  0  0
  -35.1780  -55.7090  115.0660 C   0  0  0  0  0  0  0  0  0  0  0  0
  -23.3744  -45.4780  119.4029 H   0  0  0  0  0  0  0  0  0  0  0  0
  -21.7621  -46.0080  119.8184 H   0  0  0  0  0  0  0  0  0  0  0  0
  -22.8674  -45.5053  121.0748 H   0  0  0  0  0  0  0  0  0  0  0  0
  -24.7001  -47.1479  118.8574 H   0  0  0  0  0  0  0  0  0  0  0  0
  -24.2335  -49.7516  120.1128 H   0  0  0  0  0  0  0  0  0  0  0  0
  -26.8964  -48.3428  120.2894 H   0  0  0  0  0  0  0  0  0  0  0  0
  -25.8044  -48.6211  121.6247 H   0  0  0  0  0  0  0  0  0  0  0  0
  -26.5726  -49.9732  120.8279 H   0  0  0  0  0  0  0  0  0  0  0  0
  -25.2547  -51.5583  119.0811 H   0  0  0  0  0  0  0  0  0  0  0  0
  -25.8074  -50.9322  116.2416 H   0  0  0  0  0  0  0  0  0  0  0  0
  -25.0121  -53.6006  117.2420 H   0  0  0  0  0  0  0  0  0  0  0  0
  -25.0028  -52.3068  114.5246 H   0  0  0  0  0  0  0  0  0  0  0  0
  -26.1600  -53.4930  115.0786 H   0  0  0  0  0  0  0  0  0  0  0  0
  -24.4831  -53.9384  114.8722 H   0  0  0  0  0  0  0  0  0  0  0  0
  -23.2575  -51.4458  116.0827 H   0  0  0  0  0  0  0  0  0  0  0  0
  -22.7595  -53.0842  116.4302 H   0  0  0  0  0  0  0  0  0  0  0  0
  -23.2126  -52.0135  117.7346 H   0  0  0  0  0  0  0  0  0  0  0  0
  -27.9118  -51.0770  115.6942 H   0  0  0  0  0  0  0  0  0  0  0  0
  -29.7112  -52.3471  117.6113 H   0  0  0  0  0  0  0  0  0  0  0  0
  -31.3748  -50.7646  117.0564 H   0  0  0  0  0  0  0  0  0  0  0  0
  -30.5033  -50.3482  115.5414 H   0  0  0  0  0  0  0  0  0  0  0  0
  -28.9121  -49.1160  116.6972 H   0  0  0  0  0  0  0  0  0  0  0  0
  -29.5663  -49.6406  118.2533 H   0  0  0  0  0  0  0  0  0  0  0  0
  -30.8114  -54.1065  116.9884 H   0  0  0  0  0  0  0  0  0  0  0  0
  -31.5529  -54.3793  114.1611 H   0  0  0  0  0  0  0  0  0  0  0  0
  -30.4771  -56.5642  115.9303 H   0  0  0  0  0  0  0  0  0  0  0  0
  -29.6179  -55.8184  114.6042 H   0  0  0  0  0  0  0  0  0  0  0  0
  -31.0465  -56.7747  114.2919 H   0  0  0  0  0  0  0  0  0  0  0  0
  -33.6614  -54.9053  113.7983 H   0  0  0  0  0  0  0  0  0  0  0  0
  -35.1861  -56.0227  116.0889 H   0  0  0  0  0  0  0  0  0  0  0  0
  -35.4405  -56.5344  114.4377 H   0  0  0  0  0  0  0  0  0  0  0  0
  -35.8856  -54.9180  114.9299 H   0  0  0  0  0  0  0  0  0  0  0  0
  1 32  1  0  0  0  0
  1 33  1  0  0  0  0
  1 34  1  0  0  0  0
  2  1  1  0  0  0  0
  2  3  2  0  0  0  0
  4  2  1  0  0  0  0
  4 35  1  0  0  0  0
  5  4  1  0  0  0  0
  5 36  1  1  0  0  0
  6  7  2  0  0  0  0
  6  5  1  0  0  0  0
  8  5  1  0  0  0  0
  8 37  1  0  0  0  0
  8 38  1  0  0  0  0
  8 39  1  0  0  0  0
  9  6  1  0  0  0  0
  9 40  1  0  0  0  0
 10  9  1  0  0  0  0
 10 11  1  0  0  0  0
 10 41  1  6  0  0  0
 11 16  1  0  0  0  0
 12 11  2  0  0  0  0
 13 10  1  0  0  0  0
 13 42  1  0  0  0  0
 14 13  1  0  0  0  0
 14 43  1  0  0  0  0
 14 44  1  0  0  0  0
 14 45  1  0  0  0  0
 15 13  1  0  0  0  0
 15 46  1  0  0  0  0
 15 47  1  0  0  0  0
 15 48  1  0  0  0  0
 16 17  1  0  0  0  0
 16 49  1  0  0  0  0
 17 18  1  0  0  0  0
 17 20  1  0  0  0  0
 17 50  1  6  0  0  0
 18 19  2  0  0  0  0
 20 51  1  0  0  0  0
 20 52  1  0  0  0  0
 21 20  1  0  0  0  0
 21 22  1  0  0  0  0
 21 53  1  0  0  0  0
 21 54  1  0  0  0  0
 22 23  1  0  0  0  0
 24 22  2  0  0  0  0
 25 18  1  0  0  0  0
 25 26  1  0  0  0  0
 25 55  1  0  0  0  0
 26 56  1  1  0  0  0
 27 28  2  0  0  0  0
 27 26  1  0  0  0  0
 29 26  1  0  0  0  0
 29 57  1  0  0  0  0
 29 58  1  0  0  0  0
 29 59  1  0  0  0  0
 30 27  1  0  0  0  0
 30 60  1  0  0  0  0
 31 30  1  0  0  0  0
 31 61  1  0  0  0  0
 31 62  1  0  0  0  0
 31 63  1  0  0  0  0
M  CHG  1  23  -1
M  END
>  <MODEL>
       0

$$$$
selected_4mers/AVEA/599_noH.pdb
 OpenBabel03042518233D

 63 62  0  0  1  0  0  0  0  0999 V2000
   46.3160    9.0070   44.8550 C   0  0  0  0  0  0  0  0  0  0  0  0
   46.1180   10.4370   44.4710 C   0  0  0  0  0  0  0  0  0  0  0  0
   45.6280   11.2160   45.2890 O   0  0  0  0  0  0  0  0  0  0  0  0
   46.4990   10.8130   43.2480 N   0  0  0  0  0  0  0  0  0  0  0  0
   46.3290   12.1950   42.8290 C   0  0  2  0  0  0  0  0  0  0  0  0
   44.8620   12.5970   42.7270 C   0  0  0  0  0  0  0  0  0  0  0  0
   44.5540   13.7670   42.9360 O   0  0  0  0  0  0  0  0  0  0  0  0
   47.0310   12.4670   41.5170 C   0  0  0  0  0  0  0  0  0  0  0  0
   44.0120   11.6690   42.3220 N   0  0  0  0  0  0  0  0  0  0  0  0
   42.5870   11.8520   42.3340 C   0  0  2  0  0  0  0  0  0  0  0  0
   41.9080   10.6540   42.9970 C   0  0  0  0  0  0  0  0  0  0  0  0
   42.4560    9.5530   43.0300 O   0  0  0  0  0  0  0  0  0  0  0  0
   41.9710   12.0830   40.8950 C   0  0  0  0  0  0  0  0  0  0  0  0
   42.6840   13.2230   40.1970 C   0  0  0  0  0  0  0  0  0  0  0  0
   41.9670   10.8180   40.0790 C   0  0  0  0  0  0  0  0  0  0  0  0
   40.6990   10.8940   43.4780 N   0  0  0  0  0  0  0  0  0  0  0  0
   39.7910    9.8430   43.9390 C   0  0  2  0  0  0  0  0  0  0  0  0
   39.1360    9.1240   42.7660 C   0  0  0  0  0  0  0  0  0  0  0  0
   38.9260    9.7010   41.7100 O   0  0  0  0  0  0  0  0  0  0  0  0
   38.7300   10.4850   44.7990 C   0  0  0  0  0  0  0  0  0  0  0  0
   39.2700   11.2300   45.9930 C   0  0  0  0  0  0  0  0  0  0  0  0
   39.9070   10.3690   47.0240 C   0  0  0  0  0  0  0  0  0  0  0  0
   41.1410   10.4840   47.2720 O   0  0  0  0  0  0  0  0  0  0  0  0
   39.1290    9.6300   47.6350 O   0  0  0  0  0  0  0  0  0  0  0  0
   38.7530    7.8650   42.9770 N   0  0  0  0  0  0  0  0  0  0  0  0
   38.0600    7.0870   41.9580 C   0  0  2  0  0  0  0  0  0  0  0  0
   36.8360    7.7800   41.3900 C   0  0  0  0  0  0  0  0  0  0  0  0
   36.5450    7.7040   40.1950 O   0  0  0  0  0  0  0  0  0  0  0  0
   37.6910    5.6540   42.4840 C   0  0  0  0  0  0  0  0  0  0  0  0
   36.1400    8.5220   42.2230 N   0  0  0  0  0  0  0  0  0  0  0  0
   34.9130    9.2060   41.8200 C   0  0  0  0  0  0  0  0  0  0  0  0
   46.7484    8.4739   44.0342 H   0  0  0  0  0  0  0  0  0  0  0  0
   45.3716    8.5709   45.1056 H   0  0  0  0  0  0  0  0  0  0  0  0
   46.9698    8.9519   45.7002 H   0  0  0  0  0  0  0  0  0  0  0  0
   46.8944   10.1557   42.6308 H   0  0  0  0  0  0  0  0  0  0  0  0
   46.7796   12.7941   43.5925 H   0  0  0  0  0  0  0  0  0  0  0  0
   46.5880   11.8725   40.7455 H   0  0  0  0  0  0  0  0  0  0  0  0
   48.0675   12.2176   41.6087 H   0  0  0  0  0  0  0  0  0  0  0  0
   46.9341   13.5033   41.2688 H   0  0  0  0  0  0  0  0  0  0  0  0
   44.3723   10.8124   41.9970 H   0  0  0  0  0  0  0  0  0  0  0  0
   42.4028   12.7428   42.8974 H   0  0  0  0  0  0  0  0  0  0  0  0
   40.9444   12.3630   41.0068 H   0  0  0  0  0  0  0  0  0  0  0  0
   43.7166   12.9732   40.0697 H   0  0  0  0  0  0  0  0  0  0  0  0
   42.6021   14.1106   40.7889 H   0  0  0  0  0  0  0  0  0  0  0  0
   42.2369   13.3903   39.2394 H   0  0  0  0  0  0  0  0  0  0  0  0
   42.9733   10.4853   39.9319 H   0  0  0  0  0  0  0  0  0  0  0  0
   41.5116   11.0075   39.1295 H   0  0  0  0  0  0  0  0  0  0  0  0
   41.4133   10.0621   40.5956 H   0  0  0  0  0  0  0  0  0  0  0  0
   40.3942   11.8288   43.5284 H   0  0  0  0  0  0  0  0  0  0  0  0
   40.3452    9.1166   44.4959 H   0  0  0  0  0  0  0  0  0  0  0  0
   38.0736    9.7170   45.1514 H   0  0  0  0  0  0  0  0  0  0  0  0
   38.2320   11.2066   44.1857 H   0  0  0  0  0  0  0  0  0  0  0  0
   38.4596   11.7565   46.4523 H   0  0  0  0  0  0  0  0  0  0  0  0
   40.0368   11.8787   45.6240 H   0  0  0  0  0  0  0  0  0  0  0  0
   38.9441    7.4477   43.8480 H   0  0  0  0  0  0  0  0  0  0  0  0
   38.7542    6.9911   41.1494 H   0  0  0  0  0  0  0  0  0  0  0  0
   36.9966    5.7391   43.2936 H   0  0  0  0  0  0  0  0  0  0  0  0
   38.5770    5.1600   42.8245 H   0  0  0  0  0  0  0  0  0  0  0  0
   37.2481    5.0866   41.6923 H   0  0  0  0  0  0  0  0  0  0  0  0
   36.4563    8.6202   43.1501 H   0  0  0  0  0  0  0  0  0  0  0  0
   34.7103    8.9978   40.7902 H   0  0  0  0  0  0  0  0  0  0  0  0
   35.0323   10.2609   41.9538 H   0  0  0  0  0  0  0  0  0  0  0  0
   34.0980    8.8602   42.4209 H   0  0  0  0  0  0  0  0  0  0  0  0
  1 32  1  0  0  0  0
  1 33  1  0  0  0  0
  1 34  1  0  0  0  0
  2  1  1  0  0  0  0
  2  3  2  0  0  0  0
  4  2  1  0  0  0  0
  4 35  1  0  0  0  0
  5  4  1  0  0  0  0
  5 36  1  1  0  0  0
  6  7  2  0  0  0  0
  6  5  1  0  0  0  0
  8  5  1  0  0  0  0
  8 37  1  0  0  0  0
  8 38  1  0  0  0  0
  8 39  1  0  0  0  0
  9  6  1  0  0  0  0
  9 40  1  0  0  0  0
 10  9  1  0  0  0  0
 10 11  1  0  0  0  0
 10 41  1  6  0  0  0
 11 16  1  0  0  0  0
 12 11  2  0  0  0  0
 13 10  1  0  0  0  0
 13 42  1  0  0  0  0
 14 13  1  0  0  0  0
 14 43  1  0  0  0  0
 14 44  1  0  0  0  0
 14 45  1  0  0  0  0
 15 13  1  0  0  0  0
 15 46  1  0  0  0  0
 15 47  1  0  0  0  0
 15 48  1  0  0  0  0
 16 17  1  0  0  0  0
 16 49  1  0  0  0  0
 17 18  1  0  0  0  0
 17 20  1  0  0  0  0
 17 50  1  6  0  0  0
 18 19  2  0  0  0  0
 20 51  1  0  0  0  0
 20 52  1  0  0  0  0
 21 20  1  0  0  0  0
 21 22  1  0  0  0  0
 21 53  1  0  0  0  0
 21 54  1  0  0  0  0
 22 23  1  0  0  0  0
 24 22  2  0  0  0  0
 25 18  1  0  0  0  0
 25 26  1  0  0  0  0
 25 55  1  0  0  0  0
 26 56  1  1  0  0  0
 27 28  2  0  0  0  0
 27 26  1  0  0  0  0
 29 26  1  0  0  0  0
 29 57  1  0  0  0  0
 29 58  1  0  0  0  0
 29 59  1  0  0  0  0
 30 27  1  0  0  0  0
 30 60  1  0  0  0  0
 31 30  1  0  0  0  0
 31 61  1  0  0  0  0
 31 62  1  0  0  0  0
 31 63  1  0  0  0  0
M  CHG  1  23  -1
M  END
>  <MODEL>
       0

$$$$
