selected_4mers/AVGA/640_noH.pdb
 OpenBabel03042518233D

 55 54  0  0  1  0  0  0  0  0999 V2000
    6.2340   -4.8400   25.9910 C   0  0  0  0  0  0  0  0  0  0  0  0
    6.3040   -4.9380   24.4780 C   0  0  0  0  0  0  0  0  0  0  0  0
    6.4470   -3.9400   23.7870 O   0  0  0  0  0  0  0  0  0  0  0  0
    6.1520   -6.1690   23.9870 N   0  0  0  0  0  0  0  0  0  0  0  0
    6.2580   -6.5310   22.5890 C   0  0  2  0  0  0  0  0  0  0  0  0
    5.0300   -7.3680   22.2280 C   0  0  0  0  0  0  0  0  0  0  0  0
    5.1230   -8.4260   21.6040 O   0  0  0  0  0  0  0  0  0  0  0  0
    7.5580   -7.2920   22.3420 C   0  0  0  0  0  0  0  0  0  0  0  0
    3.8560   -6.8690   22.6220 N   0  0  0  0  0  0  0  0  0  0  0  0
    2.6460   -7.6610   22.6220 C   0  0  2  0  0  0  0  0  0  0  0  0
    1.8790   -7.6240   21.3080 C   0  0  0  0  0  0  0  0  0  0  0  0
    0.8640   -8.3020   21.1530 O   0  0  0  0  0  0  0  0  0  0  0  0
    1.7040   -7.2290   23.7660 C   0  0  0  0  0  0  0  0  0  0  0  0
    2.2780   -7.5920   25.1180 C   0  0  0  0  0  0  0  0  0  0  0  0
    1.3170   -5.7330   23.6750 C   0  0  0  0  0  0  0  0  0  0  0  0
    2.3540   -6.8410   20.3560 N   0  0  0  0  0  0  0  0  0  0  0  0
    1.6690   -6.7720   19.0660 C   0  0  0  0  0  0  0  0  0  0  0  0
    0.2680   -6.2300   19.1960 C   0  0  0  0  0  0  0  0  0  0  0  0
   -0.0790   -5.4960   20.1380 O   0  0  0  0  0  0  0  0  0  0  0  0
   -0.5320   -6.5930   18.2040 N   0  0  0  0  0  0  0  0  0  0  0  0
   -1.8910   -6.1140   18.0470 C   0  0  2  0  0  0  0  0  0  0  0  0
   -2.7740   -7.3490   18.0210 C   0  0  0  0  0  0  0  0  0  0  0  0
   -2.8490   -8.0680   17.0140 O   0  0  0  0  0  0  0  0  0  0  0  0
   -2.0130   -5.2900   16.7490 C   0  0  0  0  0  0  0  0  0  0  0  0
   -3.4330   -7.6320   19.1360 N   0  0  0  0  0  0  0  0  0  0  0  0
   -4.1290   -8.9070   19.3200 C   0  0  0  0  0  0  0  0  0  0  0  0
    6.3659   -3.8208   26.2889 H   0  0  0  0  0  0  0  0  0  0  0  0
    7.0066   -5.4408   26.4235 H   0  0  0  0  0  0  0  0  0  0  0  0
    5.2802   -5.1893   26.3273 H   0  0  0  0  0  0  0  0  0  0  0  0
    5.9515   -6.8897   24.6270 H   0  0  0  0  0  0  0  0  0  0  0  0
    6.2848   -5.6601   21.9679 H   0  0  0  0  0  0  0  0  0  0  0  0
    7.5745   -8.1752   22.9458 H   0  0  0  0  0  0  0  0  0  0  0  0
    8.3898   -6.6695   22.5978 H   0  0  0  0  0  0  0  0  0  0  0  0
    7.6209   -7.5648   21.3093 H   0  0  0  0  0  0  0  0  0  0  0  0
    3.8127   -5.9323   22.9220 H   0  0  0  0  0  0  0  0  0  0  0  0
    2.9744   -8.6690   22.7667 H   0  0  0  0  0  0  0  0  0  0  0  0
    0.7934   -7.7789   23.6507 H   0  0  0  0  0  0  0  0  0  0  0  0
    3.1935   -7.0598   25.2713 H   0  0  0  0  0  0  0  0  0  0  0  0
    2.4669   -8.6446   25.1543 H   0  0  0  0  0  0  0  0  0  0  0  0
    1.5795   -7.3283   25.8845 H   0  0  0  0  0  0  0  0  0  0  0  0
    2.1944   -5.1303   23.7844 H   0  0  0  0  0  0  0  0  0  0  0  0
    0.6224   -5.4963   24.4537 H   0  0  0  0  0  0  0  0  0  0  0  0
    0.8668   -5.5383   22.7241 H   0  0  0  0  0  0  0  0  0  0  0  0
    3.1654   -6.3064   20.5143 H   0  0  0  0  0  0  0  0  0  0  0  0
    2.2267   -6.1337   18.4129 H   0  0  0  0  0  0  0  0  0  0  0  0
    1.6029   -7.7656   18.6745 H   0  0  0  0  0  0  0  0  0  0  0  0
   -0.1830   -7.2249   17.5346 H   0  0  0  0  0  0  0  0  0  0  0  0
   -2.1857   -5.4655   18.8454 H   0  0  0  0  0  0  0  0  0  0  0  0
   -1.7281   -5.8955   15.9141 H   0  0  0  0  0  0  0  0  0  0  0  0
   -1.3701   -4.4366   16.8065 H   0  0  0  0  0  0  0  0  0  0  0  0
   -3.0254   -4.9663   16.6259 H   0  0  0  0  0  0  0  0  0  0  0  0
   -3.4550   -6.9661   19.8608 H   0  0  0  0  0  0  0  0  0  0  0  0
   -4.0061   -9.5100   18.4447 H   0  0  0  0  0  0  0  0  0  0  0  0
   -5.1705   -8.7244   19.4840 H   0  0  0  0  0  0  0  0  0  0  0  0
   -3.7190   -9.4184   20.1658 H   0  0  0  0  0  0  0  0  0  0  0  0
  1 27  1  0  0  0  0
  1 28  1  0  0  0  0
  1 29  1  0  0  0  0
  2  1  1  0  0  0  0
  3  2  2  0  0  0  0
  4  2  1  0  0  0  0
  4 30  1  0  0  0  0
  5  4  1  0  0  0  0
  5 31  1  6  0  0  0
  6  5  1  0  0  0  0
  6  9  1  0  0  0  0
  7  6  2  0  0  0  0
  8  5  1  0  0  0  0
  8 32  1  0  0  0  0
  8 33  1  0  0  0  0
  8 34  1  0  0  0  0
  9 35  1  0  0  0  0
 10  9  1  0  0  0  0
 10 13  1  0  0  0  0
 10 36  1  1  0  0  0
 11 10  1  0  0  0  0
 12 11  2  0  0  0  0
 13 14  1  0  0  0  0
 13 37  1  0  0  0  0
 14 38  1  0  0  0  0
 14 39  1  0  0  0  0
 14 40  1  0  0  0  0
 15 13  1  0  0  0  0
 15 41  1  0  0  0  0
 15 42  1  0  0  0  0
 15 43  1  0  0  0  0
 16 11  1  0  0  0  0
 16 44  1  0  0  0  0
 17 18  1  0  0  0  0
 17 16  1  0  0  0  0
 17 45  1  0  0  0  0
 17 46  1  0  0  0  0
 18 19  2  0  0  0  0
 20 18  1  0  0  0  0
 20 47  1  0  0  0  0
 21 20  1  0  0  0  0
 21 48  1  1  0  0  0
 22 21  1  0  0  0  0
 22 25  1  0  0  0  0
 23 22  2  0  0  0  0
 24 21  1  0  0  0  0
 24 49  1  0  0  0  0
 24 50  1  0  0  0  0
 24 51  1  0  0  0  0
 25 26  1  0  0  0  0
 25 52  1  0  0  0  0
 26 53  1  0  0  0  0
 26 54  1  0  0  0  0
 26 55  1  0  0  0  0
M  END
>  <MODEL>
       0

$$$$
selected_4mers/AVGA/641_noH.pdb
 OpenBabel03042518233D

 55 54  0  0  1  0  0  0  0  0999 V2000
   51.7540  -25.1390    4.9360 C   0  0  0  0  0  0  0  0  0  0  0  0
   52.5060  -24.5160    6.0890 C   0  0  0  0  0  0  0  0  0  0  0  0
   53.0320  -23.3640    6.0210 O   0  0  0  0  0  0  0  0  0  0  0  0
   52.5120  -25.2160    7.2040 N   0  0  0  0  0  0  0  0  0  0  0  0
   53.0770  -24.7970    8.4810 C   0  0  2  0  0  0  0  0  0  0  0  0
   54.5090  -25.2380    8.6070 C   0  0  0  0  0  0  0  0  0  0  0  0
   54.8440  -26.4070    8.4370 O   0  0  0  0  0  0  0  0  0  0  0  0
   52.1560  -25.2770    9.6430 C   0  0  0  0  0  0  0  0  0  0  0  0
   55.4700  -24.3340    8.8290 N   0  0  0  0  0  0  0  0  0  0  0  0
   56.8740  -24.6030    8.7870 C   0  0  2  0  0  0  0  0  0  0  0  0
   57.4620  -24.4070   10.1880 C   0  0  0  0  0  0  0  0  0  0  0  0
   57.3370  -23.3140   10.8010 O   0  0  0  0  0  0  0  0  0  0  0  0
   57.6270  -23.6500    7.8180 C   0  0  0  0  0  0  0  0  0  0  0  0
   59.0370  -23.9890    7.7350 C   0  0  0  0  0  0  0  0  0  0  0  0
   56.8950  -23.7410    6.4100 C   0  0  0  0  0  0  0  0  0  0  0  0
   58.1590  -25.4200   10.6300 N   0  0  0  0  0  0  0  0  0  0  0  0
   58.9880  -25.3490   11.8640 C   0  0  0  0  0  0  0  0  0  0  0  0
   60.4610  -25.0990   11.5460 C   0  0  0  0  0  0  0  0  0  0  0  0
   60.9320  -25.1950   10.3840 O   0  0  0  0  0  0  0  0  0  0  0  0
   61.2770  -24.9210   12.6110 N   0  0  0  0  0  0  0  0  0  0  0  0
   62.6780  -24.6280   12.5110 C   0  0  2  0  0  0  0  0  0  0  0  0
   63.6230  -25.6060   13.1420 C   0  0  0  0  0  0  0  0  0  0  0  0
   63.2850  -26.2400   14.1630 O   0  0  0  0  0  0  0  0  0  0  0  0
   62.9530  -23.2420   13.0920 C   0  0  0  0  0  0  0  0  0  0  0  0
   64.7770  -25.7370   12.5450 N   0  0  0  0  0  0  0  0  0  0  0  0
   65.9200  -26.4940   13.0610 C   0  0  0  0  0  0  0  0  0  0  0  0
   51.8101  -24.4944    4.0838 H   0  0  0  0  0  0  0  0  0  0  0  0
   50.7294  -25.2775    5.2117 H   0  0  0  0  0  0  0  0  0  0  0  0
   52.1900  -26.0862    4.6961 H   0  0  0  0  0  0  0  0  0  0  0  0
   52.0952  -26.1074    7.1725 H   0  0  0  0  0  0  0  0  0  0  0  0
   53.1084  -23.7289    8.5369 H   0  0  0  0  0  0  0  0  0  0  0  0
   52.0921  -26.3450    9.6296 H   0  0  0  0  0  0  0  0  0  0  0  0
   51.1786  -24.8597    9.5191 H   0  0  0  0  0  0  0  0  0  0  0  0
   52.5650  -24.9559   10.5782 H   0  0  0  0  0  0  0  0  0  0  0  0
   55.1893  -23.4136    9.0371 H   0  0  0  0  0  0  0  0  0  0  0  0
   56.9965  -25.6080    8.4407 H   0  0  0  0  0  0  0  0  0  0  0  0
   57.5985  -22.6414    8.1742 H   0  0  0  0  0  0  0  0  0  0  0  0
   59.1421  -24.9937    7.3822 H   0  0  0  0  0  0  0  0  0  0  0  0
   59.4822  -23.9029    8.7042 H   0  0  0  0  0  0  0  0  0  0  0  0
   59.5254  -23.3201    7.0575 H   0  0  0  0  0  0  0  0  0  0  0  0
   56.9254  -24.7506    6.0568 H   0  0  0  0  0  0  0  0  0  0  0  0
   57.3904  -23.1027    5.7085 H   0  0  0  0  0  0  0  0  0  0  0  0
   55.8765  -23.4310    6.5168 H   0  0  0  0  0  0  0  0  0  0  0  0
   58.1348  -26.2653   10.1258 H   0  0  0  0  0  0  0  0  0  0  0  0
   58.9005  -26.2747   12.3934 H   0  0  0  0  0  0  0  0  0  0  0  0
   58.6328  -24.5315   12.4560 H   0  0  0  0  0  0  0  0  0  0  0  0
   60.8847  -24.9974   13.5107 H   0  0  0  0  0  0  0  0  0  0  0  0
   62.8782  -24.6890   11.4617 H   0  0  0  0  0  0  0  0  0  0  0  0
   62.7350  -23.2447   14.1396 H   0  0  0  0  0  0  0  0  0  0  0  0
   62.3344  -22.5202   12.6008 H   0  0  0  0  0  0  0  0  0  0  0  0
   63.9822  -22.9904   12.9425 H   0  0  0  0  0  0  0  0  0  0  0  0
   64.8881  -25.2895   11.6752 H   0  0  0  0  0  0  0  0  0  0  0  0
   65.6646  -26.9256   14.0062 H   0  0  0  0  0  0  0  0  0  0  0  0
   66.7565  -25.8381   13.1828 H   0  0  0  0  0  0  0  0  0  0  0  0
   66.1738  -27.2713   12.3709 H   0  0  0  0  0  0  0  0  0  0  0  0
  1  2  1  0  0  0  0
  1 27  1  0  0  0  0
  1 28  1  0  0  0  0
  1 29  1  0  0  0  0
  2  4  1  0  0  0  0
  3  2  2  0  0  0  0
  4  5  1  0  0  0  0
  4 30  1  0  0  0  0
  5  6  1  0  0  0  0
  5  8  1  0  0  0  0
  5 31  1  1  0  0  0
  6  9  1  0  0  0  0
  7  6  2  0  0  0  0
  8 32  1  0  0  0  0
  8 33  1  0  0  0  0
  8 34  1  0  0  0  0
  9 35  1  0  0  0  0
 10  9  1  0  0  0  0
 10 11  1  0  0  0  0
 10 36  1  6  0  0  0
 11 16  1  0  0  0  0
 11 12  2  0  0  0  0
 13 10  1  0  0  0  0
 13 37  1  0  0  0  0
 14 13  1  0  0  0  0
 14 38  1  0  0  0  0
 14 39  1  0  0  0  0
 14 40  1  0  0  0  0
 15 13  1  0  0  0  0
 15 41  1  0  0  0  0
 15 42  1  0  0  0  0
 15 43  1  0  0  0  0
 16 17  1  0  0  0  0
 16 44  1  0  0  0  0
 17 45  1  0  0  0  0
 17 46  1  0  0  0  0
 18 17  1  0  0  0  0
 18 20  1  0  0  0  0
 19 18  2  0  0  0  0
 20 47  1  0  0  0  0
 21 20  1  0  0  0  0
 21 24  1  0  0  0  0
 21 22  1  0  0  0  0
 21 48  1  6  0  0  0
 22 23  2  0  0  0  0
 24 49  1  0  0  0  0
 24 50  1  0  0  0  0
 24 51  1  0  0  0  0
 25 26  1  0  0  0  0
 25 22  1  0  0  0  0
 25 52  1  0  0  0  0
 26 53  1  0  0  0  0
 26 54  1  0  0  0  0
 26 55  1  0  0  0  0
M  END
>  <MODEL>
       0

$$$$
selected_4mers/AVGA/642_noH.pdb
 OpenBabel03042518233D

 55 54  0  0  1  0  0  0  0  0999 V2000
   12.7790  -17.2100   -0.3740 C   0  0  0  0  0  0  0  0  0  0  0  0
   12.6770  -16.8310   -1.8600 C   0  0  0  0  0  0  0  0  0  0  0  0
   11.6510  -17.0530   -2.4960 O   0  0  0  0  0  0  0  0  0  0  0  0
   13.7740  -16.2950   -2.3960 N   0  0  0  0  0  0  0  0  0  0  0  0
   13.8810  -16.0060   -3.8240 C   0  0  2  0  0  0  0  0  0  0  0  0
   14.8480  -16.9620   -4.5290 C   0  0  0  0  0  0  0  0  0  0  0  0
   14.5200  -17.4890   -5.5980 O   0  0  0  0  0  0  0  0  0  0  0  0
   14.3030  -14.5620   -4.0330 C   0  0  0  0  0  0  0  0  0  0  0  0
   16.0210  -17.1900   -3.9300 N   0  0  0  0  0  0  0  0  0  0  0  0
   17.0350  -18.0770   -4.4970 C   0  0  2  0  0  0  0  0  0  0  0  0
   16.6950  -19.5520   -4.2460 C   0  0  0  0  0  0  0  0  0  0  0  0
   17.2500  -20.4480   -4.8810 O   0  0  0  0  0  0  0  0  0  0  0  0
   18.4550  -17.7440   -3.9800 C   0  0  0  0  0  0  0  0  0  0  0  0
   18.8590  -16.3180   -4.4010 C   0  0  0  0  0  0  0  0  0  0  0  0
   18.5310  -17.9070   -2.4830 C   0  0  0  0  0  0  0  0  0  0  0  0
   15.7770  -19.7780   -3.3150 N   0  0  0  0  0  0  0  0  0  0  0  0
   15.2170  -21.0930   -3.0580 C   0  0  0  0  0  0  0  0  0  0  0  0
   13.9900  -20.8710   -2.1960 C   0  0  0  0  0  0  0  0  0  0  0  0
   13.5360  -19.7260   -2.0550 O   0  0  0  0  0  0  0  0  0  0  0  0
   13.4360  -21.9500   -1.6550 N   0  0  0  0  0  0  0  0  0  0  0  0
   12.2960  -21.8700   -0.7420 C   0  0  2  0  0  0  0  0  0  0  0  0
   11.2080  -20.9470   -1.2850 C   0  0  0  0  0  0  0  0  0  0  0  0
   10.6300  -20.1490   -0.5480 O   0  0  0  0  0  0  0  0  0  0  0  0
   12.7450  -21.4060    0.6290 C   0  0  0  0  0  0  0  0  0  0  0  0
   10.9240  -21.0800   -2.5770 N   0  0  0  0  0  0  0  0  0  0  0  0
    9.9290  -20.2200   -3.2150 C   0  0  0  0  0  0  0  0  0  0  0  0
   11.8497  -17.6283   -0.0480 H   0  0  0  0  0  0  0  0  0  0  0  0
   12.9985  -16.3359    0.2028 H   0  0  0  0  0  0  0  0  0  0  0  0
   13.5598  -17.9296   -0.2422 H   0  0  0  0  0  0  0  0  0  0  0  0
   14.5372  -16.0871   -1.8099 H   0  0  0  0  0  0  0  0  0  0  0  0
   12.9162  -16.1546   -4.2621 H   0  0  0  0  0  0  0  0  0  0  0  0
   15.2676  -14.4057   -3.5972 H   0  0  0  0  0  0  0  0  0  0  0  0
   13.5919  -13.9117   -3.5679 H   0  0  0  0  0  0  0  0  0  0  0  0
   14.3468  -14.3513   -5.0811 H   0  0  0  0  0  0  0  0  0  0  0  0
   16.2094  -16.7430   -3.0733 H   0  0  0  0  0  0  0  0  0  0  0  0
   17.0322  -17.9108   -5.5540 H   0  0  0  0  0  0  0  0  0  0  0  0
   19.1462  -18.4319   -4.4204 H   0  0  0  0  0  0  0  0  0  0  0  0
   18.1791  -15.6129   -3.9703 H   0  0  0  0  0  0  0  0  0  0  0  0
   18.8272  -16.2385   -5.4676 H   0  0  0  0  0  0  0  0  0  0  0  0
   19.8513  -16.1123   -4.0575 H   0  0  0  0  0  0  0  0  0  0  0  0
   17.8480  -17.2290   -2.0153 H   0  0  0  0  0  0  0  0  0  0  0  0
   19.5262  -17.6961   -2.1513 H   0  0  0  0  0  0  0  0  0  0  0  0
   18.2727  -18.9115   -2.2200 H   0  0  0  0  0  0  0  0  0  0  0  0
   15.4609  -19.0191   -2.7734 H   0  0  0  0  0  0  0  0  0  0  0  0
   15.9274  -21.7038   -2.5412 H   0  0  0  0  0  0  0  0  0  0  0  0
   14.9667  -21.5944   -3.9695 H   0  0  0  0  0  0  0  0  0  0  0  0
   13.8058  -22.8352   -1.8763 H   0  0  0  0  0  0  0  0  0  0  0  0
   11.8797  -22.8519   -0.6558 H   0  0  0  0  0  0  0  0  0  0  0  0
   13.1633  -20.4240    0.5539 H   0  0  0  0  0  0  0  0  0  0  0  0
   13.4836  -22.0802    1.0095 H   0  0  0  0  0  0  0  0  0  0  0  0
   11.9051  -21.3862    1.2916 H   0  0  0  0  0  0  0  0  0  0  0  0
   11.3888  -21.7651   -3.1098 H   0  0  0  0  0  0  0  0  0  0  0  0
    9.5290  -19.5402   -2.4920 H   0  0  0  0  0  0  0  0  0  0  0  0
    9.1395  -20.8226   -3.6131 H   0  0  0  0  0  0  0  0  0  0  0  0
   10.3902  -19.6677   -4.0069 H   0  0  0  0  0  0  0  0  0  0  0  0
  1 27  1  0  0  0  0
  1 28  1  0  0  0  0
  1 29  1  0  0  0  0
  2  1  1  0  0  0  0
  3  2  2  0  0  0  0
  4  2  1  0  0  0  0
  4 30  1  0  0  0  0
  5  4  1  0  0  0  0
  5 31  1  6  0  0  0
  6  9  1  0  0  0  0
  6  5  1  0  0  0  0
  7  6  2  0  0  0  0
  8  5  1  0  0  0  0
  8 32  1  0  0  0  0
  8 33  1  0  0  0  0
  8 34  1  0  0  0  0
  9 35  1  0  0  0  0
 10 11  1  0  0  0  0
 10 13  1  0  0  0  0
 10  9  1  0  0  0  0
 10 36  1  6  0  0  0
 11 16  1  0  0  0  0
 12 11  2  0  0  0  0
 13 15  1  0  0  0  0
 13 37  1  0  0  0  0
 14 13  1  0  0  0  0
 14 38  1  0  0  0  0
 14 39  1  0  0  0  0
 14 40  1  0  0  0  0
 15 41  1  0  0  0  0
 15 42  1  0  0  0  0
 15 43  1  0  0  0  0
 16 17  1  0  0  0  0
 16 44  1  0  0  0  0
 17 18  1  0  0  0  0
 17 45  1  0  0  0  0
 17 46  1  0  0  0  0
 18 19  2  0  0  0  0
 18 20  1  0  0  0  0
 20 21  1  0  0  0  0
 20 47  1  0  0  0  0
 21 24  1  0  0  0  0
 21 48  1  1  0  0  0
 22 21  1  0  0  0  0
 22 23  2  0  0  0  0
 24 49  1  0  0  0  0
 24 50  1  0  0  0  0
 24 51  1  0  0  0  0
 25 22  1  0  0  0  0
 25 52  1  0  0  0  0
 26 25  1  0  0  0  0
 26 53  1  0  0  0  0
 26 54  1  0  0  0  0
 26 55  1  0  0  0  0
M  END
>  <MODEL>
       0

$$$$
selected_4mers/AVGA/643_noH.pdb
 OpenBabel03042518233D

 55 54  0  0  1  0  0  0  0  0999 V2000
   82.5930   13.2220   15.3330 C   0  0  0  0  0  0  0  0  0  0  0  0
   83.4020   13.8910   14.2180 C   0  0  0  0  0  0  0  0  0  0  0  0
   84.6360   13.8040   14.2300 O   0  0  0  0  0  0  0  0  0  0  0  0
   82.7200   14.5920   13.3120 N   0  0  0  0  0  0  0  0  0  0  0  0
   83.3990   15.2690   12.1840 C   0  0  2  0  0  0  0  0  0  0  0  0
   84.4430   16.2790   12.6450 C   0  0  0  0  0  0  0  0  0  0  0  0
   85.4680   16.4650   11.9540 O   0  0  0  0  0  0  0  0  0  0  0  0
   82.3730   15.9440   11.2940 C   0  0  0  0  0  0  0  0  0  0  0  0
   84.2010   16.9340   13.7830 N   0  0  0  0  0  0  0  0  0  0  0  0
   85.1660   17.9100   14.3200 C   0  0  2  0  0  0  0  0  0  0  0  0
   85.9830   17.3620   15.5010 C   0  0  0  0  0  0  0  0  0  0  0  0
   86.6140   18.1350   16.2170 O   0  0  0  0  0  0  0  0  0  0  0  0
   84.4660   19.2200   14.7050 C   0  0  0  0  0  0  0  0  0  0  0  0
   83.9150   19.9220   13.4620 C   0  0  0  0  0  0  0  0  0  0  0  0
   83.3430   18.9610   15.7180 C   0  0  0  0  0  0  0  0  0  0  0  0
   85.9650   16.0490   15.7160 N   0  0  0  0  0  0  0  0  0  0  0  0
   86.7580   15.4130   16.7560 C   0  0  0  0  0  0  0  0  0  0  0  0
   86.1730   15.4790   18.1580 C   0  0  0  0  0  0  0  0  0  0  0  0
   86.8960   15.2710   19.1340 O   0  0  0  0  0  0  0  0  0  0  0  0
   84.8740   15.7880   18.2560 N   0  0  0  0  0  0  0  0  0  0  0  0
   84.1280   15.7760   19.5090 C   0  0  2  0  0  0  0  0  0  0  0  0
   83.4580   14.4220   19.6690 C   0  0  0  0  0  0  0  0  0  0  0  0
   83.3830   13.6110   18.7300 O   0  0  0  0  0  0  0  0  0  0  0  0
   83.0880   16.8960   19.5340 C   0  0  0  0  0  0  0  0  0  0  0  0
   82.9660   14.1680   20.8670 N   0  0  0  0  0  0  0  0  0  0  0  0
   82.4150   12.8650   21.2090 C   0  0  0  0  0  0  0  0  0  0  0  0
   81.5498   13.3947   15.1695 H   0  0  0  0  0  0  0  0  0  0  0  0
   82.8790   13.6345   16.2779 H   0  0  0  0  0  0  0  0  0  0  0  0
   82.7850   12.1694   15.3306 H   0  0  0  0  0  0  0  0  0  0  0  0
   81.7414   14.6611   13.3951 H   0  0  0  0  0  0  0  0  0  0  0  0
   83.9202   14.5157   11.6309 H   0  0  0  0  0  0  0  0  0  0  0  0
   81.8556   16.6957   11.8527 H   0  0  0  0  0  0  0  0  0  0  0  0
   81.6724   15.2160   10.9417 H   0  0  0  0  0  0  0  0  0  0  0  0
   82.8671   16.3965   10.4597 H   0  0  0  0  0  0  0  0  0  0  0  0
   83.3638   16.7621   14.2717 H   0  0  0  0  0  0  0  0  0  0  0  0
   85.8627   18.1084   13.5325 H   0  0  0  0  0  0  0  0  0  0  0  0
   85.1893   19.8614   15.1636 H   0  0  0  0  0  0  0  0  0  0  0  0
   83.1889   19.2937   12.9900 H   0  0  0  0  0  0  0  0  0  0  0  0
   84.7150   20.1180   12.7790 H   0  0  0  0  0  0  0  0  0  0  0  0
   83.4558   20.8452   13.7479 H   0  0  0  0  0  0  0  0  0  0  0  0
   82.6073   18.3202   15.2788 H   0  0  0  0  0  0  0  0  0  0  0  0
   82.8887   19.8902   15.9922 H   0  0  0  0  0  0  0  0  0  0  0  0
   83.7499   18.4921   16.5894 H   0  0  0  0  0  0  0  0  0  0  0  0
   85.3916   15.4852   15.1480 H   0  0  0  0  0  0  0  0  0  0  0  0
   87.7167   15.8877   16.7762 H   0  0  0  0  0  0  0  0  0  0  0  0
   86.7962   14.3742   16.5023 H   0  0  0  0  0  0  0  0  0  0  0  0
   84.3941   16.0381   17.4336 H   0  0  0  0  0  0  0  0  0  0  0  0
   84.8016   15.9421   20.3236 H   0  0  0  0  0  0  0  0  0  0  0  0
   82.3967   16.7588   18.7289 H   0  0  0  0  0  0  0  0  0  0  0  0
   83.5786   17.8407   19.4258 H   0  0  0  0  0  0  0  0  0  0  0  0
   82.5608   16.8724   20.4648 H   0  0  0  0  0  0  0  0  0  0  0  0
   82.9718   14.8792   21.5478 H   0  0  0  0  0  0  0  0  0  0  0  0
   82.4858   12.2145   20.3624 H   0  0  0  0  0  0  0  0  0  0  0  0
   81.3883   12.9745   21.4899 H   0  0  0  0  0  0  0  0  0  0  0  0
   82.9658   12.4481   22.0261 H   0  0  0  0  0  0  0  0  0  0  0  0
  1 27  1  0  0  0  0
  1 28  1  0  0  0  0
  1 29  1  0  0  0  0
  2  3  2  0  0  0  0
  2  1  1  0  0  0  0
  4  2  1  0  0  0  0
  4 30  1  0  0  0  0
  5  6  1  0  0  0  0
  5  4  1  0  0  0  0
  5 31  1  6  0  0  0
  6  9  1  0  0  0  0
  7  6  2  0  0  0  0
  8  5  1  0  0  0  0
  8 32  1  0  0  0  0
  8 33  1  0  0  0  0
  8 34  1  0  0  0  0
  9 10  1  0  0  0  0
  9 35  1  0  0  0  0
 10 13  1  0  0  0  0
 10 11  1  0  0  0  0
 10 36  1  6  0  0  0
 11 16  1  0  0  0  0
 11 12  2  0  0  0  0
 13 15  1  0  0  0  0
 13 37  1  0  0  0  0
 14 13  1  0  0  0  0
 14 38  1  0  0  0  0
 14 39  1  0  0  0  0
 14 40  1  0  0  0  0
 15 41  1  0  0  0  0
 15 42  1  0  0  0  0
 15 43  1  0  0  0  0
 16 17  1  0  0  0  0
 16 44  1  0  0  0  0
 17 18  1  0  0  0  0
 17 45  1  0  0  0  0
 17 46  1  0  0  0  0
 18 20  1  0  0  0  0
 18 19  2  0  0  0  0
 20 21  1  0  0  0  0
 20 47  1  0  0  0  0
 21 24  1  0  0  0  0
 21 22  1  0  0  0  0
 21 48  1  1  0  0  0
 22 25  1  0  0  0  0
 23 22  2  0  0  0  0
 24 49  1  0  0  0  0
 24 50  1  0  0  0  0
 24 51  1  0  0  0  0
 25 26  1  0  0  0  0
 25 52  1  0  0  0  0
 26 53  1  0  0  0  0
 26 54  1  0  0  0  0
 26 55  1  0  0  0  0
M  END
>  <MODEL>
       0

$$$$
selected_4mers/AVGA/644_noH.pdb
 OpenBabel03042518233D

 55 54  0  0  1  0  0  0  0  0999 V2000
   18.3310  -21.5380   16.8500 C   0  0  0  0  0  0  0  0  0  0  0  0
   18.0150  -20.2470   16.1100 C   0  0  0  0  0  0  0  0  0  0  0  0
   18.8430  -19.3240   16.0690 O   0  0  0  0  0  0  0  0  0  0  0  0
   16.8050  -20.2040   15.5480 N   0  0  0  0  0  0  0  0  0  0  0  0
   16.2890  -19.0170   14.8600 C   0  0  2  0  0  0  0  0  0  0  0  0
   15.8920  -18.0430   15.9640 C   0  0  0  0  0  0  0  0  0  0  0  0
   15.5100  -18.4720   17.0620 O   0  0  0  0  0  0  0  0  0  0  0  0
   15.0860  -19.3490   13.9650 C   0  0  0  0  0  0  0  0  0  0  0  0
   15.9770  -16.7450   15.6780 N   0  0  0  0  0  0  0  0  0  0  0  0
   15.6330  -15.6900   16.6450 C   0  0  2  0  0  0  0  0  0  0  0  0
   14.1710  -15.8250   17.1240 C   0  0  0  0  0  0  0  0  0  0  0  0
   13.9220  -15.5940   18.3030 O   0  0  0  0  0  0  0  0  0  0  0  0
   15.9670  -14.2520   16.1460 C   0  0  0  0  0  0  0  0  0  0  0  0
   15.7360  -13.2420   17.2470 C   0  0  0  0  0  0  0  0  0  0  0  0
   17.4170  -14.1420   15.7260 C   0  0  0  0  0  0  0  0  0  0  0  0
   13.2610  -16.2680   16.2410 N   0  0  0  0  0  0  0  0  0  0  0  0
   11.8560  -16.5440   16.5760 C   0  0  0  0  0  0  0  0  0  0  0  0
   11.6520  -17.6980   17.5590 C   0  0  0  0  0  0  0  0  0  0  0  0
   10.5960  -17.7730   18.2000 O   0  0  0  0  0  0  0  0  0  0  0  0
   12.6110  -18.6260   17.6300 N   0  0  0  0  0  0  0  0  0  0  0  0
   12.6080  -19.7230   18.6220 C   0  0  2  0  0  0  0  0  0  0  0  0
   12.7380  -19.1850   20.0560 C   0  0  0  0  0  0  0  0  0  0  0  0
   12.2610  -19.8350   20.9880 O   0  0  0  0  0  0  0  0  0  0  0  0
   13.7010  -20.7590   18.3300 C   0  0  0  0  0  0  0  0  0  0  0  0
   13.3750  -18.0240   20.2410 N   0  0  0  0  0  0  0  0  0  0  0  0
   13.4590  -17.3680   21.5440 C   0  0  0  0  0  0  0  0  0  0  0  0
   17.4992  -22.2065   16.7722 H   0  0  0  0  0  0  0  0  0  0  0  0
   18.5192  -21.3213   17.8808 H   0  0  0  0  0  0  0  0  0  0  0  0
   19.1969  -21.9942   16.4175 H   0  0  0  0  0  0  0  0  0  0  0  0
   16.2342  -21.0046   15.5978 H   0  0  0  0  0  0  0  0  0  0  0  0
   17.0287  -18.6029   14.2070 H   0  0  0  0  0  0  0  0  0  0  0  0
   14.3036  -19.7705   14.5610 H   0  0  0  0  0  0  0  0  0  0  0  0
   15.3824  -20.0531   13.2158 H   0  0  0  0  0  0  0  0  0  0  0  0
   14.7338  -18.4548   13.4947 H   0  0  0  0  0  0  0  0  0  0  0  0
   16.2832  -16.4796   14.7808 H   0  0  0  0  0  0  0  0  0  0  0  0
   16.2672  -15.8409   17.4935 H   0  0  0  0  0  0  0  0  0  0  0  0
   15.3273  -14.0549   15.3113 H   0  0  0  0  0  0  0  0  0  0  0  0
   16.3846  -13.4573   18.0703 H   0  0  0  0  0  0  0  0  0  0  0  0
   14.7178  -13.2950   17.5717 H   0  0  0  0  0  0  0  0  0  0  0  0
   15.9420  -12.2589   16.8782 H   0  0  0  0  0  0  0  0  0  0  0  0
   18.0480  -14.3407   16.5670 H   0  0  0  0  0  0  0  0  0  0  0  0
   17.6088  -13.1544   15.3616 H   0  0  0  0  0  0  0  0  0  0  0  0
   17.6192  -14.8531   14.9525 H   0  0  0  0  0  0  0  0  0  0  0  0
   13.5525  -16.4171   15.3125 H   0  0  0  0  0  0  0  0  0  0  0  0
   11.3371  -16.7807   15.6707 H   0  0  0  0  0  0  0  0  0  0  0  0
   11.4801  -15.6652   17.0569 H   0  0  0  0  0  0  0  0  0  0  0  0
   13.3572  -18.5770   16.9896 H   0  0  0  0  0  0  0  0  0  0  0  0
   11.6621  -20.2159   18.5369 H   0  0  0  0  0  0  0  0  0  0  0  0
   14.6621  -20.2950   18.4075 H   0  0  0  0  0  0  0  0  0  0  0  0
   13.5705  -21.1461   17.3410 H   0  0  0  0  0  0  0  0  0  0  0  0
   13.6328  -21.5585   19.0378 H   0  0  0  0  0  0  0  0  0  0  0  0
   13.8052  -17.5933   19.4673 H   0  0  0  0  0  0  0  0  0  0  0  0
   12.9455  -17.9580   22.2741 H   0  0  0  0  0  0  0  0  0  0  0  0
   13.0070  -16.3999   21.4857 H   0  0  0  0  0  0  0  0  0  0  0  0
   14.4860  -17.2657   21.8263 H   0  0  0  0  0  0  0  0  0  0  0  0
  1 27  1  0  0  0  0
  1 28  1  0  0  0  0
  1 29  1  0  0  0  0
  2  1  1  0  0  0  0
  3  2  2  0  0  0  0
  4  2  1  0  0  0  0
  4 30  1  0  0  0  0
  5  4  1  0  0  0  0
  5  6  1  0  0  0  0
  5 31  1  6  0  0  0
  6  7  2  0  0  0  0
  8  5  1  0  0  0  0
  8 32  1  0  0  0  0
  8 33  1  0  0  0  0
  8 34  1  0  0  0  0
  9  6  1  0  0  0  0
  9 10  1  0  0  0  0
  9 35  1  0  0  0  0
 10 11  1  0  0  0  0
 10 36  1  1  0  0  0
 11 12  2  0  0  0  0
 13 10  1  0  0  0  0
 13 14  1  0  0  0  0
 13 37  1  0  0  0  0
 14 38  1  0  0  0  0
 14 39  1  0  0  0  0
 14 40  1  0  0  0  0
 15 13  1  0  0  0  0
 15 41  1  0  0  0  0
 15 42  1  0  0  0  0
 15 43  1  0  0  0  0
 16 17  1  0  0  0  0
 16 11  1  0  0  0  0
 16 44  1  0  0  0  0
 17 18  1  0  0  0  0
 17 45  1  0  0  0  0
 17 46  1  0  0  0  0
 18 20  1  0  0  0  0
 18 19  2  0  0  0  0
 20 21  1  0  0  0  0
 20 47  1  0  0  0  0
 21 22  1  0  0  0  0
 21 48  1  6  0  0  0
 22 25  1  0  0  0  0
 22 23  2  0  0  0  0
 24 21  1  0  0  0  0
 24 49  1  0  0  0  0
 24 50  1  0  0  0  0
 24 51  1  0  0  0  0
 25 26  1  0  0  0  0
 25 52  1  0  0  0  0
 26 53  1  0  0  0  0
 26 54  1  0  0  0  0
 26 55  1  0  0  0  0
M  END
>  <MODEL>
       0

$$$$
