selected_4mers/AVGV/645_noH.pdb
 OpenBabel03042518233D

 61 60  0  0  1  0  0  0  0  0999 V2000
  -13.2430   13.7980    1.3520 C   0  0  0  0  0  0  0  0  0  0  0  0
  -13.4640   12.3420    1.7480 C   0  0  0  0  0  0  0  0  0  0  0  0
  -14.0430   11.5730    0.9750 O   0  0  0  0  0  0  0  0  0  0  0  0
  -13.0450   11.9880    2.9660 N   0  0  0  0  0  0  0  0  0  0  0  0
  -13.1440   10.6080    3.4550 C   0  0  2  0  0  0  0  0  0  0  0  0
  -14.5920   10.1520    3.6060 C   0  0  0  0  0  0  0  0  0  0  0  0
  -14.8820    8.9730    3.4370 O   0  0  0  0  0  0  0  0  0  0  0  0
  -12.4050   10.4470    4.7780 C   0  0  0  0  0  0  0  0  0  0  0  0
  -15.4900   11.0830    3.9310 N   0  0  0  0  0  0  0  0  0  0  0  0
  -16.9020   10.7360    4.1480 C   0  0  2  0  0  0  0  0  0  0  0  0
  -17.8000   11.0710    2.9440 C   0  0  0  0  0  0  0  0  0  0  0  0
  -19.0150   10.8830    3.0010 O   0  0  0  0  0  0  0  0  0  0  0  0
  -17.4650   11.3660    5.4630 C   0  0  0  0  0  0  0  0  0  0  0  0
  -16.7230   10.8360    6.6910 C   0  0  0  0  0  0  0  0  0  0  0  0
  -17.3860   12.8870    5.4240 C   0  0  0  0  0  0  0  0  0  0  0  0
  -17.1930   11.5510    1.8600 N   0  0  0  0  0  0  0  0  0  0  0  0
  -17.9180   11.8150    0.6080 C   0  0  0  0  0  0  0  0  0  0  0  0
  -18.7760   13.0660    0.6340 C   0  0  0  0  0  0  0  0  0  0  0  0
  -19.7700   13.1720   -0.1030 O   0  0  0  0  0  0  0  0  0  0  0  0
  -18.3730   14.0110    1.4750 N   0  0  0  0  0  0  0  0  0  0  0  0
  -19.0430   15.2960    1.6530 C   0  0  2  0  0  0  0  0  0  0  0  0
  -18.3680   16.3620    0.7890 C   0  0  0  0  0  0  0  0  0  0  0  0
  -17.1430   16.5150    0.8160 O   0  0  0  0  0  0  0  0  0  0  0  0
  -19.0270   15.7020    3.1600 C   0  0  0  0  0  0  0  0  0  0  0  0
  -19.0280   17.2160    3.3540 C   0  0  0  0  0  0  0  0  0  0  0  0
  -20.1990   15.0720    3.8700 C   0  0  0  0  0  0  0  0  0  0  0  0
  -19.1710   17.0840    0.0130 N   0  0  0  0  0  0  0  0  0  0  0  0
  -18.6650   18.2050   -0.7620 C   0  0  0  0  0  0  0  0  0  0  0  0
  -13.6170   13.9592    0.3626 H   0  0  0  0  0  0  0  0  0  0  0  0
  -12.1966   14.0199    1.3783 H   0  0  0  0  0  0  0  0  0  0  0  0
  -13.7603   14.4365    2.0373 H   0  0  0  0  0  0  0  0  0  0  0  0
  -12.6572   12.6752    3.5547 H   0  0  0  0  0  0  0  0  0  0  0  0
  -12.6826    9.9847    2.7178 H   0  0  0  0  0  0  0  0  0  0  0  0
  -12.8620   11.0682    5.5197 H   0  0  0  0  0  0  0  0  0  0  0  0
  -11.3822   10.7350    4.6525 H   0  0  0  0  0  0  0  0  0  0  0  0
  -12.4519    9.4248    5.0906 H   0  0  0  0  0  0  0  0  0  0  0  0
  -15.2021   12.0195    4.0273 H   0  0  0  0  0  0  0  0  0  0  0  0
  -16.9228    9.6719    4.2581 H   0  0  0  0  0  0  0  0  0  0  0  0
  -18.4937   11.0808    5.5364 H   0  0  0  0  0  0  0  0  0  0  0  0
  -15.6914   11.1138    6.6318 H   0  0  0  0  0  0  0  0  0  0  0  0
  -16.8039    9.7696    6.7239 H   0  0  0  0  0  0  0  0  0  0  0  0
  -17.1546   11.2539    7.5764 H   0  0  0  0  0  0  0  0  0  0  0  0
  -16.3622   13.1892    5.3505 H   0  0  0  0  0  0  0  0  0  0  0  0
  -17.8133   13.2894    6.3186 H   0  0  0  0  0  0  0  0  0  0  0  0
  -17.9270   13.2506    4.5755 H   0  0  0  0  0  0  0  0  0  0  0  0
  -16.2266   11.7352    1.8981 H   0  0  0  0  0  0  0  0  0  0  0  0
  -17.2006   11.9172   -0.1793 H   0  0  0  0  0  0  0  0  0  0  0  0
  -18.5837   10.9904    0.4603 H   0  0  0  0  0  0  0  0  0  0  0  0
  -17.5689   13.8335    2.0145 H   0  0  0  0  0  0  0  0  0  0  0  0
  -20.0628   15.2096    1.3409 H   0  0  0  0  0  0  0  0  0  0  0  0
  -18.1150   15.3385    3.5855 H   0  0  0  0  0  0  0  0  0  0  0  0
  -19.9256   17.6278    2.9421 H   0  0  0  0  0  0  0  0  0  0  0  0
  -18.1804   17.6398    2.8571 H   0  0  0  0  0  0  0  0  0  0  0  0
  -18.9786   17.4417    4.3988 H   0  0  0  0  0  0  0  0  0  0  0  0
  -21.1110   15.4354    3.4446 H   0  0  0  0  0  0  0  0  0  0  0  0
  -20.1645   15.3250    4.9091 H   0  0  0  0  0  0  0  0  0  0  0  0
  -20.1530   14.0087    3.7601 H   0  0  0  0  0  0  0  0  0  0  0  0
  -20.1271   16.8548   -0.0377 H   0  0  0  0  0  0  0  0  0  0  0  0
  -17.6143   18.3120   -0.5902 H   0  0  0  0  0  0  0  0  0  0  0  0
  -19.1683   19.1009   -0.4637 H   0  0  0  0  0  0  0  0  0  0  0  0
  -18.8400   18.0272   -1.8025 H   0  0  0  0  0  0  0  0  0  0  0  0
  1  2  1  0  0  0  0
  1 29  1  0  0  0  0
  1 30  1  0  0  0  0
  1 31  1  0  0  0  0
  2  4  1  0  0  0  0
  3  2  2  0  0  0  0
  4  5  1  0  0  0  0
  4 32  1  0  0  0  0
  5  6  1  0  0  0  0
  5  8  1  0  0  0  0
  5 33  1  6  0  0  0
  6  9  1  0  0  0  0
  7  6  2  0  0  0  0
  8 34  1  0  0  0  0
  8 35  1  0  0  0  0
  8 36  1  0  0  0  0
  9 10  1  0  0  0  0
  9 37  1  0  0  0  0
 10 13  1  0  0  0  0
 10 38  1  1  0  0  0
 11 12  2  0  0  0  0
 11 10  1  0  0  0  0
 13 14  1  0  0  0  0
 13 39  1  0  0  0  0
 14 40  1  0  0  0  0
 14 41  1  0  0  0  0
 14 42  1  0  0  0  0
 15 13  1  0  0  0  0
 15 43  1  0  0  0  0
 15 44  1  0  0  0  0
 15 45  1  0  0  0  0
 16 11  1  0  0  0  0
 16 46  1  0  0  0  0
 17 18  1  0  0  0  0
 17 16  1  0  0  0  0
 17 47  1  0  0  0  0
 17 48  1  0  0  0  0
 18 20  1  0  0  0  0
 19 18  2  0  0  0  0
 20 21  1  0  0  0  0
 20 49  1  0  0  0  0
 21 24  1  0  0  0  0
 21 50  1  6  0  0  0
 22 23  2  0  0  0  0
 22 21  1  0  0  0  0
 24 25  1  0  0  0  0
 24 26  1  0  0  0  0
 24 51  1  0  0  0  0
 25 52  1  0  0  0  0
 25 53  1  0  0  0  0
 25 54  1  0  0  0  0
 26 55  1  0  0  0  0
 26 56  1  0  0  0  0
 26 57  1  0  0  0  0
 27 22  1  0  0  0  0
 27 58  1  0  0  0  0
 28 27  1  0  0  0  0
 28 59  1  0  0  0  0
 28 60  1  0  0  0  0
 28 61  1  0  0  0  0
M  END
>  <MODEL>
       0

$$$$
selected_4mers/AVGV/646_noH.pdb
 OpenBabel03042518233D

 61 60  0  0  1  0  0  0  0  0999 V2000
  -13.1230  -10.6730   17.3170 C   0  0  0  0  0  0  0  0  0  0  0  0
  -13.8940  -10.7960   15.9940 C   0  0  0  0  0  0  0  0  0  0  0  0
  -14.1930   -9.7870   15.3510 O   0  0  0  0  0  0  0  0  0  0  0  0
  -14.2890  -12.0230   15.6100 N   0  0  0  0  0  0  0  0  0  0  0  0
  -15.0760  -12.2570   14.4030 C   0  0  2  0  0  0  0  0  0  0  0  0
  -16.4680  -11.6410   14.4970 C   0  0  0  0  0  0  0  0  0  0  0  0
  -16.9640  -11.0720   13.5220 O   0  0  0  0  0  0  0  0  0  0  0  0
  -15.2340  -13.7400   14.1600 C   0  0  0  0  0  0  0  0  0  0  0  0
  -17.0940  -11.7310   15.6840 N   0  0  0  0  0  0  0  0  0  0  0  0
  -18.3630  -11.0520   15.9540 C   0  0  2  0  0  0  0  0  0  0  0  0
  -18.1740   -9.5400   15.7780 C   0  0  0  0  0  0  0  0  0  0  0  0
  -19.0060   -8.8800   15.1560 O   0  0  0  0  0  0  0  0  0  0  0  0
  -18.8390  -11.3790   17.4070 C   0  0  0  0  0  0  0  0  0  0  0  0
  -20.1150  -10.6170   17.7500 C   0  0  0  0  0  0  0  0  0  0  0  0
  -19.1450  -12.8620   17.5240 C   0  0  0  0  0  0  0  0  0  0  0  0
  -17.0370   -9.0090   16.2640 N   0  0  0  0  0  0  0  0  0  0  0  0
  -16.6770   -7.6030   16.1850 C   0  0  0  0  0  0  0  0  0  0  0  0
  -16.5310   -7.0960   14.7610 C   0  0  0  0  0  0  0  0  0  0  0  0
  -16.9970   -5.9980   14.4370 O   0  0  0  0  0  0  0  0  0  0  0  0
  -15.8800   -7.8920   13.8990 N   0  0  0  0  0  0  0  0  0  0  0  0
  -15.7230   -7.5440   12.4880 C   0  0  2  0  0  0  0  0  0  0  0  0
  -17.0990   -7.4280   11.8360 C   0  0  0  0  0  0  0  0  0  0  0  0
  -17.3160   -6.5100   11.0430 O   0  0  0  0  0  0  0  0  0  0  0  0
  -14.8650   -8.6200   11.7700 C   0  0  0  0  0  0  0  0  0  0  0  0
  -14.8110   -8.3690   10.2560 C   0  0  0  0  0  0  0  0  0  0  0  0
  -13.4380   -8.5590   12.3140 C   0  0  0  0  0  0  0  0  0  0  0  0
  -18.0540   -8.3080   12.1870 N   0  0  0  0  0  0  0  0  0  0  0  0
  -19.4050   -8.2000   11.6450 C   0  0  0  0  0  0  0  0  0  0  0  0
  -12.8760   -9.6467   17.4918 H   0  0  0  0  0  0  0  0  0  0  0  0
  -12.2246  -11.2516   17.2614 H   0  0  0  0  0  0  0  0  0  0  0  0
  -13.7313  -11.0351   18.1193 H   0  0  0  0  0  0  0  0  0  0  0  0
  -14.0369  -12.7954   16.1660 H   0  0  0  0  0  0  0  0  0  0  0  0
  -14.5461  -11.7946   13.5966 H   0  0  0  0  0  0  0  0  0  0  0  0
  -15.7656  -14.1807   14.9773 H   0  0  0  0  0  0  0  0  0  0  0  0
  -14.2681  -14.1928   14.0772 H   0  0  0  0  0  0  0  0  0  0  0  0
  -15.7802  -13.8967   13.2533 H   0  0  0  0  0  0  0  0  0  0  0  0
  -16.6844  -12.2727   16.3968 H   0  0  0  0  0  0  0  0  0  0  0  0
  -19.1096  -11.3929   15.2675 H   0  0  0  0  0  0  0  0  0  0  0  0
  -18.0554  -11.0930   18.0771 H   0  0  0  0  0  0  0  0  0  0  0  0
  -20.8951  -10.9065   17.0773 H   0  0  0  0  0  0  0  0  0  0  0  0
  -19.9379   -9.5657   17.6594 H   0  0  0  0  0  0  0  0  0  0  0  0
  -20.4072  -10.8443   18.7539 H   0  0  0  0  0  0  0  0  0  0  0  0
  -19.9303  -13.1189   16.8442 H   0  0  0  0  0  0  0  0  0  0  0  0
  -19.4521  -13.0850   18.5244 H   0  0  0  0  0  0  0  0  0  0  0  0
  -18.2681  -13.4270   17.2858 H   0  0  0  0  0  0  0  0  0  0  0  0
  -16.4020   -9.6180   16.7058 H   0  0  0  0  0  0  0  0  0  0  0  0
  -17.4381   -7.0303   16.6724 H   0  0  0  0  0  0  0  0  0  0  0  0
  -15.7233   -7.4945   16.6579 H   0  0  0  0  0  0  0  0  0  0  0  0
  -15.4960   -8.7370   14.2272 H   0  0  0  0  0  0  0  0  0  0  0  0
  -15.2214   -6.6026   12.4046 H   0  0  0  0  0  0  0  0  0  0  0  0
  -15.3091   -9.5769   11.9487 H   0  0  0  0  0  0  0  0  0  0  0  0
  -14.3679   -7.4133   10.0685 H   0  0  0  0  0  0  0  0  0  0  0  0
  -15.8032   -8.3867    9.8559 H   0  0  0  0  0  0  0  0  0  0  0  0
  -14.2243   -9.1321    9.7887 H   0  0  0  0  0  0  0  0  0  0  0  0
  -13.0233   -7.5919   12.1198 H   0  0  0  0  0  0  0  0  0  0  0  0
  -12.8410   -9.3060   11.8339 H   0  0  0  0  0  0  0  0  0  0  0  0
  -13.4506   -8.7364   13.3691 H   0  0  0  0  0  0  0  0  0  0  0  0
  -17.8392   -9.0335   12.8169 H   0  0  0  0  0  0  0  0  0  0  0  0
  -19.4577   -7.3610   10.9830 H   0  0  0  0  0  0  0  0  0  0  0  0
  -20.1012   -8.0663   12.4465 H   0  0  0  0  0  0  0  0  0  0  0  0
  -19.6464   -9.0936   11.1082 H   0  0  0  0  0  0  0  0  0  0  0  0
  1 29  1  0  0  0  0
  1 30  1  0  0  0  0
  1 31  1  0  0  0  0
  2  1  1  0  0  0  0
  3  2  2  0  0  0  0
  4  2  1  0  0  0  0
  4 32  1  0  0  0  0
  5  6  1  0  0  0  0
  5  4  1  0  0  0  0
  5 33  1  6  0  0  0
  6  9  1  0  0  0  0
  7  6  2  0  0  0  0
  8  5  1  0  0  0  0
  8 34  1  0  0  0  0
  8 35  1  0  0  0  0
  8 36  1  0  0  0  0
  9 10  1  0  0  0  0
  9 37  1  0  0  0  0
 10 13  1  0  0  0  0
 10 38  1  6  0  0  0
 11 10  1  0  0  0  0
 11 16  1  0  0  0  0
 12 11  2  0  0  0  0
 13 15  1  0  0  0  0
 13 14  1  0  0  0  0
 13 39  1  0  0  0  0
 14 40  1  0  0  0  0
 14 41  1  0  0  0  0
 14 42  1  0  0  0  0
 15 43  1  0  0  0  0
 15 44  1  0  0  0  0
 15 45  1  0  0  0  0
 16 46  1  0  0  0  0
 17 16  1  0  0  0  0
 17 47  1  0  0  0  0
 17 48  1  0  0  0  0
 18 17  1  0  0  0  0
 19 18  2  0  0  0  0
 20 18  1  0  0  0  0
 20 49  1  0  0  0  0
 21 20  1  0  0  0  0
 21 50  1  6  0  0  0
 22 27  1  0  0  0  0
 22 21  1  0  0  0  0
 23 22  2  0  0  0  0
 24 26  1  0  0  0  0
 24 21  1  0  0  0  0
 24 51  1  0  0  0  0
 25 24  1  0  0  0  0
 25 52  1  0  0  0  0
 25 53  1  0  0  0  0
 25 54  1  0  0  0  0
 26 55  1  0  0  0  0
 26 56  1  0  0  0  0
 26 57  1  0  0  0  0
 27 58  1  0  0  0  0
 28 27  1  0  0  0  0
 28 59  1  0  0  0  0
 28 60  1  0  0  0  0
 28 61  1  0  0  0  0
M  END
>  <MODEL>
       0

$$$$
selected_4mers/AVGV/647_noH.pdb
 OpenBabel03042518233D

 61 60  0  0  1  0  0  0  0  0999 V2000
    2.7480   22.1360   -4.9430 C   0  0  0  0  0  0  0  0  0  0  0  0
    3.7850   21.6150   -5.9460 C   0  0  0  0  0  0  0  0  0  0  0  0
    3.6110   21.7310   -7.1680 O   0  0  0  0  0  0  0  0  0  0  0  0
    4.8650   21.0420   -5.4260 N   0  0  0  0  0  0  0  0  0  0  0  0
    5.8520   20.3840   -6.2760 C   0  0  2  0  0  0  0  0  0  0  0  0
    6.2680   19.1120   -5.5550 C   0  0  0  0  0  0  0  0  0  0  0  0
    6.8400   19.1620   -4.4690 O   0  0  0  0  0  0  0  0  0  0  0  0
    7.0450   21.3020   -6.5240 C   0  0  0  0  0  0  0  0  0  0  0  0
    5.9460   17.9740   -6.1580 N   0  0  0  0  0  0  0  0  0  0  0  0
    6.1380   16.6930   -5.4890 C   0  0  2  0  0  0  0  0  0  0  0  0
    7.5850   16.5190   -5.0450 C   0  0  0  0  0  0  0  0  0  0  0  0
    8.5210   16.7990   -5.7940 O   0  0  0  0  0  0  0  0  0  0  0  0
    5.6290   15.4960   -6.3500 C   0  0  0  0  0  0  0  0  0  0  0  0
    5.9500   14.1690   -5.6780 C   0  0  0  0  0  0  0  0  0  0  0  0
    4.1140   15.5840   -6.5470 C   0  0  0  0  0  0  0  0  0  0  0  0
    7.7570   16.1120   -3.7890 N   0  0  0  0  0  0  0  0  0  0  0  0
    9.0890   15.9670   -3.2210 C   0  0  0  0  0  0  0  0  0  0  0  0
    9.8010   17.2420   -2.7900 C   0  0  0  0  0  0  0  0  0  0  0  0
   10.9340   17.1850   -2.3200 O   0  0  0  0  0  0  0  0  0  0  0  0
    9.1640   18.4070   -2.9530 N   0  0  0  0  0  0  0  0  0  0  0  0
    9.8220   19.6830   -2.6480 C   0  0  2  0  0  0  0  0  0  0  0  0
    8.9290   20.5410   -1.7370 C   0  0  0  0  0  0  0  0  0  0  0  0
    9.3630   21.0750   -0.7010 O   0  0  0  0  0  0  0  0  0  0  0  0
   10.1720   20.4860   -3.9300 C   0  0  0  0  0  0  0  0  0  0  0  0
   10.7410   21.8690   -3.5600 C   0  0  0  0  0  0  0  0  0  0  0  0
   11.1480   19.6960   -4.7990 C   0  0  0  0  0  0  0  0  0  0  0  0
    7.6770   20.6850   -2.1420 N   0  0  0  0  0  0  0  0  0  0  0  0
    6.7350   21.4650   -1.3490 C   0  0  0  0  0  0  0  0  0  0  0  0
    1.9279   22.5737   -5.4728 H   0  0  0  0  0  0  0  0  0  0  0  0
    3.2001   22.8735   -4.3132 H   0  0  0  0  0  0  0  0  0  0  0  0
    2.3926   21.3242   -4.3433 H   0  0  0  0  0  0  0  0  0  0  0  0
    5.0017   21.0616   -4.4512 H   0  0  0  0  0  0  0  0  0  0  0  0
    5.4441   20.1519   -7.2376 H   0  0  0  0  0  0  0  0  0  0  0  0
    7.4924   21.5660   -5.5886 H   0  0  0  0  0  0  0  0  0  0  0  0
    6.7150   22.1884   -7.0243 H   0  0  0  0  0  0  0  0  0  0  0  0
    7.7643   20.7955   -7.1331 H   0  0  0  0  0  0  0  0  0  0  0  0
    5.5727   17.9954   -7.0687 H   0  0  0  0  0  0  0  0  0  0  0  0
    5.5342   16.6966   -4.6056 H   0  0  0  0  0  0  0  0  0  0  0  0
    6.1247   15.5477   -7.2969 H   0  0  0  0  0  0  0  0  0  0  0  0
    5.4535   14.1192   -4.7315 H   0  0  0  0  0  0  0  0  0  0  0  0
    7.0069   14.0901   -5.5310 H   0  0  0  0  0  0  0  0  0  0  0  0
    5.6153   13.3645   -6.2991 H   0  0  0  0  0  0  0  0  0  0  0  0
    3.6270   15.5316   -5.5957 H   0  0  0  0  0  0  0  0  0  0  0  0
    3.7863   14.7711   -7.1607 H   0  0  0  0  0  0  0  0  0  0  0  0
    3.8694   16.5109   -7.0223 H   0  0  0  0  0  0  0  0  0  0  0  0
    6.9697   15.9056   -3.2351 H   0  0  0  0  0  0  0  0  0  0  0  0
    9.7022   15.4877   -3.9552 H   0  0  0  0  0  0  0  0  0  0  0  0
    8.9463   15.4106   -2.3183 H   0  0  0  0  0  0  0  0  0  0  0  0
    8.2367   18.4085   -3.2837 H   0  0  0  0  0  0  0  0  0  0  0  0
   10.7373   19.4485   -2.1459 H   0  0  0  0  0  0  0  0  0  0  0  0
    9.2781   20.6421   -4.4970 H   0  0  0  0  0  0  0  0  0  0  0  0
   11.6383   21.7448   -2.9906 H   0  0  0  0  0  0  0  0  0  0  0  0
   10.0214   22.4069   -2.9789 H   0  0  0  0  0  0  0  0  0  0  0  0
   10.9585   22.4159   -4.4536 H   0  0  0  0  0  0  0  0  0  0  0  0
   12.0531   19.5256   -4.2543 H   0  0  0  0  0  0  0  0  0  0  0  0
   11.3654   20.2520   -5.6870 H   0  0  0  0  0  0  0  0  0  0  0  0
   10.7094   18.7569   -5.0646 H   0  0  0  0  0  0  0  0  0  0  0  0
    7.3812   20.2640   -2.9813 H   0  0  0  0  0  0  0  0  0  0  0  0
    7.2290   21.8431   -0.4784 H   0  0  0  0  0  0  0  0  0  0  0  0
    5.9169   20.8422   -1.0527 H   0  0  0  0  0  0  0  0  0  0  0  0
    6.3676   22.2823   -1.9338 H   0  0  0  0  0  0  0  0  0  0  0  0
  1 29  1  0  0  0  0
  1 30  1  0  0  0  0
  1 31  1  0  0  0  0
  2  4  1  0  0  0  0
  2  1  1  0  0  0  0
  3  2  2  0  0  0  0
  4 32  1  0  0  0  0
  5  6  1  0  0  0  0
  5  4  1  0  0  0  0
  5 33  1  6  0  0  0
  6  7  2  0  0  0  0
  8  5  1  0  0  0  0
  8 34  1  0  0  0  0
  8 35  1  0  0  0  0
  8 36  1  0  0  0  0
  9  6  1  0  0  0  0
  9 10  1  0  0  0  0
  9 37  1  0  0  0  0
 10 11  1  0  0  0  0
 10 38  1  1  0  0  0
 11 16  1  0  0  0  0
 12 11  2  0  0  0  0
 13 14  1  0  0  0  0
 13 10  1  0  0  0  0
 13 39  1  0  0  0  0
 14 40  1  0  0  0  0
 14 41  1  0  0  0  0
 14 42  1  0  0  0  0
 15 13  1  0  0  0  0
 15 43  1  0  0  0  0
 15 44  1  0  0  0  0
 15 45  1  0  0  0  0
 16 17  1  0  0  0  0
 16 46  1  0  0  0  0
 17 18  1  0  0  0  0
 17 47  1  0  0  0  0
 17 48  1  0  0  0  0
 18 19  2  0  0  0  0
 20 18  1  0  0  0  0
 20 21  1  0  0  0  0
 20 49  1  0  0  0  0
 21 22  1  0  0  0  0
 21 50  1  1  0  0  0
 22 23  2  0  0  0  0
 24 25  1  0  0  0  0
 24 21  1  0  0  0  0
 24 51  1  0  0  0  0
 25 52  1  0  0  0  0
 25 53  1  0  0  0  0
 25 54  1  0  0  0  0
 26 24  1  0  0  0  0
 26 55  1  0  0  0  0
 26 56  1  0  0  0  0
 26 57  1  0  0  0  0
 27 22  1  0  0  0  0
 27 28  1  0  0  0  0
 27 58  1  0  0  0  0
 28 59  1  0  0  0  0
 28 60  1  0  0  0  0
 28 61  1  0  0  0  0
M  END
>  <MODEL>
       0

$$$$
selected_4mers/AVGV/648_noH.pdb
 OpenBabel03042518233D

 61 60  0  0  1  0  0  0  0  0999 V2000
  -25.0710   36.1410    2.9190 C   0  0  0  0  0  0  0  0  0  0  0  0
  -24.5380   35.9040    4.3220 C   0  0  0  0  0  0  0  0  0  0  0  0
  -23.8840   34.8860    4.5570 O   0  0  0  0  0  0  0  0  0  0  0  0
  -24.8130   36.8570    5.2150 N   0  0  0  0  0  0  0  0  0  0  0  0
  -24.2700   36.8740    6.5500 C   0  0  2  0  0  0  0  0  0  0  0  0
  -25.2440   36.4380    7.6240 C   0  0  0  0  0  0  0  0  0  0  0  0
  -24.9760   36.6130    8.8020 O   0  0  0  0  0  0  0  0  0  0  0  0
  -23.7480   38.2710    6.8920 C   0  0  0  0  0  0  0  0  0  0  0  0
  -26.4020   35.8950    7.2650 N   0  0  0  0  0  0  0  0  0  0  0  0
  -27.3900   35.4560    8.2080 C   0  0  2  0  0  0  0  0  0  0  0  0
  -26.8760   34.1980    8.9090 C   0  0  0  0  0  0  0  0  0  0  0  0
  -26.2990   33.2860    8.3140 O   0  0  0  0  0  0  0  0  0  0  0  0
  -28.7400   35.2230    7.4860 C   0  0  0  0  0  0  0  0  0  0  0  0
  -29.7830   34.6980    8.4460 C   0  0  0  0  0  0  0  0  0  0  0  0
  -29.1300   36.5120    6.7800 C   0  0  0  0  0  0  0  0  0  0  0  0
  -27.1100   34.1250   10.1930 N   0  0  0  0  0  0  0  0  0  0  0  0
  -26.7220   32.9810   11.0040 C   0  0  0  0  0  0  0  0  0  0  0  0
  -25.3650   33.0740   11.6180 C   0  0  0  0  0  0  0  0  0  0  0  0
  -24.7390   34.1520   11.5900 O   0  0  0  0  0  0  0  0  0  0  0  0
  -24.8740   32.0070   12.1890 N   0  0  0  0  0  0  0  0  0  0  0  0
  -23.6880   31.9950   13.0040 C   0  0  2  0  0  0  0  0  0  0  0  0
  -22.7750   30.8310   12.6130 C   0  0  0  0  0  0  0  0  0  0  0  0
  -23.1070   29.8760   11.9420 O   0  0  0  0  0  0  0  0  0  0  0  0
  -24.0200   31.8830   14.4930 C   0  0  0  0  0  0  0  0  0  0  0  0
  -24.8430   33.0880   14.9250 C   0  0  0  0  0  0  0  0  0  0  0  0
  -24.7160   30.5940   14.8690 C   0  0  0  0  0  0  0  0  0  0  0  0
  -21.5300   30.9010   13.0860 N   0  0  0  0  0  0  0  0  0  0  0  0
  -20.5290   29.8700   12.8930 C   0  0  0  0  0  0  0  0  0  0  0  0
  -24.7948   35.3212    2.2893 H   0  0  0  0  0  0  0  0  0  0  0  0
  -24.6561   37.0465    2.5281 H   0  0  0  0  0  0  0  0  0  0  0  0
  -26.1374   36.2222    2.9516 H   0  0  0  0  0  0  0  0  0  0  0  0
  -25.4182   37.5862    4.9480 H   0  0  0  0  0  0  0  0  0  0  0  0
  -23.4760   36.1568    6.5422 H   0  0  0  0  0  0  0  0  0  0  0  0
  -24.5619   38.9656    6.8924 H   0  0  0  0  0  0  0  0  0  0  0  0
  -23.0244   38.5698    6.1626 H   0  0  0  0  0  0  0  0  0  0  0  0
  -23.2927   38.2545    7.8601 H   0  0  0  0  0  0  0  0  0  0  0  0
  -26.5915   35.7886    6.3048 H   0  0  0  0  0  0  0  0  0  0  0  0
  -27.5616   36.2040    8.9537 H   0  0  0  0  0  0  0  0  0  0  0  0
  -28.6525   34.4608    6.7401 H   0  0  0  0  0  0  0  0  0  0  0  0
  -29.9332   35.4077    9.2325 H   0  0  0  0  0  0  0  0  0  0  0  0
  -29.4501   33.7700    8.8618 H   0  0  0  0  0  0  0  0  0  0  0  0
  -30.7039   34.5447    7.9232 H   0  0  0  0  0  0  0  0  0  0  0  0
  -29.2262   37.2978    7.4998 H   0  0  0  0  0  0  0  0  0  0  0  0
  -30.0635   36.3740    6.2756 H   0  0  0  0  0  0  0  0  0  0  0  0
  -28.3747   36.7712    6.0678 H   0  0  0  0  0  0  0  0  0  0  0  0
  -27.5693   34.8777   10.6308 H   0  0  0  0  0  0  0  0  0  0  0  0
  -26.7461   32.1102   10.3826 H   0  0  0  0  0  0  0  0  0  0  0  0
  -27.4161   32.9421   11.8174 H   0  0  0  0  0  0  0  0  0  0  0  0
  -25.3466   31.1542   12.0528 H   0  0  0  0  0  0  0  0  0  0  0  0
  -23.1873   32.9251   12.8333 H   0  0  0  0  0  0  0  0  0  0  0  0
  -23.0875   31.8679   15.0175 H   0  0  0  0  0  0  0  0  0  0  0  0
  -25.7725   33.0936   14.3950 H   0  0  0  0  0  0  0  0  0  0  0  0
  -24.3028   33.9855   14.7071 H   0  0  0  0  0  0  0  0  0  0  0  0
  -25.0323   33.0321   15.9766 H   0  0  0  0  0  0  0  0  0  0  0  0
  -25.6638   30.5432   14.3750 H   0  0  0  0  0  0  0  0  0  0  0  0
  -24.8639   30.5644   15.9283 H   0  0  0  0  0  0  0  0  0  0  0  0
  -24.1128   29.7625   14.5697 H   0  0  0  0  0  0  0  0  0  0  0  0
  -21.2749   31.7023   13.5979 H   0  0  0  0  0  0  0  0  0  0  0  0
  -20.9487   29.0676   12.3229 H   0  0  0  0  0  0  0  0  0  0  0  0
  -20.2084   29.5015   13.8450 H   0  0  0  0  0  0  0  0  0  0  0  0
  -19.6912   30.2800   12.3686 H   0  0  0  0  0  0  0  0  0  0  0  0
  1  2  1  0  0  0  0
  1 29  1  0  0  0  0
  1 30  1  0  0  0  0
  1 31  1  0  0  0  0
  2  3  2  0  0  0  0
  2  4  1  0  0  0  0
  4  5  1  0  0  0  0
  4 32  1  0  0  0  0
  5  8  1  0  0  0  0
  5  6  1  0  0  0  0
  5 33  1  1  0  0  0
  6  7  2  0  0  0  0
  8 34  1  0  0  0  0
  8 35  1  0  0  0  0
  8 36  1  0  0  0  0
  9  6  1  0  0  0  0
  9 10  1  0  0  0  0
  9 37  1  0  0  0  0
 10 11  1  0  0  0  0
 10 38  1  1  0  0  0
 11 16  1  0  0  0  0
 12 11  2  0  0  0  0
 13 10  1  0  0  0  0
 13 14  1  0  0  0  0
 13 39  1  0  0  0  0
 14 40  1  0  0  0  0
 14 41  1  0  0  0  0
 14 42  1  0  0  0  0
 15 13  1  0  0  0  0
 15 43  1  0  0  0  0
 15 44  1  0  0  0  0
 15 45  1  0  0  0  0
 16 17  1  0  0  0  0
 16 46  1  0  0  0  0
 17 18  1  0  0  0  0
 17 47  1  0  0  0  0
 17 48  1  0  0  0  0
 18 20  1  0  0  0  0
 19 18  2  0  0  0  0
 20 21  1  0  0  0  0
 20 49  1  0  0  0  0
 21 24  1  0  0  0  0
 21 50  1  6  0  0  0
 22 21  1  0  0  0  0
 22 27  1  0  0  0  0
 23 22  2  0  0  0  0
 24 26  1  0  0  0  0
 24 25  1  0  0  0  0
 24 51  1  0  0  0  0
 25 52  1  0  0  0  0
 25 53  1  0  0  0  0
 25 54  1  0  0  0  0
 26 55  1  0  0  0  0
 26 56  1  0  0  0  0
 26 57  1  0  0  0  0
 27 58  1  0  0  0  0
 28 27  1  0  0  0  0
 28 59  1  0  0  0  0
 28 60  1  0  0  0  0
 28 61  1  0  0  0  0
M  END
>  <MODEL>
       0

$$$$
selected_4mers/AVGV/649_noH.pdb
 OpenBabel03042518233D

 61 60  0  0  1  0  0  0  0  0999 V2000
   33.6020   20.5860   19.4580 C   0  0  0  0  0  0  0  0  0  0  0  0
   32.2540   20.9200   20.0850 C   0  0  0  0  0  0  0  0  0  0  0  0
   32.0680   20.9680   21.3090 O   0  0  0  0  0  0  0  0  0  0  0  0
   31.2740   21.1640   19.2200 N   0  0  0  0  0  0  0  0  0  0  0  0
   29.9290   21.4900   19.6710 C   0  0  2  0  0  0  0  0  0  0  0  0
   28.8750   20.7850   18.8260 C   0  0  0  0  0  0  0  0  0  0  0  0
   29.1410   20.3590   17.7010 O   0  0  0  0  0  0  0  0  0  0  0  0
   29.7090   22.9990   19.5560 C   0  0  0  0  0  0  0  0  0  0  0  0
   27.6920   20.6470   19.3950 N   0  0  0  0  0  0  0  0  0  0  0  0
   26.5130   20.0580   18.7600 C   0  0  2  0  0  0  0  0  0  0  0  0
   25.4830   21.2120   18.8450 C   0  0  0  0  0  0  0  0  0  0  0  0
   25.2970   21.8000   19.9040 O   0  0  0  0  0  0  0  0  0  0  0  0
   25.9540   18.7510   19.3200 C   0  0  0  0  0  0  0  0  0  0  0  0
   24.6610   18.3370   18.6080 C   0  0  0  0  0  0  0  0  0  0  0  0
   26.9080   17.5750   19.1410 C   0  0  0  0  0  0  0  0  0  0  0  0
   24.8720   21.5700   17.7290 N   0  0  0  0  0  0  0  0  0  0  0  0
   23.8810   22.6420   17.6790 C   0  0  0  0  0  0  0  0  0  0  0  0
   22.5070   21.9920   17.5370 C   0  0  0  0  0  0  0  0  0  0  0  0
   22.3570   21.0680   16.7500 O   0  0  0  0  0  0  0  0  0  0  0  0
   21.5300   22.4590   18.2810 N   0  0  0  0  0  0  0  0  0  0  0  0
   20.1860   21.9020   18.2220 C   0  0  2  0  0  0  0  0  0  0  0  0
   19.1600   23.0200   18.0330 C   0  0  0  0  0  0  0  0  0  0  0  0
   19.1780   23.9850   18.7900 O   0  0  0  0  0  0  0  0  0  0  0  0
   19.8410   21.1480   19.5240 C   0  0  0  0  0  0  0  0  0  0  0  0
   18.4420   20.5240   19.4760 C   0  0  0  0  0  0  0  0  0  0  0  0
   20.8420   20.0260   19.7870 C   0  0  0  0  0  0  0  0  0  0  0  0
   18.2650   22.8470   17.0580 N   0  0  0  0  0  0  0  0  0  0  0  0
   17.2420   23.8860   16.8730 C   0  0  0  0  0  0  0  0  0  0  0  0
   33.5142   20.6059   18.3918 H   0  0  0  0  0  0  0  0  0  0  0  0
   33.9097   19.6106   19.7724 H   0  0  0  0  0  0  0  0  0  0  0  0
   34.3287   21.3069   19.7695 H   0  0  0  0  0  0  0  0  0  0  0  0
   31.4620   21.1233   18.2545 H   0  0  0  0  0  0  0  0  0  0  0  0
   29.8334   21.1657   20.6862 H   0  0  0  0  0  0  0  0  0  0  0  0
   29.8098   23.2972   18.5333 H   0  0  0  0  0  0  0  0  0  0  0  0
   30.4361   23.5118   20.1504 H   0  0  0  0  0  0  0  0  0  0  0  0
   28.7272   23.2438   19.9038 H   0  0  0  0  0  0  0  0  0  0  0  0
   27.5953   20.9661   20.3213 H   0  0  0  0  0  0  0  0  0  0  0  0
   26.7713   19.7225   17.7773 H   0  0  0  0  0  0  0  0  0  0  0  0
   25.7919   18.9544   20.3579 H   0  0  0  0  0  0  0  0  0  0  0  0
   24.8682   18.1438   17.5762 H   0  0  0  0  0  0  0  0  0  0  0  0
   23.9426   19.1261   18.6859 H   0  0  0  0  0  0  0  0  0  0  0  0
   24.2698   17.4521   19.0650 H   0  0  0  0  0  0  0  0  0  0  0  0
   27.0548   17.3905   18.0973 H   0  0  0  0  0  0  0  0  0  0  0  0
   26.4910   16.7041   19.6020 H   0  0  0  0  0  0  0  0  0  0  0  0
   27.8477   17.8052   19.5981 H   0  0  0  0  0  0  0  0  0  0  0  0
   25.0942   21.0941   16.8963 H   0  0  0  0  0  0  0  0  0  0  0  0
   23.9209   23.2184   18.5796 H   0  0  0  0  0  0  0  0  0  0  0  0
   24.0751   23.2959   16.8546 H   0  0  0  0  0  0  0  0  0  0  0  0
   21.7117   23.2064   18.8955 H   0  0  0  0  0  0  0  0  0  0  0  0
   20.1549   21.2227   17.3958 H   0  0  0  0  0  0  0  0  0  0  0  0
   19.8784   21.8765   20.3068 H   0  0  0  0  0  0  0  0  0  0  0  0
   18.4032   19.7952   18.6935 H   0  0  0  0  0  0  0  0  0  0  0  0
   17.7169   21.2881   19.2881 H   0  0  0  0  0  0  0  0  0  0  0  0
   18.2292   20.0530   20.4129 H   0  0  0  0  0  0  0  0  0  0  0  0
   20.7899   19.3086   18.9948 H   0  0  0  0  0  0  0  0  0  0  0  0
   20.6076   19.5494   20.7159 H   0  0  0  0  0  0  0  0  0  0  0  0
   21.8302   20.4336   19.8347 H   0  0  0  0  0  0  0  0  0  0  0  0
   18.2893   22.0493   16.4815 H   0  0  0  0  0  0  0  0  0  0  0  0
   17.3879   24.6626   17.5944 H   0  0  0  0  0  0  0  0  0  0  0  0
   16.2704   23.4569   17.0024 H   0  0  0  0  0  0  0  0  0  0  0  0
   17.3230   24.2948   15.8875 H   0  0  0  0  0  0  0  0  0  0  0  0
  1  2  1  0  0  0  0
  1 29  1  0  0  0  0
  1 30  1  0  0  0  0
  1 31  1  0  0  0  0
  2  3  2  0  0  0  0
  4  5  1  0  0  0  0
  4  2  1  0  0  0  0
  4 32  1  0  0  0  0
  5 33  1  1  0  0  0
  6  9  1  0  0  0  0
  6  5  1  0  0  0  0
  7  6  2  0  0  0  0
  8  5  1  0  0  0  0
  8 34  1  0  0  0  0
  8 35  1  0  0  0  0
  8 36  1  0  0  0  0
  9 37  1  0  0  0  0
 10 11  1  0  0  0  0
 10 13  1  0  0  0  0
 10  9  1  0  0  0  0
 10 38  1  6  0  0  0
 11 12  2  0  0  0  0
 13 39  1  0  0  0  0
 14 13  1  0  0  0  0
 14 40  1  0  0  0  0
 14 41  1  0  0  0  0
 14 42  1  0  0  0  0
 15 13  1  0  0  0  0
 15 43  1  0  0  0  0
 15 44  1  0  0  0  0
 15 45  1  0  0  0  0
 16 11  1  0  0  0  0
 16 46  1  0  0  0  0
 17 16  1  0  0  0  0
 17 47  1  0  0  0  0
 17 48  1  0  0  0  0
 18 17  1  0  0  0  0
 18 20  1  0  0  0  0
 19 18  2  0  0  0  0
 20 49  1  0  0  0  0
 21 20  1  0  0  0  0
 21 24  1  0  0  0  0
 21 50  1  6  0  0  0
 22 21  1  0  0  0  0
 22 23  2  0  0  0  0
 24 26  1  0  0  0  0
 24 51  1  0  0  0  0
 25 24  1  0  0  0  0
 25 52  1  0  0  0  0
 25 53  1  0  0  0  0
 25 54  1  0  0  0  0
 26 55  1  0  0  0  0
 26 56  1  0  0  0  0
 26 57  1  0  0  0  0
 27 22  1  0  0  0  0
 27 58  1  0  0  0  0
 28 27  1  0  0  0  0
 28 59  1  0  0  0  0
 28 60  1  0  0  0  0
 28 61  1  0  0  0  0
M  END
>  <MODEL>
       0

$$$$
