selected_4mers/AVLA/560_noH.pdb
 OpenBabel03042518233D

 67 66  0  0  1  0  0  0  0  0999 V2000
   59.9980    9.7260   10.7230 C   0  0  0  0  0  0  0  0  0  0  0  0
   60.5460    8.4570   10.0840 C   0  0  0  0  0  0  0  0  0  0  0  0
   60.7910    8.4200    8.8760 O   0  0  0  0  0  0  0  0  0  0  0  0
   60.7490    7.4170   10.8910 N   0  0  0  0  0  0  0  0  0  0  0  0
   61.2870    6.1620   10.3790 C   0  0  2  0  0  0  0  0  0  0  0  0
   60.3090    5.4900    9.4210 C   0  0  0  0  0  0  0  0  0  0  0  0
   60.7190    4.9520    8.3950 O   0  0  0  0  0  0  0  0  0  0  0  0
   61.6180    5.2190   11.5300 C   0  0  0  0  0  0  0  0  0  0  0  0
   59.0220    5.5220    9.7580 N   0  0  0  0  0  0  0  0  0  0  0  0
   58.0060    4.9130    8.9090 C   0  0  2  0  0  0  0  0  0  0  0  0
   57.9560    5.6670    7.5850 C   0  0  0  0  0  0  0  0  0  0  0  0
   57.8870    5.0580    6.5180 O   0  0  0  0  0  0  0  0  0  0  0  0
   56.6130    4.9600    9.5710 C   0  0  0  0  0  0  0  0  0  0  0  0
   55.5670    4.3700    8.6320 C   0  0  0  0  0  0  0  0  0  0  0  0
   56.6310    4.1900   10.8800 C   0  0  0  0  0  0  0  0  0  0  0  0
   57.9920    6.9930    7.6650 N   0  0  0  0  0  0  0  0  0  0  0  0
   57.9600    7.8280    6.4690 C   0  0  2  0  0  0  0  0  0  0  0  0
   59.2040    7.6010    5.6160 C   0  0  0  0  0  0  0  0  0  0  0  0
   59.1310    7.5760    4.3880 O   0  0  0  0  0  0  0  0  0  0  0  0
   57.8660    9.3070    6.8510 C   0  0  0  0  0  0  0  0  0  0  0  0
   56.5440    9.7580    7.4800 C   0  0  0  0  0  0  0  0  0  0  0  0
   56.6490   11.2110    7.9150 C   0  0  0  0  0  0  0  0  0  0  0  0
   55.4130    9.5750    6.4740 C   0  0  0  0  0  0  0  0  0  0  0  0
   60.3520    7.4480    6.2700 N   0  0  0  0  0  0  0  0  0  0  0  0
   61.5930    7.2150    5.5490 C   0  0  2  0  0  0  0  0  0  0  0  0
   61.4580    5.8980    4.7950 C   0  0  0  0  0  0  0  0  0  0  0  0
   61.8870    5.7790    3.6500 O   0  0  0  0  0  0  0  0  0  0  0  0
   62.7720    7.1560    6.5220 C   0  0  0  0  0  0  0  0  0  0  0  0
   60.8450    4.9120    5.4420 N   0  0  0  0  0  0  0  0  0  0  0  0
   60.6470    3.6140    4.8200 C   0  0  0  0  0  0  0  0  0  0  0  0
   59.8809   10.4808    9.9737 H   0  0  0  0  0  0  0  0  0  0  0  0
   60.6791   10.0705   11.4729 H   0  0  0  0  0  0  0  0  0  0  0  0
   59.0489    9.5184   11.1714 H   0  0  0  0  0  0  0  0  0  0  0  0
   60.5325    7.4968   11.8481 H   0  0  0  0  0  0  0  0  0  0  0  0
   62.1830    6.3865    9.8389 H   0  0  0  0  0  0  0  0  0  0  0  0
   60.7245    4.9917   12.0731 H   0  0  0  0  0  0  0  0  0  0  0  0
   62.3232    5.6881   12.1838 H   0  0  0  0  0  0  0  0  0  0  0  0
   62.0386    4.3153   11.1410 H   0  0  0  0  0  0  0  0  0  0  0  0
   58.7517    5.9645   10.5949 H   0  0  0  0  0  0  0  0  0  0  0  0
   58.2655    3.8867    8.7533 H   0  0  0  0  0  0  0  0  0  0  0  0
   56.3609    5.9801    9.7731 H   0  0  0  0  0  0  0  0  0  0  0  0
   55.8102    3.3491    8.4235 H   0  0  0  0  0  0  0  0  0  0  0  0
   55.5530    4.9270    7.7185 H   0  0  0  0  0  0  0  0  0  0  0  0
   54.6036    4.4198    9.0949 H   0  0  0  0  0  0  0  0  0  0  0  0
   56.8823    3.1676   10.6890 H   0  0  0  0  0  0  0  0  0  0  0  0
   55.6647    4.2404   11.3368 H   0  0  0  0  0  0  0  0  0  0  0  0
   57.3587    4.6195   11.5365 H   0  0  0  0  0  0  0  0  0  0  0  0
   58.0413    7.4210    8.5502 H   0  0  0  0  0  0  0  0  0  0  0  0
   57.0955    7.5548    5.9007 H   0  0  0  0  0  0  0  0  0  0  0  0
   58.0193    9.8843    5.9632 H   0  0  0  0  0  0  0  0  0  0  0  0
   58.6093    9.4566    7.6060 H   0  0  0  0  0  0  0  0  0  0  0  0
   56.3345    9.1620    8.3436 H   0  0  0  0  0  0  0  0  0  0  0  0
   56.8586   11.8240    7.0634 H   0  0  0  0  0  0  0  0  0  0  0  0
   57.4379   11.3129    8.6307 H   0  0  0  0  0  0  0  0  0  0  0  0
   55.7244   11.5187    8.3570 H   0  0  0  0  0  0  0  0  0  0  0  0
   55.6101   10.1664    5.6043 H   0  0  0  0  0  0  0  0  0  0  0  0
   54.4893    9.8864    6.9153 H   0  0  0  0  0  0  0  0  0  0  0  0
   55.3459    8.5438    6.1964 H   0  0  0  0  0  0  0  0  0  0  0  0
   60.3616    7.4930    7.2534 H   0  0  0  0  0  0  0  0  0  0  0  0
   61.7776    8.0150    4.8629 H   0  0  0  0  0  0  0  0  0  0  0  0
   62.6163    6.3630    7.2233 H   0  0  0  0  0  0  0  0  0  0  0  0
   62.8488    8.0857    7.0461 H   0  0  0  0  0  0  0  0  0  0  0  0
   63.6755    6.9781    5.9771 H   0  0  0  0  0  0  0  0  0  0  0  0
   60.5195    5.0638    6.3586 H   0  0  0  0  0  0  0  0  0  0  0  0
   61.0589    3.6251    3.8325 H   0  0  0  0  0  0  0  0  0  0  0  0
   59.6000    3.3997    4.7673 H   0  0  0  0  0  0  0  0  0  0  0  0
   61.1362    2.8612    5.4021 H   0  0  0  0  0  0  0  0  0  0  0  0
  1 31  1  0  0  0  0
  1 32  1  0  0  0  0
  1 33  1  0  0  0  0
  2  1  1  0  0  0  0
  2  4  1  0  0  0  0
  3  2  2  0  0  0  0
  4 34  1  0  0  0  0
  5  4  1  0  0  0  0
  5  8  1  0  0  0  0
  5 35  1  6  0  0  0
  6  9  1  0  0  0  0
  6  5  1  0  0  0  0
  7  6  2  0  0  0  0
  8 36  1  0  0  0  0
  8 37  1  0  0  0  0
  8 38  1  0  0  0  0
  9 39  1  0  0  0  0
 10 13  1  0  0  0  0
 10  9  1  0  0  0  0
 10 40  1  6  0  0  0
 11 16  1  0  0  0  0
 11 10  1  0  0  0  0
 12 11  2  0  0  0  0
 13 15  1  0  0  0  0
 13 41  1  0  0  0  0
 14 13  1  0  0  0  0
 14 42  1  0  0  0  0
 14 43  1  0  0  0  0
 14 44  1  0  0  0  0
 15 45  1  0  0  0  0
 15 46  1  0  0  0  0
 15 47  1  0  0  0  0
 16 48  1  0  0  0  0
 17 20  1  0  0  0  0
 17 16  1  0  0  0  0
 17 49  1  6  0  0  0
 18 24  1  0  0  0  0
 18 17  1  0  0  0  0
 19 18  2  0  0  0  0
 20 21  1  0  0  0  0
 20 50  1  0  0  0  0
 20 51  1  0  0  0  0
 21 22  1  0  0  0  0
 21 52  1  0  0  0  0
 22 53  1  0  0  0  0
 22 54  1  0  0  0  0
 22 55  1  0  0  0  0
 23 21  1  0  0  0  0
 23 56  1  0  0  0  0
 23 57  1  0  0  0  0
 23 58  1  0  0  0  0
 24 59  1  0  0  0  0
 25 24  1  0  0  0  0
 25 28  1  0  0  0  0
 25 60  1  6  0  0  0
 26 29  1  0  0  0  0
 26 25  1  0  0  0  0
 27 26  2  0  0  0  0
 28 61  1  0  0  0  0
 28 62  1  0  0  0  0
 28 63  1  0  0  0  0
 29 64  1  0  0  0  0
 30 29  1  0  0  0  0
 30 65  1  0  0  0  0
 30 66  1  0  0  0  0
 30 67  1  0  0  0  0
M  END
>  <MODEL>
       0

$$$$
selected_4mers/AVLA/561_noH.pdb
 OpenBabel03042518233D

 67 66  0  0  1  0  0  0  0  0999 V2000
   13.1160   29.3940   11.8630 C   0  0  0  0  0  0  0  0  0  0  0  0
   14.2400   28.4430   12.2990 C   0  0  0  0  0  0  0  0  0  0  0  0
   14.5700   27.5350   11.5300 O   0  0  0  0  0  0  0  0  0  0  0  0
   14.8090   28.6230   13.4890 N   0  0  0  0  0  0  0  0  0  0  0  0
   15.8930   27.7460   13.9180 C   0  0  2  0  0  0  0  0  0  0  0  0
   15.4310   26.3000   14.1420 C   0  0  0  0  0  0  0  0  0  0  0  0
   16.1970   25.3490   13.9530 O   0  0  0  0  0  0  0  0  0  0  0  0
   16.5580   28.2960   15.1710 C   0  0  0  0  0  0  0  0  0  0  0  0
   14.1720   26.1250   14.5500 N   0  0  0  0  0  0  0  0  0  0  0  0
   13.6510   24.7770   14.7370 C   0  0  2  0  0  0  0  0  0  0  0  0
   13.4660   24.1110   13.3730 C   0  0  0  0  0  0  0  0  0  0  0  0
   13.7920   22.9260   13.2000 O   0  0  0  0  0  0  0  0  0  0  0  0
   12.3090   24.7870   15.5190 C   0  0  0  0  0  0  0  0  0  0  0  0
   11.7070   23.3870   15.5770 C   0  0  0  0  0  0  0  0  0  0  0  0
   12.5330   25.3310   16.9350 C   0  0  0  0  0  0  0  0  0  0  0  0
   12.9310   24.8570   12.4070 N   0  0  0  0  0  0  0  0  0  0  0  0
   12.7880   24.3230   11.0630 C   0  0  2  0  0  0  0  0  0  0  0  0
   14.1580   23.9200   10.5340 C   0  0  0  0  0  0  0  0  0  0  0  0
   14.3080   22.8580    9.9380 O   0  0  0  0  0  0  0  0  0  0  0  0
   12.1490   25.3630   10.1470 C   0  0  0  0  0  0  0  0  0  0  0  0
   10.6830   25.6800   10.4550 C   0  0  0  0  0  0  0  0  0  0  0  0
   10.2290   26.9220    9.7040 C   0  0  0  0  0  0  0  0  0  0  0  0
    9.8050   24.4930   10.0910 C   0  0  0  0  0  0  0  0  0  0  0  0
   15.1610   24.7540   10.7970 N   0  0  0  0  0  0  0  0  0  0  0  0
   16.5200   24.5000   10.3250 C   0  0  2  0  0  0  0  0  0  0  0  0
   17.1390   23.2400   10.9470 C   0  0  0  0  0  0  0  0  0  0  0  0
   17.7890   22.4660   10.2550 O   0  0  0  0  0  0  0  0  0  0  0  0
   17.3960   25.7050   10.5720 C   0  0  0  0  0  0  0  0  0  0  0  0
   16.9560   23.0260   12.2500 N   0  0  0  0  0  0  0  0  0  0  0  0
   17.5400   21.8220   12.8310 C   0  0  0  0  0  0  0  0  0  0  0  0
   12.7698   29.1145   10.8899 H   0  0  0  0  0  0  0  0  0  0  0  0
   13.4881   30.3968   11.8348 H   0  0  0  0  0  0  0  0  0  0  0  0
   12.3069   29.3333   12.5605 H   0  0  0  0  0  0  0  0  0  0  0  0
   14.4985   29.3474   14.0790 H   0  0  0  0  0  0  0  0  0  0  0  0
   16.6080   27.7221   13.1224 H   0  0  0  0  0  0  0  0  0  0  0  0
   15.8469   28.3220   15.9701 H   0  0  0  0  0  0  0  0  0  0  0  0
   16.9158   29.2861   14.9796 H   0  0  0  0  0  0  0  0  0  0  0  0
   17.3790   27.6667   15.4446 H   0  0  0  0  0  0  0  0  0  0  0  0
   13.5969   26.9048   14.7241 H   0  0  0  0  0  0  0  0  0  0  0  0
   14.3560   24.2197   15.3178 H   0  0  0  0  0  0  0  0  0  0  0  0
   11.6199   25.4249   15.0061 H   0  0  0  0  0  0  0  0  0  0  0  0
   12.3803   22.7301   16.0869 H   0  0  0  0  0  0  0  0  0  0  0  0
   11.5429   23.0278   14.5825 H   0  0  0  0  0  0  0  0  0  0  0  0
   10.7754   23.4208   16.1023 H   0  0  0  0  0  0  0  0  0  0  0  0
   13.2214   24.6984   17.4553 H   0  0  0  0  0  0  0  0  0  0  0  0
   11.6011   25.3524   17.4604 H   0  0  0  0  0  0  0  0  0  0  0  0
   12.9327   26.3219   16.8773 H   0  0  0  0  0  0  0  0  0  0  0  0
   12.6314   25.7737   12.6047 H   0  0  0  0  0  0  0  0  0  0  0  0
   12.1525   23.4626   11.0880 H   0  0  0  0  0  0  0  0  0  0  0  0
   12.7101   26.2701   10.2319 H   0  0  0  0  0  0  0  0  0  0  0  0
   12.1650   24.9454    9.1620 H   0  0  0  0  0  0  0  0  0  0  0  0
   10.5915   25.8718   11.5037 H   0  0  0  0  0  0  0  0  0  0  0  0
   10.3122   26.7523    8.6508 H   0  0  0  0  0  0  0  0  0  0  0  0
   10.8451   27.7517    9.9814 H   0  0  0  0  0  0  0  0  0  0  0  0
    9.2102   27.1359    9.9514 H   0  0  0  0  0  0  0  0  0  0  0  0
    9.8906   24.2941    9.0431 H   0  0  0  0  0  0  0  0  0  0  0  0
    8.7862   24.7165   10.3296 H   0  0  0  0  0  0  0  0  0  0  0  0
   10.1205   23.6331   10.6442 H   0  0  0  0  0  0  0  0  0  0  0  0
   14.9821   25.5655   11.3248 H   0  0  0  0  0  0  0  0  0  0  0  0
   16.4574   24.3214    9.2719 H   0  0  0  0  0  0  0  0  0  0  0  0
   17.4621   25.8883   11.6241 H   0  0  0  0  0  0  0  0  0  0  0  0
   16.9722   26.5595   10.0870 H   0  0  0  0  0  0  0  0  0  0  0  0
   18.3744   25.5211   10.1799 H   0  0  0  0  0  0  0  0  0  0  0  0
   16.4435   23.6598   12.8022 H   0  0  0  0  0  0  0  0  0  0  0  0
   18.0525   21.2713   12.0701 H   0  0  0  0  0  0  0  0  0  0  0  0
   16.7641   21.2153   13.2491 H   0  0  0  0  0  0  0  0  0  0  0  0
   18.2317   22.0964   13.5999 H   0  0  0  0  0  0  0  0  0  0  0  0
  1  2  1  0  0  0  0
  1 31  1  0  0  0  0
  1 32  1  0  0  0  0
  1 33  1  0  0  0  0
  2  4  1  0  0  0  0
  3  2  2  0  0  0  0
  4  5  1  0  0  0  0
  4 34  1  0  0  0  0
  5  6  1  0  0  0  0
  5  8  1  0  0  0  0
  5 35  1  6  0  0  0
  6  9  1  0  0  0  0
  7  6  2  0  0  0  0
  8 36  1  0  0  0  0
  8 37  1  0  0  0  0
  8 38  1  0  0  0  0
  9 10  1  0  0  0  0
  9 39  1  0  0  0  0
 10 13  1  0  0  0  0
 10 40  1  1  0  0  0
 11 10  1  0  0  0  0
 12 11  2  0  0  0  0
 13 14  1  0  0  0  0
 13 15  1  0  0  0  0
 13 41  1  0  0  0  0
 14 42  1  0  0  0  0
 14 43  1  0  0  0  0
 14 44  1  0  0  0  0
 15 45  1  0  0  0  0
 15 46  1  0  0  0  0
 15 47  1  0  0  0  0
 16 11  1  0  0  0  0
 16 48  1  0  0  0  0
 17 16  1  0  0  0  0
 17 49  1  1  0  0  0
 18 24  1  0  0  0  0
 18 17  1  0  0  0  0
 19 18  2  0  0  0  0
 20 21  1  0  0  0  0
 20 17  1  0  0  0  0
 20 50  1  0  0  0  0
 20 51  1  0  0  0  0
 21 52  1  0  0  0  0
 22 21  1  0  0  0  0
 22 53  1  0  0  0  0
 22 54  1  0  0  0  0
 22 55  1  0  0  0  0
 23 21  1  0  0  0  0
 23 56  1  0  0  0  0
 23 57  1  0  0  0  0
 23 58  1  0  0  0  0
 24 59  1  0  0  0  0
 25 28  1  0  0  0  0
 25 24  1  0  0  0  0
 25 26  1  0  0  0  0
 25 60  1  6  0  0  0
 26 29  1  0  0  0  0
 27 26  2  0  0  0  0
 28 61  1  0  0  0  0
 28 62  1  0  0  0  0
 28 63  1  0  0  0  0
 29 30  1  0  0  0  0
 29 64  1  0  0  0  0
 30 65  1  0  0  0  0
 30 66  1  0  0  0  0
 30 67  1  0  0  0  0
M  END
>  <MODEL>
       0

$$$$
selected_4mers/AVLA/562_noH.pdb
 OpenBabel03042518233D

 67 66  0  0  1  0  0  0  0  0999 V2000
    7.7730    4.5400    5.3400 C   0  0  0  0  0  0  0  0  0  0  0  0
    8.8130    4.6470    6.4380 C   0  0  0  0  0  0  0  0  0  0  0  0
    8.5100    5.2450    7.4440 O   0  0  0  0  0  0  0  0  0  0  0  0
   10.0240    4.1540    6.1960 N   0  0  0  0  0  0  0  0  0  0  0  0
   11.1330    4.2550    7.1520 C   0  0  2  0  0  0  0  0  0  0  0  0
   11.5100    5.7220    7.4660 C   0  0  0  0  0  0  0  0  0  0  0  0
   11.6010    6.1010    8.6200 O   0  0  0  0  0  0  0  0  0  0  0  0
   12.3720    3.3750    6.6780 C   0  0  0  0  0  0  0  0  0  0  0  0
   11.7230    6.5440    6.4400 N   0  0  0  0  0  0  0  0  0  0  0  0
   11.9420    7.9740    6.6580 C   0  0  2  0  0  0  0  0  0  0  0  0
   10.8500    8.5920    7.5120 C   0  0  0  0  0  0  0  0  0  0  0  0
   11.1160    9.3270    8.4530 O   0  0  0  0  0  0  0  0  0  0  0  0
   12.0840    8.7390    5.3520 C   0  0  0  0  0  0  0  0  0  0  0  0
   12.2890   10.2250    5.6340 C   0  0  0  0  0  0  0  0  0  0  0  0
   13.3250    8.1940    4.5430 C   0  0  0  0  0  0  0  0  0  0  0  0
    9.6000    8.4180    7.1030 N   0  0  0  0  0  0  0  0  0  0  0  0
    8.5010    9.0220    7.8370 C   0  0  2  0  0  0  0  0  0  0  0  0
    8.3080    8.4250    9.2510 C   0  0  0  0  0  0  0  0  0  0  0  0
    7.8710    9.1160   10.1620 O   0  0  0  0  0  0  0  0  0  0  0  0
    7.2200    8.7200    7.0720 C   0  0  0  0  0  0  0  0  0  0  0  0
    7.1060    9.2430    5.6800 C   0  0  0  0  0  0  0  0  0  0  0  0
    5.7510    8.8170    5.0350 C   0  0  0  0  0  0  0  0  0  0  0  0
    7.2300   10.7910    5.7740 C   0  0  0  0  0  0  0  0  0  0  0  0
    8.5370    7.1170    9.4240 N   0  0  0  0  0  0  0  0  0  0  0  0
    8.4610    6.5430   10.7950 C   0  0  2  0  0  0  0  0  0  0  0  0
    9.5120    7.2170   11.7210 C   0  0  0  0  0  0  0  0  0  0  0  0
    9.2580    7.5140   12.8850 O   0  0  0  0  0  0  0  0  0  0  0  0
    8.6300    4.9410   10.7730 C   0  0  0  0  0  0  0  0  0  0  0  0
   10.6780    7.5000   11.1540 N   0  0  0  0  0  0  0  0  0  0  0  0
   11.7720    8.1920   11.8570 C   0  0  0  0  0  0  0  0  0  0  0  0
    8.1782    3.9884    4.5175 H   0  0  0  0  0  0  0  0  0  0  0  0
    7.4991    5.5208    5.0114 H   0  0  0  0  0  0  0  0  0  0  0  0
    6.9078    4.0353    5.7162 H   0  0  0  0  0  0  0  0  0  0  0  0
   10.1839    3.7008    5.3368 H   0  0  0  0  0  0  0  0  0  0  0  0
   10.8004    3.8470    8.0836 H   0  0  0  0  0  0  0  0  0  0  0  0
   12.7390    3.7490    5.7451 H   0  0  0  0  0  0  0  0  0  0  0  0
   12.0618    2.3581    6.5573 H   0  0  0  0  0  0  0  0  0  0  0  0
   13.1479    3.4264    7.4130 H   0  0  0  0  0  0  0  0  0  0  0  0
   11.7332    6.1849    5.5234 H   0  0  0  0  0  0  0  0  0  0  0  0
   12.8673    8.0540    7.1893 H   0  0  0  0  0  0  0  0  0  0  0  0
   11.1910    8.6040    4.7783 H   0  0  0  0  0  0  0  0  0  0  0  0
   13.1822   10.3593    6.2077 H   0  0  0  0  0  0  0  0  0  0  0  0
   11.4521   10.6025    6.1834 H   0  0  0  0  0  0  0  0  0  0  0  0
   12.3765   10.7549    4.7086 H   0  0  0  0  0  0  0  0  0  0  0  0
   14.2153    8.3311    5.1204 H   0  0  0  0  0  0  0  0  0  0  0  0
   13.4123    8.7290    3.6205 H   0  0  0  0  0  0  0  0  0  0  0  0
   13.1887    7.1524    4.3397 H   0  0  0  0  0  0  0  0  0  0  0  0
    9.4166    7.8784    6.3003 H   0  0  0  0  0  0  0  0  0  0  0  0
    8.7199   10.0648    7.9346 H   0  0  0  0  0  0  0  0  0  0  0  0
    7.1200    7.6558    7.0231 H   0  0  0  0  0  0  0  0  0  0  0  0
    6.4525    9.2291    7.6166 H   0  0  0  0  0  0  0  0  0  0  0  0
    7.8752    8.8422    5.0534 H   0  0  0  0  0  0  0  0  0  0  0  0
    4.9414    9.1936    5.6245 H   0  0  0  0  0  0  0  0  0  0  0  0
    5.6957    7.7492    4.9938 H   0  0  0  0  0  0  0  0  0  0  0  0
    5.6865    9.2160    4.0443 H   0  0  0  0  0  0  0  0  0  0  0  0
    6.4539   11.1734    6.4035 H   0  0  0  0  0  0  0  0  0  0  0  0
    7.1383   11.2162    4.7964 H   0  0  0  0  0  0  0  0  0  0  0  0
    8.1831   11.0481    6.1867 H   0  0  0  0  0  0  0  0  0  0  0  0
    8.7528    6.5425    8.6542 H   0  0  0  0  0  0  0  0  0  0  0  0
    7.4884    6.7477   11.1914 H   0  0  0  0  0  0  0  0  0  0  0  0
    9.5936    4.6893   10.3817 H   0  0  0  0  0  0  0  0  0  0  0  0
    7.8703    4.5107   10.1544 H   0  0  0  0  0  0  0  0  0  0  0  0
    8.5383    4.5590   11.7683 H   0  0  0  0  0  0  0  0  0  0  0  0
   10.8189    7.2341   10.2166 H   0  0  0  0  0  0  0  0  0  0  0  0
   11.4684    8.4133   12.8589 H   0  0  0  0  0  0  0  0  0  0  0  0
   12.0050    9.1025   11.3455 H   0  0  0  0  0  0  0  0  0  0  0  0
   12.6372    7.5628   11.8772 H   0  0  0  0  0  0  0  0  0  0  0  0
  1  2  1  0  0  0  0
  1 31  1  0  0  0  0
  1 32  1  0  0  0  0
  1 33  1  0  0  0  0
  2  3  2  0  0  0  0
  4  2  1  0  0  0  0
  4  5  1  0  0  0  0
  4 34  1  0  0  0  0
  5  6  1  0  0  0  0
  5 35  1  1  0  0  0
  6  7  2  0  0  0  0
  8  5  1  0  0  0  0
  8 36  1  0  0  0  0
  8 37  1  0  0  0  0
  8 38  1  0  0  0  0
  9 10  1  0  0  0  0
  9  6  1  0  0  0  0
  9 39  1  0  0  0  0
 10 11  1  0  0  0  0
 10 40  1  1  0  0  0
 11 12  2  0  0  0  0
 13 14  1  0  0  0  0
 13 10  1  0  0  0  0
 13 41  1  0  0  0  0
 14 42  1  0  0  0  0
 14 43  1  0  0  0  0
 14 44  1  0  0  0  0
 15 13  1  0  0  0  0
 15 45  1  0  0  0  0
 15 46  1  0  0  0  0
 15 47  1  0  0  0  0
 16 11  1  0  0  0  0
 16 17  1  0  0  0  0
 16 48  1  0  0  0  0
 17 18  1  0  0  0  0
 17 49  1  1  0  0  0
 18 24  1  0  0  0  0
 18 19  2  0  0  0  0
 20 17  1  0  0  0  0
 20 50  1  0  0  0  0
 20 51  1  0  0  0  0
 21 23  1  0  0  0  0
 21 20  1  0  0  0  0
 21 52  1  0  0  0  0
 22 21  1  0  0  0  0
 22 53  1  0  0  0  0
 22 54  1  0  0  0  0
 22 55  1  0  0  0  0
 23 56  1  0  0  0  0
 23 57  1  0  0  0  0
 23 58  1  0  0  0  0
 24 25  1  0  0  0  0
 24 59  1  0  0  0  0
 25 26  1  0  0  0  0
 25 60  1  1  0  0  0
 26 27  2  0  0  0  0
 28 25  1  0  0  0  0
 28 61  1  0  0  0  0
 28 62  1  0  0  0  0
 28 63  1  0  0  0  0
 29 26  1  0  0  0  0
 29 30  1  0  0  0  0
 29 64  1  0  0  0  0
 30 65  1  0  0  0  0
 30 66  1  0  0  0  0
 30 67  1  0  0  0  0
M  END
>  <MODEL>
       0

$$$$
selected_4mers/AVLA/563_noH.pdb
 OpenBabel03042518233D

 67 66  0  0  1  0  0  0  0  0999 V2000
   21.4610   44.8310   90.1090 C   0  0  0  0  0  0  0  0  0  0  0  0
   20.6520   44.9670   88.8470 C   0  0  0  0  0  0  0  0  0  0  0  0
   20.4140   43.9960   88.1400 O   0  0  0  0  0  0  0  0  0  0  0  0
   20.2340   46.1900   88.5610 N   0  0  0  0  0  0  0  0  0  0  0  0
   19.5820   46.5270   87.3140 C   0  0  2  0  0  0  0  0  0  0  0  0
   20.1680   47.8700   86.8180 C   0  0  0  0  0  0  0  0  0  0  0  0
   20.3940   48.7850   87.6220 O   0  0  0  0  0  0  0  0  0  0  0  0
   18.0460   46.6600   87.5520 C   0  0  0  0  0  0  0  0  0  0  0  0
   20.4330   47.9850   85.5140 N   0  0  0  0  0  0  0  0  0  0  0  0
   20.8930   49.2560   84.9170 C   0  0  2  0  0  0  0  0  0  0  0  0
   19.9340   49.6920   83.8650 C   0  0  0  0  0  0  0  0  0  0  0  0
   19.5450   48.9080   83.0010 O   0  0  0  0  0  0  0  0  0  0  0  0
   22.3190   49.1170   84.3260 C   0  0  0  0  0  0  0  0  0  0  0  0
   22.8230   50.4840   83.6530 C   0  0  0  0  0  0  0  0  0  0  0  0
   23.2680   48.5830   85.3960 C   0  0  0  0  0  0  0  0  0  0  0  0
   19.4960   50.9350   83.9800 N   0  0  0  0  0  0  0  0  0  0  0  0
   18.7600   51.6130   82.9320 C   0  0  2  0  0  0  0  0  0  0  0  0
   19.7830   52.3750   82.1440 C   0  0  0  0  0  0  0  0  0  0  0  0
   20.5240   53.2450   82.6880 O   0  0  0  0  0  0  0  0  0  0  0  0
   17.7840   52.5860   83.5480 C   0  0  0  0  0  0  0  0  0  0  0  0
   16.3520   52.8090   83.0500 C   0  0  0  0  0  0  0  0  0  0  0  0
   15.9670   54.2630   83.2750 C   0  0  0  0  0  0  0  0  0  0  0  0
   16.0630   52.3130   81.6440 C   0  0  0  0  0  0  0  0  0  0  0  0
   19.8070   52.1260   80.8400 N   0  0  0  0  0  0  0  0  0  0  0  0
   20.8140   52.7220   79.9830 C   0  0  2  0  0  0  0  0  0  0  0  0
   20.1300   53.5000   78.8630 C   0  0  0  0  0  0  0  0  0  0  0  0
   19.0980   53.0500   78.2930 O   0  0  0  0  0  0  0  0  0  0  0  0
   21.7240   51.6070   79.3720 C   0  0  0  0  0  0  0  0  0  0  0  0
   20.7190   54.6460   78.5350 N   0  0  0  0  0  0  0  0  0  0  0  0
   20.2480   55.5110   77.4620 C   0  0  0  0  0  0  0  0  0  0  0  0
   21.7449   43.8080   90.2422 H   0  0  0  0  0  0  0  0  0  0  0  0
   20.8742   45.1500   90.9449 H   0  0  0  0  0  0  0  0  0  0  0  0
   22.3390   45.4383   90.0370 H   0  0  0  0  0  0  0  0  0  0  0  0
   20.3729   46.9021   89.2265 H   0  0  0  0  0  0  0  0  0  0  0  0
   19.7461   45.7653   86.5806 H   0  0  0  0  0  0  0  0  0  0  0  0
   17.8629   47.4187   88.2839 H   0  0  0  0  0  0  0  0  0  0  0  0
   17.6570   45.7263   87.9011 H   0  0  0  0  0  0  0  0  0  0  0  0
   17.5646   46.9262   86.6342 H   0  0  0  0  0  0  0  0  0  0  0  0
   20.3183   47.1988   84.9327 H   0  0  0  0  0  0  0  0  0  0  0  0
   20.9329   49.9967   85.6881 H   0  0  0  0  0  0  0  0  0  0  0  0
   22.3002   48.4046   83.5279 H   0  0  0  0  0  0  0  0  0  0  0  0
   22.8681   51.2522   84.3965 H   0  0  0  0  0  0  0  0  0  0  0  0
   22.1410   50.7742   82.8812 H   0  0  0  0  0  0  0  0  0  0  0  0
   23.7959   50.3370   83.2326 H   0  0  0  0  0  0  0  0  0  0  0  0
   23.3105   49.2738   86.2120 H   0  0  0  0  0  0  0  0  0  0  0  0
   24.2458   48.4640   84.9782 H   0  0  0  0  0  0  0  0  0  0  0  0
   22.9128   47.6369   85.7477 H   0  0  0  0  0  0  0  0  0  0  0  0
   19.6785   51.4218   84.8161 H   0  0  0  0  0  0  0  0  0  0  0  0
   18.2131   50.9241   82.3227 H   0  0  0  0  0  0  0  0  0  0  0  0
   18.2595   53.5431   83.4954 H   0  0  0  0  0  0  0  0  0  0  0  0
   17.5959   52.1108   84.4880 H   0  0  0  0  0  0  0  0  0  0  0  0
   15.7151   52.1813   83.6375 H   0  0  0  0  0  0  0  0  0  0  0  0
   16.6016   54.8947   82.6892 H   0  0  0  0  0  0  0  0  0  0  0  0
   16.0802   54.5057   84.3109 H   0  0  0  0  0  0  0  0  0  0  0  0
   14.9483   54.4115   82.9831 H   0  0  0  0  0  0  0  0  0  0  0  0
   16.6484   52.8695   80.9421 H   0  0  0  0  0  0  0  0  0  0  0  0
   15.0238   52.4450   81.4258 H   0  0  0  0  0  0  0  0  0  0  0  0
   16.3132   51.2751   81.5735 H   0  0  0  0  0  0  0  0  0  0  0  0
   19.1305   51.5273   80.4486 H   0  0  0  0  0  0  0  0  0  0  0  0
   21.4210   53.3869   80.5612 H   0  0  0  0  0  0  0  0  0  0  0  0
   21.1254   50.9365   78.7914 H   0  0  0  0  0  0  0  0  0  0  0  0
   22.2030   51.0655   80.1608 H   0  0  0  0  0  0  0  0  0  0  0  0
   22.4663   52.0559   78.7456 H   0  0  0  0  0  0  0  0  0  0  0  0
   21.5146   54.9243   79.0437 H   0  0  0  0  0  0  0  0  0  0  0  0
   19.3824   55.0763   77.0074 H   0  0  0  0  0  0  0  0  0  0  0  0
   21.0189   55.6211   76.7282 H   0  0  0  0  0  0  0  0  0  0  0  0
   19.9967   56.4710   77.8621 H   0  0  0  0  0  0  0  0  0  0  0  0
  1 31  1  0  0  0  0
  1 32  1  0  0  0  0
  1 33  1  0  0  0  0
  2  1  1  0  0  0  0
  3  2  2  0  0  0  0
  4  2  1  0  0  0  0
  4 34  1  0  0  0  0
  5  8  1  0  0  0  0
  5  4  1  0  0  0  0
  5 35  1  6  0  0  0
  6  5  1  0  0  0  0
  6  7  2  0  0  0  0
  8 36  1  0  0  0  0
  8 37  1  0  0  0  0
  8 38  1  0  0  0  0
  9  6  1  0  0  0  0
  9 39  1  0  0  0  0
 10  9  1  0  0  0  0
 10 40  1  1  0  0  0
 11 16  1  0  0  0  0
 11 10  1  0  0  0  0
 12 11  2  0  0  0  0
 13 10  1  0  0  0  0
 13 15  1  0  0  0  0
 13 41  1  0  0  0  0
 14 13  1  0  0  0  0
 14 42  1  0  0  0  0
 14 43  1  0  0  0  0
 14 44  1  0  0  0  0
 15 45  1  0  0  0  0
 15 46  1  0  0  0  0
 15 47  1  0  0  0  0
 16 48  1  0  0  0  0
 17 20  1  0  0  0  0
 17 16  1  0  0  0  0
 17 49  1  6  0  0  0
 18 19  2  0  0  0  0
 18 17  1  0  0  0  0
 20 50  1  0  0  0  0
 20 51  1  0  0  0  0
 21 22  1  0  0  0  0
 21 20  1  0  0  0  0
 21 52  1  0  0  0  0
 22 53  1  0  0  0  0
 22 54  1  0  0  0  0
 22 55  1  0  0  0  0
 23 21  1  0  0  0  0
 23 56  1  0  0  0  0
 23 57  1  0  0  0  0
 23 58  1  0  0  0  0
 24 18  1  0  0  0  0
 24 59  1  0  0  0  0
 25 24  1  0  0  0  0
 25 60  1  1  0  0  0
 26 25  1  0  0  0  0
 27 26  2  0  0  0  0
 28 25  1  0  0  0  0
 28 61  1  0  0  0  0
 28 62  1  0  0  0  0
 28 63  1  0  0  0  0
 29 26  1  0  0  0  0
 29 64  1  0  0  0  0
 30 29  1  0  0  0  0
 30 65  1  0  0  0  0
 30 66  1  0  0  0  0
 30 67  1  0  0  0  0
M  END
>  <MODEL>
       0

$$$$
selected_4mers/AVLA/564_noH.pdb
 OpenBabel03042518233D

 67 66  0  0  1  0  0  0  0  0999 V2000
   37.4260  -10.9030   21.4580 C   0  0  0  0  0  0  0  0  0  0  0  0
   38.4170  -12.0670   21.3440 C   0  0  0  0  0  0  0  0  0  0  0  0
   38.3060  -13.0600   22.0690 O   0  0  0  0  0  0  0  0  0  0  0  0
   39.3790  -11.9460   20.4330 N   0  0  0  0  0  0  0  0  0  0  0  0
   40.3700  -12.9970   20.2200 C   0  0  2  0  0  0  0  0  0  0  0  0
   41.6000  -12.8840   21.1300 C   0  0  0  0  0  0  0  0  0  0  0  0
   42.5100  -13.7160   21.0610 O   0  0  0  0  0  0  0  0  0  0  0  0
   40.8050  -13.0120   18.7570 C   0  0  0  0  0  0  0  0  0  0  0  0
   41.6350  -11.8590   21.9710 N   0  0  0  0  0  0  0  0  0  0  0  0
   42.7690  -11.6890   22.8760 C   0  0  2  0  0  0  0  0  0  0  0  0
   42.4330  -12.4500   24.1500 C   0  0  0  0  0  0  0  0  0  0  0  0
   41.5630  -12.0460   24.9200 O   0  0  0  0  0  0  0  0  0  0  0  0
   43.0220  -10.1940   23.1900 C   0  0  0  0  0  0  0  0  0  0  0  0
   44.2620  -10.0470   24.0810 C   0  0  0  0  0  0  0  0  0  0  0  0
   43.2130   -9.4250   21.8930 C   0  0  0  0  0  0  0  0  0  0  0  0
   43.1250  -13.5680   24.3480 N   0  0  0  0  0  0  0  0  0  0  0  0
   42.9090  -14.4440   25.4960 C   0  0  2  0  0  0  0  0  0  0  0  0
   43.6190  -14.0090   26.7730 C   0  0  0  0  0  0  0  0  0  0  0  0
   43.0820  -14.1650   27.8800 O   0  0  0  0  0  0  0  0  0  0  0  0
   43.3780  -15.8550   25.1490 C   0  0  0  0  0  0  0  0  0  0  0  0
   42.6790  -16.5860   24.0010 C   0  0  0  0  0  0  0  0  0  0  0  0
   43.5160  -17.7780   23.5690 C   0  0  0  0  0  0  0  0  0  0  0  0
   41.2930  -17.0230   24.4390 C   0  0  0  0  0  0  0  0  0  0  0  0
   44.8230  -13.4710   26.6300 N   0  0  0  0  0  0  0  0  0  0  0  0
   45.5810  -13.0810   27.8090 C   0  0  2  0  0  0  0  0  0  0  0  0
   46.7730  -12.2050   27.4860 C   0  0  0  0  0  0  0  0  0  0  0  0
   47.1220  -12.0040   26.3260 O   0  0  0  0  0  0  0  0  0  0  0  0
   46.0550  -14.3390   28.5370 C   0  0  0  0  0  0  0  0  0  0  0  0
   47.3920  -11.6760   28.5350 N   0  0  0  0  0  0  0  0  0  0  0  0
   48.5730  -10.8520   28.3860 C   0  0  0  0  0  0  0  0  0  0  0  0
   37.6864  -10.1424   20.7519 H   0  0  0  0  0  0  0  0  0  0  0  0
   37.4632  -10.4985   22.4479 H   0  0  0  0  0  0  0  0  0  0  0  0
   36.4366  -11.2556   21.2538 H   0  0  0  0  0  0  0  0  0  0  0  0
   39.4238  -11.1269   19.8886 H   0  0  0  0  0  0  0  0  0  0  0  0
   39.8904  -13.9181   20.4780 H   0  0  0  0  0  0  0  0  0  0  0  0
   41.2819  -12.0846   18.5172 H   0  0  0  0  0  0  0  0  0  0  0  0
   39.9472  -13.1443   18.1312 H   0  0  0  0  0  0  0  0  0  0  0  0
   41.4908  -13.8176   18.5971 H   0  0  0  0  0  0  0  0  0  0  0  0
   40.8943  -11.2106   21.9854 H   0  0  0  0  0  0  0  0  0  0  0  0
   43.6639  -12.0636   22.4246 H   0  0  0  0  0  0  0  0  0  0  0  0
   42.1769   -9.7952   23.7112 H   0  0  0  0  0  0  0  0  0  0  0  0
   45.1160  -10.4423   23.5718 H   0  0  0  0  0  0  0  0  0  0  0  0
   44.1109  -10.5841   24.9940 H   0  0  0  0  0  0  0  0  0  0  0  0
   44.4241   -9.0120   24.2987 H   0  0  0  0  0  0  0  0  0  0  0  0
   44.0569   -9.8186   21.3660 H   0  0  0  0  0  0  0  0  0  0  0  0
   43.3800   -8.3912   22.1126 H   0  0  0  0  0  0  0  0  0  0  0  0
   42.3365   -9.5239   21.2873 H   0  0  0  0  0  0  0  0  0  0  0  0
   43.8144  -13.8165   23.6906 H   0  0  0  0  0  0  0  0  0  0  0  0
   41.8589  -14.3997   25.6965 H   0  0  0  0  0  0  0  0  0  0  0  0
   44.4166  -15.7920   24.8996 H   0  0  0  0  0  0  0  0  0  0  0  0
   43.1409  -16.4347   26.0166 H   0  0  0  0  0  0  0  0  0  0  0  0
   42.5741  -15.9268   23.1647 H   0  0  0  0  0  0  0  0  0  0  0  0
   43.6322  -18.4499   24.3936 H   0  0  0  0  0  0  0  0  0  0  0  0
   44.4784  -17.4398   23.2462 H   0  0  0  0  0  0  0  0  0  0  0  0
   43.0269  -18.2839   22.7629 H   0  0  0  0  0  0  0  0  0  0  0  0
   41.3755  -17.6843   25.2761 H   0  0  0  0  0  0  0  0  0  0  0  0
   40.8067  -17.5290   23.6313 H   0  0  0  0  0  0  0  0  0  0  0  0
   40.7198  -16.1638   24.7183 H   0  0  0  0  0  0  0  0  0  0  0  0
   45.2015  -13.3364   25.7312 H   0  0  0  0  0  0  0  0  0  0  0  0
   44.9290  -12.5013   28.4284 H   0  0  0  0  0  0  0  0  0  0  0  0
   46.7039  -14.8987   27.8963 H   0  0  0  0  0  0  0  0  0  0  0  0
   45.2090  -14.9390   28.8000 H   0  0  0  0  0  0  0  0  0  0  0  0
   46.5838  -14.0597   29.4243 H   0  0  0  0  0  0  0  0  0  0  0  0
   47.0386  -11.8486   29.4375 H   0  0  0  0  0  0  0  0  0  0  0  0
   48.8197  -10.7666   27.3483 H   0  0  0  0  0  0  0  0  0  0  0  0
   49.3899  -11.3013   28.9110 H   0  0  0  0  0  0  0  0  0  0  0  0
   48.3822   -9.8791   28.7885 H   0  0  0  0  0  0  0  0  0  0  0  0
  1 31  1  0  0  0  0
  1 32  1  0  0  0  0
  1 33  1  0  0  0  0
  2  1  1  0  0  0  0
  2  3  2  0  0  0  0
  4  2  1  0  0  0  0
  4 34  1  0  0  0  0
  5  4  1  0  0  0  0
  5  6  1  0  0  0  0
  5 35  1  1  0  0  0
  6  9  1  0  0  0  0
  7  6  2  0  0  0  0
  8  5  1  0  0  0  0
  8 36  1  0  0  0  0
  8 37  1  0  0  0  0
  8 38  1  0  0  0  0
  9 10  1  0  0  0  0
  9 39  1  0  0  0  0
 10 13  1  0  0  0  0
 10 11  1  0  0  0  0
 10 40  1  6  0  0  0
 11 16  1  0  0  0  0
 11 12  2  0  0  0  0
 13 14  1  0  0  0  0
 13 41  1  0  0  0  0
 14 42  1  0  0  0  0
 14 43  1  0  0  0  0
 14 44  1  0  0  0  0
 15 13  1  0  0  0  0
 15 45  1  0  0  0  0
 15 46  1  0  0  0  0
 15 47  1  0  0  0  0
 16 17  1  0  0  0  0
 16 48  1  0  0  0  0
 17 18  1  0  0  0  0
 17 49  1  1  0  0  0
 18 19  2  0  0  0  0
 20 17  1  0  0  0  0
 20 50  1  0  0  0  0
 20 51  1  0  0  0  0
 21 23  1  0  0  0  0
 21 20  1  0  0  0  0
 21 52  1  0  0  0  0
 22 21  1  0  0  0  0
 22 53  1  0  0  0  0
 22 54  1  0  0  0  0
 22 55  1  0  0  0  0
 23 56  1  0  0  0  0
 23 57  1  0  0  0  0
 23 58  1  0  0  0  0
 24 18  1  0  0  0  0
 24 25  1  0  0  0  0
 24 59  1  0  0  0  0
 25 28  1  0  0  0  0
 25 60  1  1  0  0  0
 26 25  1  0  0  0  0
 26 29  1  0  0  0  0
 27 26  2  0  0  0  0
 28 61  1  0  0  0  0
 28 62  1  0  0  0  0
 28 63  1  0  0  0  0
 29 64  1  0  0  0  0
 30 29  1  0  0  0  0
 30 65  1  0  0  0  0
 30 66  1  0  0  0  0
 30 67  1  0  0  0  0
M  END
>  <MODEL>
       0

$$$$
