selected_4mers/DGTV/515_noH.pdb
 OpenBabel03042518173D

 61 60  0  0  1  0  0  0  0  0999 V2000
   14.3850   29.2050   46.0690 C   0  0  0  0  0  0  0  0  0  0  0  0
   14.6760   29.5250   47.5380 C   0  0  0  0  0  0  0  0  0  0  0  0
   15.6130   30.2950   47.8330 O   0  0  0  0  0  0  0  0  0  0  0  0
   13.9180   28.9360   48.4760 N   0  0  0  0  0  0  0  0  0  0  0  0
   14.2010   29.1150   49.9360 C   0  0  2  0  0  0  0  0  0  0  0  0
   15.0420   28.0080   50.6090 C   0  0  0  0  0  0  0  0  0  0  0  0
   15.2170   27.9860   51.8530 O   0  0  0  0  0  0  0  0  0  0  0  0
   12.9230   29.4400   50.7460 C   0  0  0  0  0  0  0  0  0  0  0  0
   12.0000   28.2500   50.8730 C   0  0  0  0  0  0  0  0  0  0  0  0
   12.4270   27.1440   50.4400 O   0  0  0  0  0  0  0  0  0  0  0  0
   10.8630   28.4240   51.4050 O   0  0  0  0  0  0  0  0  0  0  0  0
   15.5360   27.0950   49.7830 N   0  0  0  0  0  0  0  0  0  0  0  0
   16.3920   25.9940   50.2480 C   0  0  0  0  0  0  0  0  0  0  0  0
   15.6640   24.7840   50.7840 C   0  0  0  0  0  0  0  0  0  0  0  0
   16.3040   23.7850   51.1250 O   0  0  0  0  0  0  0  0  0  0  0  0
   14.3300   24.8290   50.8190 N   0  0  0  0  0  0  0  0  0  0  0  0
   13.5830   23.7340   51.4700 C   0  0  2  0  0  0  0  0  0  0  0  0
   13.0760   22.6230   50.5630 C   0  0  0  0  0  0  0  0  0  0  0  0
   12.4680   21.6580   51.0770 O   0  0  0  0  0  0  0  0  0  0  0  0
   12.3860   24.2650   52.3070 C   0  0  2  0  0  0  0  0  0  0  0  0
   11.4130   24.8520   51.4120 O   0  0  0  0  0  0  0  0  0  0  0  0
   12.9220   25.3100   53.3230 C   0  0  0  0  0  0  0  0  0  0  0  0
   13.3140   22.7370   49.2470 N   0  0  0  0  0  0  0  0  0  0  0  0
   13.1180   21.5710   48.3430 C   0  0  2  0  0  0  0  0  0  0  0  0
   14.3660   21.4380   47.4690 C   0  0  0  0  0  0  0  0  0  0  0  0
   15.0770   22.4330   47.2130 O   0  0  0  0  0  0  0  0  0  0  0  0
   11.8460   21.6900   47.4490 C   0  0  0  0  0  0  0  0  0  0  0  0
   10.5980   21.9210   48.2970 C   0  0  0  0  0  0  0  0  0  0  0  0
   11.9640   22.8780   46.3750 C   0  0  0  0  0  0  0  0  0  0  0  0
   14.6520   20.2080   47.0380 N   0  0  0  0  0  0  0  0  0  0  0  0
   15.7990   19.9460   46.1690 C   0  0  0  0  0  0  0  0  0  0  0  0
   15.0657   29.7451   45.4447 H   0  0  0  0  0  0  0  0  0  0  0  0
   13.3813   29.4914   45.8336 H   0  0  0  0  0  0  0  0  0  0  0  0
   14.5047   28.1549   45.9022 H   0  0  0  0  0  0  0  0  0  0  0  0
   13.1591   28.3738   48.1983 H   0  0  0  0  0  0  0  0  0  0  0  0
   14.8434   29.9704   49.9573 H   0  0  0  0  0  0  0  0  0  0  0  0
   12.3969   30.2313   50.2541 H   0  0  0  0  0  0  0  0  0  0  0  0
   13.2264   29.7228   51.7323 H   0  0  0  0  0  0  0  0  0  0  0  0
   15.3216   27.1570   48.8241 H   0  0  0  0  0  0  0  0  0  0  0  0
   17.0206   26.3720   51.0270 H   0  0  0  0  0  0  0  0  0  0  0  0
   16.9281   25.6555   49.3861 H   0  0  0  0  0  0  0  0  0  0  0  0
   13.8483   25.5861   50.4141 H   0  0  0  0  0  0  0  0  0  0  0  0
   14.3314   23.2922   52.0942 H   0  0  0  0  0  0  0  0  0  0  0  0
   11.9105   23.4733   52.8474 H   0  0  0  0  0  0  0  0  0  0  0  0
   11.8269   25.5732   50.9125 H   0  0  0  0  0  0  0  0  0  0  0  0
   13.4005   26.1081   52.7948 H   0  0  0  0  0  0  0  0  0  0  0  0
   13.6274   24.8420   53.9774 H   0  0  0  0  0  0  0  0  0  0  0  0
   12.1074   25.6999   53.8968 H   0  0  0  0  0  0  0  0  0  0  0  0
   13.6200   23.5968   48.8776 H   0  0  0  0  0  0  0  0  0  0  0  0
   12.9695   20.7011   48.9480 H   0  0  0  0  0  0  0  0  0  0  0  0
   11.7643   20.7610   46.9244 H   0  0  0  0  0  0  0  0  0  0  0  0
   10.6878   22.8514   48.8178 H   0  0  0  0  0  0  0  0  0  0  0  0
   10.4950   21.1248   49.0044 H   0  0  0  0  0  0  0  0  0  0  0  0
    9.7363   21.9487   47.6633 H   0  0  0  0  0  0  0  0  0  0  0  0
   12.0465   23.8143   46.8864 H   0  0  0  0  0  0  0  0  0  0  0  0
   11.0922   22.8860   45.7547 H   0  0  0  0  0  0  0  0  0  0  0  0
   12.8320   22.7254   45.7682 H   0  0  0  0  0  0  0  0  0  0  0  0
   14.0764   19.4578   47.3119 H   0  0  0  0  0  0  0  0  0  0  0  0
   16.3127   20.8633   45.9702 H   0  0  0  0  0  0  0  0  0  0  0  0
   15.4589   19.5208   45.2479 H   0  0  0  0  0  0  0  0  0  0  0  0
   16.4645   19.2622   46.6532 H   0  0  0  0  0  0  0  0  0  0  0  0
  1  2  1  0  0  0  0
  1 32  1  0  0  0  0
  1 33  1  0  0  0  0
  1 34  1  0  0  0  0
  2  3  2  0  0  0  0
  2  4  1  0  0  0  0
  4  5  1  0  0  0  0
  4 35  1  0  0  0  0
  5  6  1  0  0  0  0
  5  8  1  0  0  0  0
  5 36  1  1  0  0  0
  6  7  2  0  0  0  0
  8  9  1  0  0  0  0
  8 37  1  0  0  0  0
  8 38  1  0  0  0  0
  9 11  1  0  0  0  0
 10  9  2  0  0  0  0
 12 13  1  0  0  0  0
 12  6  1  0  0  0  0
 12 39  1  0  0  0  0
 13 14  1  0  0  0  0
 13 40  1  0  0  0  0
 13 41  1  0  0  0  0
 14 16  1  0  0  0  0
 14 15  2  0  0  0  0
 16 17  1  0  0  0  0
 16 42  1  0  0  0  0
 17 20  1  0  0  0  0
 17 43  1  1  0  0  0
 18 19  2  0  0  0  0
 18 17  1  0  0  0  0
 20 22  1  0  0  0  0
 20 44  1  1  0  0  0
 21 20  1  0  0  0  0
 21 45  1  0  0  0  0
 22 46  1  0  0  0  0
 22 47  1  0  0  0  0
 22 48  1  0  0  0  0
 23 18  1  0  0  0  0
 23 49  1  0  0  0  0
 24 23  1  0  0  0  0
 24 50  1  1  0  0  0
 25 24  1  0  0  0  0
 26 25  2  0  0  0  0
 27 28  1  0  0  0  0
 27 24  1  0  0  0  0
 27 51  1  0  0  0  0
 28 52  1  0  0  0  0
 28 53  1  0  0  0  0
 28 54  1  0  0  0  0
 29 27  1  0  0  0  0
 29 55  1  0  0  0  0
 29 56  1  0  0  0  0
 29 57  1  0  0  0  0
 30 25  1  0  0  0  0
 30 58  1  0  0  0  0
 31 30  1  0  0  0  0
 31 59  1  0  0  0  0
 31 60  1  0  0  0  0
 31 61  1  0  0  0  0
M  CHG  1  11  -1
M  END
>  <MODEL>
       0

$$$$
selected_4mers/DGTV/516_noH.pdb
 OpenBabel03042518173D

 61 60  0  0  1  0  0  0  0  0999 V2000
   48.2680   -9.5510   69.8180 C   0  0  0  0  0  0  0  0  0  0  0  0
   49.7630   -9.2810   69.6250 C   0  0  0  0  0  0  0  0  0  0  0  0
   50.2590   -8.2360   70.0510 O   0  0  0  0  0  0  0  0  0  0  0  0
   50.4880  -10.1950   68.9900 N   0  0  0  0  0  0  0  0  0  0  0  0
   51.9210   -9.9820   68.8030 C   0  0  2  0  0  0  0  0  0  0  0  0
   52.2200   -8.7490   67.9530 C   0  0  0  0  0  0  0  0  0  0  0  0
   53.2040   -8.0540   68.1940 O   0  0  0  0  0  0  0  0  0  0  0  0
   52.5690  -11.2290   68.1940 C   0  0  0  0  0  0  0  0  0  0  0  0
   52.6850  -12.3670   69.1930 C   0  0  0  0  0  0  0  0  0  0  0  0
   52.1440  -12.2380   70.3130 O   0  0  0  0  0  0  0  0  0  0  0  0
   53.3160  -13.3920   68.8620 O   0  0  0  0  0  0  0  0  0  0  0  0
   51.3650   -8.4710   66.9720 N   0  0  0  0  0  0  0  0  0  0  0  0
   51.5770   -7.3030   66.1350 C   0  0  0  0  0  0  0  0  0  0  0  0
   51.4850   -6.0450   66.9740 C   0  0  0  0  0  0  0  0  0  0  0  0
   52.2250   -5.0850   66.7680 O   0  0  0  0  0  0  0  0  0  0  0  0
   50.5670   -6.0570   67.9340 N   0  0  0  0  0  0  0  0  0  0  0  0
   50.3800   -4.9250   68.8300 C   0  0  2  0  0  0  0  0  0  0  0  0
   51.6290   -4.7140   69.6820 C   0  0  0  0  0  0  0  0  0  0  0  0
   52.1100   -3.5930   69.8350 O   0  0  0  0  0  0  0  0  0  0  0  0
   49.1620   -5.1590   69.7460 C   0  0  2  0  0  0  0  0  0  0  0  0
   47.9700   -5.1560   68.9500 O   0  0  0  0  0  0  0  0  0  0  0  0
   49.0620   -4.0730   70.8100 C   0  0  0  0  0  0  0  0  0  0  0  0
   52.1570   -5.8000   70.2330 N   0  0  0  0  0  0  0  0  0  0  0  0
   53.3510   -5.7240   71.0620 C   0  0  2  0  0  0  0  0  0  0  0  0
   54.5240   -5.1810   70.2610 C   0  0  0  0  0  0  0  0  0  0  0  0
   55.3020   -4.3620   70.7480 O   0  0  0  0  0  0  0  0  0  0  0  0
   53.7220   -7.1150   71.6230 C   0  0  0  0  0  0  0  0  0  0  0  0
   55.0500   -7.0480   72.3680 C   0  0  0  0  0  0  0  0  0  0  0  0
   52.6210   -7.6050   72.5620 C   0  0  0  0  0  0  0  0  0  0  0  0
   54.6470   -5.6390   69.0230 N   0  0  0  0  0  0  0  0  0  0  0  0
   55.7380   -5.1930   68.1720 C   0  0  0  0  0  0  0  0  0  0  0  0
   48.0182  -10.4982   69.3876 H   0  0  0  0  0  0  0  0  0  0  0  0
   47.7015   -8.7806   69.3380 H   0  0  0  0  0  0  0  0  0  0  0  0
   48.0397   -9.5629   70.8633 H   0  0  0  0  0  0  0  0  0  0  0  0
   50.0611  -11.0130   68.6466 H   0  0  0  0  0  0  0  0  0  0  0  0
   52.3445   -9.8035   69.7693 H   0  0  0  0  0  0  0  0  0  0  0  0
   53.5490  -10.9734   67.8489 H   0  0  0  0  0  0  0  0  0  0  0  0
   51.9452  -11.5619   67.3909 H   0  0  0  0  0  0  0  0  0  0  0  0
   50.5895   -9.0564   66.8137 H   0  0  0  0  0  0  0  0  0  0  0  0
   50.8299   -7.2745   65.3695 H   0  0  0  0  0  0  0  0  0  0  0  0
   52.5484   -7.3598   65.6899 H   0  0  0  0  0  0  0  0  0  0  0  0
   49.9978   -6.8529   68.0425 H   0  0  0  0  0  0  0  0  0  0  0  0
   50.2070   -4.0512   68.2372 H   0  0  0  0  0  0  0  0  0  0  0  0
   49.2788   -6.1024   70.2371 H   0  0  0  0  0  0  0  0  0  0  0  0
   47.8765   -4.2961   68.5110 H   0  0  0  0  0  0  0  0  0  0  0  0
   48.9445   -3.1203   70.3373 H   0  0  0  0  0  0  0  0  0  0  0  0
   49.9536   -4.0701   71.4016 H   0  0  0  0  0  0  0  0  0  0  0  0
   48.2177   -4.2659   71.4383 H   0  0  0  0  0  0  0  0  0  0  0  0
   51.7325   -6.6746   70.0778 H   0  0  0  0  0  0  0  0  0  0  0  0
   53.1387   -5.0629   71.8761 H   0  0  0  0  0  0  0  0  0  0  0  0
   53.8205   -7.8013   70.8081 H   0  0  0  0  0  0  0  0  0  0  0  0
   54.9656   -6.3642   73.1867 H   0  0  0  0  0  0  0  0  0  0  0  0
   55.8166   -6.7129   71.7010 H   0  0  0  0  0  0  0  0  0  0  0  0
   55.3001   -8.0198   72.7393 H   0  0  0  0  0  0  0  0  0  0  0  0
   52.5187   -6.9216   73.3789 H   0  0  0  0  0  0  0  0  0  0  0  0
   52.8773   -8.5737   72.9373 H   0  0  0  0  0  0  0  0  0  0  0  0
   51.6959   -7.6629   72.0274 H   0  0  0  0  0  0  0  0  0  0  0  0
   53.9927   -6.2879   68.6764 H   0  0  0  0  0  0  0  0  0  0  0  0
   56.3461   -4.4947   68.7082 H   0  0  0  0  0  0  0  0  0  0  0  0
   55.3390   -4.7213   67.2984 H   0  0  0  0  0  0  0  0  0  0  0  0
   56.3320   -6.0348   67.8830 H   0  0  0  0  0  0  0  0  0  0  0  0
  1 32  1  0  0  0  0
  1 33  1  0  0  0  0
  1 34  1  0  0  0  0
  2  1  1  0  0  0  0
  2  3  2  0  0  0  0
  4  2  1  0  0  0  0
  4 35  1  0  0  0  0
  5  4  1  0  0  0  0
  5 36  1  1  0  0  0
  6  7  2  0  0  0  0
  6  5  1  0  0  0  0
  8  5  1  0  0  0  0
  8  9  1  0  0  0  0
  8 37  1  0  0  0  0
  8 38  1  0  0  0  0
  9 10  1  0  0  0  0
 11  9  2  0  0  0  0
 12  6  1  0  0  0  0
 12 39  1  0  0  0  0
 13 12  1  0  0  0  0
 13 14  1  0  0  0  0
 13 40  1  0  0  0  0
 13 41  1  0  0  0  0
 14 16  1  0  0  0  0
 15 14  2  0  0  0  0
 16 17  1  0  0  0  0
 16 42  1  0  0  0  0
 17 18  1  0  0  0  0
 17 20  1  0  0  0  0
 17 43  1  6  0  0  0
 18 19  2  0  0  0  0
 18 23  1  0  0  0  0
 20 22  1  0  0  0  0
 20 44  1  1  0  0  0
 21 20  1  0  0  0  0
 21 45  1  0  0  0  0
 22 46  1  0  0  0  0
 22 47  1  0  0  0  0
 22 48  1  0  0  0  0
 23 24  1  0  0  0  0
 23 49  1  0  0  0  0
 24 27  1  0  0  0  0
 24 50  1  1  0  0  0
 25 26  2  0  0  0  0
 25 24  1  0  0  0  0
 27 28  1  0  0  0  0
 27 29  1  0  0  0  0
 27 51  1  0  0  0  0
 28 52  1  0  0  0  0
 28 53  1  0  0  0  0
 28 54  1  0  0  0  0
 29 55  1  0  0  0  0
 29 56  1  0  0  0  0
 29 57  1  0  0  0  0
 30 25  1  0  0  0  0
 30 58  1  0  0  0  0
 31 30  1  0  0  0  0
 31 59  1  0  0  0  0
 31 60  1  0  0  0  0
 31 61  1  0  0  0  0
M  CHG  1  10  -1
M  END
>  <MODEL>
       0

$$$$
selected_4mers/DGTV/517_noH.pdb
 OpenBabel03042518173D

 61 60  0  0  1  0  0  0  0  0999 V2000
    4.9650   38.7870   29.5780 C   0  0  0  0  0  0  0  0  0  0  0  0
    3.5000   38.6810   29.1430 C   0  0  0  0  0  0  0  0  0  0  0  0
    2.9960   37.5750   28.9380 O   0  0  0  0  0  0  0  0  0  0  0  0
    2.8460   39.8280   28.9530 N   0  0  0  0  0  0  0  0  0  0  0  0
    1.4730   39.8730   28.4410 C   0  0  2  0  0  0  0  0  0  0  0  0
    1.3960   39.7970   26.9190 C   0  0  0  0  0  0  0  0  0  0  0  0
    0.3120   39.9060   26.3500 O   0  0  0  0  0  0  0  0  0  0  0  0
    0.7310   41.1200   28.9550 C   0  0  0  0  0  0  0  0  0  0  0  0
    1.5250   42.4020   28.7790 C   0  0  0  0  0  0  0  0  0  0  0  0
    2.3410   42.4920   27.8300 O   0  0  0  0  0  0  0  0  0  0  0  0
    1.3220   43.3250   29.5980 O   0  0  0  0  0  0  0  0  0  0  0  0
    2.5420   39.6350   26.2570 N   0  0  0  0  0  0  0  0  0  0  0  0
    2.5810   39.5570   24.7980 C   0  0  0  0  0  0  0  0  0  0  0  0
    2.7850   40.8690   24.0600 C   0  0  0  0  0  0  0  0  0  0  0  0
    2.8710   40.8590   22.8340 O   0  0  0  0  0  0  0  0  0  0  0  0
    2.8720   41.9880   24.7820 N   0  0  0  0  0  0  0  0  0  0  0  0
    3.0330   43.3040   24.1450 C   0  0  2  0  0  0  0  0  0  0  0  0
    4.4980   43.6410   23.7930 C   0  0  0  0  0  0  0  0  0  0  0  0
    5.4310   43.3690   24.5580 O   0  0  0  0  0  0  0  0  0  0  0  0
    2.4410   44.4470   24.9790 C   0  0  2  0  0  0  0  0  0  0  0  0
    3.0510   44.4660   26.2730 O   0  0  0  0  0  0  0  0  0  0  0  0
    0.9360   44.2860   25.1250 C   0  0  0  0  0  0  0  0  0  0  0  0
    4.6780   44.2610   22.6310 N   0  0  0  0  0  0  0  0  0  0  0  0
    6.0050   44.5480   22.1160 C   0  0  2  0  0  0  0  0  0  0  0  0
    6.2570   46.0560   22.1480 C   0  0  0  0  0  0  0  0  0  0  0  0
    5.3900   46.8550   21.7670 O   0  0  0  0  0  0  0  0  0  0  0  0
    6.1690   43.9890   20.6790 C   0  0  0  0  0  0  0  0  0  0  0  0
    7.4880   44.4170   20.0810 C   0  0  0  0  0  0  0  0  0  0  0  0
    6.0560   42.4600   20.6650 C   0  0  0  0  0  0  0  0  0  0  0  0
    7.4360   46.4380   22.6350 N   0  0  0  0  0  0  0  0  0  0  0  0
    7.9150   47.7880   22.4840 C   0  0  0  0  0  0  0  0  0  0  0  0
    5.3740   37.8053   29.6959 H   0  0  0  0  0  0  0  0  0  0  0  0
    5.0237   39.3119   30.5085 H   0  0  0  0  0  0  0  0  0  0  0  0
    5.5206   39.3178   28.8334 H   0  0  0  0  0  0  0  0  0  0  0  0
    3.3017   40.6747   29.1642 H   0  0  0  0  0  0  0  0  0  0  0  0
    0.9879   38.9971   28.8184 H   0  0  0  0  0  0  0  0  0  0  0  0
    0.5246   40.9879   29.9966 H   0  0  0  0  0  0  0  0  0  0  0  0
   -0.1645   41.2182   28.3776 H   0  0  0  0  0  0  0  0  0  0  0  0
    3.3832   39.5662   26.7638 H   0  0  0  0  0  0  0  0  0  0  0  0
    3.3832   38.9026   24.5277 H   0  0  0  0  0  0  0  0  0  0  0  0
    1.6118   39.2117   24.5043 H   0  0  0  0  0  0  0  0  0  0  0  0
    2.8274   41.9313   25.7639 H   0  0  0  0  0  0  0  0  0  0  0  0
    2.4805   43.2202   23.2325 H   0  0  0  0  0  0  0  0  0  0  0  0
    2.6366   45.3707   24.4755 H   0  0  0  0  0  0  0  0  0  0  0  0
    2.8722   43.6277   26.7271 H   0  0  0  0  0  0  0  0  0  0  0  0
    0.7228   43.3657   25.6274 H   0  0  0  0  0  0  0  0  0  0  0  0
    0.4826   44.2766   24.1558 H   0  0  0  0  0  0  0  0  0  0  0  0
    0.5435   45.1024   25.6945 H   0  0  0  0  0  0  0  0  0  0  0  0
    3.8909   44.5327   22.1058 H   0  0  0  0  0  0  0  0  0  0  0  0
    6.7303   44.0655   22.7374 H   0  0  0  0  0  0  0  0  0  0  0  0
    5.3768   44.3923   20.0835 H   0  0  0  0  0  0  0  0  0  0  0  0
    8.2907   44.0204   20.6669 H   0  0  0  0  0  0  0  0  0  0  0  0
    7.5461   45.4854   20.0732 H   0  0  0  0  0  0  0  0  0  0  0  0
    7.5617   44.0485   19.0792 H   0  0  0  0  0  0  0  0  0  0  0  0
    6.8418   42.0389   21.2566 H   0  0  0  0  0  0  0  0  0  0  0  0
    6.1379   42.1055   19.6588 H   0  0  0  0  0  0  0  0  0  0  0  0
    5.1094   42.1686   21.0699 H   0  0  0  0  0  0  0  0  0  0  0  0
    7.9944   45.7811   23.1103 H   0  0  0  0  0  0  0  0  0  0  0  0
    7.1911   48.3654   21.9479 H   0  0  0  0  0  0  0  0  0  0  0  0
    8.8376   47.7806   21.9421 H   0  0  0  0  0  0  0  0  0  0  0  0
    8.0722   48.2208   23.4499 H   0  0  0  0  0  0  0  0  0  0  0  0
  1 32  1  0  0  0  0
  1 33  1  0  0  0  0
  1 34  1  0  0  0  0
  2  1  1  0  0  0  0
  3  2  2  0  0  0  0
  4  2  1  0  0  0  0
  4 35  1  0  0  0  0
  5  4  1  0  0  0  0
  5  8  1  0  0  0  0
  5 36  1  1  0  0  0
  6  5  1  0  0  0  0
  7  6  2  0  0  0  0
  8 37  1  0  0  0  0
  8 38  1  0  0  0  0
  9  8  1  0  0  0  0
  9 11  1  0  0  0  0
 10  9  2  0  0  0  0
 12  6  1  0  0  0  0
 12 39  1  0  0  0  0
 13 12  1  0  0  0  0
 13 40  1  0  0  0  0
 13 41  1  0  0  0  0
 14 16  1  0  0  0  0
 14 13  1  0  0  0  0
 15 14  2  0  0  0  0
 16 42  1  0  0  0  0
 17 16  1  0  0  0  0
 17 20  1  0  0  0  0
 17 43  1  6  0  0  0
 18 17  1  0  0  0  0
 18 19  2  0  0  0  0
 20 22  1  0  0  0  0
 20 21  1  0  0  0  0
 20 44  1  6  0  0  0
 21 45  1  0  0  0  0
 22 46  1  0  0  0  0
 22 47  1  0  0  0  0
 22 48  1  0  0  0  0
 23 18  1  0  0  0  0
 23 49  1  0  0  0  0
 24 25  1  0  0  0  0
 24 23  1  0  0  0  0
 24 50  1  1  0  0  0
 25 30  1  0  0  0  0
 26 25  2  0  0  0  0
 27 24  1  0  0  0  0
 27 51  1  0  0  0  0
 28 27  1  0  0  0  0
 28 52  1  0  0  0  0
 28 53  1  0  0  0  0
 28 54  1  0  0  0  0
 29 27  1  0  0  0  0
 29 55  1  0  0  0  0
 29 56  1  0  0  0  0
 29 57  1  0  0  0  0
 30 58  1  0  0  0  0
 31 30  1  0  0  0  0
 31 59  1  0  0  0  0
 31 60  1  0  0  0  0
 31 61  1  0  0  0  0
M  CHG  1  11  -1
M  END
>  <MODEL>
       0

$$$$
selected_4mers/DGTV/518_noH.pdb
 OpenBabel03042518173D

 61 60  0  0  1  0  0  0  0  0999 V2000
    5.5930   48.9740   69.1250 C   0  0  0  0  0  0  0  0  0  0  0  0
    6.1330   49.2140   70.5320 C   0  0  0  0  0  0  0  0  0  0  0  0
    7.3380   49.1950   70.7420 O   0  0  0  0  0  0  0  0  0  0  0  0
    5.2340   49.4300   71.4910 N   0  0  0  0  0  0  0  0  0  0  0  0
    5.6200   49.4960   72.8980 C   0  0  2  0  0  0  0  0  0  0  0  0
    6.2590   48.1850   73.3670 C   0  0  0  0  0  0  0  0  0  0  0  0
    5.9930   47.1170   72.8160 O   0  0  0  0  0  0  0  0  0  0  0  0
    4.4050   49.8140   73.7690 C   0  0  0  0  0  0  0  0  0  0  0  0
    3.8740   51.2180   73.5420 C   0  0  0  0  0  0  0  0  0  0  0  0
    4.5810   52.0350   72.9080 O   0  0  0  0  0  0  0  0  0  0  0  0
    2.7480   51.5070   74.0020 O   0  0  0  0  0  0  0  0  0  0  0  0
    7.0770   48.2670   74.4100 N   0  0  0  0  0  0  0  0  0  0  0  0
    7.7860   47.1030   74.9160 C   0  0  0  0  0  0  0  0  0  0  0  0
    6.9140   45.9850   75.4630 C   0  0  0  0  0  0  0  0  0  0  0  0
    7.3670   44.8480   75.5810 O   0  0  0  0  0  0  0  0  0  0  0  0
    5.6660   46.3040   75.7940 N   0  0  0  0  0  0  0  0  0  0  0  0
    4.7250   45.3280   76.3400 C   0  0  2  0  0  0  0  0  0  0  0  0
    3.9780   44.5280   75.2680 C   0  0  0  0  0  0  0  0  0  0  0  0
    3.2340   43.5990   75.5800 O   0  0  0  0  0  0  0  0  0  0  0  0
    3.6600   46.0360   77.1910 C   0  0  2  0  0  0  0  0  0  0  0  0
    3.0770   47.0950   76.4200 O   0  0  0  0  0  0  0  0  0  0  0  0
    4.2830   46.6160   78.4520 C   0  0  0  0  0  0  0  0  0  0  0  0
    4.1610   44.8950   74.0070 N   0  0  0  0  0  0  0  0  0  0  0  0
    3.4550   44.2300   72.9130 C   0  0  2  0  0  0  0  0  0  0  0  0
    4.0490   42.8560   72.5930 C   0  0  0  0  0  0  0  0  0  0  0  0
    5.2640   42.6850   72.6100 O   0  0  0  0  0  0  0  0  0  0  0  0
    3.4860   45.0970   71.6340 C   0  0  0  0  0  0  0  0  0  0  0  0
    2.9880   44.2970   70.4320 C   0  0  0  0  0  0  0  0  0  0  0  0
    2.6630   46.3630   71.8330 C   0  0  0  0  0  0  0  0  0  0  0  0
    3.1940   41.8790   72.3030 N   0  0  0  0  0  0  0  0  0  0  0  0
    3.6750   40.5860   71.8080 C   0  0  0  0  0  0  0  0  0  0  0  0
    6.4094   48.8147   68.4520 H   0  0  0  0  0  0  0  0  0  0  0  0
    5.0310   49.8276   68.8082 H   0  0  0  0  0  0  0  0  0  0  0  0
    4.9600   48.1114   69.1283 H   0  0  0  0  0  0  0  0  0  0  0  0
    4.2879   49.5478   71.2457 H   0  0  0  0  0  0  0  0  0  0  0  0
    6.3442   50.2775   72.9965 H   0  0  0  0  0  0  0  0  0  0  0  0
    4.6854   49.7159   74.7969 H   0  0  0  0  0  0  0  0  0  0  0  0
    3.6283   49.1275   73.5040 H   0  0  0  0  0  0  0  0  0  0  0  0
    7.2065   49.1374   74.8514 H   0  0  0  0  0  0  0  0  0  0  0  0
    8.4337   47.4292   75.7027 H   0  0  0  0  0  0  0  0  0  0  0  0
    8.2996   46.6865   74.0747 H   0  0  0  0  0  0  0  0  0  0  0  0
    5.3647   47.2325   75.6664 H   0  0  0  0  0  0  0  0  0  0  0  0
    5.3222   44.6536   76.9174 H   0  0  0  0  0  0  0  0  0  0  0  0
    2.9106   45.3267   77.4740 H   0  0  0  0  0  0  0  0  0  0  0  0
    3.7661   47.7303   76.1702 H   0  0  0  0  0  0  0  0  0  0  0  0
    5.0352   47.3279   78.1832 H   0  0  0  0  0  0  0  0  0  0  0  0
    4.7257   45.8287   79.0257 H   0  0  0  0  0  0  0  0  0  0  0  0
    3.5262   47.0993   79.0339 H   0  0  0  0  0  0  0  0  0  0  0  0
    4.7843   45.6294   73.8035 H   0  0  0  0  0  0  0  0  0  0  0  0
    2.4450   44.0960   73.2399 H   0  0  0  0  0  0  0  0  0  0  0  0
    4.4974   45.3863   71.4386 H   0  0  0  0  0  0  0  0  0  0  0  0
    1.9758   43.9936   70.6001 H   0  0  0  0  0  0  0  0  0  0  0  0
    3.6027   43.4311   70.3004 H   0  0  0  0  0  0  0  0  0  0  0  0
    3.0366   44.9058   69.5534 H   0  0  0  0  0  0  0  0  0  0  0  0
    1.6450   46.0993   72.0304 H   0  0  0  0  0  0  0  0  0  0  0  0
    2.7110   46.9624   70.9479 H   0  0  0  0  0  0  0  0  0  0  0  0
    3.0549   46.9168   72.6605 H   0  0  0  0  0  0  0  0  0  0  0  0
    2.2279   42.0260   72.4221 H   0  0  0  0  0  0  0  0  0  0  0  0
    4.7427   40.6046   71.7410 H   0  0  0  0  0  0  0  0  0  0  0  0
    3.2601   40.3980   70.8398 H   0  0  0  0  0  0  0  0  0  0  0  0
    3.3733   39.8115   72.4818 H   0  0  0  0  0  0  0  0  0  0  0  0
  1  2  1  0  0  0  0
  1 32  1  0  0  0  0
  1 33  1  0  0  0  0
  1 34  1  0  0  0  0
  2  3  2  0  0  0  0
  2  4  1  0  0  0  0
  4  5  1  0  0  0  0
  4 35  1  0  0  0  0
  5  6  1  0  0  0  0
  5  8  1  0  0  0  0
  5 36  1  1  0  0  0
  6 12  1  0  0  0  0
  7  6  2  0  0  0  0
  8 37  1  0  0  0  0
  8 38  1  0  0  0  0
  9  8  1  0  0  0  0
  9 11  1  0  0  0  0
 10  9  2  0  0  0  0
 12 13  1  0  0  0  0
 12 39  1  0  0  0  0
 13 14  1  0  0  0  0
 13 40  1  0  0  0  0
 13 41  1  0  0  0  0
 14 15  2  0  0  0  0
 14 16  1  0  0  0  0
 16 17  1  0  0  0  0
 16 42  1  0  0  0  0
 17 20  1  0  0  0  0
 17 43  1  1  0  0  0
 18 19  2  0  0  0  0
 18 17  1  0  0  0  0
 20 22  1  0  0  0  0
 20 44  1  1  0  0  0
 21 20  1  0  0  0  0
 21 45  1  0  0  0  0
 22 46  1  0  0  0  0
 22 47  1  0  0  0  0
 22 48  1  0  0  0  0
 23 18  1  0  0  0  0
 23 49  1  0  0  0  0
 24 23  1  0  0  0  0
 24 50  1  1  0  0  0
 25 26  2  0  0  0  0
 25 24  1  0  0  0  0
 27 29  1  0  0  0  0
 27 24  1  0  0  0  0
 27 51  1  0  0  0  0
 28 27  1  0  0  0  0
 28 52  1  0  0  0  0
 28 53  1  0  0  0  0
 28 54  1  0  0  0  0
 29 55  1  0  0  0  0
 29 56  1  0  0  0  0
 29 57  1  0  0  0  0
 30 25  1  0  0  0  0
 30 58  1  0  0  0  0
 31 30  1  0  0  0  0
 31 59  1  0  0  0  0
 31 60  1  0  0  0  0
 31 61  1  0  0  0  0
M  CHG  1  11  -1
M  END
>  <MODEL>
       0

$$$$
selected_4mers/DGTV/519_noH.pdb
 OpenBabel03042518173D

 61 60  0  0  1  0  0  0  0  0999 V2000
   41.3390    2.9600   -0.3240 C   0  0  0  0  0  0  0  0  0  0  0  0
   41.7000    2.6980    1.1380 C   0  0  0  0  0  0  0  0  0  0  0  0
   40.8800    2.8970    2.0350 O   0  0  0  0  0  0  0  0  0  0  0  0
   42.9000    2.1850    1.3560 N   0  0  0  0  0  0  0  0  0  0  0  0
   43.3680    1.8080    2.6860 C   0  0  2  0  0  0  0  0  0  0  0  0
   42.3050    0.9610    3.4100 C   0  0  0  0  0  0  0  0  0  0  0  0
   41.9640    1.2150    4.5580 O   0  0  0  0  0  0  0  0  0  0  0  0
   43.7290    3.0470    3.5010 C   0  0  0  0  0  0  0  0  0  0  0  0
   44.9370    3.7710    2.9660 C   0  0  0  0  0  0  0  0  0  0  0  0
   45.6140    3.2610    2.0530 O   0  0  0  0  0  0  0  0  0  0  0  0
   45.2270    4.8610    3.5030 O   0  0  0  0  0  0  0  0  0  0  0  0
   41.7570   -0.0270    2.7040 N   0  0  0  0  0  0  0  0  0  0  0  0
   40.7900   -0.9530    3.3030 C   0  0  0  0  0  0  0  0  0  0  0  0
   39.3450   -0.4920    3.3650 C   0  0  0  0  0  0  0  0  0  0  0  0
   38.5080   -1.1230    4.0230 O   0  0  0  0  0  0  0  0  0  0  0  0
   39.0450    0.6050    2.6740 N   0  0  0  0  0  0  0  0  0  0  0  0
   37.7030    1.2080    2.7240 C   0  0  2  0  0  0  0  0  0  0  0  0
   37.1300    1.3900    1.3120 C   0  0  0  0  0  0  0  0  0  0  0  0
   37.8370    1.7800    0.3770 O   0  0  0  0  0  0  0  0  0  0  0  0
   37.7180    2.5920    3.4470 C   0  0  2  0  0  0  0  0  0  0  0  0
   38.2790    3.6050    2.5940 O   0  0  0  0  0  0  0  0  0  0  0  0
   38.4400    2.5180    4.7820 C   0  0  0  0  0  0  0  0  0  0  0  0
   35.8480    1.0510    1.1650 N   0  0  0  0  0  0  0  0  0  0  0  0
   35.0830    1.3360   -0.0460 C   0  0  2  0  0  0  0  0  0  0  0  0
   33.8190    2.0510    0.3980 C   0  0  0  0  0  0  0  0  0  0  0  0
   33.0400    1.5000    1.1950 O   0  0  0  0  0  0  0  0  0  0  0  0
   34.7230    0.0820   -0.8510 C   0  0  0  0  0  0  0  0  0  0  0  0
   34.0050    0.4700   -2.1460 C   0  0  0  0  0  0  0  0  0  0  0  0
   35.9860   -0.7600   -1.1440 C   0  0  0  0  0  0  0  0  0  0  0  0
   33.6620    3.2890   -0.0710 N   0  0  0  0  0  0  0  0  0  0  0  0
   32.4660    4.0750    0.2180 C   0  0  0  0  0  0  0  0  0  0  0  0
   42.1785    2.7284   -0.9457 H   0  0  0  0  0  0  0  0  0  0  0  0
   41.0770    3.9900   -0.4476 H   0  0  0  0  0  0  0  0  0  0  0  0
   40.5088    2.3450   -0.6021 H   0  0  0  0  0  0  0  0  0  0  0  0
   43.5025    2.0520    0.5888 H   0  0  0  0  0  0  0  0  0  0  0  0
   44.2519    1.2144    2.5801 H   0  0  0  0  0  0  0  0  0  0  0  0
   43.9298    2.7463    4.5081 H   0  0  0  0  0  0  0  0  0  0  0  0
   42.9000    3.7210    3.4436 H   0  0  0  0  0  0  0  0  0  0  0  0
   42.0069   -0.1382    1.7583 H   0  0  0  0  0  0  0  0  0  0  0  0
   41.1095   -1.1505    4.3049 H   0  0  0  0  0  0  0  0  0  0  0  0
   40.7832   -1.8057    2.6567 H   0  0  0  0  0  0  0  0  0  0  0  0
   39.7385    1.0241    2.1149 H   0  0  0  0  0  0  0  0  0  0  0  0
   37.0836    0.5350    3.2792 H   0  0  0  0  0  0  0  0  0  0  0  0
   36.7050    2.8651    3.6572 H   0  0  0  0  0  0  0  0  0  0  0  0
   39.1999    3.3805    2.3879 H   0  0  0  0  0  0  0  0  0  0  0  0
   39.4622    2.2465    4.6201 H   0  0  0  0  0  0  0  0  0  0  0  0
   37.9697    1.7833    5.4016 H   0  0  0  0  0  0  0  0  0  0  0  0
   38.3965    3.4721    5.2644 H   0  0  0  0  0  0  0  0  0  0  0  0
   35.3969    0.5873    1.9071 H   0  0  0  0  0  0  0  0  0  0  0  0
   35.6811    1.9329   -0.7025 H   0  0  0  0  0  0  0  0  0  0  0  0
   34.0574   -0.5197   -0.2680 H   0  0  0  0  0  0  0  0  0  0  0  0
   34.6533    1.0736   -2.7462 H   0  0  0  0  0  0  0  0  0  0  0  0
   33.1194    1.0227   -1.9110 H   0  0  0  0  0  0  0  0  0  0  0  0
   33.7403   -0.4150   -2.6860 H   0  0  0  0  0  0  0  0  0  0  0  0
   36.6722   -0.1825   -1.7275 H   0  0  0  0  0  0  0  0  0  0  0  0
   35.7100   -1.6403   -1.6859 H   0  0  0  0  0  0  0  0  0  0  0  0
   36.4500   -1.0399   -0.2214 H   0  0  0  0  0  0  0  0  0  0  0  0
   34.3718    3.6840   -0.6273 H   0  0  0  0  0  0  0  0  0  0  0  0
   31.8015    3.5014    0.8299 H   0  0  0  0  0  0  0  0  0  0  0  0
   31.9764    4.3296   -0.6987 H   0  0  0  0  0  0  0  0  0  0  0  0
   32.7436    4.9699    0.7346 H   0  0  0  0  0  0  0  0  0  0  0  0
  1  2  1  0  0  0  0
  1 32  1  0  0  0  0
  1 33  1  0  0  0  0
  1 34  1  0  0  0  0
  2  4  1  0  0  0  0
  2  3  2  0  0  0  0
  4  5  1  0  0  0  0
  4 35  1  0  0  0  0
  5  6  1  0  0  0  0
  5  8  1  0  0  0  0
  5 36  1  6  0  0  0
  6  7  2  0  0  0  0
  8 37  1  0  0  0  0
  8 38  1  0  0  0  0
  9  8  1  0  0  0  0
  9 11  1  0  0  0  0
 10  9  2  0  0  0  0
 12 13  1  0  0  0  0
 12  6  1  0  0  0  0
 12 39  1  0  0  0  0
 13 14  1  0  0  0  0
 13 40  1  0  0  0  0
 13 41  1  0  0  0  0
 14 15  2  0  0  0  0
 16 17  1  0  0  0  0
 16 14  1  0  0  0  0
 16 42  1  0  0  0  0
 17 20  1  0  0  0  0
 17 43  1  1  0  0  0
 18 17  1  0  0  0  0
 19 18  2  0  0  0  0
 20 22  1  0  0  0  0
 20 44  1  1  0  0  0
 21 20  1  0  0  0  0
 21 45  1  0  0  0  0
 22 46  1  0  0  0  0
 22 47  1  0  0  0  0
 22 48  1  0  0  0  0
 23 18  1  0  0  0  0
 23 49  1  0  0  0  0
 24 25  1  0  0  0  0
 24 23  1  0  0  0  0
 24 50  1  6  0  0  0
 25 26  2  0  0  0  0
 27 24  1  0  0  0  0
 27 51  1  0  0  0  0
 28 27  1  0  0  0  0
 28 52  1  0  0  0  0
 28 53  1  0  0  0  0
 28 54  1  0  0  0  0
 29 27  1  0  0  0  0
 29 55  1  0  0  0  0
 29 56  1  0  0  0  0
 29 57  1  0  0  0  0
 30 31  1  0  0  0  0
 30 25  1  0  0  0  0
 30 58  1  0  0  0  0
 31 59  1  0  0  0  0
 31 60  1  0  0  0  0
 31 61  1  0  0  0  0
M  CHG  1  11  -1
M  END
>  <MODEL>
       0

$$$$
