selected_4mers/DVVA/665_noH.pdb
 OpenBabel03042518233D

 66 65  0  0  1  0  0  0  0  0999 V2000
   47.6260   10.3360   40.8500 C   0  0  0  0  0  0  0  0  0  0  0  0
   47.0130    9.6000   42.0390 C   0  0  0  0  0  0  0  0  0  0  0  0
   45.7940    9.6390   42.2360 O   0  0  0  0  0  0  0  0  0  0  0  0
   47.8440    8.9240   42.8280 N   0  0  0  0  0  0  0  0  0  0  0  0
   47.3400    8.2050   44.0050 C   0  0  2  0  0  0  0  0  0  0  0  0
   46.7610    9.1810   45.0250 C   0  0  0  0  0  0  0  0  0  0  0  0
   45.7730    8.8790   45.6950 O   0  0  0  0  0  0  0  0  0  0  0  0
   48.4390    7.3710   44.6660 C   0  0  0  0  0  0  0  0  0  0  0  0
   48.9020    6.2140   43.7980 C   0  0  0  0  0  0  0  0  0  0  0  0
   48.1760    5.8480   42.8480 O   0  0  0  0  0  0  0  0  0  0  0  0
   49.9950    5.6700   44.0700 O   0  0  0  0  0  0  0  0  0  0  0  0
   47.3790   10.3510   45.1490 N   0  0  0  0  0  0  0  0  0  0  0  0
   46.8590   11.3500   46.0750 C   0  0  2  0  0  0  0  0  0  0  0  0
   45.4790   11.8600   45.6440 C   0  0  0  0  0  0  0  0  0  0  0  0
   44.5750   12.0100   46.4720 O   0  0  0  0  0  0  0  0  0  0  0  0
   47.8340   12.5150   46.2550 C   0  0  0  0  0  0  0  0  0  0  0  0
   47.1470   13.6830   46.9470 C   0  0  0  0  0  0  0  0  0  0  0  0
   49.0530   12.0460   47.0420 C   0  0  0  0  0  0  0  0  0  0  0  0
   45.3160   12.1220   44.3510 N   0  0  0  0  0  0  0  0  0  0  0  0
   44.0130   12.5220   43.8230 C   0  0  2  0  0  0  0  0  0  0  0  0
   42.9440   11.4850   44.1580 C   0  0  0  0  0  0  0  0  0  0  0  0
   41.8410   11.8380   44.5790 O   0  0  0  0  0  0  0  0  0  0  0  0
   44.0490   12.7310   42.3010 C   0  0  0  0  0  0  0  0  0  0  0  0
   42.6410   12.9150   41.7460 C   0  0  0  0  0  0  0  0  0  0  0  0
   44.9310   13.9270   41.9600 C   0  0  0  0  0  0  0  0  0  0  0  0
   43.2650   10.2060   43.9710 N   0  0  0  0  0  0  0  0  0  0  0  0
   42.3040    9.1490   44.2980 C   0  0  2  0  0  0  0  0  0  0  0  0
   41.9130    9.1780   45.7700 C   0  0  0  0  0  0  0  0  0  0  0  0
   40.7500    8.9680   46.1080 O   0  0  0  0  0  0  0  0  0  0  0  0
   42.8490    7.7810   43.9200 C   0  0  0  0  0  0  0  0  0  0  0  0
   42.8820    9.4240   46.6490 N   0  0  0  0  0  0  0  0  0  0  0  0
   42.5880    9.4890   48.0800 C   0  0  0  0  0  0  0  0  0  0  0  0
   46.8537   10.8347   40.3025 H   0  0  0  0  0  0  0  0  0  0  0  0
   48.1192    9.6333   40.2113 H   0  0  0  0  0  0  0  0  0  0  0  0
   48.3347   11.0557   41.2029 H   0  0  0  0  0  0  0  0  0  0  0  0
   48.8063    8.9056   42.6207 H   0  0  0  0  0  0  0  0  0  0  0  0
   46.5689    7.5447   43.6670 H   0  0  0  0  0  0  0  0  0  0  0  0
   49.2770    8.0059   44.8650 H   0  0  0  0  0  0  0  0  0  0  0  0
   48.0326    6.9569   45.5650 H   0  0  0  0  0  0  0  0  0  0  0  0
   48.1852   10.5425   44.6174 H   0  0  0  0  0  0  0  0  0  0  0  0
   46.7477   10.8648   47.0222 H   0  0  0  0  0  0  0  0  0  0  0  0
   48.1600   12.8545   45.2941 H   0  0  0  0  0  0  0  0  0  0  0  0
   46.8080   13.3753   47.9141 H   0  0  0  0  0  0  0  0  0  0  0  0
   46.3108   14.0029   46.3611 H   0  0  0  0  0  0  0  0  0  0  0  0
   47.8391   14.4922   47.0524 H   0  0  0  0  0  0  0  0  0  0  0  0
   48.7440   11.7026   48.0071 H   0  0  0  0  0  0  0  0  0  0  0  0
   49.7388   12.8594   47.1556 H   0  0  0  0  0  0  0  0  0  0  0  0
   49.5316   11.2468   46.5155 H   0  0  0  0  0  0  0  0  0  0  0  0
   46.0842   12.0455   43.7400 H   0  0  0  0  0  0  0  0  0  0  0  0
   43.7684   13.4531   44.2900 H   0  0  0  0  0  0  0  0  0  0  0  0
   44.4670   11.8584   41.8441 H   0  0  0  0  0  0  0  0  0  0  0  0
   42.1950   13.7827   42.1854 H   0  0  0  0  0  0  0  0  0  0  0  0
   42.0504   12.0537   41.9789 H   0  0  0  0  0  0  0  0  0  0  0  0
   42.6894   13.0378   40.6842 H   0  0  0  0  0  0  0  0  0  0  0  0
   44.5257   14.8090   42.4104 H   0  0  0  0  0  0  0  0  0  0  0  0
   44.9664   14.0528   40.8980 H   0  0  0  0  0  0  0  0  0  0  0  0
   45.9199   13.7586   42.3323 H   0  0  0  0  0  0  0  0  0  0  0  0
   44.1508    9.9699   43.6119 H   0  0  0  0  0  0  0  0  0  0  0  0
   41.4216    9.3348   43.7220 H   0  0  0  0  0  0  0  0  0  0  0  0
   43.7330    7.5798   44.4883 H   0  0  0  0  0  0  0  0  0  0  0  0
   43.0850    7.7670   42.8764 H   0  0  0  0  0  0  0  0  0  0  0  0
   42.1126    7.0334   44.1292 H   0  0  0  0  0  0  0  0  0  0  0  0
   43.8040    9.5633   46.3331 H   0  0  0  0  0  0  0  0  0  0  0  0
   41.5441    9.3149   48.2379 H   0  0  0  0  0  0  0  0  0  0  0  0
   42.8487   10.4570   48.4541 H   0  0  0  0  0  0  0  0  0  0  0  0
   43.1560    8.7427   48.5951 H   0  0  0  0  0  0  0  0  0  0  0  0
  1  2  1  0  0  0  0
  1 33  1  0  0  0  0
  1 34  1  0  0  0  0
  1 35  1  0  0  0  0
  2  3  2  0  0  0  0
  2  4  1  0  0  0  0
  4  5  1  0  0  0  0
  4 36  1  0  0  0  0
  5  8  1  0  0  0  0
  5  6  1  0  0  0  0
  5 37  1  6  0  0  0
  6 12  1  0  0  0  0
  6  7  2  0  0  0  0
  8 38  1  0  0  0  0
  8 39  1  0  0  0  0
  9 11  1  0  0  0  0
  9  8  1  0  0  0  0
 10  9  2  0  0  0  0
 12 13  1  0  0  0  0
 12 40  1  0  0  0  0
 13 16  1  0  0  0  0
 13 41  1  1  0  0  0
 14 13  1  0  0  0  0
 14 15  2  0  0  0  0
 16 17  1  0  0  0  0
 16 18  1  0  0  0  0
 16 42  1  0  0  0  0
 17 43  1  0  0  0  0
 17 44  1  0  0  0  0
 17 45  1  0  0  0  0
 18 46  1  0  0  0  0
 18 47  1  0  0  0  0
 18 48  1  0  0  0  0
 19 14  1  0  0  0  0
 19 49  1  0  0  0  0
 20 21  1  0  0  0  0
 20 19  1  0  0  0  0
 20 50  1  1  0  0  0
 21 22  2  0  0  0  0
 23 20  1  0  0  0  0
 23 51  1  0  0  0  0
 24 23  1  0  0  0  0
 24 52  1  0  0  0  0
 24 53  1  0  0  0  0
 24 54  1  0  0  0  0
 25 23  1  0  0  0  0
 25 55  1  0  0  0  0
 25 56  1  0  0  0  0
 25 57  1  0  0  0  0
 26 21  1  0  0  0  0
 26 27  1  0  0  0  0
 26 58  1  0  0  0  0
 27 28  1  0  0  0  0
 27 59  1  6  0  0  0
 28 29  2  0  0  0  0
 28 31  1  0  0  0  0
 30 27  1  0  0  0  0
 30 60  1  0  0  0  0
 30 61  1  0  0  0  0
 30 62  1  0  0  0  0
 31 32  1  0  0  0  0
 31 63  1  0  0  0  0
 32 64  1  0  0  0  0
 32 65  1  0  0  0  0
 32 66  1  0  0  0  0
M  CHG  1  11  -1
M  END
>  <MODEL>
       0

$$$$
selected_4mers/DVVA/666_noH.pdb
 OpenBabel03042518233D

 66 65  0  0  1  0  0  0  0  0999 V2000
   43.8000   92.3910  -32.0370 C   0  0  0  0  0  0  0  0  0  0  0  0
   42.8120   92.4300  -33.1990 C   0  0  0  0  0  0  0  0  0  0  0  0
   41.9440   93.3090  -33.2480 O   0  0  0  0  0  0  0  0  0  0  0  0
   42.9390   91.4500  -34.0940 N   0  0  0  0  0  0  0  0  0  0  0  0
   42.1300   91.3470  -35.3050 C   0  0  2  0  0  0  0  0  0  0  0  0
   41.2400   90.1150  -35.3790 C   0  0  0  0  0  0  0  0  0  0  0  0
   40.4040   90.0530  -36.2740 O   0  0  0  0  0  0  0  0  0  0  0  0
   43.0160   91.3550  -36.5540 C   0  0  0  0  0  0  0  0  0  0  0  0
   43.7730   92.6660  -36.7550 C   0  0  0  0  0  0  0  0  0  0  0  0
   43.5100   93.6610  -36.0420 O   0  0  0  0  0  0  0  0  0  0  0  0
   44.6650   92.6780  -37.6320 O   0  0  0  0  0  0  0  0  0  0  0  0
   41.4020   89.1590  -34.4670 N   0  0  0  0  0  0  0  0  0  0  0  0
   40.6460   87.8870  -34.4810 C   0  0  2  0  0  0  0  0  0  0  0  0
   40.9120   87.1410  -35.8170 C   0  0  0  0  0  0  0  0  0  0  0  0
   40.0320   86.5280  -36.4150 O   0  0  0  0  0  0  0  0  0  0  0  0
   39.1070   88.0780  -34.2340 C   0  0  0  0  0  0  0  0  0  0  0  0
   38.4960   86.7940  -33.6660 C   0  0  0  0  0  0  0  0  0  0  0  0
   38.8330   89.2270  -33.2570 C   0  0  0  0  0  0  0  0  0  0  0  0
   42.1520   87.2090  -36.2810 N   0  0  0  0  0  0  0  0  0  0  0  0
   42.6000   86.6010  -37.5400 C   0  0  2  0  0  0  0  0  0  0  0  0
   43.6810   85.5460  -37.2830 C   0  0  0  0  0  0  0  0  0  0  0  0
   44.5360   85.7330  -36.4180 O   0  0  0  0  0  0  0  0  0  0  0  0
   43.1360   87.7670  -38.4520 C   0  0  0  0  0  0  0  0  0  0  0  0
   44.0710   87.3240  -39.5430 C   0  0  0  0  0  0  0  0  0  0  0  0
   41.9280   88.5650  -39.0050 C   0  0  0  0  0  0  0  0  0  0  0  0
   43.5980   84.4230  -37.9960 N   0  0  0  0  0  0  0  0  0  0  0  0
   44.6350   83.3820  -37.9870 C   0  0  2  0  0  0  0  0  0  0  0  0
   45.6680   83.7730  -39.0480 C   0  0  0  0  0  0  0  0  0  0  0  0
   45.6810   83.2710  -40.1800 O   0  0  0  0  0  0  0  0  0  0  0  0
   44.0430   82.0250  -38.2600 C   0  0  0  0  0  0  0  0  0  0  0  0
   46.5380   84.7040  -38.6640 N   0  0  0  0  0  0  0  0  0  0  0  0
   47.5320   85.2640  -39.5700 C   0  0  0  0  0  0  0  0  0  0  0  0
   44.4703   91.5670  -32.1662 H   0  0  0  0  0  0  0  0  0  0  0  0
   43.2650   92.2748  -31.1177 H   0  0  0  0  0  0  0  0  0  0  0  0
   44.3576   93.3039  -32.0122 H   0  0  0  0  0  0  0  0  0  0  0  0
   43.6173   90.7559  -33.9288 H   0  0  0  0  0  0  0  0  0  0  0  0
   41.4904   92.2039  -35.2644 H   0  0  0  0  0  0  0  0  0  0  0  0
   43.7290   90.5618  -36.4686 H   0  0  0  0  0  0  0  0  0  0  0  0
   42.3708   91.2313  -37.3986 H   0  0  0  0  0  0  0  0  0  0  0  0
   42.0575   89.3055  -33.7472 H   0  0  0  0  0  0  0  0  0  0  0  0
   40.9979   87.2953  -33.6619 H   0  0  0  0  0  0  0  0  0  0  0  0
   38.6608   88.3116  -35.1780 H   0  0  0  0  0  0  0  0  0  0  0  0
   38.9492   86.5702  -32.7229 H   0  0  0  0  0  0  0  0  0  0  0  0
   38.6689   85.9858  -34.3455 H   0  0  0  0  0  0  0  0  0  0  0  0
   37.4429   86.9288  -33.5326 H   0  0  0  0  0  0  0  0  0  0  0  0
   39.2757   89.0024  -32.3091 H   0  0  0  0  0  0  0  0  0  0  0  0
   37.7768   89.3492  -33.1373 H   0  0  0  0  0  0  0  0  0  0  0  0
   39.2552   90.1314  -33.6426 H   0  0  0  0  0  0  0  0  0  0  0  0
   42.8166   87.6999  -35.7457 H   0  0  0  0  0  0  0  0  0  0  0  0
   41.7931   86.0932  -38.0258 H   0  0  0  0  0  0  0  0  0  0  0  0
   43.7426   88.4007  -37.8393 H   0  0  0  0  0  0  0  0  0  0  0  0
   43.5507   86.6765  -40.2175 H   0  0  0  0  0  0  0  0  0  0  0  0
   44.8986   86.7999  -39.1125 H   0  0  0  0  0  0  0  0  0  0  0  0
   44.4291   88.1803  -40.0754 H   0  0  0  0  0  0  0  0  0  0  0  0
   41.3271   87.9245  -39.6162 H   0  0  0  0  0  0  0  0  0  0  0  0
   42.2819   89.3876  -39.5907 H   0  0  0  0  0  0  0  0  0  0  0  0
   41.3410   88.9339  -38.1900 H   0  0  0  0  0  0  0  0  0  0  0  0
   42.8013   84.2839  -38.5573 H   0  0  0  0  0  0  0  0  0  0  0  0
   45.0988   83.3138  -37.0252 H   0  0  0  0  0  0  0  0  0  0  0  0
   43.5617   82.0315  -39.2156 H   0  0  0  0  0  0  0  0  0  0  0  0
   43.3263   81.7893  -37.5013 H   0  0  0  0  0  0  0  0  0  0  0  0
   44.8203   81.2896  -38.2572 H   0  0  0  0  0  0  0  0  0  0  0  0
   46.5088   85.0259  -37.7341 H   0  0  0  0  0  0  0  0  0  0  0  0
   47.4309   84.8113  -40.5342 H   0  0  0  0  0  0  0  0  0  0  0  0
   48.5124   85.0718  -39.1868 H   0  0  0  0  0  0  0  0  0  0  0  0
   47.3828   86.3202  -39.6544 H   0  0  0  0  0  0  0  0  0  0  0  0
  1 33  1  0  0  0  0
  1 34  1  0  0  0  0
  1 35  1  0  0  0  0
  2  1  1  0  0  0  0
  3  2  2  0  0  0  0
  4  2  1  0  0  0  0
  4 36  1  0  0  0  0
  5  4  1  0  0  0  0
  5 37  1  6  0  0  0
  6  5  1  0  0  0  0
  6 12  1  0  0  0  0
  7  6  2  0  0  0  0
  8  5  1  0  0  0  0
  8 38  1  0  0  0  0
  8 39  1  0  0  0  0
  9  8  1  0  0  0  0
  9 10  1  0  0  0  0
 11  9  2  0  0  0  0
 12 40  1  0  0  0  0
 13 12  1  0  0  0  0
 13 16  1  0  0  0  0
 13 41  1  1  0  0  0
 14 13  1  0  0  0  0
 15 14  2  0  0  0  0
 16 17  1  0  0  0  0
 16 18  1  0  0  0  0
 16 42  1  0  0  0  0
 17 43  1  0  0  0  0
 17 44  1  0  0  0  0
 17 45  1  0  0  0  0
 18 46  1  0  0  0  0
 18 47  1  0  0  0  0
 18 48  1  0  0  0  0
 19 14  1  0  0  0  0
 19 49  1  0  0  0  0
 20 21  1  0  0  0  0
 20 19  1  0  0  0  0
 20 50  1  6  0  0  0
 21 22  2  0  0  0  0
 23 20  1  0  0  0  0
 23 51  1  0  0  0  0
 24 23  1  0  0  0  0
 24 52  1  0  0  0  0
 24 53  1  0  0  0  0
 24 54  1  0  0  0  0
 25 23  1  0  0  0  0
 25 55  1  0  0  0  0
 25 56  1  0  0  0  0
 25 57  1  0  0  0  0
 26 27  1  0  0  0  0
 26 21  1  0  0  0  0
 26 58  1  0  0  0  0
 27 59  1  1  0  0  0
 28 31  1  0  0  0  0
 28 27  1  0  0  0  0
 29 28  2  0  0  0  0
 30 27  1  0  0  0  0
 30 60  1  0  0  0  0
 30 61  1  0  0  0  0
 30 62  1  0  0  0  0
 31 63  1  0  0  0  0
 32 31  1  0  0  0  0
 32 64  1  0  0  0  0
 32 65  1  0  0  0  0
 32 66  1  0  0  0  0
M  CHG  1  10  -1
M  END
>  <MODEL>
       0

$$$$
selected_4mers/DVVA/667_noH.pdb
 OpenBabel03042518233D

 66 65  0  0  1  0  0  0  0  0999 V2000
   46.6370   79.7530    7.2300 C   0  0  0  0  0  0  0  0  0  0  0  0
   47.0770   79.3430    5.8380 C   0  0  0  0  0  0  0  0  0  0  0  0
   47.4020   80.1950    4.9910 O   0  0  0  0  0  0  0  0  0  0  0  0
   47.0980   78.0380    5.6010 N   0  0  0  0  0  0  0  0  0  0  0  0
   47.4920   77.5130    4.2930 C   0  0  2  0  0  0  0  0  0  0  0  0
   46.5860   76.3490    3.9380 C   0  0  0  0  0  0  0  0  0  0  0  0
   46.1820   75.5980    4.8010 O   0  0  0  0  0  0  0  0  0  0  0  0
   48.9540   77.0500    4.2290 C   0  0  0  0  0  0  0  0  0  0  0  0
   49.9460   78.1480    4.5640 C   0  0  0  0  0  0  0  0  0  0  0  0
   50.2470   78.9870    3.7110 O   0  0  0  0  0  0  0  0  0  0  0  0
   50.4660   78.1330    5.6990 O   0  0  0  0  0  0  0  0  0  0  0  0
   46.2430   76.2570    2.6540 N   0  0  0  0  0  0  0  0  0  0  0  0
   45.4960   75.1440    2.1190 C   0  0  2  0  0  0  0  0  0  0  0  0
   46.4620   74.4340    1.1700 C   0  0  0  0  0  0  0  0  0  0  0  0
   47.0940   75.0780    0.3260 O   0  0  0  0  0  0  0  0  0  0  0  0
   44.2970   75.6070    1.2830 C   0  0  0  0  0  0  0  0  0  0  0  0
   43.5530   74.4110    0.6300 C   0  0  0  0  0  0  0  0  0  0  0  0
   43.3800   76.4320    2.1010 C   0  0  0  0  0  0  0  0  0  0  0  0
   46.5480   73.1230    1.3060 N   0  0  0  0  0  0  0  0  0  0  0  0
   47.3330   72.3250    0.3780 C   0  0  2  0  0  0  0  0  0  0  0  0
   46.3770   71.4070   -0.3690 C   0  0  0  0  0  0  0  0  0  0  0  0
   45.3810   70.9700    0.1830 O   0  0  0  0  0  0  0  0  0  0  0  0
   48.4720   71.5370    1.0970 C   0  0  0  0  0  0  0  0  0  0  0  0
   49.4870   72.5010    1.7100 C   0  0  0  0  0  0  0  0  0  0  0  0
   47.9490   70.5800    2.1310 C   0  0  0  0  0  0  0  0  0  0  0  0
   46.7020   71.1160   -1.6320 N   0  0  0  0  0  0  0  0  0  0  0  0
   45.9550   70.1640   -2.4610 C   0  0  2  0  0  0  0  0  0  0  0  0
   45.9450   68.7500   -1.8800 C   0  0  0  0  0  0  0  0  0  0  0  0
   44.8960   68.0970   -1.7930 O   0  0  0  0  0  0  0  0  0  0  0  0
   46.5700   70.1350   -3.8520 C   0  0  0  0  0  0  0  0  0  0  0  0
   47.1180   68.2780   -1.4800 N   0  0  0  0  0  0  0  0  0  0  0  0
   47.2610   66.9580   -0.8930 C   0  0  0  0  0  0  0  0  0  0  0  0
   46.6570   80.8198    7.3107 H   0  0  0  0  0  0  0  0  0  0  0  0
   47.3009   79.3281    7.9536 H   0  0  0  0  0  0  0  0  0  0  0  0
   45.6426   79.4005    7.4080 H   0  0  0  0  0  0  0  0  0  0  0  0
   46.8442   77.4120    6.3172 H   0  0  0  0  0  0  0  0  0  0  0  0
   47.3945   78.3168    3.5934 H   0  0  0  0  0  0  0  0  0  0  0  0
   49.1564   76.7000    3.2383 H   0  0  0  0  0  0  0  0  0  0  0  0
   49.0749   76.2792    4.9613 H   0  0  0  0  0  0  0  0  0  0  0  0
   46.5111   76.9806    2.0427 H   0  0  0  0  0  0  0  0  0  0  0  0
   45.1275   74.5334    2.9166 H   0  0  0  0  0  0  0  0  0  0  0  0
   44.6703   76.2139    0.4847 H   0  0  0  0  0  0  0  0  0  0  0  0
   43.1609   73.7741    1.3952 H   0  0  0  0  0  0  0  0  0  0  0  0
   44.2352   73.8569    0.0196 H   0  0  0  0  0  0  0  0  0  0  0  0
   42.7502   74.7777    0.0251 H   0  0  0  0  0  0  0  0  0  0  0  0
   42.9940   75.8436    2.9070 H   0  0  0  0  0  0  0  0  0  0  0  0
   42.5708   76.7767    1.4916 H   0  0  0  0  0  0  0  0  0  0  0  0
   43.9122   77.2721    2.4957 H   0  0  0  0  0  0  0  0  0  0  0  0
   46.0738   72.6798    2.0463 H   0  0  0  0  0  0  0  0  0  0  0  0
   47.8345   72.9651   -0.3175 H   0  0  0  0  0  0  0  0  0  0  0  0
   48.9623   70.9456    0.3522 H   0  0  0  0  0  0  0  0  0  0  0  0
   49.0062   73.0977    2.4568 H   0  0  0  0  0  0  0  0  0  0  0  0
   49.8820   73.1367    0.9453 H   0  0  0  0  0  0  0  0  0  0  0  0
   50.2834   71.9436    2.1570 H   0  0  0  0  0  0  0  0  0  0  0  0
   47.4473   71.1269    2.9018 H   0  0  0  0  0  0  0  0  0  0  0  0
   48.7646   70.0325    2.5552 H   0  0  0  0  0  0  0  0  0  0  0  0
   47.2627   69.8993    1.6722 H   0  0  0  0  0  0  0  0  0  0  0  0
   47.4844   71.5644   -2.0271 H   0  0  0  0  0  0  0  0  0  0  0  0
   44.9380   70.4948   -2.4955 H   0  0  0  0  0  0  0  0  0  0  0  0
   47.5845   69.8013   -3.7865 H   0  0  0  0  0  0  0  0  0  0  0  0
   46.5444   71.1180   -4.2739 H   0  0  0  0  0  0  0  0  0  0  0  0
   46.0137   69.4653   -4.4740 H   0  0  0  0  0  0  0  0  0  0  0  0
   47.9184   68.8415   -1.5846 H   0  0  0  0  0  0  0  0  0  0  0  0
   46.3043   66.4805   -0.8516 H   0  0  0  0  0  0  0  0  0  0  0  0
   47.6575   67.0488    0.0967 H   0  0  0  0  0  0  0  0  0  0  0  0
   47.9266   66.3717   -1.4915 H   0  0  0  0  0  0  0  0  0  0  0  0
  1 33  1  0  0  0  0
  1 34  1  0  0  0  0
  1 35  1  0  0  0  0
  2  1  1  0  0  0  0
  3  2  2  0  0  0  0
  4  2  1  0  0  0  0
  4 36  1  0  0  0  0
  5  4  1  0  0  0  0
  5 37  1  6  0  0  0
  6  5  1  0  0  0  0
  6  7  2  0  0  0  0
  8  5  1  0  0  0  0
  8  9  1  0  0  0  0
  8 38  1  0  0  0  0
  8 39  1  0  0  0  0
  9 11  1  0  0  0  0
 10  9  2  0  0  0  0
 12  6  1  0  0  0  0
 12 40  1  0  0  0  0
 13 12  1  0  0  0  0
 13 41  1  1  0  0  0
 14 19  1  0  0  0  0
 14 13  1  0  0  0  0
 15 14  2  0  0  0  0
 16 18  1  0  0  0  0
 16 13  1  0  0  0  0
 16 42  1  0  0  0  0
 17 16  1  0  0  0  0
 17 43  1  0  0  0  0
 17 44  1  0  0  0  0
 17 45  1  0  0  0  0
 18 46  1  0  0  0  0
 18 47  1  0  0  0  0
 18 48  1  0  0  0  0
 19 49  1  0  0  0  0
 20 23  1  0  0  0  0
 20 19  1  0  0  0  0
 20 50  1  6  0  0  0
 21 22  2  0  0  0  0
 21 20  1  0  0  0  0
 23 24  1  0  0  0  0
 23 25  1  0  0  0  0
 23 51  1  0  0  0  0
 24 52  1  0  0  0  0
 24 53  1  0  0  0  0
 24 54  1  0  0  0  0
 25 55  1  0  0  0  0
 25 56  1  0  0  0  0
 25 57  1  0  0  0  0
 26 21  1  0  0  0  0
 26 58  1  0  0  0  0
 27 28  1  0  0  0  0
 27 26  1  0  0  0  0
 27 59  1  6  0  0  0
 28 29  2  0  0  0  0
 28 31  1  0  0  0  0
 30 27  1  0  0  0  0
 30 60  1  0  0  0  0
 30 61  1  0  0  0  0
 30 62  1  0  0  0  0
 31 32  1  0  0  0  0
 31 63  1  0  0  0  0
 32 64  1  0  0  0  0
 32 65  1  0  0  0  0
 32 66  1  0  0  0  0
M  CHG  1  11  -1
M  END
>  <MODEL>
       0

$$$$
selected_4mers/DVVA/668_noH.pdb
 OpenBabel03042518233D

 66 65  0  0  1  0  0  0  0  0999 V2000
   13.5460  -11.9910    9.7220 C   0  0  0  0  0  0  0  0  0  0  0  0
   12.7630  -13.3100    9.8510 C   0  0  0  0  0  0  0  0  0  0  0  0
   13.0090  -14.2590    9.0900 O   0  0  0  0  0  0  0  0  0  0  0  0
   11.8670  -13.3900   10.8430 N   0  0  0  0  0  0  0  0  0  0  0  0
   11.0940  -14.6080   11.0750 C   0  0  2  0  0  0  0  0  0  0  0  0
    9.6340  -14.4130   10.7150 C   0  0  0  0  0  0  0  0  0  0  0  0
    9.0640  -13.3560   10.9680 O   0  0  0  0  0  0  0  0  0  0  0  0
   11.1270  -15.0350   12.5360 C   0  0  0  0  0  0  0  0  0  0  0  0
   12.5020  -15.4260   13.0080 C   0  0  0  0  0  0  0  0  0  0  0  0
   13.2590  -16.0340   12.2290 O   0  0  0  0  0  0  0  0  0  0  0  0
   12.8230  -15.1430   14.1760 O   0  0  0  0  0  0  0  0  0  0  0  0
    9.0360  -15.4490   10.1390 N   0  0  0  0  0  0  0  0  0  0  0  0
    7.6260  -15.4030    9.7870 C   0  0  2  0  0  0  0  0  0  0  0  0
    6.9360  -16.6360   10.3480 C   0  0  0  0  0  0  0  0  0  0  0  0
    7.4090  -17.7780   10.1730 O   0  0  0  0  0  0  0  0  0  0  0  0
    7.4280  -15.4310    8.2440 C   0  0  0  0  0  0  0  0  0  0  0  0
    5.9320  -15.4290    7.8940 C   0  0  0  0  0  0  0  0  0  0  0  0
    8.1460  -14.2260    7.6010 C   0  0  0  0  0  0  0  0  0  0  0  0
    5.8460  -16.4240   11.0810 N   0  0  0  0  0  0  0  0  0  0  0  0
    5.0740  -17.5360   11.6230 C   0  0  2  0  0  0  0  0  0  0  0  0
    3.6180  -17.2560   11.2430 C   0  0  0  0  0  0  0  0  0  0  0  0
    3.1000  -16.1760   11.5230 O   0  0  0  0  0  0  0  0  0  0  0  0
    5.1960  -17.6320   13.1600 C   0  0  0  0  0  0  0  0  0  0  0  0
    4.2750  -18.7320   13.6880 C   0  0  0  0  0  0  0  0  0  0  0  0
    6.6480  -17.9200   13.5560 C   0  0  0  0  0  0  0  0  0  0  0  0
    2.9660  -18.2140   10.5920 N   0  0  0  0  0  0  0  0  0  0  0  0
    1.5670  -17.9880   10.1960 C   0  0  2  0  0  0  0  0  0  0  0  0
    0.7530  -19.1690   10.6660 C   0  0  0  0  0  0  0  0  0  0  0  0
    1.2330  -20.3090   10.6210 O   0  0  0  0  0  0  0  0  0  0  0  0
    1.4610  -17.8490    8.6660 C   0  0  0  0  0  0  0  0  0  0  0  0
   -0.4790  -18.9190   11.1200 N   0  0  0  0  0  0  0  0  0  0  0  0
   -1.3210  -20.0080   11.6060 C   0  0  0  0  0  0  0  0  0  0  0  0
   14.2236  -12.0577    8.8966 H   0  0  0  0  0  0  0  0  0  0  0  0
   14.0967  -11.8136   10.6221 H   0  0  0  0  0  0  0  0  0  0  0  0
   12.8620  -11.1848    9.5576 H   0  0  0  0  0  0  0  0  0  0  0  0
   11.7261  -12.6113   11.4286 H   0  0  0  0  0  0  0  0  0  0  0  0
   11.5459  -15.3556   10.4572 H   0  0  0  0  0  0  0  0  0  0  0  0
   10.4735  -15.8731   12.6603 H   0  0  0  0  0  0  0  0  0  0  0  0
   10.8171  -14.1940   13.1204 H   0  0  0  0  0  0  0  0  0  0  0  0
    9.5563  -16.2624    9.9469 H   0  0  0  0  0  0  0  0  0  0  0  0
    7.2176  -14.4985   10.1870 H   0  0  0  0  0  0  0  0  0  0  0  0
    7.8564  -16.3305    7.8537 H   0  0  0  0  0  0  0  0  0  0  0  0
    5.4780  -14.5376    8.2738 H   0  0  0  0  0  0  0  0  0  0  0  0
    5.4618  -16.2838    8.3333 H   0  0  0  0  0  0  0  0  0  0  0  0
    5.8143  -15.4641    6.8311 H   0  0  0  0  0  0  0  0  0  0  0  0
    7.7284  -13.3174    7.9816 H   0  0  0  0  0  0  0  0  0  0  0  0
    8.0185  -14.2599    6.5392 H   0  0  0  0  0  0  0  0  0  0  0  0
    9.1891  -14.2652    7.8364 H   0  0  0  0  0  0  0  0  0  0  0  0
    5.5557  -15.5005   11.2605 H   0  0  0  0  0  0  0  0  0  0  0  0
    5.4340  -18.4635   11.2293 H   0  0  0  0  0  0  0  0  0  0  0  0
    4.9020  -16.6983   13.5920 H   0  0  0  0  0  0  0  0  0  0  0  0
    4.5604  -19.6711   13.2619 H   0  0  0  0  0  0  0  0  0  0  0  0
    3.2636  -18.5105   13.4180 H   0  0  0  0  0  0  0  0  0  0  0  0
    4.3564  -18.7844   14.7536 H   0  0  0  0  0  0  0  0  0  0  0  0
    6.9556  -18.8522   13.1302 H   0  0  0  0  0  0  0  0  0  0  0  0
    6.7232  -17.9727   14.6221 H   0  0  0  0  0  0  0  0  0  0  0  0
    7.2791  -17.1362   13.1923 H   0  0  0  0  0  0  0  0  0  0  0  0
    3.4136  -19.0642   10.3774 H   0  0  0  0  0  0  0  0  0  0  0  0
    1.2010  -17.0845   10.6372 H   0  0  0  0  0  0  0  0  0  0  0  0
    1.8221  -18.7424    8.2008 H   0  0  0  0  0  0  0  0  0  0  0  0
    2.0487  -17.0156    8.3420 H   0  0  0  0  0  0  0  0  0  0  0  0
    0.4386  -17.6924    8.3921 H   0  0  0  0  0  0  0  0  0  0  0  0
   -0.8204  -17.9956   11.1267 H   0  0  0  0  0  0  0  0  0  0  0  0
   -0.7899  -20.9333   11.5243 H   0  0  0  0  0  0  0  0  0  0  0  0
   -2.2147  -20.0568   11.0197 H   0  0  0  0  0  0  0  0  0  0  0  0
   -1.5756  -19.8322   12.6303 H   0  0  0  0  0  0  0  0  0  0  0  0
  1  2  1  0  0  0  0
  1 33  1  0  0  0  0
  1 34  1  0  0  0  0
  1 35  1  0  0  0  0
  2  4  1  0  0  0  0
  3  2  2  0  0  0  0
  4  5  1  0  0  0  0
  4 36  1  0  0  0  0
  5  8  1  0  0  0  0
  5 37  1  6  0  0  0
  6  7  2  0  0  0  0
  6  5  1  0  0  0  0
  8  9  1  0  0  0  0
  8 38  1  0  0  0  0
  8 39  1  0  0  0  0
  9 11  1  0  0  0  0
 10  9  2  0  0  0  0
 12  6  1  0  0  0  0
 12 40  1  0  0  0  0
 13 12  1  0  0  0  0
 13 14  1  0  0  0  0
 13 41  1  1  0  0  0
 14 19  1  0  0  0  0
 15 14  2  0  0  0  0
 16 13  1  0  0  0  0
 16 42  1  0  0  0  0
 17 16  1  0  0  0  0
 17 43  1  0  0  0  0
 17 44  1  0  0  0  0
 17 45  1  0  0  0  0
 18 16  1  0  0  0  0
 18 46  1  0  0  0  0
 18 47  1  0  0  0  0
 18 48  1  0  0  0  0
 19 20  1  0  0  0  0
 19 49  1  0  0  0  0
 20 23  1  0  0  0  0
 20 50  1  6  0  0  0
 21 22  2  0  0  0  0
 21 20  1  0  0  0  0
 23 25  1  0  0  0  0
 23 24  1  0  0  0  0
 23 51  1  0  0  0  0
 24 52  1  0  0  0  0
 24 53  1  0  0  0  0
 24 54  1  0  0  0  0
 25 55  1  0  0  0  0
 25 56  1  0  0  0  0
 25 57  1  0  0  0  0
 26 21  1  0  0  0  0
 26 58  1  0  0  0  0
 27 26  1  0  0  0  0
 27 28  1  0  0  0  0
 27 59  1  1  0  0  0
 28 31  1  0  0  0  0
 29 28  2  0  0  0  0
 30 27  1  0  0  0  0
 30 60  1  0  0  0  0
 30 61  1  0  0  0  0
 30 62  1  0  0  0  0
 31 32  1  0  0  0  0
 31 63  1  0  0  0  0
 32 64  1  0  0  0  0
 32 65  1  0  0  0  0
 32 66  1  0  0  0  0
M  CHG  1  11  -1
M  END
>  <MODEL>
       0

$$$$
selected_4mers/DVVA/669_noH.pdb
 OpenBabel03042518233D

 66 65  0  0  1  0  0  0  0  0999 V2000
   33.7220   27.3640   39.6840 C   0  0  0  0  0  0  0  0  0  0  0  0
   32.4690   27.3270   38.8230 C   0  0  0  0  0  0  0  0  0  0  0  0
   31.7960   28.3880   38.7100 O   0  0  0  0  0  0  0  0  0  0  0  0
   32.1730   26.1710   38.2010 N   0  0  0  0  0  0  0  0  0  0  0  0
   30.9770   26.0450   37.3620 C   0  0  2  0  0  0  0  0  0  0  0  0
   29.7220   25.9420   38.2160 C   0  0  0  0  0  0  0  0  0  0  0  0
   29.8070   25.5060   39.4090 O   0  0  0  0  0  0  0  0  0  0  0  0
   31.0180   24.7890   36.5070 C   0  0  0  0  0  0  0  0  0  0  0  0
   31.8230   24.9720   35.2110 C   0  0  0  0  0  0  0  0  0  0  0  0
   31.8880   26.1040   34.7140 O   0  0  0  0  0  0  0  0  0  0  0  0
   32.3360   23.9630   34.6850 O   0  0  0  0  0  0  0  0  0  0  0  0
   28.5920   26.3260   37.6080 N   0  0  0  0  0  0  0  0  0  0  0  0
   27.2840   26.2570   38.2430 C   0  0  2  0  0  0  0  0  0  0  0  0
   26.7840   24.8360   38.1240 C   0  0  0  0  0  0  0  0  0  0  0  0
   26.7920   24.2580   37.0240 O   0  0  0  0  0  0  0  0  0  0  0  0
   26.2770   27.2060   37.5140 C   0  0  0  0  0  0  0  0  0  0  0  0
   24.8760   27.0250   38.0880 C   0  0  0  0  0  0  0  0  0  0  0  0
   26.7410   28.6700   37.6690 C   0  0  0  0  0  0  0  0  0  0  0  0
   26.3860   24.2400   39.2470 N   0  0  0  0  0  0  0  0  0  0  0  0
   25.8510   22.8890   39.2250 C   0  0  2  0  0  0  0  0  0  0  0  0
   24.6820   22.8480   40.2140 C   0  0  0  0  0  0  0  0  0  0  0  0
   24.5260   23.7740   41.0440 O   0  0  0  0  0  0  0  0  0  0  0  0
   26.9460   21.8150   39.6710 C   0  0  0  0  0  0  0  0  0  0  0  0
   28.1190   21.8720   38.7320 C   0  0  0  0  0  0  0  0  0  0  0  0
   27.4600   22.1330   41.1350 C   0  0  0  0  0  0  0  0  0  0  0  0
   23.9090   21.7620   40.1600 N   0  0  0  0  0  0  0  0  0  0  0  0
   22.7640   21.5620   41.0510 C   0  0  2  0  0  0  0  0  0  0  0  0
   22.9940   20.2740   41.8190 C   0  0  0  0  0  0  0  0  0  0  0  0
   23.5880   19.3260   41.2810 O   0  0  0  0  0  0  0  0  0  0  0  0
   21.4630   21.3810   40.2760 C   0  0  0  0  0  0  0  0  0  0  0  0
   22.4790   20.2450   43.0500 N   0  0  0  0  0  0  0  0  0  0  0  0
   22.5650   19.0690   43.8720 C   0  0  0  0  0  0  0  0  0  0  0  0
   34.1832   26.3985   39.6843 H   0  0  0  0  0  0  0  0  0  0  0  0
   33.4588   27.6339   40.6854 H   0  0  0  0  0  0  0  0  0  0  0  0
   34.4056   28.0857   39.2881 H   0  0  0  0  0  0  0  0  0  0  0  0
   32.7701   25.3960   38.3112 H   0  0  0  0  0  0  0  0  0  0  0  0
   30.9578   26.9188   36.7447 H   0  0  0  0  0  0  0  0  0  0  0  0
   31.4649   24.0021   37.0779 H   0  0  0  0  0  0  0  0  0  0  0  0
   30.0110   24.5578   36.2288 H   0  0  0  0  0  0  0  0  0  0  0  0
   28.6488   26.6714   36.6878 H   0  0  0  0  0  0  0  0  0  0  0  0
   27.3635   26.5558   39.2673 H   0  0  0  0  0  0  0  0  0  0  0  0
   26.2487   26.9599   36.4731 H   0  0  0  0  0  0  0  0  0  0  0  0
   24.8836   27.2668   39.1303 H   0  0  0  0  0  0  0  0  0  0  0  0
   24.5666   26.0087   37.9599 H   0  0  0  0  0  0  0  0  0  0  0  0
   24.1947   27.6724   37.5766 H   0  0  0  0  0  0  0  0  0  0  0  0
   26.7727   28.9261   38.7074 H   0  0  0  0  0  0  0  0  0  0  0  0
   26.0553   29.3170   37.1628 H   0  0  0  0  0  0  0  0  0  0  0  0
   27.7167   28.7818   37.2442 H   0  0  0  0  0  0  0  0  0  0  0  0
   26.4552   24.7211   40.1031 H   0  0  0  0  0  0  0  0  0  0  0  0
   25.5434   22.6449   38.2297 H   0  0  0  0  0  0  0  0  0  0  0  0
   26.4989   20.8431   39.6490 H   0  0  0  0  0  0  0  0  0  0  0  0
   28.5551   22.8486   38.7649 H   0  0  0  0  0  0  0  0  0  0  0  0
   27.7891   21.6621   37.7360 H   0  0  0  0  0  0  0  0  0  0  0  0
   28.8475   21.1459   39.0269 H   0  0  0  0  0  0  0  0  0  0  0  0
   27.9063   23.1053   41.1530 H   0  0  0  0  0  0  0  0  0  0  0  0
   28.1857   21.4021   41.4249 H   0  0  0  0  0  0  0  0  0  0  0  0
   26.6353   22.1064   41.8162 H   0  0  0  0  0  0  0  0  0  0  0  0
   24.1166   21.0670   39.4943 H   0  0  0  0  0  0  0  0  0  0  0  0
   22.6809   22.4218   41.6824 H   0  0  0  0  0  0  0  0  0  0  0  0
   21.5415   20.5219   39.6429 H   0  0  0  0  0  0  0  0  0  0  0  0
   21.2803   22.2493   39.6780 H   0  0  0  0  0  0  0  0  0  0  0  0
   20.6544   21.2448   40.9634 H   0  0  0  0  0  0  0  0  0  0  0  0
   22.0302   21.0470   43.4029 H   0  0  0  0  0  0  0  0  0  0  0  0
   23.0797   18.2976   43.3382 H   0  0  0  0  0  0  0  0  0  0  0  0
   21.5794   18.7344   44.1201 H   0  0  0  0  0  0  0  0  0  0  0  0
   23.0999   19.2996   44.7696 H   0  0  0  0  0  0  0  0  0  0  0  0
  1 33  1  0  0  0  0
  1 34  1  0  0  0  0
  1 35  1  0  0  0  0
  2  1  1  0  0  0  0
  3  2  2  0  0  0  0
  4  2  1  0  0  0  0
  4 36  1  0  0  0  0
  5  4  1  0  0  0  0
  5  6  1  0  0  0  0
  5 37  1  6  0  0  0
  6  7  2  0  0  0  0
  8  5  1  0  0  0  0
  8 38  1  0  0  0  0
  8 39  1  0  0  0  0
  9  8  1  0  0  0  0
 10  9  1  0  0  0  0
 11  9  2  0  0  0  0
 12  6  1  0  0  0  0
 12 13  1  0  0  0  0
 12 40  1  0  0  0  0
 13 41  1  1  0  0  0
 14 13  1  0  0  0  0
 14 19  1  0  0  0  0
 15 14  2  0  0  0  0
 16 18  1  0  0  0  0
 16 17  1  0  0  0  0
 16 13  1  0  0  0  0
 16 42  1  0  0  0  0
 17 43  1  0  0  0  0
 17 44  1  0  0  0  0
 17 45  1  0  0  0  0
 18 46  1  0  0  0  0
 18 47  1  0  0  0  0
 18 48  1  0  0  0  0
 19 49  1  0  0  0  0
 20 19  1  0  0  0  0
 20 23  1  0  0  0  0
 20 21  1  0  0  0  0
 20 50  1  6  0  0  0
 21 22  2  0  0  0  0
 23 25  1  0  0  0  0
 23 51  1  0  0  0  0
 24 23  1  0  0  0  0
 24 52  1  0  0  0  0
 24 53  1  0  0  0  0
 24 54  1  0  0  0  0
 25 55  1  0  0  0  0
 25 56  1  0  0  0  0
 25 57  1  0  0  0  0
 26 21  1  0  0  0  0
 26 27  1  0  0  0  0
 26 58  1  0  0  0  0
 27 28  1  0  0  0  0
 27 59  1  1  0  0  0
 28 31  1  0  0  0  0
 29 28  2  0  0  0  0
 30 27  1  0  0  0  0
 30 60  1  0  0  0  0
 30 61  1  0  0  0  0
 30 62  1  0  0  0  0
 31 32  1  0  0  0  0
 31 63  1  0  0  0  0
 32 64  1  0  0  0  0
 32 65  1  0  0  0  0
 32 66  1  0  0  0  0
M  CHG  1  10  -1
M  END
>  <MODEL>
       0

$$$$
