selected_4mers/DVVL/655_noH.pdb
 OpenBabel03042518233D

 75 74  0  0  1  0  0  0  0  0999 V2000
   -5.7250   -1.8740   36.6110 C   0  0  0  0  0  0  0  0  0  0  0  0
   -6.6200   -0.8140   35.9600 C   0  0  0  0  0  0  0  0  0  0  0  0
   -7.8300   -1.0090   35.8480 O   0  0  0  0  0  0  0  0  0  0  0  0
   -6.0340    0.2950   35.5260 N   0  0  0  0  0  0  0  0  0  0  0  0
   -6.7930    1.4470   35.0140 C   0  0  2  0  0  0  0  0  0  0  0  0
   -7.6210    2.1740   36.0900 C   0  0  0  0  0  0  0  0  0  0  0  0
   -8.2970    3.1490   35.7790 O   0  0  0  0  0  0  0  0  0  0  0  0
   -7.6640    1.0730   33.7890 C   0  0  0  0  0  0  0  0  0  0  0  0
   -6.8420    0.8960   32.5020 C   0  0  0  0  0  0  0  0  0  0  0  0
   -7.4380    0.5740   31.4580 O   0  0  0  0  0  0  0  0  0  0  0  0
   -5.6040    1.0780   32.5230 O   0  0  0  0  0  0  0  0  0  0  0  0
   -7.5560    1.7120   37.3380 N   0  0  0  0  0  0  0  0  0  0  0  0
   -8.1710    2.4160   38.4860 C   0  0  2  0  0  0  0  0  0  0  0  0
   -7.6060    3.8440   38.5980 C   0  0  0  0  0  0  0  0  0  0  0  0
   -6.3810    4.0430   38.5870 O   0  0  0  0  0  0  0  0  0  0  0  0
   -7.9680    1.6550   39.8410 C   0  0  0  0  0  0  0  0  0  0  0  0
   -8.5980    2.4140   41.0230 C   0  0  0  0  0  0  0  0  0  0  0  0
   -8.5250    0.2400   39.7920 C   0  0  0  0  0  0  0  0  0  0  0  0
   -8.5040    4.8260   38.6750 N   0  0  0  0  0  0  0  0  0  0  0  0
   -8.1310    6.2280   38.8480 C   0  0  2  0  0  0  0  0  0  0  0  0
   -8.6330    6.7430   40.2020 C   0  0  0  0  0  0  0  0  0  0  0  0
   -9.7790    6.4940   40.5920 O   0  0  0  0  0  0  0  0  0  0  0  0
   -8.6690    7.1020   37.6890 C   0  0  0  0  0  0  0  0  0  0  0  0
   -8.2710    8.5790   37.8620 C   0  0  0  0  0  0  0  0  0  0  0  0
   -8.1740    6.5670   36.3340 C   0  0  0  0  0  0  0  0  0  0  0  0
   -7.7740    7.4580   40.9170 N   0  0  0  0  0  0  0  0  0  0  0  0
   -8.1380    8.0320   42.2110 C   0  0  2  0  0  0  0  0  0  0  0  0
   -7.9730    9.5430   42.1650 C   0  0  0  0  0  0  0  0  0  0  0  0
   -7.2030   10.0680   41.3540 O   0  0  0  0  0  0  0  0  0  0  0  0
   -7.2780    7.4370   43.3290 C   0  0  0  0  0  0  0  0  0  0  0  0
   -7.2890    5.9110   43.5100 C   0  0  0  0  0  0  0  0  0  0  0  0
   -6.1480    5.4660   44.4270 C   0  0  0  0  0  0  0  0  0  0  0  0
   -8.6560    5.4060   44.0160 C   0  0  0  0  0  0  0  0  0  0  0  0
   -8.6860   10.2430   43.0370 N   0  0  0  0  0  0  0  0  0  0  0  0
   -8.6360   11.6980   43.0360 C   0  0  0  0  0  0  0  0  0  0  0  0
   -4.7121   -1.5293   36.6192 H   0  0  0  0  0  0  0  0  0  0  0  0
   -5.7873   -2.7849   36.0531 H   0  0  0  0  0  0  0  0  0  0  0  0
   -6.0507   -2.0479   37.6153 H   0  0  0  0  0  0  0  0  0  0  0  0
   -5.0512    0.3491   35.5475 H   0  0  0  0  0  0  0  0  0  0  0  0
   -6.0521    2.1475   34.6896 H   0  0  0  0  0  0  0  0  0  0  0  0
   -8.1718    0.1548   33.9987 H   0  0  0  0  0  0  0  0  0  0  0  0
   -8.3490    1.8783   33.6242 H   0  0  0  0  0  0  0  0  0  0  0  0
   -7.0789    0.8669   37.5037 H   0  0  0  0  0  0  0  0  0  0  0  0
   -9.2238    2.4549   38.2991 H   0  0  0  0  0  0  0  0  0  0  0  0
   -6.9102    1.5982   39.9918 H   0  0  0  0  0  0  0  0  0  0  0  0
   -9.6569    2.4769   40.8828 H   0  0  0  0  0  0  0  0  0  0  0  0
   -8.1858    3.4001   41.0741 H   0  0  0  0  0  0  0  0  0  0  0  0
   -8.3892    1.8925   41.9337 H   0  0  0  0  0  0  0  0  0  0  0  0
   -9.5837    0.2784   39.6415 H   0  0  0  0  0  0  0  0  0  0  0  0
   -8.3138   -0.2586   40.7149 H   0  0  0  0  0  0  0  0  0  0  0  0
   -8.0692   -0.2950   38.9852 H   0  0  0  0  0  0  0  0  0  0  0  0
   -9.4594    4.5968   38.6126 H   0  0  0  0  0  0  0  0  0  0  0  0
   -7.0633    6.2958   38.8295 H   0  0  0  0  0  0  0  0  0  0  0  0
   -9.7374    7.0477   37.7116 H   0  0  0  0  0  0  0  0  0  0  0  0
   -7.2047    8.6656   37.8435 H   0  0  0  0  0  0  0  0  0  0  0  0
   -8.6420    8.9411   38.7980 H   0  0  0  0  0  0  0  0  0  0  0  0
   -8.6897    9.1569   37.0648 H   0  0  0  0  0  0  0  0  0  0  0  0
   -7.1057    6.6165   36.2998 H   0  0  0  0  0  0  0  0  0  0  0  0
   -8.5841    7.1615   35.5445 H   0  0  0  0  0  0  0  0  0  0  0  0
   -8.4880    5.5510   36.2154 H   0  0  0  0  0  0  0  0  0  0  0  0
   -6.8661    7.6061   40.5662 H   0  0  0  0  0  0  0  0  0  0  0  0
   -9.1610    7.7958   42.4171 H   0  0  0  0  0  0  0  0  0  0  0  0
   -7.6089    7.8695   44.2500 H   0  0  0  0  0  0  0  0  0  0  0  0
   -6.2723    7.6662   43.0447 H   0  0  0  0  0  0  0  0  0  0  0  0
   -7.1310    5.4664   42.5497 H   0  0  0  0  0  0  0  0  0  0  0  0
   -6.2812    5.8973   45.3971 H   0  0  0  0  0  0  0  0  0  0  0  0
   -5.2142    5.7904   44.0176 H   0  0  0  0  0  0  0  0  0  0  0  0
   -6.1507    4.3990   44.5076 H   0  0  0  0  0  0  0  0  0  0  0  0
   -8.8576    5.8269   44.9789 H   0  0  0  0  0  0  0  0  0  0  0  0
   -8.6368    4.3388   44.0902 H   0  0  0  0  0  0  0  0  0  0  0  0
   -9.4218    5.7021   43.3299 H   0  0  0  0  0  0  0  0  0  0  0  0
   -9.2540    9.7747   43.6907 H   0  0  0  0  0  0  0  0  0  0  0  0
   -7.9734   12.0316   42.2649 H   0  0  0  0  0  0  0  0  0  0  0  0
   -8.2818   12.0434   43.9848 H   0  0  0  0  0  0  0  0  0  0  0  0
   -9.6161   12.0884   42.8576 H   0  0  0  0  0  0  0  0  0  0  0  0
  1 36  1  0  0  0  0
  1 37  1  0  0  0  0
  1 38  1  0  0  0  0
  2  1  1  0  0  0  0
  3  2  2  0  0  0  0
  4  2  1  0  0  0  0
  4 39  1  0  0  0  0
  5  4  1  0  0  0  0
  5  6  1  0  0  0  0
  5 40  1  6  0  0  0
  6 12  1  0  0  0  0
  7  6  2  0  0  0  0
  8  5  1  0  0  0  0
  8 41  1  0  0  0  0
  8 42  1  0  0  0  0
  9 11  1  0  0  0  0
  9  8  1  0  0  0  0
 10  9  2  0  0  0  0
 12 13  1  0  0  0  0
 12 43  1  0  0  0  0
 13 14  1  0  0  0  0
 13 16  1  0  0  0  0
 13 44  1  6  0  0  0
 14 19  1  0  0  0  0
 15 14  2  0  0  0  0
 16 17  1  0  0  0  0
 16 45  1  0  0  0  0
 17 46  1  0  0  0  0
 17 47  1  0  0  0  0
 17 48  1  0  0  0  0
 18 16  1  0  0  0  0
 18 49  1  0  0  0  0
 18 50  1  0  0  0  0
 18 51  1  0  0  0  0
 19 20  1  0  0  0  0
 19 52  1  0  0  0  0
 20 21  1  0  0  0  0
 20 53  1  6  0  0  0
 21 22  2  0  0  0  0
 21 26  1  0  0  0  0
 23 24  1  0  0  0  0
 23 20  1  0  0  0  0
 23 54  1  0  0  0  0
 24 55  1  0  0  0  0
 24 56  1  0  0  0  0
 24 57  1  0  0  0  0
 25 23  1  0  0  0  0
 25 58  1  0  0  0  0
 25 59  1  0  0  0  0
 25 60  1  0  0  0  0
 26 27  1  0  0  0  0
 26 61  1  0  0  0  0
 27 30  1  0  0  0  0
 27 62  1  1  0  0  0
 28 27  1  0  0  0  0
 28 34  1  0  0  0  0
 29 28  2  0  0  0  0
 30 31  1  0  0  0  0
 30 63  1  0  0  0  0
 30 64  1  0  0  0  0
 31 33  1  0  0  0  0
 31 32  1  0  0  0  0
 31 65  1  0  0  0  0
 32 66  1  0  0  0  0
 32 67  1  0  0  0  0
 32 68  1  0  0  0  0
 33 69  1  0  0  0  0
 33 70  1  0  0  0  0
 33 71  1  0  0  0  0
 34 72  1  0  0  0  0
 35 34  1  0  0  0  0
 35 73  1  0  0  0  0
 35 74  1  0  0  0  0
 35 75  1  0  0  0  0
M  CHG  1  11  -1
M  END
>  <MODEL>
       0

$$$$
selected_4mers/DVVL/656_noH.pdb
 OpenBabel03042518233D

 75 74  0  0  1  0  0  0  0  0999 V2000
   13.2530   29.3490    3.8280 C   0  0  0  0  0  0  0  0  0  0  0  0
   14.2370   30.5040    3.6190 C   0  0  0  0  0  0  0  0  0  0  0  0
   15.4160   30.3960    3.9740 O   0  0  0  0  0  0  0  0  0  0  0  0
   13.7860   31.5750    2.9890 N   0  0  0  0  0  0  0  0  0  0  0  0
   14.5880   32.7890    2.8620 C   0  0  2  0  0  0  0  0  0  0  0  0
   14.1140   33.7480    3.9290 C   0  0  0  0  0  0  0  0  0  0  0  0
   12.9230   33.9910    4.1050 O   0  0  0  0  0  0  0  0  0  0  0  0
   14.3830   33.3880    1.4710 C   0  0  0  0  0  0  0  0  0  0  0  0
   15.1350   32.5810    0.4360 C   0  0  0  0  0  0  0  0  0  0  0  0
   16.3840   32.5650    0.4950 O   0  0  0  0  0  0  0  0  0  0  0  0
   14.4770   31.8460   -0.3330 O   0  0  0  0  0  0  0  0  0  0  0  0
   15.0710   34.2540    4.7030 N   0  0  0  0  0  0  0  0  0  0  0  0
   14.7520   34.9560    5.9560 C   0  0  2  0  0  0  0  0  0  0  0  0
   15.5200   36.2700    5.9880 C   0  0  0  0  0  0  0  0  0  0  0  0
   16.6960   36.3160    5.5980 O   0  0  0  0  0  0  0  0  0  0  0  0
   15.2290   34.1110    7.1520 C   0  0  0  0  0  0  0  0  0  0  0  0
   14.9700   34.9050    8.4670 C   0  0  0  0  0  0  0  0  0  0  0  0
   14.5060   32.7710    7.2190 C   0  0  0  0  0  0  0  0  0  0  0  0
   14.8600   37.3270    6.4440 N   0  0  0  0  0  0  0  0  0  0  0  0
   15.5420   38.5850    6.7130 C   0  0  2  0  0  0  0  0  0  0  0  0
   15.3780   38.8380    8.2040 C   0  0  0  0  0  0  0  0  0  0  0  0
   14.2540   38.9060    8.7160 O   0  0  0  0  0  0  0  0  0  0  0  0
   14.9280   39.7450    5.9150 C   0  0  0  0  0  0  0  0  0  0  0  0
   15.5880   41.0480    6.3150 C   0  0  0  0  0  0  0  0  0  0  0  0
   15.1180   39.4990    4.4180 C   0  0  0  0  0  0  0  0  0  0  0  0
   16.4920   38.9600    8.9150 N   0  0  0  0  0  0  0  0  0  0  0  0
   16.4720   39.1690   10.3770 C   0  0  2  0  0  0  0  0  0  0  0  0
   17.0290   40.5610   10.5910 C   0  0  0  0  0  0  0  0  0  0  0  0
   18.1350   40.8830   10.1310 O   0  0  0  0  0  0  0  0  0  0  0  0
   17.4680   38.1870   11.0280 C   0  0  0  0  0  0  0  0  0  0  0  0
   17.3740   37.9860   12.5340 C   0  0  0  0  0  0  0  0  0  0  0  0
   17.7800   39.2210   13.3240 C   0  0  0  0  0  0  0  0  0  0  0  0
   15.9930   37.4390   12.9660 C   0  0  0  0  0  0  0  0  0  0  0  0
   16.2400   41.4210   11.2460 N   0  0  0  0  0  0  0  0  0  0  0  0
   16.6720   42.7830   11.5430 C   0  0  0  0  0  0  0  0  0  0  0  0
   12.2889   29.6307    3.4592 H   0  0  0  0  0  0  0  0  0  0  0  0
   13.1838   29.1238    4.8717 H   0  0  0  0  0  0  0  0  0  0  0  0
   13.5989   28.4856    3.2990 H   0  0  0  0  0  0  0  0  0  0  0  0
   12.8843   31.5537    2.5944 H   0  0  0  0  0  0  0  0  0  0  0  0
   15.6311   32.5845    2.9844 H   0  0  0  0  0  0  0  0  0  0  0  0
   13.3396   33.3813    1.2340 H   0  0  0  0  0  0  0  0  0  0  0  0
   14.7535   34.3918    1.4662 H   0  0  0  0  0  0  0  0  0  0  0  0
   16.0123   34.1565    4.4314 H   0  0  0  0  0  0  0  0  0  0  0  0
   13.6965   35.1225    6.0114 H   0  0  0  0  0  0  0  0  0  0  0  0
   16.2736   33.9141    7.0294 H   0  0  0  0  0  0  0  0  0  0  0  0
   13.9214   35.0913    8.5705 H   0  0  0  0  0  0  0  0  0  0  0  0
   15.4958   35.8362    8.4308 H   0  0  0  0  0  0  0  0  0  0  0  0
   15.3148   34.3329    9.3029 H   0  0  0  0  0  0  0  0  0  0  0  0
   13.4563   32.9379    7.3418 H   0  0  0  0  0  0  0  0  0  0  0  0
   14.8770   32.2067    8.0490 H   0  0  0  0  0  0  0  0  0  0  0  0
   14.6772   32.2277    6.3132 H   0  0  0  0  0  0  0  0  0  0  0  0
   13.8909   37.2593    6.6035 H   0  0  0  0  0  0  0  0  0  0  0  0
   16.5700   38.5244    6.4224 H   0  0  0  0  0  0  0  0  0  0  0  0
   13.8812   39.8057    6.1282 H   0  0  0  0  0  0  0  0  0  0  0  0
   16.6359   40.9961    6.1051 H   0  0  0  0  0  0  0  0  0  0  0  0
   15.4417   41.2153    7.3617 H   0  0  0  0  0  0  0  0  0  0  0  0
   15.1527   41.8532    5.7608 H   0  0  0  0  0  0  0  0  0  0  0  0
   16.1630   39.4370    4.1966 H   0  0  0  0  0  0  0  0  0  0  0  0
   14.6837   40.3062    3.8660 H   0  0  0  0  0  0  0  0  0  0  0  0
   14.6403   38.5817    4.1438 H   0  0  0  0  0  0  0  0  0  0  0  0
   17.3599   38.9096    8.4529 H   0  0  0  0  0  0  0  0  0  0  0  0
   15.4917   39.0343   10.7842 H   0  0  0  0  0  0  0  0  0  0  0  0
   18.4544   38.5414   10.8129 H   0  0  0  0  0  0  0  0  0  0  0  0
   17.2231   37.2330   10.6098 H   0  0  0  0  0  0  0  0  0  0  0  0
   18.0939   37.2327   12.7774 H   0  0  0  0  0  0  0  0  0  0  0  0
   17.0929   40.0158   13.1214 H   0  0  0  0  0  0  0  0  0  0  0  0
   18.7662   39.5202   13.0363 H   0  0  0  0  0  0  0  0  0  0  0  0
   17.7665   38.9957   14.3699 H   0  0  0  0  0  0  0  0  0  0  0  0
   15.2368   38.1619   12.7412 H   0  0  0  0  0  0  0  0  0  0  0  0
   15.9995   37.2451   14.0183 H   0  0  0  0  0  0  0  0  0  0  0  0
   15.7875   36.5317   12.4374 H   0  0  0  0  0  0  0  0  0  0  0  0
   15.3457   41.1275   11.5347 H   0  0  0  0  0  0  0  0  0  0  0  0
   17.6603   42.9347   11.1621 H   0  0  0  0  0  0  0  0  0  0  0  0
   16.6708   42.9346   12.6022 H   0  0  0  0  0  0  0  0  0  0  0  0
   16.0016   43.4782   11.0824 H   0  0  0  0  0  0  0  0  0  0  0  0
  1 36  1  0  0  0  0
  1 37  1  0  0  0  0
  1 38  1  0  0  0  0
  2  1  1  0  0  0  0
  2  3  2  0  0  0  0
  4  2  1  0  0  0  0
  4 39  1  0  0  0  0
  5  4  1  0  0  0  0
  5  6  1  0  0  0  0
  5 40  1  1  0  0  0
  6  7  2  0  0  0  0
  6 12  1  0  0  0  0
  8  5  1  0  0  0  0
  8 41  1  0  0  0  0
  8 42  1  0  0  0  0
  9 10  1  0  0  0  0
  9  8  1  0  0  0  0
 11  9  2  0  0  0  0
 12 13  1  0  0  0  0
 12 43  1  0  0  0  0
 13 14  1  0  0  0  0
 13 16  1  0  0  0  0
 13 44  1  1  0  0  0
 14 19  1  0  0  0  0
 15 14  2  0  0  0  0
 16 18  1  0  0  0  0
 16 17  1  0  0  0  0
 16 45  1  0  0  0  0
 17 46  1  0  0  0  0
 17 47  1  0  0  0  0
 17 48  1  0  0  0  0
 18 49  1  0  0  0  0
 18 50  1  0  0  0  0
 18 51  1  0  0  0  0
 19 20  1  0  0  0  0
 19 52  1  0  0  0  0
 20 21  1  0  0  0  0
 20 53  1  6  0  0  0
 21 22  2  0  0  0  0
 21 26  1  0  0  0  0
 23 24  1  0  0  0  0
 23 20  1  0  0  0  0
 23 54  1  0  0  0  0
 24 55  1  0  0  0  0
 24 56  1  0  0  0  0
 24 57  1  0  0  0  0
 25 23  1  0  0  0  0
 25 58  1  0  0  0  0
 25 59  1  0  0  0  0
 25 60  1  0  0  0  0
 26 27  1  0  0  0  0
 26 61  1  0  0  0  0
 27 28  1  0  0  0  0
 27 30  1  0  0  0  0
 27 62  1  1  0  0  0
 28 34  1  0  0  0  0
 29 28  2  0  0  0  0
 30 31  1  0  0  0  0
 30 63  1  0  0  0  0
 30 64  1  0  0  0  0
 31 33  1  0  0  0  0
 31 32  1  0  0  0  0
 31 65  1  0  0  0  0
 32 66  1  0  0  0  0
 32 67  1  0  0  0  0
 32 68  1  0  0  0  0
 33 69  1  0  0  0  0
 33 70  1  0  0  0  0
 33 71  1  0  0  0  0
 34 35  1  0  0  0  0
 34 72  1  0  0  0  0
 35 73  1  0  0  0  0
 35 74  1  0  0  0  0
 35 75  1  0  0  0  0
M  CHG  1  10  -1
M  END
>  <MODEL>
       0

$$$$
selected_4mers/DVVL/657_noH.pdb
 OpenBabel03042518233D

 75 74  0  0  1  0  0  0  0  0999 V2000
   -0.0970   56.4110   23.0330 C   0  0  0  0  0  0  0  0  0  0  0  0
    1.3970   56.6790   23.1870 C   0  0  0  0  0  0  0  0  0  0  0  0
    1.9870   56.5310   24.2720 O   0  0  0  0  0  0  0  0  0  0  0  0
    2.0090   57.0890   22.0770 N   0  0  0  0  0  0  0  0  0  0  0  0
    3.3840   57.5710   22.1000 C   0  0  2  0  0  0  0  0  0  0  0  0
    3.4330   59.0380   22.5250 C   0  0  0  0  0  0  0  0  0  0  0  0
    4.4160   59.4660   23.0800 O   0  0  0  0  0  0  0  0  0  0  0  0
    4.0090   57.4020   20.7310 C   0  0  0  0  0  0  0  0  0  0  0  0
    4.0840   55.9580   20.3120 C   0  0  0  0  0  0  0  0  0  0  0  0
    4.6540   55.1580   21.0880 O   0  0  0  0  0  0  0  0  0  0  0  0
    3.5720   55.6190   19.2190 O   0  0  0  0  0  0  0  0  0  0  0  0
    2.3540   59.7820   22.2520 N   0  0  0  0  0  0  0  0  0  0  0  0
    2.2580   61.2100   22.5670 C   0  0  2  0  0  0  0  0  0  0  0  0
    0.8680   61.4040   23.1370 C   0  0  0  0  0  0  0  0  0  0  0  0
   -0.1090   60.9480   22.5420 O   0  0  0  0  0  0  0  0  0  0  0  0
    2.4120   62.0990   21.2990 C   0  0  0  0  0  0  0  0  0  0  0  0
    2.1830   63.5770   21.6190 C   0  0  0  0  0  0  0  0  0  0  0  0
    3.7820   61.8680   20.6330 C   0  0  0  0  0  0  0  0  0  0  0  0
    0.7690   62.0970   24.2600 N   0  0  0  0  0  0  0  0  0  0  0  0
   -0.5130   62.4920   24.8460 C   0  0  2  0  0  0  0  0  0  0  0  0
   -0.5300   64.0030   24.9820 C   0  0  0  0  0  0  0  0  0  0  0  0
    0.3850   64.5880   25.6040 O   0  0  0  0  0  0  0  0  0  0  0  0
   -0.7200   61.8370   26.2230 C   0  0  0  0  0  0  0  0  0  0  0  0
   -2.0370   62.3230   26.8640 C   0  0  0  0  0  0  0  0  0  0  0  0
   -0.6710   60.3300   26.0760 C   0  0  0  0  0  0  0  0  0  0  0  0
   -1.5870   64.6300   24.4400 N   0  0  0  0  0  0  0  0  0  0  0  0
   -1.7590   66.0860   24.4900 C   0  0  2  0  0  0  0  0  0  0  0  0
   -3.0420   66.4460   25.1700 C   0  0  0  0  0  0  0  0  0  0  0  0
   -4.1170   65.9110   24.8310 O   0  0  0  0  0  0  0  0  0  0  0  0
   -1.7500   66.6680   23.0520 C   0  0  0  0  0  0  0  0  0  0  0  0
   -0.4990   66.4080   22.2540 C   0  0  0  0  0  0  0  0  0  0  0  0
   -0.6930   66.8530   20.7890 C   0  0  0  0  0  0  0  0  0  0  0  0
    0.6780   67.0930   22.9200 C   0  0  0  0  0  0  0  0  0  0  0  0
   -2.9500   67.3520   26.1470 N   0  0  0  0  0  0  0  0  0  0  0  0
   -4.1340   67.8540   26.8350 C   0  0  0  0  0  0  0  0  0  0  0  0
   -0.3911   56.6013   22.0220 H   0  0  0  0  0  0  0  0  0  0  0  0
   -0.6443   57.0536   23.6906 H   0  0  0  0  0  0  0  0  0  0  0  0
   -0.3034   55.3902   23.2784 H   0  0  0  0  0  0  0  0  0  0  0  0
    1.5214   57.0658   21.2220 H   0  0  0  0  0  0  0  0  0  0  0  0
    3.9379   56.9962   22.8125 H   0  0  0  0  0  0  0  0  0  0  0  0
    3.4208   57.9379   20.0156 H   0  0  0  0  0  0  0  0  0  0  0  0
    5.0082   57.7817   20.7780 H   0  0  0  0  0  0  0  0  0  0  0  0
    1.5852   59.3473   21.8171 H   0  0  0  0  0  0  0  0  0  0  0  0
    3.0371   61.4946   23.2430 H   0  0  0  0  0  0  0  0  0  0  0  0
    1.6554   61.8094   20.6000 H   0  0  0  0  0  0  0  0  0  0  0  0
    2.9217   63.9092   22.3182 H   0  0  0  0  0  0  0  0  0  0  0  0
    1.2086   63.7034   22.0426 H   0  0  0  0  0  0  0  0  0  0  0  0
    2.2585   64.1524   20.7201 H   0  0  0  0  0  0  0  0  0  0  0  0
    4.5603   62.1499   21.3111 H   0  0  0  0  0  0  0  0  0  0  0  0
    3.8511   62.4603   19.7446 H   0  0  0  0  0  0  0  0  0  0  0  0
    3.8861   60.8334   20.3808 H   0  0  0  0  0  0  0  0  0  0  0  0
    1.5970   62.3594   24.7235 H   0  0  0  0  0  0  0  0  0  0  0  0
   -1.3084   62.1647   24.2095 H   0  0  0  0  0  0  0  0  0  0  0  0
    0.0683   62.1289   26.8850 H   0  0  0  0  0  0  0  0  0  0  0  0
   -2.8602   62.0534   26.2358 H   0  0  0  0  0  0  0  0  0  0  0  0
   -2.0077   63.3867   26.9765 H   0  0  0  0  0  0  0  0  0  0  0  0
   -2.1563   61.8659   27.8241 H   0  0  0  0  0  0  0  0  0  0  0  0
   -1.4511   60.0104   25.4171 H   0  0  0  0  0  0  0  0  0  0  0  0
   -0.8044   59.8736   27.0345 H   0  0  0  0  0  0  0  0  0  0  0  0
    0.2771   60.0416   25.6725 H   0  0  0  0  0  0  0  0  0  0  0  0
   -2.2757   64.0893   23.9899 H   0  0  0  0  0  0  0  0  0  0  0  0
   -0.9475   66.5022   25.0496 H   0  0  0  0  0  0  0  0  0  0  0  0
   -2.5749   66.2429   22.5193 H   0  0  0  0  0  0  0  0  0  0  0  0
   -1.8104   67.7303   23.1651 H   0  0  0  0  0  0  0  0  0  0  0  0
   -0.2923   65.3584   22.2312 H   0  0  0  0  0  0  0  0  0  0  0  0
   -0.9032   67.9017   20.7597 H   0  0  0  0  0  0  0  0  0  0  0  0
   -1.5099   66.3133   20.3575 H   0  0  0  0  0  0  0  0  0  0  0  0
    0.1997   66.6525   20.2342 H   0  0  0  0  0  0  0  0  0  0  0  0
    0.5018   68.1477   22.9585 H   0  0  0  0  0  0  0  0  0  0  0  0
    1.5677   66.9003   22.3577 H   0  0  0  0  0  0  0  0  0  0  0  0
    0.7953   66.7145   23.9139 H   0  0  0  0  0  0  0  0  0  0  0  0
   -2.0627   67.6887   26.4088 H   0  0  0  0  0  0  0  0  0  0  0  0
   -5.0071   67.3869   26.4294 H   0  0  0  0  0  0  0  0  0  0  0  0
   -4.2017   68.9135   26.7016 H   0  0  0  0  0  0  0  0  0  0  0  0
   -4.0619   67.6298   27.8788 H   0  0  0  0  0  0  0  0  0  0  0  0
  1  2  1  0  0  0  0
  1 36  1  0  0  0  0
  1 37  1  0  0  0  0
  1 38  1  0  0  0  0
  2  3  2  0  0  0  0
  4  5  1  0  0  0  0
  4  2  1  0  0  0  0
  4 39  1  0  0  0  0
  5  6  1  0  0  0  0
  5 40  1  1  0  0  0
  6  7  2  0  0  0  0
  8  5  1  0  0  0  0
  8 41  1  0  0  0  0
  8 42  1  0  0  0  0
  9  8  1  0  0  0  0
  9 10  1  0  0  0  0
 11  9  2  0  0  0  0
 12  6  1  0  0  0  0
 12 13  1  0  0  0  0
 12 43  1  0  0  0  0
 13 14  1  0  0  0  0
 13 44  1  1  0  0  0
 14 19  1  0  0  0  0
 15 14  2  0  0  0  0
 16 17  1  0  0  0  0
 16 13  1  0  0  0  0
 16 45  1  0  0  0  0
 17 46  1  0  0  0  0
 17 47  1  0  0  0  0
 17 48  1  0  0  0  0
 18 16  1  0  0  0  0
 18 49  1  0  0  0  0
 18 50  1  0  0  0  0
 18 51  1  0  0  0  0
 19 20  1  0  0  0  0
 19 52  1  0  0  0  0
 20 21  1  0  0  0  0
 20 23  1  0  0  0  0
 20 53  1  6  0  0  0
 21 22  2  0  0  0  0
 23 24  1  0  0  0  0
 23 54  1  0  0  0  0
 24 55  1  0  0  0  0
 24 56  1  0  0  0  0
 24 57  1  0  0  0  0
 25 23  1  0  0  0  0
 25 58  1  0  0  0  0
 25 59  1  0  0  0  0
 25 60  1  0  0  0  0
 26 27  1  0  0  0  0
 26 21  1  0  0  0  0
 26 61  1  0  0  0  0
 27 28  1  0  0  0  0
 27 62  1  1  0  0  0
 28 34  1  0  0  0  0
 29 28  2  0  0  0  0
 30 27  1  0  0  0  0
 30 63  1  0  0  0  0
 30 64  1  0  0  0  0
 31 33  1  0  0  0  0
 31 30  1  0  0  0  0
 31 65  1  0  0  0  0
 32 31  1  0  0  0  0
 32 66  1  0  0  0  0
 32 67  1  0  0  0  0
 32 68  1  0  0  0  0
 33 69  1  0  0  0  0
 33 70  1  0  0  0  0
 33 71  1  0  0  0  0
 34 35  1  0  0  0  0
 34 72  1  0  0  0  0
 35 73  1  0  0  0  0
 35 74  1  0  0  0  0
 35 75  1  0  0  0  0
M  CHG  1  10  -1
M  END
>  <MODEL>
       0

$$$$
selected_4mers/DVVL/658_noH.pdb
 OpenBabel03042518233D

 75 74  0  0  1  0  0  0  0  0999 V2000
   -3.4060   18.2360   44.0410 C   0  0  0  0  0  0  0  0  0  0  0  0
   -3.6890   18.9870   45.3400 C   0  0  0  0  0  0  0  0  0  0  0  0
   -2.8000   19.5860   45.9590 O   0  0  0  0  0  0  0  0  0  0  0  0
   -4.9480   18.9710   45.7750 N   0  0  0  0  0  0  0  0  0  0  0  0
   -5.3460   19.7430   46.9410 C   0  0  2  0  0  0  0  0  0  0  0  0
   -4.6870   19.2000   48.2170 C   0  0  0  0  0  0  0  0  0  0  0  0
   -4.3360   19.9720   49.1050 O   0  0  0  0  0  0  0  0  0  0  0  0
   -6.8690   19.7010   47.1190 C   0  0  0  0  0  0  0  0  0  0  0  0
   -7.6190   20.4970   46.0600 C   0  0  0  0  0  0  0  0  0  0  0  0
   -7.0050   21.3170   45.3370 O   0  0  0  0  0  0  0  0  0  0  0  0
   -8.8580   20.3050   45.9610 O   0  0  0  0  0  0  0  0  0  0  0  0
   -4.5140   17.8830   48.2860 N   0  0  0  0  0  0  0  0  0  0  0  0
   -3.8740   17.2570   49.4650 C   0  0  2  0  0  0  0  0  0  0  0  0
   -2.4150   17.7070   49.5630 C   0  0  0  0  0  0  0  0  0  0  0  0
   -1.9700   18.1460   50.6190 O   0  0  0  0  0  0  0  0  0  0  0  0
   -3.9530   15.7140   49.4290 C   0  0  0  0  0  0  0  0  0  0  0  0
   -3.1530   15.1000   50.5850 C   0  0  0  0  0  0  0  0  0  0  0  0
   -5.4430   15.2510   49.4550 C   0  0  0  0  0  0  0  0  0  0  0  0
   -1.6900   17.6100   48.4510 N   0  0  0  0  0  0  0  0  0  0  0  0
   -0.2850   17.9920   48.4450 C   0  0  2  0  0  0  0  0  0  0  0  0
   -0.1160   19.4970   48.7170 C   0  0  0  0  0  0  0  0  0  0  0  0
    0.7340   19.8870   49.5140 O   0  0  0  0  0  0  0  0  0  0  0  0
    0.3900   17.5820   47.1490 C   0  0  0  0  0  0  0  0  0  0  0  0
    1.8440   18.1330   47.0940 C   0  0  0  0  0  0  0  0  0  0  0  0
    0.3650   16.0170   47.0170 C   0  0  0  0  0  0  0  0  0  0  0  0
   -0.9510   20.3270   48.0880 N   0  0  0  0  0  0  0  0  0  0  0  0
   -0.8550   21.7640   48.3460 C   0  0  2  0  0  0  0  0  0  0  0  0
   -1.0690   22.0540   49.8160 C   0  0  0  0  0  0  0  0  0  0  0  0
   -0.3470   22.8480   50.4240 O   0  0  0  0  0  0  0  0  0  0  0  0
   -1.8710   22.5560   47.5220 C   0  0  0  0  0  0  0  0  0  0  0  0
   -1.7860   24.0790   47.6020 C   0  0  0  0  0  0  0  0  0  0  0  0
   -0.3530   24.5670   47.3440 C   0  0  0  0  0  0  0  0  0  0  0  0
   -2.7980   24.6590   46.5940 C   0  0  0  0  0  0  0  0  0  0  0  0
   -2.0690   21.4330   50.4060 N   0  0  0  0  0  0  0  0  0  0  0  0
   -2.3060   21.6240   51.8520 C   0  0  0  0  0  0  0  0  0  0  0  0
   -4.3114   17.7951   43.6794 H   0  0  0  0  0  0  0  0  0  0  0  0
   -2.6834   17.4682   44.2231 H   0  0  0  0  0  0  0  0  0  0  0  0
   -3.0249   18.9184   43.3103 H   0  0  0  0  0  0  0  0  0  0  0  0
   -5.6186   18.4287   45.3002 H   0  0  0  0  0  0  0  0  0  0  0  0
   -5.0255   20.7512   46.7805 H   0  0  0  0  0  0  0  0  0  0  0  0
   -7.1893   18.6813   47.0682 H   0  0  0  0  0  0  0  0  0  0  0  0
   -7.0906   20.1453   48.0668 H   0  0  0  0  0  0  0  0  0  0  0  0
   -4.8165   17.3152   47.5408 H   0  0  0  0  0  0  0  0  0  0  0  0
   -4.4130   17.5796   50.3312 H   0  0  0  0  0  0  0  0  0  0  0  0
   -3.5137   15.3675   48.5169 H   0  0  0  0  0  0  0  0  0  0  0  0
   -3.5656   15.4259   51.5169 H   0  0  0  0  0  0  0  0  0  0  0  0
   -2.1320   15.4131   50.5180 H   0  0  0  0  0  0  0  0  0  0  0  0
   -3.2034   14.0328   50.5264 H   0  0  0  0  0  0  0  0  0  0  0  0
   -5.9050   15.5865   50.3600 H   0  0  0  0  0  0  0  0  0  0  0  0
   -5.4855   14.1829   49.4075 H   0  0  0  0  0  0  0  0  0  0  0  0
   -5.9602   15.6662   48.6153 H   0  0  0  0  0  0  0  0  0  0  0  0
   -2.1079   17.2766   47.6243 H   0  0  0  0  0  0  0  0  0  0  0  0
    0.1999   17.4655   49.2403 H   0  0  0  0  0  0  0  0  0  0  0  0
   -0.1437   18.0010   46.3217 H   0  0  0  0  0  0  0  0  0  0  0  0
    2.4082   17.7328   47.9103 H   0  0  0  0  0  0  0  0  0  0  0  0
    1.8238   19.2005   47.1639 H   0  0  0  0  0  0  0  0  0  0  0  0
    2.3000   17.8447   46.1700 H   0  0  0  0  0  0  0  0  0  0  0  0
    0.8953   15.5813   47.8379 H   0  0  0  0  0  0  0  0  0  0  0  0
    0.8314   15.7291   46.0980 H   0  0  0  0  0  0  0  0  0  0  0  0
   -0.6487   15.6745   47.0252 H   0  0  0  0  0  0  0  0  0  0  0  0
   -1.6225   19.9769   47.4589 H   0  0  0  0  0  0  0  0  0  0  0  0
    0.1283   22.0716   48.0571 H   0  0  0  0  0  0  0  0  0  0  0  0
   -1.7431   22.2782   46.4967 H   0  0  0  0  0  0  0  0  0  0  0  0
   -2.8244   22.3067   47.9388 H   0  0  0  0  0  0  0  0  0  0  0  0
   -2.0346   24.4199   48.5853 H   0  0  0  0  0  0  0  0  0  0  0  0
   -0.0407   24.2567   46.3688 H   0  0  0  0  0  0  0  0  0  0  0  0
    0.3036   24.1495   48.0785 H   0  0  0  0  0  0  0  0  0  0  0  0
   -0.3235   25.6349   47.4050 H   0  0  0  0  0  0  0  0  0  0  0  0
   -2.5536   24.3209   45.6087 H   0  0  0  0  0  0  0  0  0  0  0  0
   -2.7589   25.7279   46.6243 H   0  0  0  0  0  0  0  0  0  0  0  0
   -3.7839   24.3308   46.8494 H   0  0  0  0  0  0  0  0  0  0  0  0
   -2.6584   20.8418   49.8841 H   0  0  0  0  0  0  0  0  0  0  0  0
   -1.5722   22.2944   52.2482 H   0  0  0  0  0  0  0  0  0  0  0  0
   -2.2350   20.6810   52.3527 H   0  0  0  0  0  0  0  0  0  0  0  0
   -3.2825   22.0349   52.0022 H   0  0  0  0  0  0  0  0  0  0  0  0
  1  2  1  0  0  0  0
  1 36  1  0  0  0  0
  1 37  1  0  0  0  0
  1 38  1  0  0  0  0
  2  4  1  0  0  0  0
  2  3  2  0  0  0  0
  4  5  1  0  0  0  0
  4 39  1  0  0  0  0
  5  8  1  0  0  0  0
  5  6  1  0  0  0  0
  5 40  1  6  0  0  0
  6 12  1  0  0  0  0
  6  7  2  0  0  0  0
  8 41  1  0  0  0  0
  8 42  1  0  0  0  0
  9  8  1  0  0  0  0
 10  9  2  0  0  0  0
 11  9  1  0  0  0  0
 12 13  1  0  0  0  0
 12 43  1  0  0  0  0
 13 14  1  0  0  0  0
 13 44  1  1  0  0  0
 14 15  2  0  0  0  0
 16 18  1  0  0  0  0
 16 13  1  0  0  0  0
 16 17  1  0  0  0  0
 16 45  1  0  0  0  0
 17 46  1  0  0  0  0
 17 47  1  0  0  0  0
 17 48  1  0  0  0  0
 18 49  1  0  0  0  0
 18 50  1  0  0  0  0
 18 51  1  0  0  0  0
 19 14  1  0  0  0  0
 19 52  1  0  0  0  0
 20 19  1  0  0  0  0
 20 21  1  0  0  0  0
 20 53  1  1  0  0  0
 21 22  2  0  0  0  0
 23 20  1  0  0  0  0
 23 54  1  0  0  0  0
 24 23  1  0  0  0  0
 24 55  1  0  0  0  0
 24 56  1  0  0  0  0
 24 57  1  0  0  0  0
 25 23  1  0  0  0  0
 25 58  1  0  0  0  0
 25 59  1  0  0  0  0
 25 60  1  0  0  0  0
 26 27  1  0  0  0  0
 26 21  1  0  0  0  0
 26 61  1  0  0  0  0
 27 28  1  0  0  0  0
 27 62  1  6  0  0  0
 28 34  1  0  0  0  0
 28 29  2  0  0  0  0
 30 31  1  0  0  0  0
 30 27  1  0  0  0  0
 30 63  1  0  0  0  0
 30 64  1  0  0  0  0
 31 65  1  0  0  0  0
 32 31  1  0  0  0  0
 32 66  1  0  0  0  0
 32 67  1  0  0  0  0
 32 68  1  0  0  0  0
 33 31  1  0  0  0  0
 33 69  1  0  0  0  0
 33 70  1  0  0  0  0
 33 71  1  0  0  0  0
 34 35  1  0  0  0  0
 34 72  1  0  0  0  0
 35 73  1  0  0  0  0
 35 74  1  0  0  0  0
 35 75  1  0  0  0  0
M  CHG  1  11  -1
M  END
>  <MODEL>
       0

$$$$
selected_4mers/DVVL/659_noH.pdb
 OpenBabel03042518233D

 75 74  0  0  1  0  0  0  0  0999 V2000
   49.1140   26.6570   -6.6260 C   0  0  0  0  0  0  0  0  0  0  0  0
   49.4560   25.2140   -6.8940 C   0  0  0  0  0  0  0  0  0  0  0  0
   49.6950   24.4160   -5.9860 O   0  0  0  0  0  0  0  0  0  0  0  0
   49.4310   24.8370   -8.1860 N   0  0  0  0  0  0  0  0  0  0  0  0
   49.7920   23.4950   -8.6370 C   0  0  2  0  0  0  0  0  0  0  0  0
   51.3200   23.3680   -8.5690 C   0  0  0  0  0  0  0  0  0  0  0  0
   52.0060   24.1750   -9.1650 O   0  0  0  0  0  0  0  0  0  0  0  0
   49.3760   23.2540  -10.0850 C   0  0  0  0  0  0  0  0  0  0  0  0
   47.8860   23.3480  -10.3620 C   0  0  0  0  0  0  0  0  0  0  0  0
   47.0670   23.5510   -9.4730 O   0  0  0  0  0  0  0  0  0  0  0  0
   47.5700   23.1260  -11.5550 O   0  0  0  0  0  0  0  0  0  0  0  0
   51.8250   22.3970   -7.8250 N   0  0  0  0  0  0  0  0  0  0  0  0
   53.2620   22.2360   -7.6450 C   0  0  2  0  0  0  0  0  0  0  0  0
   53.6070   20.7550   -7.6530 C   0  0  0  0  0  0  0  0  0  0  0  0
   52.7450   19.8970   -7.4500 O   0  0  0  0  0  0  0  0  0  0  0  0
   53.7610   22.9050   -6.3060 C   0  0  0  0  0  0  0  0  0  0  0  0
   53.5220   24.4190   -6.3360 C   0  0  0  0  0  0  0  0  0  0  0  0
   53.1410   22.2550   -5.0440 C   0  0  0  0  0  0  0  0  0  0  0  0
   54.8850   20.4360   -7.8640 N   0  0  0  0  0  0  0  0  0  0  0  0
   55.3510   19.0730   -7.8210 C   0  0  2  0  0  0  0  0  0  0  0  0
   55.2400   18.5510   -6.4010 C   0  0  0  0  0  0  0  0  0  0  0  0
   55.7010   19.1920   -5.4510 O   0  0  0  0  0  0  0  0  0  0  0  0
   56.7940   18.9510   -8.3460 C   0  0  0  0  0  0  0  0  0  0  0  0
   57.3020   17.4910   -8.1670 C   0  0  0  0  0  0  0  0  0  0  0  0
   56.8530   19.3520   -9.8020 C   0  0  0  0  0  0  0  0  0  0  0  0
   54.6780   17.3540   -6.2550 N   0  0  0  0  0  0  0  0  0  0  0  0
   54.6630   16.6590   -4.9730 C   0  0  2  0  0  0  0  0  0  0  0  0
   55.8750   15.7310   -4.9180 C   0  0  0  0  0  0  0  0  0  0  0  0
   55.8720   14.5860   -5.3950 O   0  0  0  0  0  0  0  0  0  0  0  0
   53.3390   15.9170   -4.7540 C   0  0  0  0  0  0  0  0  0  0  0  0
   52.1200   16.7890   -4.4890 C   0  0  0  0  0  0  0  0  0  0  0  0
   50.8170   15.9600   -4.4220 C   0  0  0  0  0  0  0  0  0  0  0  0
   52.3420   17.6390   -3.1970 C   0  0  0  0  0  0  0  0  0  0  0  0
   56.9380   16.2340   -4.3110 N   0  0  0  0  0  0  0  0  0  0  0  0
   58.1910   15.5450   -4.1590 C   0  0  0  0  0  0  0  0  0  0  0  0
   48.9460   27.1621   -7.5542 H   0  0  0  0  0  0  0  0  0  0  0  0
   49.9241   27.1250   -6.1068 H   0  0  0  0  0  0  0  0  0  0  0  0
   48.2291   26.7085   -6.0267 H   0  0  0  0  0  0  0  0  0  0  0  0
   49.1556   25.4988   -8.8609 H   0  0  0  0  0  0  0  0  0  0  0  0
   49.2930   22.7842   -8.0119 H   0  0  0  0  0  0  0  0  0  0  0  0
   49.8711   23.9801  -10.6953 H   0  0  0  0  0  0  0  0  0  0  0  0
   49.6524   22.2441  -10.3056 H   0  0  0  0  0  0  0  0  0  0  0  0
   51.2132   21.7663   -7.3811 H   0  0  0  0  0  0  0  0  0  0  0  0
   53.7596   22.7295   -8.4535 H   0  0  0  0  0  0  0  0  0  0  0  0
   54.8148   22.7311   -6.2414 H   0  0  0  0  0  0  0  0  0  0  0  0
   52.4717   24.6131   -6.4006 H   0  0  0  0  0  0  0  0  0  0  0  0
   54.0157   24.8412   -7.1862 H   0  0  0  0  0  0  0  0  0  0  0  0
   53.9117   24.8594   -5.4421 H   0  0  0  0  0  0  0  0  0  0  0  0
   52.0806   22.3979   -5.0536 H   0  0  0  0  0  0  0  0  0  0  0  0
   53.5544   22.7105   -4.1685 H   0  0  0  0  0  0  0  0  0  0  0  0
   53.3597   21.2076   -5.0382 H   0  0  0  0  0  0  0  0  0  0  0  0
   55.5303   21.1545   -8.0552 H   0  0  0  0  0  0  0  0  0  0  0  0
   54.7364   18.4786   -8.4643 H   0  0  0  0  0  0  0  0  0  0  0  0
   57.4257   19.6074   -7.7848 H   0  0  0  0  0  0  0  0  0  0  0  0
   56.6770   16.8250   -8.7245 H   0  0  0  0  0  0  0  0  0  0  0  0
   57.2699   17.2267   -7.1307 H   0  0  0  0  0  0  0  0  0  0  0  0
   58.3084   17.4174   -8.5228 H   0  0  0  0  0  0  0  0  0  0  0  0
   56.2251   18.7033  -10.3763 H   0  0  0  0  0  0  0  0  0  0  0  0
   57.8610   19.2751  -10.1526 H   0  0  0  0  0  0  0  0  0  0  0  0
   56.5146   20.3616   -9.9079 H   0  0  0  0  0  0  0  0  0  0  0  0
   54.2597   16.9245   -7.0359 H   0  0  0  0  0  0  0  0  0  0  0  0
   54.7314   17.3635   -4.1706 H   0  0  0  0  0  0  0  0  0  0  0  0
   53.4640   15.2656   -3.9144 H   0  0  0  0  0  0  0  0  0  0  0  0
   53.1366   15.4113   -5.6750 H   0  0  0  0  0  0  0  0  0  0  0  0
   52.0013   17.4592   -5.3146 H   0  0  0  0  0  0  0  0  0  0  0  0
   50.8768   15.2666   -3.6093 H   0  0  0  0  0  0  0  0  0  0  0  0
   50.6876   15.4243   -5.3391 H   0  0  0  0  0  0  0  0  0  0  0  0
   49.9847   16.6153   -4.2712 H   0  0  0  0  0  0  0  0  0  0  0  0
   52.4632   16.9868   -2.3575 H   0  0  0  0  0  0  0  0  0  0  0  0
   51.4948   18.2726   -3.0370 H   0  0  0  0  0  0  0  0  0  0  0  0
   53.2200   18.2397   -3.3117 H   0  0  0  0  0  0  0  0  0  0  0  0
   56.8660   17.1422   -3.9379 H   0  0  0  0  0  0  0  0  0  0  0  0
   58.1226   14.5768   -4.6094 H   0  0  0  0  0  0  0  0  0  0  0  0
   58.4159   15.4391   -3.1183 H   0  0  0  0  0  0  0  0  0  0  0  0
   58.9669   16.1064   -4.6362 H   0  0  0  0  0  0  0  0  0  0  0  0
  1 36  1  0  0  0  0
  1 37  1  0  0  0  0
  1 38  1  0  0  0  0
  2  1  1  0  0  0  0
  2  3  2  0  0  0  0
  4  2  1  0  0  0  0
  4 39  1  0  0  0  0
  5  6  1  0  0  0  0
  5  4  1  0  0  0  0
  5 40  1  1  0  0  0
  6 12  1  0  0  0  0
  7  6  2  0  0  0  0
  8  5  1  0  0  0  0
  8 41  1  0  0  0  0
  8 42  1  0  0  0  0
  9  8  1  0  0  0  0
  9 10  1  0  0  0  0
 11  9  2  0  0  0  0
 12 13  1  0  0  0  0
 12 43  1  0  0  0  0
 13 16  1  0  0  0  0
 13 44  1  6  0  0  0
 14 13  1  0  0  0  0
 14 15  2  0  0  0  0
 16 18  1  0  0  0  0
 16 45  1  0  0  0  0
 17 16  1  0  0  0  0
 17 46  1  0  0  0  0
 17 47  1  0  0  0  0
 17 48  1  0  0  0  0
 18 49  1  0  0  0  0
 18 50  1  0  0  0  0
 18 51  1  0  0  0  0
 19 20  1  0  0  0  0
 19 14  1  0  0  0  0
 19 52  1  0  0  0  0
 20 21  1  0  0  0  0
 20 53  1  6  0  0  0
 21 26  1  0  0  0  0
 21 22  2  0  0  0  0
 23 24  1  0  0  0  0
 23 20  1  0  0  0  0
 23 54  1  0  0  0  0
 24 55  1  0  0  0  0
 24 56  1  0  0  0  0
 24 57  1  0  0  0  0
 25 23  1  0  0  0  0
 25 58  1  0  0  0  0
 25 59  1  0  0  0  0
 25 60  1  0  0  0  0
 26 27  1  0  0  0  0
 26 61  1  0  0  0  0
 27 28  1  0  0  0  0
 27 30  1  0  0  0  0
 27 62  1  1  0  0  0
 28 34  1  0  0  0  0
 29 28  2  0  0  0  0
 30 31  1  0  0  0  0
 30 63  1  0  0  0  0
 30 64  1  0  0  0  0
 31 32  1  0  0  0  0
 31 33  1  0  0  0  0
 31 65  1  0  0  0  0
 32 66  1  0  0  0  0
 32 67  1  0  0  0  0
 32 68  1  0  0  0  0
 33 69  1  0  0  0  0
 33 70  1  0  0  0  0
 33 71  1  0  0  0  0
 34 35  1  0  0  0  0
 34 72  1  0  0  0  0
 35 73  1  0  0  0  0
 35 74  1  0  0  0  0
 35 75  1  0  0  0  0
M  CHG  1  10  -1
M  END
>  <MODEL>
       0

$$$$
