selected_4mers/EAIA/425_noH.pdb
 OpenBabel03042517593D

 66 65  0  0  1  0  0  0  0  0999 V2000
   49.3590   22.4480   19.7950 C   0  0  0  0  0  0  0  0  0  0  0  0
   48.6940   22.3720   21.1590 C   0  0  0  0  0  0  0  0  0  0  0  0
   47.5890   21.8580   21.2940 O   0  0  0  0  0  0  0  0  0  0  0  0
   49.3580   22.8630   22.1930 N   0  0  0  0  0  0  0  0  0  0  0  0
   48.7920   22.8370   23.5430 C   0  0  2  0  0  0  0  0  0  0  0  0
   47.5510   23.7170   23.6450 C   0  0  0  0  0  0  0  0  0  0  0  0
   46.6390   23.3980   24.4150 O   0  0  0  0  0  0  0  0  0  0  0  0
   49.8720   23.2850   24.5420 C   0  0  0  0  0  0  0  0  0  0  0  0
   51.0120   22.2660   24.7090 C   0  0  0  0  0  0  0  0  0  0  0  0
   52.2250   22.8750   25.4070 C   0  0  0  0  0  0  0  0  0  0  0  0
   52.8330   23.8020   24.8200 O   0  0  0  0  0  0  0  0  0  0  0  0
   52.5500   22.4420   26.5230 O   0  0  0  0  0  0  0  0  0  0  0  0
   47.4780   24.8050   22.8980 N   0  0  0  0  0  0  0  0  0  0  0  0
   46.2950   25.6170   22.8770 C   0  0  2  0  0  0  0  0  0  0  0  0
   45.1030   24.8990   22.2400 C   0  0  0  0  0  0  0  0  0  0  0  0
   43.9980   24.9770   22.7690 O   0  0  0  0  0  0  0  0  0  0  0  0
   46.5740   26.9350   22.1500 C   0  0  0  0  0  0  0  0  0  0  0  0
   45.3290   24.1870   21.1440 N   0  0  0  0  0  0  0  0  0  0  0  0
   44.2990   23.3490   20.5390 C   0  0  2  0  0  0  0  0  0  0  0  0
   43.8260   22.3590   21.5750 C   0  0  0  0  0  0  0  0  0  0  0  0
   42.6010   22.1500   21.7550 O   0  0  0  0  0  0  0  0  0  0  0  0
   44.8560   22.6290   19.2910 C   0  0  2  0  0  0  0  0  0  0  0  0
   45.0390   23.6100   18.1190 C   0  0  0  0  0  0  0  0  0  0  0  0
   43.8900   21.5050   18.8930 C   0  0  0  0  0  0  0  0  0  0  0  0
   45.8670   23.0630   16.9990 C   0  0  0  0  0  0  0  0  0  0  0  0
   44.7550   21.6730   22.2500 N   0  0  0  0  0  0  0  0  0  0  0  0
   44.3580   20.6680   23.2540 C   0  0  2  0  0  0  0  0  0  0  0  0
   43.4650   21.2830   24.3140 C   0  0  0  0  0  0  0  0  0  0  0  0
   42.4630   20.6730   24.7200 O   0  0  0  0  0  0  0  0  0  0  0  0
   45.6030   20.0600   23.8800 C   0  0  0  0  0  0  0  0  0  0  0  0
   43.8160   22.4690   24.7930 N   0  0  0  0  0  0  0  0  0  0  0  0
   43.0540   23.0320   25.8670 C   0  0  0  0  0  0  0  0  0  0  0  0
   48.7131   22.0171   19.0588 H   0  0  0  0  0  0  0  0  0  0  0  0
   50.2830   21.9090   19.8182 H   0  0  0  0  0  0  0  0  0  0  0  0
   49.5492   23.4714   19.5475 H   0  0  0  0  0  0  0  0  0  0  0  0
   50.2506   23.2536   22.0516 H   0  0  0  0  0  0  0  0  0  0  0  0
   48.4824   21.8393   23.7745 H   0  0  0  0  0  0  0  0  0  0  0  0
   49.4101   23.4361   25.4953 H   0  0  0  0  0  0  0  0  0  0  0  0
   50.3061   24.1832   24.1552 H   0  0  0  0  0  0  0  0  0  0  0  0
   51.3087   21.9178   23.7417 H   0  0  0  0  0  0  0  0  0  0  0  0
   50.6506   21.4620   25.3155 H   0  0  0  0  0  0  0  0  0  0  0  0
   48.2505   25.0634   22.3451 H   0  0  0  0  0  0  0  0  0  0  0  0
   46.0307   25.8189   23.8940 H   0  0  0  0  0  0  0  0  0  0  0  0
   46.8382   26.7324   21.1331 H   0  0  0  0  0  0  0  0  0  0  0  0
   47.3809   27.4451   22.6333 H   0  0  0  0  0  0  0  0  0  0  0  0
   45.6979   27.5487   22.1754 H   0  0  0  0  0  0  0  0  0  0  0  0
   46.2194   24.2251   20.7257 H   0  0  0  0  0  0  0  0  0  0  0  0
   43.4737   23.9494   20.2176 H   0  0  0  0  0  0  0  0  0  0  0  0
   45.8165   22.2200   19.5256 H   0  0  0  0  0  0  0  0  0  0  0  0
   44.0725   23.8596   17.7336 H   0  0  0  0  0  0  0  0  0  0  0  0
   45.5584   24.4627   18.5037 H   0  0  0  0  0  0  0  0  0  0  0  0
   42.9329   21.9230   18.6603 H   0  0  0  0  0  0  0  0  0  0  0  0
   43.7903   20.8160   19.7056 H   0  0  0  0  0  0  0  0  0  0  0  0
   44.2733   20.9922   18.0356 H   0  0  0  0  0  0  0  0  0  0  0  0
   45.3820   22.2046   16.5832 H   0  0  0  0  0  0  0  0  0  0  0  0
   46.8303   22.7830   17.3713 H   0  0  0  0  0  0  0  0  0  0  0  0
   45.9808   23.8102   16.2416 H   0  0  0  0  0  0  0  0  0  0  0  0
   45.7095   21.8399   22.0756 H   0  0  0  0  0  0  0  0  0  0  0  0
   43.7970   19.8957   22.7705 H   0  0  0  0  0  0  0  0  0  0  0  0
   46.1691   20.8272   24.3655 H   0  0  0  0  0  0  0  0  0  0  0  0
   46.1998   19.6049   23.1173 H   0  0  0  0  0  0  0  0  0  0  0  0
   45.3163   19.3200   24.5977 H   0  0  0  0  0  0  0  0  0  0  0  0
   44.5863   22.9534   24.4171 H   0  0  0  0  0  0  0  0  0  0  0  0
   42.2647   22.3609   26.1344 H   0  0  0  0  0  0  0  0  0  0  0  0
   42.6371   23.9672   25.5565 H   0  0  0  0  0  0  0  0  0  0  0  0
   43.6909   23.1885   26.7124 H   0  0  0  0  0  0  0  0  0  0  0  0
  1  2  1  0  0  0  0
  1 33  1  0  0  0  0
  1 34  1  0  0  0  0
  1 35  1  0  0  0  0
  2  3  2  0  0  0  0
  2  4  1  0  0  0  0
  4  5  1  0  0  0  0
  4 36  1  0  0  0  0
  5  6  1  0  0  0  0
  5  8  1  0  0  0  0
  5 37  1  1  0  0  0
  6  7  2  0  0  0  0
  8  9  1  0  0  0  0
  8 38  1  0  0  0  0
  8 39  1  0  0  0  0
  9 10  1  0  0  0  0
  9 40  1  0  0  0  0
  9 41  1  0  0  0  0
 10 12  1  0  0  0  0
 11 10  2  0  0  0  0
 13  6  1  0  0  0  0
 13 42  1  0  0  0  0
 14 13  1  0  0  0  0
 14 43  1  1  0  0  0
 15 16  2  0  0  0  0
 15 14  1  0  0  0  0
 17 14  1  0  0  0  0
 17 44  1  0  0  0  0
 17 45  1  0  0  0  0
 17 46  1  0  0  0  0
 18 15  1  0  0  0  0
 18 47  1  0  0  0  0
 19 18  1  0  0  0  0
 19 20  1  0  0  0  0
 19 48  1  6  0  0  0
 20 21  2  0  0  0  0
 20 26  1  0  0  0  0
 22 19  1  0  0  0  0
 22 49  1  1  0  0  0
 23 22  1  0  0  0  0
 23 50  1  0  0  0  0
 23 51  1  0  0  0  0
 24 22  1  0  0  0  0
 24 52  1  0  0  0  0
 24 53  1  0  0  0  0
 24 54  1  0  0  0  0
 25 23  1  0  0  0  0
 25 55  1  0  0  0  0
 25 56  1  0  0  0  0
 25 57  1  0  0  0  0
 26 27  1  0  0  0  0
 26 58  1  0  0  0  0
 27 30  1  0  0  0  0
 27 28  1  0  0  0  0
 27 59  1  6  0  0  0
 28 29  2  0  0  0  0
 28 31  1  0  0  0  0
 30 60  1  0  0  0  0
 30 61  1  0  0  0  0
 30 62  1  0  0  0  0
 31 32  1  0  0  0  0
 31 63  1  0  0  0  0
 32 64  1  0  0  0  0
 32 65  1  0  0  0  0
 32 66  1  0  0  0  0
M  CHG  1  12  -1
M  END
>  <MODEL>
       0

$$$$
selected_4mers/EAIA/426_noH.pdb
 OpenBabel03042517593D

 66 65  0  0  1  0  0  0  0  0999 V2000
   -2.7920   45.8030   21.4610 C   0  0  0  0  0  0  0  0  0  0  0  0
   -2.3430   47.1640   22.0050 C   0  0  0  0  0  0  0  0  0  0  0  0
   -1.1580   47.3870   22.2410 O   0  0  0  0  0  0  0  0  0  0  0  0
   -3.2950   48.0660   22.2220 N   0  0  0  0  0  0  0  0  0  0  0  0
   -2.9760   49.3980   22.7270 C   0  0  2  0  0  0  0  0  0  0  0  0
   -2.4660   49.3870   24.1680 C   0  0  0  0  0  0  0  0  0  0  0  0
   -2.0580   50.4230   24.6920 O   0  0  0  0  0  0  0  0  0  0  0  0
   -4.2050   50.3090   22.6240 C   0  0  0  0  0  0  0  0  0  0  0  0
   -5.3640   49.8900   23.5050 C   0  0  0  0  0  0  0  0  0  0  0  0
   -6.5920   50.7580   23.2990 C   0  0  0  0  0  0  0  0  0  0  0  0
   -7.1460   50.7490   22.1780 O   0  0  0  0  0  0  0  0  0  0  0  0
   -7.0020   51.4490   24.2560 O   0  0  0  0  0  0  0  0  0  0  0  0
   -2.4870   48.2200   24.8040 N   0  0  0  0  0  0  0  0  0  0  0  0
   -2.0250   48.0880   26.1840 C   0  0  2  0  0  0  0  0  0  0  0  0
   -0.5910   47.5670   26.2510 C   0  0  0  0  0  0  0  0  0  0  0  0
   -0.0550   47.3380   27.3350 O   0  0  0  0  0  0  0  0  0  0  0  0
   -2.9550   47.1550   26.9610 C   0  0  0  0  0  0  0  0  0  0  0  0
    0.0220   47.3740   25.0880 N   0  0  0  0  0  0  0  0  0  0  0  0
    1.3990   46.8820   25.0140 C   0  0  2  0  0  0  0  0  0  0  0  0
    2.3820   48.0510   25.0960 C   0  0  0  0  0  0  0  0  0  0  0  0
    2.3090   48.9910   24.3060 O   0  0  0  0  0  0  0  0  0  0  0  0
    1.6250   46.0990   23.6940 C   0  0  2  0  0  0  0  0  0  0  0  0
    0.7160   44.8630   23.6660 C   0  0  0  0  0  0  0  0  0  0  0  0
    3.0950   45.7070   23.5540 C   0  0  0  0  0  0  0  0  0  0  0  0
    0.9820   43.8710   24.7770 C   0  0  0  0  0  0  0  0  0  0  0  0
    3.2970   47.9860   26.0600 N   0  0  0  0  0  0  0  0  0  0  0  0
    4.2970   49.0360   26.2700 C   0  0  2  0  0  0  0  0  0  0  0  0
    5.4940   48.9300   25.3290 C   0  0  0  0  0  0  0  0  0  0  0  0
    6.1240   49.9380   24.9900 O   0  0  0  0  0  0  0  0  0  0  0  0
    4.7800   49.0020   27.7120 C   0  0  0  0  0  0  0  0  0  0  0  0
    5.8130   47.7100   24.9120 N   0  0  0  0  0  0  0  0  0  0  0  0
    6.9470   47.5210   24.0240 C   0  0  0  0  0  0  0  0  0  0  0  0
   -3.8529   45.8068   21.3222 H   0  0  0  0  0  0  0  0  0  0  0  0
   -2.5262   45.0353   22.1573 H   0  0  0  0  0  0  0  0  0  0  0  0
   -2.3103   45.6169   20.5238 H   0  0  0  0  0  0  0  0  0  0  0  0
   -4.2333   47.8312   22.0386 H   0  0  0  0  0  0  0  0  0  0  0  0
   -2.1829   49.7741   22.1151 H   0  0  0  0  0  0  0  0  0  0  0  0
   -4.5389   50.3084   21.6074 H   0  0  0  0  0  0  0  0  0  0  0  0
   -3.8986   51.2779   22.9591 H   0  0  0  0  0  0  0  0  0  0  0  0
   -5.0607   49.9615   24.5286 H   0  0  0  0  0  0  0  0  0  0  0  0
   -5.6266   48.8865   23.2425 H   0  0  0  0  0  0  0  0  0  0  0  0
   -2.8227   47.4234   24.3328 H   0  0  0  0  0  0  0  0  0  0  0  0
   -2.0417   49.0615   26.6278 H   0  0  0  0  0  0  0  0  0  0  0  0
   -2.9372   46.1821   26.5160 H   0  0  0  0  0  0  0  0  0  0  0  0
   -3.9523   47.5416   26.9336 H   0  0  0  0  0  0  0  0  0  0  0  0
   -2.6261   47.0886   27.9770 H   0  0  0  0  0  0  0  0  0  0  0  0
   -0.4630   47.5671   24.2533 H   0  0  0  0  0  0  0  0  0  0  0  0
    1.5673   46.2231   25.8401 H   0  0  0  0  0  0  0  0  0  0  0  0
    1.3736   46.7241   22.8628 H   0  0  0  0  0  0  0  0  0  0  0  0
    0.8571   44.3641   22.7300 H   0  0  0  0  0  0  0  0  0  0  0  0
   -0.2852   45.2151   23.8019 H   0  0  0  0  0  0  0  0  0  0  0  0
    3.3764   45.0795   24.3737 H   0  0  0  0  0  0  0  0  0  0  0  0
    3.7010   46.5889   23.5555 H   0  0  0  0  0  0  0  0  0  0  0  0
    3.2371   45.1781   22.6348 H   0  0  0  0  0  0  0  0  0  0  0  0
    1.9770   43.4888   24.6832 H   0  0  0  0  0  0  0  0  0  0  0  0
    0.2822   43.0643   24.7100 H   0  0  0  0  0  0  0  0  0  0  0  0
    0.8749   44.3584   25.7235 H   0  0  0  0  0  0  0  0  0  0  0  0
    3.3022   47.2019   26.6553 H   0  0  0  0  0  0  0  0  0  0  0  0
    3.8146   49.9662   26.0535 H   0  0  0  0  0  0  0  0  0  0  0  0
    5.2582   48.0647   27.9059 H   0  0  0  0  0  0  0  0  0  0  0  0
    3.9450   49.1194   28.3707 H   0  0  0  0  0  0  0  0  0  0  0  0
    5.4765   49.7980   27.8737 H   0  0  0  0  0  0  0  0  0  0  0  0
    5.2815   46.9346   25.2044 H   0  0  0  0  0  0  0  0  0  0  0  0
    7.3992   48.4683   23.8164 H   0  0  0  0  0  0  0  0  0  0  0  0
    6.6137   47.0768   23.1094 H   0  0  0  0  0  0  0  0  0  0  0  0
    7.6634   46.8787   24.4921 H   0  0  0  0  0  0  0  0  0  0  0  0
  1  2  1  0  0  0  0
  1 33  1  0  0  0  0
  1 34  1  0  0  0  0
  1 35  1  0  0  0  0
  2  3  2  0  0  0  0
  2  4  1  0  0  0  0
  4  5  1  0  0  0  0
  4 36  1  0  0  0  0
  5  6  1  0  0  0  0
  5  8  1  0  0  0  0
  5 37  1  1  0  0  0
  6  7  2  0  0  0  0
  8  9  1  0  0  0  0
  8 38  1  0  0  0  0
  8 39  1  0  0  0  0
  9 10  1  0  0  0  0
  9 40  1  0  0  0  0
  9 41  1  0  0  0  0
 10 12  1  0  0  0  0
 11 10  2  0  0  0  0
 13  6  1  0  0  0  0
 13 42  1  0  0  0  0
 14 13  1  0  0  0  0
 14 43  1  1  0  0  0
 15 16  2  0  0  0  0
 15 14  1  0  0  0  0
 17 14  1  0  0  0  0
 17 44  1  0  0  0  0
 17 45  1  0  0  0  0
 17 46  1  0  0  0  0
 18 15  1  0  0  0  0
 18 47  1  0  0  0  0
 19 18  1  0  0  0  0
 19 20  1  0  0  0  0
 19 48  1  6  0  0  0
 20 21  2  0  0  0  0
 20 26  1  0  0  0  0
 22 19  1  0  0  0  0
 22 49  1  1  0  0  0
 23 22  1  0  0  0  0
 23 50  1  0  0  0  0
 23 51  1  0  0  0  0
 24 22  1  0  0  0  0
 24 52  1  0  0  0  0
 24 53  1  0  0  0  0
 24 54  1  0  0  0  0
 25 23  1  0  0  0  0
 25 55  1  0  0  0  0
 25 56  1  0  0  0  0
 25 57  1  0  0  0  0
 26 27  1  0  0  0  0
 26 58  1  0  0  0  0
 27 30  1  0  0  0  0
 27 28  1  0  0  0  0
 27 59  1  6  0  0  0
 28 29  2  0  0  0  0
 28 31  1  0  0  0  0
 30 60  1  0  0  0  0
 30 61  1  0  0  0  0
 30 62  1  0  0  0  0
 31 32  1  0  0  0  0
 31 63  1  0  0  0  0
 32 64  1  0  0  0  0
 32 65  1  0  0  0  0
 32 66  1  0  0  0  0
M  CHG  1  12  -1
M  END
>  <MODEL>
       0

$$$$
selected_4mers/EAIA/427_noH.pdb
 OpenBabel03042517593D

 66 65  0  0  1  0  0  0  0  0999 V2000
   71.3840   53.4530   -9.7650 C   0  0  0  0  0  0  0  0  0  0  0  0
   70.9870   54.7470  -10.4810 C   0  0  0  0  0  0  0  0  0  0  0  0
   69.9420   54.8300  -11.1350 O   0  0  0  0  0  0  0  0  0  0  0  0
   71.8200   55.7430  -10.3210 N   0  0  0  0  0  0  0  0  0  0  0  0
   71.6100   57.0440  -10.9360 C   0  0  2  0  0  0  0  0  0  0  0  0
   71.6570   56.9580  -12.4580 C   0  0  0  0  0  0  0  0  0  0  0  0
   70.7950   57.5370  -13.1290 O   0  0  0  0  0  0  0  0  0  0  0  0
   72.6330   58.0070  -10.3540 C   0  0  0  0  0  0  0  0  0  0  0  0
   72.5570   59.4220  -10.7690 C   0  0  0  0  0  0  0  0  0  0  0  0
   73.6220   60.2290  -10.0380 C   0  0  0  0  0  0  0  0  0  0  0  0
   74.8210   59.9680  -10.2240 O   0  0  0  0  0  0  0  0  0  0  0  0
   73.2170   61.0750   -9.1980 O   0  0  0  0  0  0  0  0  0  0  0  0
   72.5900   56.1840  -13.0010 N   0  0  0  0  0  0  0  0  0  0  0  0
   72.7270   56.0180  -14.4340 C   0  0  2  0  0  0  0  0  0  0  0  0
   71.5280   55.3100  -15.0560 C   0  0  0  0  0  0  0  0  0  0  0  0
   71.0710   55.6900  -16.1200 O   0  0  0  0  0  0  0  0  0  0  0  0
   74.0250   55.2830  -14.7910 C   0  0  0  0  0  0  0  0  0  0  0  0
   71.0550   54.2530  -14.4000 N   0  0  0  0  0  0  0  0  0  0  0  0
   69.8920   53.5310  -14.9100 C   0  0  2  0  0  0  0  0  0  0  0  0
   68.6730   54.4390  -14.8920 C   0  0  0  0  0  0  0  0  0  0  0  0
   67.8920   54.4740  -15.8370 O   0  0  0  0  0  0  0  0  0  0  0  0
   69.6520   52.2440  -14.0910 C   0  0  2  0  0  0  0  0  0  0  0  0
   70.7460   51.2310  -14.4140 C   0  0  0  0  0  0  0  0  0  0  0  0
   68.2850   51.6760  -14.3960 C   0  0  0  0  0  0  0  0  0  0  0  0
   70.8260   49.9570  -13.5530 C   0  0  0  0  0  0  0  0  0  0  0  0
   68.5270   55.2140  -13.8400 N   0  0  0  0  0  0  0  0  0  0  0  0
   67.4120   56.1390  -13.7810 C   0  0  2  0  0  0  0  0  0  0  0  0
   67.4440   57.1180  -14.9530 C   0  0  0  0  0  0  0  0  0  0  0  0
   66.4190   57.4430  -15.5220 O   0  0  0  0  0  0  0  0  0  0  0  0
   67.4380   56.8650  -12.4610 C   0  0  0  0  0  0  0  0  0  0  0  0
   68.6380   57.5740  -15.3070 N   0  0  0  0  0  0  0  0  0  0  0  0
   68.8010   58.5560  -16.3580 C   0  0  0  0  0  0  0  0  0  0  0  0
   70.6469   52.7006   -9.9533 H   0  0  0  0  0  0  0  0  0  0  0  0
   71.4488   53.6333   -8.7123 H   0  0  0  0  0  0  0  0  0  0  0  0
   72.3337   53.1208  -10.1291 H   0  0  0  0  0  0  0  0  0  0  0  0
   72.6195   55.6066   -9.7630 H   0  0  0  0  0  0  0  0  0  0  0  0
   70.6299   57.4113  -10.7137 H   0  0  0  0  0  0  0  0  0  0  0  0
   73.6028   57.6458  -10.6259 H   0  0  0  0  0  0  0  0  0  0  0  0
   72.4247   58.0213   -9.3046 H   0  0  0  0  0  0  0  0  0  0  0  0
   71.5894   59.8113  -10.5302 H   0  0  0  0  0  0  0  0  0  0  0  0
   72.7217   59.4913  -11.8240 H   0  0  0  0  0  0  0  0  0  0  0  0
   73.2122   55.7048  -12.4072 H   0  0  0  0  0  0  0  0  0  0  0  0
   72.7680   57.0037  -14.8482 H   0  0  0  0  0  0  0  0  0  0  0  0
   73.9988   54.2942  -14.3830 H   0  0  0  0  0  0  0  0  0  0  0  0
   74.8595   55.8148  -14.3840 H   0  0  0  0  0  0  0  0  0  0  0  0
   74.1222   55.2273  -15.8551 H   0  0  0  0  0  0  0  0  0  0  0  0
   71.4904   53.9567  -13.5682 H   0  0  0  0  0  0  0  0  0  0  0  0
   70.0751   53.2377  -15.9226 H   0  0  0  0  0  0  0  0  0  0  0  0
   69.6873   52.4725  -13.0463 H   0  0  0  0  0  0  0  0  0  0  0  0
   71.6848   51.7363  -14.3232 H   0  0  0  0  0  0  0  0  0  0  0  0
   70.5029   50.8773  -15.3941 H   0  0  0  0  0  0  0  0  0  0  0  0
   68.2219   51.4380  -15.4373 H   0  0  0  0  0  0  0  0  0  0  0  0
   67.5354   52.3985  -14.1492 H   0  0  0  0  0  0  0  0  0  0  0  0
   68.1300   50.7894  -13.8174 H   0  0  0  0  0  0  0  0  0  0  0  0
   71.0677   50.2224  -12.5450 H   0  0  0  0  0  0  0  0  0  0  0  0
   71.5837   49.3100  -13.9430 H   0  0  0  0  0  0  0  0  0  0  0  0
   69.8821   49.4534  -13.5727 H   0  0  0  0  0  0  0  0  0  0  0  0
   69.1709   55.1665  -13.0968 H   0  0  0  0  0  0  0  0  0  0  0  0
   66.4971   55.5895  -13.8582 H   0  0  0  0  0  0  0  0  0  0  0  0
   68.3504   57.4175  -12.3757 H   0  0  0  0  0  0  0  0  0  0  0  0
   67.3746   56.1556  -11.6625 H   0  0  0  0  0  0  0  0  0  0  0  0
   66.6075   57.5375  -12.4074 H   0  0  0  0  0  0  0  0  0  0  0  0
   69.4365   57.2349  -14.8416 H   0  0  0  0  0  0  0  0  0  0  0  0
   67.8421   58.8153  -16.7557 H   0  0  0  0  0  0  0  0  0  0  0  0
   69.4113   58.1475  -17.1362 H   0  0  0  0  0  0  0  0  0  0  0  0
   69.2701   59.4310  -15.9590 H   0  0  0  0  0  0  0  0  0  0  0  0
  1  2  1  0  0  0  0
  1 33  1  0  0  0  0
  1 34  1  0  0  0  0
  1 35  1  0  0  0  0
  2  3  2  0  0  0  0
  2  4  1  0  0  0  0
  4  5  1  0  0  0  0
  4 36  1  0  0  0  0
  5  6  1  0  0  0  0
  5  8  1  0  0  0  0
  5 37  1  1  0  0  0
  6  7  2  0  0  0  0
  8  9  1  0  0  0  0
  8 38  1  0  0  0  0
  8 39  1  0  0  0  0
  9 10  1  0  0  0  0
  9 40  1  0  0  0  0
  9 41  1  0  0  0  0
 10 12  1  0  0  0  0
 11 10  2  0  0  0  0
 13  6  1  0  0  0  0
 13 42  1  0  0  0  0
 14 13  1  0  0  0  0
 14 43  1  1  0  0  0
 15 16  2  0  0  0  0
 15 14  1  0  0  0  0
 17 14  1  0  0  0  0
 17 44  1  0  0  0  0
 17 45  1  0  0  0  0
 17 46  1  0  0  0  0
 18 15  1  0  0  0  0
 18 47  1  0  0  0  0
 19 18  1  0  0  0  0
 19 20  1  0  0  0  0
 19 48  1  6  0  0  0
 20 21  2  0  0  0  0
 20 26  1  0  0  0  0
 22 19  1  0  0  0  0
 22 49  1  1  0  0  0
 23 22  1  0  0  0  0
 23 50  1  0  0  0  0
 23 51  1  0  0  0  0
 24 22  1  0  0  0  0
 24 52  1  0  0  0  0
 24 53  1  0  0  0  0
 24 54  1  0  0  0  0
 25 23  1  0  0  0  0
 25 55  1  0  0  0  0
 25 56  1  0  0  0  0
 25 57  1  0  0  0  0
 26 27  1  0  0  0  0
 26 58  1  0  0  0  0
 27 30  1  0  0  0  0
 27 28  1  0  0  0  0
 27 59  1  6  0  0  0
 28 29  2  0  0  0  0
 28 31  1  0  0  0  0
 30 60  1  0  0  0  0
 30 61  1  0  0  0  0
 30 62  1  0  0  0  0
 31 32  1  0  0  0  0
 31 63  1  0  0  0  0
 32 64  1  0  0  0  0
 32 65  1  0  0  0  0
 32 66  1  0  0  0  0
M  CHG  1  12  -1
M  END
>  <MODEL>
       0

$$$$
selected_4mers/EAIA/428_noH.pdb
 OpenBabel03042517593D

 66 65  0  0  1  0  0  0  0  0999 V2000
   22.2160   25.2980   51.8930 C   0  0  0  0  0  0  0  0  0  0  0  0
   22.1610   25.5140   53.4000 C   0  0  0  0  0  0  0  0  0  0  0  0
   21.7950   26.6040   53.8660 O   0  0  0  0  0  0  0  0  0  0  0  0
   22.5020   24.4710   54.1540 N   0  0  0  0  0  0  0  0  0  0  0  0
   22.5130   24.5540   55.6300 C   0  0  2  0  0  0  0  0  0  0  0  0
   23.8270   24.9670   56.2650 C   0  0  0  0  0  0  0  0  0  0  0  0
   23.8320   25.2930   57.4560 O   0  0  0  0  0  0  0  0  0  0  0  0
   22.0130   23.2520   56.2990 C   0  0  0  0  0  0  0  0  0  0  0  0
   22.9960   22.0690   56.4150 C   0  0  0  0  0  0  0  0  0  0  0  0
   23.3560   21.4270   55.1010 C   0  0  0  0  0  0  0  0  0  0  0  0
   22.7690   21.7820   54.0340 O   0  0  0  0  0  0  0  0  0  0  0  0
   24.2630   20.5740   55.1320 O   0  0  0  0  0  0  0  0  0  0  0  0
   24.9400   24.9060   55.5390 N   0  0  0  0  0  0  0  0  0  0  0  0
   26.2400   25.2960   56.0840 C   0  0  2  0  0  0  0  0  0  0  0  0
   26.2940   26.7920   56.4670 C   0  0  0  0  0  0  0  0  0  0  0  0
   25.7060   27.6300   55.7880 O   0  0  0  0  0  0  0  0  0  0  0  0
   27.3720   24.9590   55.1080 C   0  0  0  0  0  0  0  0  0  0  0  0
   27.0230   27.0890   57.5400 N   0  0  0  0  0  0  0  0  0  0  0  0
   27.1790   28.4380   58.0980 C   0  0  2  0  0  0  0  0  0  0  0  0
   28.6480   28.8610   57.9710 C   0  0  0  0  0  0  0  0  0  0  0  0
   29.4910   28.3120   58.6620 O   0  0  0  0  0  0  0  0  0  0  0  0
   26.7390   28.4470   59.5740 C   0  0  2  0  0  0  0  0  0  0  0  0
   25.2600   28.0550   59.6820 C   0  0  0  0  0  0  0  0  0  0  0  0
   26.9130   29.8330   60.1680 C   0  0  0  0  0  0  0  0  0  0  0  0
   24.7530   27.8450   61.0870 C   0  0  0  0  0  0  0  0  0  0  0  0
   28.9300   29.8440   57.1050 N   0  0  0  0  0  0  0  0  0  0  0  0
   30.3010   30.3200   56.8220 C   0  0  2  0  0  0  0  0  0  0  0  0
   31.1070   30.7290   58.0500 C   0  0  0  0  0  0  0  0  0  0  0  0
   32.3080   30.4110   58.1520 O   0  0  0  0  0  0  0  0  0  0  0  0
   30.2850   31.4660   55.7790 C   0  0  0  0  0  0  0  0  0  0  0  0
   30.4480   31.3600   59.0150 N   0  0  0  0  0  0  0  0  0  0  0  0
   31.1200   31.7730   60.2770 C   0  0  0  0  0  0  0  0  0  0  0  0
   21.9233   26.1975   51.3928 H   0  0  0  0  0  0  0  0  0  0  0  0
   21.5496   24.5060   51.6216 H   0  0  0  0  0  0  0  0  0  0  0  0
   23.2137   25.0388   51.6060 H   0  0  0  0  0  0  0  0  0  0  0  0
   22.7527   23.6245   53.7183 H   0  0  0  0  0  0  0  0  0  0  0  0
   21.8279   25.3540   55.8183 H   0  0  0  0  0  0  0  0  0  0  0  0
   21.1695   22.9098   55.7365 H   0  0  0  0  0  0  0  0  0  0  0  0
   21.8153   23.5332   57.3123 H   0  0  0  0  0  0  0  0  0  0  0  0
   23.8960   22.4254   56.8708 H   0  0  0  0  0  0  0  0  0  0  0  0
   22.5025   21.3183   56.9962 H   0  0  0  0  0  0  0  0  0  0  0  0
   24.8871   24.5893   54.6083 H   0  0  0  0  0  0  0  0  0  0  0  0
   26.3755   24.7289   56.9811 H   0  0  0  0  0  0  0  0  0  0  0  0
   27.2452   25.5217   54.2068 H   0  0  0  0  0  0  0  0  0  0  0  0
   27.3486   23.9134   54.8819 H   0  0  0  0  0  0  0  0  0  0  0  0
   28.3127   25.2065   55.5537 H   0  0  0  0  0  0  0  0  0  0  0  0
   27.4916   26.3507   57.9923 H   0  0  0  0  0  0  0  0  0  0  0  0
   26.5649   29.1297   57.5602 H   0  0  0  0  0  0  0  0  0  0  0  0
   27.3457   27.7459   60.1082 H   0  0  0  0  0  0  0  0  0  0  0  0
   25.1184   27.1438   59.1392 H   0  0  0  0  0  0  0  0  0  0  0  0
   24.7044   28.8790   59.2855 H   0  0  0  0  0  0  0  0  0  0  0  0
   26.3047   30.5302   59.6307 H   0  0  0  0  0  0  0  0  0  0  0  0
   27.9396   30.1257   60.0957 H   0  0  0  0  0  0  0  0  0  0  0  0
   26.6173   29.8201   61.1963 H   0  0  0  0  0  0  0  0  0  0  0  0
   25.2765   27.0273   61.5366 H   0  0  0  0  0  0  0  0  0  0  0  0
   23.7060   27.6262   61.0594 H   0  0  0  0  0  0  0  0  0  0  0  0
   24.9169   28.7326   61.6617 H   0  0  0  0  0  0  0  0  0  0  0  0
   28.1820   30.2735   56.6304 H   0  0  0  0  0  0  0  0  0  0  0  0
   30.8088   29.4683   56.4200 H   0  0  0  0  0  0  0  0  0  0  0  0
   29.7758   32.3135   56.1881 H   0  0  0  0  0  0  0  0  0  0  0  0
   29.7780   31.1374   54.8959 H   0  0  0  0  0  0  0  0  0  0  0  0
   31.2901   31.7383   55.5329 H   0  0  0  0  0  0  0  0  0  0  0  0
   29.4917   31.5594   58.8926 H   0  0  0  0  0  0  0  0  0  0  0  0
   32.1490   31.4814   60.2451 H   0  0  0  0  0  0  0  0  0  0  0  0
   30.6406   31.2991   61.1080 H   0  0  0  0  0  0  0  0  0  0  0  0
   31.0535   32.8354   60.3853 H   0  0  0  0  0  0  0  0  0  0  0  0
  1  2  1  0  0  0  0
  1 33  1  0  0  0  0
  1 34  1  0  0  0  0
  1 35  1  0  0  0  0
  2  3  2  0  0  0  0
  2  4  1  0  0  0  0
  4  5  1  0  0  0  0
  4 36  1  0  0  0  0
  5  6  1  0  0  0  0
  5  8  1  0  0  0  0
  5 37  1  1  0  0  0
  6  7  2  0  0  0  0
  8  9  1  0  0  0  0
  8 38  1  0  0  0  0
  8 39  1  0  0  0  0
  9 10  1  0  0  0  0
  9 40  1  0  0  0  0
  9 41  1  0  0  0  0
 10 12  1  0  0  0  0
 11 10  2  0  0  0  0
 13  6  1  0  0  0  0
 13 42  1  0  0  0  0
 14 13  1  0  0  0  0
 14 43  1  1  0  0  0
 15 16  2  0  0  0  0
 15 14  1  0  0  0  0
 17 14  1  0  0  0  0
 17 44  1  0  0  0  0
 17 45  1  0  0  0  0
 17 46  1  0  0  0  0
 18 15  1  0  0  0  0
 18 47  1  0  0  0  0
 19 18  1  0  0  0  0
 19 20  1  0  0  0  0
 19 48  1  6  0  0  0
 20 21  2  0  0  0  0
 20 26  1  0  0  0  0
 22 19  1  0  0  0  0
 22 49  1  1  0  0  0
 23 22  1  0  0  0  0
 23 50  1  0  0  0  0
 23 51  1  0  0  0  0
 24 22  1  0  0  0  0
 24 52  1  0  0  0  0
 24 53  1  0  0  0  0
 24 54  1  0  0  0  0
 25 23  1  0  0  0  0
 25 55  1  0  0  0  0
 25 56  1  0  0  0  0
 25 57  1  0  0  0  0
 26 27  1  0  0  0  0
 26 58  1  0  0  0  0
 27 30  1  0  0  0  0
 27 28  1  0  0  0  0
 27 59  1  6  0  0  0
 28 29  2  0  0  0  0
 28 31  1  0  0  0  0
 30 60  1  0  0  0  0
 30 61  1  0  0  0  0
 30 62  1  0  0  0  0
 31 32  1  0  0  0  0
 31 63  1  0  0  0  0
 32 64  1  0  0  0  0
 32 65  1  0  0  0  0
 32 66  1  0  0  0  0
M  CHG  1  12  -1
M  END
>  <MODEL>
       0

$$$$
selected_4mers/EAIA/429_noH.pdb
 OpenBabel03042517593D

 66 65  0  0  1  0  0  0  0  0999 V2000
    1.8820   21.5990   14.7030 C   0  0  0  0  0  0  0  0  0  0  0  0
    2.8510   22.2230   15.6820 C   0  0  0  0  0  0  0  0  0  0  0  0
    2.4430   22.9880   16.5220 O   0  0  0  0  0  0  0  0  0  0  0  0
    4.1210   21.8730   15.5560 N   0  0  0  0  0  0  0  0  0  0  0  0
    5.1970   22.5300   16.3300 C   0  0  2  0  0  0  0  0  0  0  0  0
    6.0650   23.3400   15.4010 C   0  0  0  0  0  0  0  0  0  0  0  0
    6.1770   23.0220   14.2280 O   0  0  0  0  0  0  0  0  0  0  0  0
    6.0410   21.5370   17.0750 C   0  0  0  0  0  0  0  0  0  0  0  0
    6.6960   20.5090   16.2240 C   0  0  0  0  0  0  0  0  0  0  0  0
    7.7440   19.6820   16.9740 C   0  0  0  0  0  0  0  0  0  0  0  0
    7.4760   19.2970   18.0830 O   0  0  0  0  0  0  0  0  0  0  0  0
    8.8160   19.4170   16.4190 O   0  0  0  0  0  0  0  0  0  0  0  0
    6.6600   24.4120   15.9220 N   0  0  0  0  0  0  0  0  0  0  0  0
    7.4270   25.3050   15.0870 C   0  0  2  0  0  0  0  0  0  0  0  0
    8.7460   25.6780   15.7370 C   0  0  0  0  0  0  0  0  0  0  0  0
    8.8900   25.6630   16.9490 O   0  0  0  0  0  0  0  0  0  0  0  0
    6.6160   26.5910   14.8290 C   0  0  0  0  0  0  0  0  0  0  0  0
    9.6930   26.0350   14.8820 N   0  0  0  0  0  0  0  0  0  0  0  0
   10.9680   26.6440   15.2760 C   0  0  2  0  0  0  0  0  0  0  0  0
   11.0770   27.9410   14.4550 C   0  0  0  0  0  0  0  0  0  0  0  0
   10.8620   27.9310   13.2390 O   0  0  0  0  0  0  0  0  0  0  0  0
   12.1510   25.7490   14.9340 C   0  0  2  0  0  0  0  0  0  0  0  0
   12.0370   24.4290   15.6730 C   0  0  0  0  0  0  0  0  0  0  0  0
   13.4690   26.4380   15.3410 C   0  0  0  0  0  0  0  0  0  0  0  0
   13.0710   23.3800   15.1920 C   0  0  0  0  0  0  0  0  0  0  0  0
   11.3430   29.0480   15.1330 N   0  0  0  0  0  0  0  0  0  0  0  0
   11.5070   30.3520   14.4870 C   0  0  2  0  0  0  0  0  0  0  0  0
   12.8800   30.9030   14.8080 C   0  0  0  0  0  0  0  0  0  0  0  0
   13.4760   30.5550   15.8310 O   0  0  0  0  0  0  0  0  0  0  0  0
   10.4340   31.3540   14.9460 C   0  0  0  0  0  0  0  0  0  0  0  0
   13.3820   31.7710   13.9340 N   0  0  0  0  0  0  0  0  0  0  0  0
   14.6870   32.4090   14.2290 C   0  0  0  0  0  0  0  0  0  0  0  0
    2.4146   20.9533   14.0365 H   0  0  0  0  0  0  0  0  0  0  0  0
    1.3967   22.3696   14.1412 H   0  0  0  0  0  0  0  0  0  0  0  0
    1.1490   21.0326   15.2386 H   0  0  0  0  0  0  0  0  0  0  0  0
    4.3571   21.1529   14.9275 H   0  0  0  0  0  0  0  0  0  0  0  0
    4.7351   23.1691   17.0533 H   0  0  0  0  0  0  0  0  0  0  0  0
    6.8061   22.0748   17.5948 H   0  0  0  0  0  0  0  0  0  0  0  0
    5.3773   21.0084   17.7269 H   0  0  0  0  0  0  0  0  0  0  0  0
    5.9431   19.8463   15.8514 H   0  0  0  0  0  0  0  0  0  0  0  0
    7.2034   21.0254   15.4361 H   0  0  0  0  0  0  0  0  0  0  0  0
    6.5758   24.5968   16.8853 H   0  0  0  0  0  0  0  0  0  0  0  0
    7.6329   24.7997   14.1666 H   0  0  0  0  0  0  0  0  0  0  0  0
    6.4200   27.0818   15.7594 H   0  0  0  0  0  0  0  0  0  0  0  0
    5.6896   26.3396   14.3563 H   0  0  0  0  0  0  0  0  0  0  0  0
    7.1757   27.2439   14.1923 H   0  0  0  0  0  0  0  0  0  0  0  0
    9.5310   25.8821   13.9230 H   0  0  0  0  0  0  0  0  0  0  0  0
   10.9899   26.8090   16.3330 H   0  0  0  0  0  0  0  0  0  0  0  0
   12.1483   25.5709   13.8789 H   0  0  0  0  0  0  0  0  0  0  0  0
   11.0540   24.0352   15.5197 H   0  0  0  0  0  0  0  0  0  0  0  0
   12.2308   24.6213   16.7076 H   0  0  0  0  0  0  0  0  0  0  0  0
   13.4681   26.6144   16.3964 H   0  0  0  0  0  0  0  0  0  0  0  0
   13.5587   27.3703   14.8236 H   0  0  0  0  0  0  0  0  0  0  0  0
   14.2948   25.8074   15.0855 H   0  0  0  0  0  0  0  0  0  0  0  0
   12.9049   23.1639   14.1573 H   0  0  0  0  0  0  0  0  0  0  0  0
   12.9625   22.4832   15.7655 H   0  0  0  0  0  0  0  0  0  0  0  0
   14.0596   23.7685   15.3210 H   0  0  0  0  0  0  0  0  0  0  0  0
   11.4342   28.9915   16.1116 H   0  0  0  0  0  0  0  0  0  0  0  0
   11.3990   30.2134   13.4315 H   0  0  0  0  0  0  0  0  0  0  0  0
   10.5203   31.5107   16.0009 H   0  0  0  0  0  0  0  0  0  0  0  0
    9.4630   30.9645   14.7216 H   0  0  0  0  0  0  0  0  0  0  0  0
   10.5723   32.2838   14.4348 H   0  0  0  0  0  0  0  0  0  0  0  0
   12.8953   31.9859   13.1057 H   0  0  0  0  0  0  0  0  0  0  0  0
   15.0555   32.0501   15.1673 H   0  0  0  0  0  0  0  0  0  0  0  0
   14.5622   33.4706   14.2773 H   0  0  0  0  0  0  0  0  0  0  0  0
   15.3854   32.1668   13.4554 H   0  0  0  0  0  0  0  0  0  0  0  0
  1  2  1  0  0  0  0
  1 33  1  0  0  0  0
  1 34  1  0  0  0  0
  1 35  1  0  0  0  0
  2  3  2  0  0  0  0
  2  4  1  0  0  0  0
  4  5  1  0  0  0  0
  4 36  1  0  0  0  0
  5  6  1  0  0  0  0
  5  8  1  0  0  0  0
  5 37  1  1  0  0  0
  6  7  2  0  0  0  0
  8  9  1  0  0  0  0
  8 38  1  0  0  0  0
  8 39  1  0  0  0  0
  9 10  1  0  0  0  0
  9 40  1  0  0  0  0
  9 41  1  0  0  0  0
 10 12  1  0  0  0  0
 11 10  2  0  0  0  0
 13  6  1  0  0  0  0
 13 42  1  0  0  0  0
 14 13  1  0  0  0  0
 14 43  1  1  0  0  0
 15 16  2  0  0  0  0
 15 14  1  0  0  0  0
 17 14  1  0  0  0  0
 17 44  1  0  0  0  0
 17 45  1  0  0  0  0
 17 46  1  0  0  0  0
 18 15  1  0  0  0  0
 18 47  1  0  0  0  0
 19 18  1  0  0  0  0
 19 20  1  0  0  0  0
 19 48  1  6  0  0  0
 20 21  2  0  0  0  0
 20 26  1  0  0  0  0
 22 19  1  0  0  0  0
 22 49  1  1  0  0  0
 23 22  1  0  0  0  0
 23 50  1  0  0  0  0
 23 51  1  0  0  0  0
 24 22  1  0  0  0  0
 24 52  1  0  0  0  0
 24 53  1  0  0  0  0
 24 54  1  0  0  0  0
 25 23  1  0  0  0  0
 25 55  1  0  0  0  0
 25 56  1  0  0  0  0
 25 57  1  0  0  0  0
 26 27  1  0  0  0  0
 26 58  1  0  0  0  0
 27 30  1  0  0  0  0
 27 28  1  0  0  0  0
 27 59  1  6  0  0  0
 28 29  2  0  0  0  0
 28 31  1  0  0  0  0
 30 60  1  0  0  0  0
 30 61  1  0  0  0  0
 30 62  1  0  0  0  0
 31 32  1  0  0  0  0
 31 63  1  0  0  0  0
 32 64  1  0  0  0  0
 32 65  1  0  0  0  0
 32 66  1  0  0  0  0
M  CHG  1  12  -1
M  END
>  <MODEL>
       0

$$$$
