selected_4mers/EALA/55_noH.pdb
 OpenBabel03042517503D

 66 65  0  0  1  0  0  0  0  0999 V2000
   -9.4090   15.4350   -0.6450 C   0  0  0  0  0  0  0  0  0  0  0  0
   -9.8040   14.4450    0.4380 C   0  0  0  0  0  0  0  0  0  0  0  0
  -11.0010   14.2510    0.6830 O   0  0  0  0  0  0  0  0  0  0  0  0
   -8.8000   13.8550    1.0940 N   0  0  0  0  0  0  0  0  0  0  0  0
   -9.0190   13.0920    2.3190 C   0  0  2  0  0  0  0  0  0  0  0  0
   -9.6010   14.0010    3.3990 C   0  0  0  0  0  0  0  0  0  0  0  0
  -10.5320   13.6060    4.1060 O   0  0  0  0  0  0  0  0  0  0  0  0
   -7.7020   12.5150    2.8080 C   0  0  0  0  0  0  0  0  0  0  0  0
   -7.1380   11.4250    1.9340 C   0  0  0  0  0  0  0  0  0  0  0  0
   -5.8250   10.9120    2.4580 C   0  0  0  0  0  0  0  0  0  0  0  0
   -4.8330   11.6720    2.4390 O   0  0  0  0  0  0  0  0  0  0  0  0
   -5.7890    9.7450    2.8980 O   0  0  0  0  0  0  0  0  0  0  0  0
   -9.0440   15.2090    3.5240 N   0  0  0  0  0  0  0  0  0  0  0  0
   -9.5220   16.1820    4.5210 C   0  0  2  0  0  0  0  0  0  0  0  0
  -10.9740   16.5630    4.2490 C   0  0  0  0  0  0  0  0  0  0  0  0
  -11.7970   16.6250    5.1740 O   0  0  0  0  0  0  0  0  0  0  0  0
   -8.6340   17.4250    4.5260 C   0  0  0  0  0  0  0  0  0  0  0  0
  -11.2960   16.7800    2.9720 N   0  0  0  0  0  0  0  0  0  0  0  0
  -12.6590   17.0990    2.5670 C   0  0  2  0  0  0  0  0  0  0  0  0
  -13.6190   15.9420    2.8630 C   0  0  0  0  0  0  0  0  0  0  0  0
  -14.7180   16.1740    3.3520 O   0  0  0  0  0  0  0  0  0  0  0  0
  -12.7340   17.5080    1.0830 C   0  0  0  0  0  0  0  0  0  0  0  0
  -14.1370   17.8010    0.5350 C   0  0  0  0  0  0  0  0  0  0  0  0
  -14.7640   19.0400    1.1690 C   0  0  0  0  0  0  0  0  0  0  0  0
  -14.1200   17.9460   -0.9690 C   0  0  0  0  0  0  0  0  0  0  0  0
  -13.1930   14.7080    2.5760 N   0  0  0  0  0  0  0  0  0  0  0  0
  -14.0280   13.5340    2.8520 C   0  0  2  0  0  0  0  0  0  0  0  0
  -14.3010   13.3970    4.3570 C   0  0  0  0  0  0  0  0  0  0  0  0
  -15.4410   13.1260    4.7670 O   0  0  0  0  0  0  0  0  0  0  0  0
  -13.3930   12.2600    2.2770 C   0  0  0  0  0  0  0  0  0  0  0  0
  -13.2640   13.6190    5.1710 N   0  0  0  0  0  0  0  0  0  0  0  0
  -13.4310   13.6380    6.6320 C   0  0  0  0  0  0  0  0  0  0  0  0
  -10.2904   15.8399   -1.0968 H   0  0  0  0  0  0  0  0  0  0  0  0
   -8.8242   14.9354   -1.3889 H   0  0  0  0  0  0  0  0  0  0  0  0
   -8.8343   16.2269   -0.2120 H   0  0  0  0  0  0  0  0  0  0  0  0
   -7.8850   13.9375    0.7402 H   0  0  0  0  0  0  0  0  0  0  0  0
   -9.7046   12.2964    2.1141 H   0  0  0  0  0  0  0  0  0  0  0  0
   -6.9863   13.3089    2.8569 H   0  0  0  0  0  0  0  0  0  0  0  0
   -7.8981   12.0713    3.7617 H   0  0  0  0  0  0  0  0  0  0  0  0
   -7.8362   10.6150    1.8966 H   0  0  0  0  0  0  0  0  0  0  0  0
   -6.9703   11.8336    0.9594 H   0  0  0  0  0  0  0  0  0  0  0  0
   -8.2948   15.4550    2.9345 H   0  0  0  0  0  0  0  0  0  0  0  0
   -9.4699   15.7252    5.4872 H   0  0  0  0  0  0  0  0  0  0  0  0
   -8.6738   17.8956    3.5659 H   0  0  0  0  0  0  0  0  0  0  0  0
   -7.6252   17.1418    4.7428 H   0  0  0  0  0  0  0  0  0  0  0  0
   -8.9810   18.1082    5.2728 H   0  0  0  0  0  0  0  0  0  0  0  0
  -10.5933   16.7230    2.2848 H   0  0  0  0  0  0  0  0  0  0  0  0
  -12.9680   17.9406    3.1511 H   0  0  0  0  0  0  0  0  0  0  0  0
  -12.1425   18.3906    0.9566 H   0  0  0  0  0  0  0  0  0  0  0  0
  -12.3809   16.6610    0.5326 H   0  0  0  0  0  0  0  0  0  0  0  0
  -14.7423   16.9584    0.7970 H   0  0  0  0  0  0  0  0  0  0  0  0
  -14.1785   19.9013    0.9235 H   0  0  0  0  0  0  0  0  0  0  0  0
  -14.7941   18.9203    2.2319 H   0  0  0  0  0  0  0  0  0  0  0  0
  -15.7588   19.1668    0.7960 H   0  0  0  0  0  0  0  0  0  0  0  0
  -13.5163   18.7871   -1.2394 H   0  0  0  0  0  0  0  0  0  0  0  0
  -15.1183   18.0945   -1.3243 H   0  0  0  0  0  0  0  0  0  0  0  0
  -13.7133   17.0591   -1.4083 H   0  0  0  0  0  0  0  0  0  0  0  0
  -12.3035   14.5849    2.1724 H   0  0  0  0  0  0  0  0  0  0  0  0
  -14.9699   13.6729    2.3637 H   0  0  0  0  0  0  0  0  0  0  0  0
  -12.4459   12.0909    2.7453 H   0  0  0  0  0  0  0  0  0  0  0  0
  -13.2538   12.3755    1.2224 H   0  0  0  0  0  0  0  0  0  0  0  0
  -14.0367   11.4256    2.4625 H   0  0  0  0  0  0  0  0  0  0  0  0
  -12.3715   13.7727    4.7850 H   0  0  0  0  0  0  0  0  0  0  0  0
  -14.4565   13.4545    6.8762 H   0  0  0  0  0  0  0  0  0  0  0  0
  -13.1396   14.5949    7.0119 H   0  0  0  0  0  0  0  0  0  0  0  0
  -12.8184   12.8784    7.0709 H   0  0  0  0  0  0  0  0  0  0  0  0
  1  2  1  0  0  0  0
  1 33  1  0  0  0  0
  1 34  1  0  0  0  0
  1 35  1  0  0  0  0
  2  3  2  0  0  0  0
  2  4  1  0  0  0  0
  4  5  1  0  0  0  0
  4 36  1  0  0  0  0
  5  8  1  0  0  0  0
  5  6  1  0  0  0  0
  5 37  1  6  0  0  0
  6 13  1  0  0  0  0
  6  7  2  0  0  0  0
  8 38  1  0  0  0  0
  8 39  1  0  0  0  0
  9 10  1  0  0  0  0
  9  8  1  0  0  0  0
  9 40  1  0  0  0  0
  9 41  1  0  0  0  0
 10 12  1  0  0  0  0
 11 10  2  0  0  0  0
 13 14  1  0  0  0  0
 13 42  1  0  0  0  0
 14 17  1  0  0  0  0
 14 43  1  1  0  0  0
 15 14  1  0  0  0  0
 15 16  2  0  0  0  0
 17 44  1  0  0  0  0
 17 45  1  0  0  0  0
 17 46  1  0  0  0  0
 18 15  1  0  0  0  0
 18 47  1  0  0  0  0
 19 20  1  0  0  0  0
 19 18  1  0  0  0  0
 19 48  1  1  0  0  0
 20 21  2  0  0  0  0
 22 19  1  0  0  0  0
 22 49  1  0  0  0  0
 22 50  1  0  0  0  0
 23 22  1  0  0  0  0
 23 24  1  0  0  0  0
 23 51  1  0  0  0  0
 24 52  1  0  0  0  0
 24 53  1  0  0  0  0
 24 54  1  0  0  0  0
 25 23  1  0  0  0  0
 25 55  1  0  0  0  0
 25 56  1  0  0  0  0
 25 57  1  0  0  0  0
 26 27  1  0  0  0  0
 26 20  1  0  0  0  0
 26 58  1  0  0  0  0
 27 28  1  0  0  0  0
 27 59  1  6  0  0  0
 28 29  2  0  0  0  0
 28 31  1  0  0  0  0
 30 27  1  0  0  0  0
 30 60  1  0  0  0  0
 30 61  1  0  0  0  0
 30 62  1  0  0  0  0
 31 32  1  0  0  0  0
 31 63  1  0  0  0  0
 32 64  1  0  0  0  0
 32 65  1  0  0  0  0
 32 66  1  0  0  0  0
M  CHG  1  12  -1
M  END
>  <MODEL>
       0

$$$$
selected_4mers/EALA/56_noH.pdb
 OpenBabel03042517503D

 66 65  0  0  1  0  0  0  0  0999 V2000
   26.9370   41.4930  -16.6600 C   0  0  0  0  0  0  0  0  0  0  0  0
   27.5760   41.6750  -15.2910 C   0  0  0  0  0  0  0  0  0  0  0  0
   28.5280   42.4450  -15.1490 O   0  0  0  0  0  0  0  0  0  0  0  0
   27.0650   40.9730  -14.2850 N   0  0  0  0  0  0  0  0  0  0  0  0
   27.5950   41.0860  -12.9310 C   0  0  2  0  0  0  0  0  0  0  0  0
   28.9140   40.3330  -12.7790 C   0  0  0  0  0  0  0  0  0  0  0  0
   29.1180   39.2930  -13.3970 O   0  0  0  0  0  0  0  0  0  0  0  0
   26.5790   40.5620  -11.9200 C   0  0  0  0  0  0  0  0  0  0  0  0
   25.2390   41.2770  -11.9840 C   0  0  0  0  0  0  0  0  0  0  0  0
   24.3010   40.8470  -10.8820 C   0  0  0  0  0  0  0  0  0  0  0  0
   24.6120   41.1200   -9.7040 O   0  0  0  0  0  0  0  0  0  0  0  0
   23.2580   40.2330  -11.1920 O   0  0  0  0  0  0  0  0  0  0  0  0
   29.8030   40.8680  -11.9470 N   0  0  0  0  0  0  0  0  0  0  0  0
   31.1040   40.2520  -11.7110 C   0  0  2  0  0  0  0  0  0  0  0  0
   30.9840   38.9860  -10.8690 C   0  0  0  0  0  0  0  0  0  0  0  0
   30.2250   38.9400   -9.9000 O   0  0  0  0  0  0  0  0  0  0  0  0
   32.0400   41.2450  -11.0370 C   0  0  0  0  0  0  0  0  0  0  0  0
   31.7470   37.9630  -11.2450 N   0  0  0  0  0  0  0  0  0  0  0  0
   31.7780   36.6990  -10.5230 C   0  0  2  0  0  0  0  0  0  0  0  0
   33.2170   36.1980  -10.4720 C   0  0  0  0  0  0  0  0  0  0  0  0
   33.8070   35.8760  -11.5050 O   0  0  0  0  0  0  0  0  0  0  0  0
   30.8840   35.6570  -11.2070 C   0  0  0  0  0  0  0  0  0  0  0  0
   30.9330   34.2370  -10.6320 C   0  0  0  0  0  0  0  0  0  0  0  0
   30.5160   34.2280   -9.1650 C   0  0  0  0  0  0  0  0  0  0  0  0
   30.0550   33.2970  -11.4470 C   0  0  0  0  0  0  0  0  0  0  0  0
   33.7800   36.1430   -9.2680 N   0  0  0  0  0  0  0  0  0  0  0  0
   35.1450   35.6670   -9.0720 C   0  0  2  0  0  0  0  0  0  0  0  0
   35.1440   34.1640   -8.8070 C   0  0  0  0  0  0  0  0  0  0  0  0
   34.3490   33.6710   -7.9980 O   0  0  0  0  0  0  0  0  0  0  0  0
   35.8000   36.4050   -7.9150 C   0  0  0  0  0  0  0  0  0  0  0  0
   36.0410   33.4440   -9.4750 N   0  0  0  0  0  0  0  0  0  0  0  0
   36.1300   31.9960   -9.3320 C   0  0  0  0  0  0  0  0  0  0  0  0
   27.4405   42.1112  -17.3736 H   0  0  0  0  0  0  0  0  0  0  0  0
   25.9051   41.7717  -16.6118 H   0  0  0  0  0  0  0  0  0  0  0  0
   27.0161   40.4681  -16.9571 H   0  0  0  0  0  0  0  0  0  0  0  0
   26.3118   40.3630  -14.4576 H   0  0  0  0  0  0  0  0  0  0  0  0
   27.7821   42.1225  -12.7424 H   0  0  0  0  0  0  0  0  0  0  0  0
   26.9833   40.6868  -10.9372 H   0  0  0  0  0  0  0  0  0  0  0  0
   26.3998   39.5339  -12.1564 H   0  0  0  0  0  0  0  0  0  0  0  0
   24.7810   41.0637  -12.9272 H   0  0  0  0  0  0  0  0  0  0  0  0
   25.4232   42.3242  -11.8640 H   0  0  0  0  0  0  0  0  0  0  0  0
   29.5767   41.7031  -11.4773 H   0  0  0  0  0  0  0  0  0  0  0  0
   31.5095   39.9730  -12.6611 H   0  0  0  0  0  0  0  0  0  0  0  0
   31.6372   41.5261  -10.0864 H   0  0  0  0  0  0  0  0  0  0  0  0
   32.1411   42.1143  -11.6527 H   0  0  0  0  0  0  0  0  0  0  0  0
   32.9997   40.7928  -10.8981 H   0  0  0  0  0  0  0  0  0  0  0  0
   32.3135   38.0648  -12.0437 H   0  0  0  0  0  0  0  0  0  0  0  0
   31.4070   36.8517   -9.5311 H   0  0  0  0  0  0  0  0  0  0  0  0
   29.8730   36.0009  -11.1403 H   0  0  0  0  0  0  0  0  0  0  0  0
   31.2574   35.5730  -12.2062 H   0  0  0  0  0  0  0  0  0  0  0  0
   31.9433   33.8897  -10.6910 H   0  0  0  0  0  0  0  0  0  0  0  0
   29.5065   34.5722   -9.0790 H   0  0  0  0  0  0  0  0  0  0  0  0
   31.1616   34.8733   -8.6067 H   0  0  0  0  0  0  0  0  0  0  0  0
   30.5873   33.2322   -8.7800 H   0  0  0  0  0  0  0  0  0  0  0  0
   29.0386   33.6282  -11.4004 H   0  0  0  0  0  0  0  0  0  0  0  0
   30.1262   32.3068  -11.0479 H   0  0  0  0  0  0  0  0  0  0  0  0
   30.3833   33.2956  -12.4654 H   0  0  0  0  0  0  0  0  0  0  0  0
   33.2590   36.4327   -8.4845 H   0  0  0  0  0  0  0  0  0  0  0  0
   35.7072   35.8596   -9.9618 H   0  0  0  0  0  0  0  0  0  0  0  0
   35.2481   36.2217   -7.0169 H   0  0  0  0  0  0  0  0  0  0  0  0
   35.8081   37.4550   -8.1206 H   0  0  0  0  0  0  0  0  0  0  0  0
   36.8047   36.0576   -7.7934 H   0  0  0  0  0  0  0  0  0  0  0  0
   36.6635   33.9028  -10.0843 H   0  0  0  0  0  0  0  0  0  0  0  0
   35.3882   31.6599   -8.6380 H   0  0  0  0  0  0  0  0  0  0  0  0
   37.1020   31.7324   -8.9707 H   0  0  0  0  0  0  0  0  0  0  0  0
   35.9651   31.5329  -10.2824 H   0  0  0  0  0  0  0  0  0  0  0  0
  1  2  1  0  0  0  0
  1 33  1  0  0  0  0
  1 34  1  0  0  0  0
  1 35  1  0  0  0  0
  2  3  2  0  0  0  0
  2  4  1  0  0  0  0
  4  5  1  0  0  0  0
  4 36  1  0  0  0  0
  5  8  1  0  0  0  0
  5  6  1  0  0  0  0
  5 37  1  6  0  0  0
  6 13  1  0  0  0  0
  6  7  2  0  0  0  0
  8 38  1  0  0  0  0
  8 39  1  0  0  0  0
  9 10  1  0  0  0  0
  9  8  1  0  0  0  0
  9 40  1  0  0  0  0
  9 41  1  0  0  0  0
 10 12  1  0  0  0  0
 11 10  2  0  0  0  0
 13 14  1  0  0  0  0
 13 42  1  0  0  0  0
 14 17  1  0  0  0  0
 14 43  1  1  0  0  0
 15 14  1  0  0  0  0
 15 16  2  0  0  0  0
 17 44  1  0  0  0  0
 17 45  1  0  0  0  0
 17 46  1  0  0  0  0
 18 15  1  0  0  0  0
 18 47  1  0  0  0  0
 19 20  1  0  0  0  0
 19 18  1  0  0  0  0
 19 48  1  1  0  0  0
 20 21  2  0  0  0  0
 22 19  1  0  0  0  0
 22 49  1  0  0  0  0
 22 50  1  0  0  0  0
 23 22  1  0  0  0  0
 23 24  1  0  0  0  0
 23 51  1  0  0  0  0
 24 52  1  0  0  0  0
 24 53  1  0  0  0  0
 24 54  1  0  0  0  0
 25 23  1  0  0  0  0
 25 55  1  0  0  0  0
 25 56  1  0  0  0  0
 25 57  1  0  0  0  0
 26 27  1  0  0  0  0
 26 20  1  0  0  0  0
 26 58  1  0  0  0  0
 27 28  1  0  0  0  0
 27 59  1  6  0  0  0
 28 29  2  0  0  0  0
 28 31  1  0  0  0  0
 30 27  1  0  0  0  0
 30 60  1  0  0  0  0
 30 61  1  0  0  0  0
 30 62  1  0  0  0  0
 31 32  1  0  0  0  0
 31 63  1  0  0  0  0
 32 64  1  0  0  0  0
 32 65  1  0  0  0  0
 32 66  1  0  0  0  0
M  CHG  1  12  -1
M  END
>  <MODEL>
       0

$$$$
selected_4mers/EALA/57_noH.pdb
 OpenBabel03042517503D

 66 65  0  0  1  0  0  0  0  0999 V2000
   67.9190   -2.5210   32.4110 C   0  0  0  0  0  0  0  0  0  0  0  0
   67.5990   -1.1340   31.8520 C   0  0  0  0  0  0  0  0  0  0  0  0
   68.1300   -0.1470   32.3310 O   0  0  0  0  0  0  0  0  0  0  0  0
   66.7460   -1.0430   30.8480 N   0  0  0  0  0  0  0  0  0  0  0  0
   66.4450    0.2820   30.2980 C   0  0  2  0  0  0  0  0  0  0  0  0
   65.2790    1.0110   30.9940 C   0  0  0  0  0  0  0  0  0  0  0  0
   65.0900    2.1980   30.7240 O   0  0  0  0  0  0  0  0  0  0  0  0
   66.2170    0.2660   28.7790 C   0  0  0  0  0  0  0  0  0  0  0  0
   67.4470   -0.0700   27.9210 C   0  0  0  0  0  0  0  0  0  0  0  0
   68.3950    1.0900   27.6700 C   0  0  0  0  0  0  0  0  0  0  0  0
   68.1700    2.2080   28.1610 O   0  0  0  0  0  0  0  0  0  0  0  0
   69.3740    0.8860   26.9400 O   0  0  0  0  0  0  0  0  0  0  0  0
   64.5210    0.3530   31.8710 N   0  0  0  0  0  0  0  0  0  0  0  0
   63.3520    0.9990   32.4780 C   0  0  2  0  0  0  0  0  0  0  0  0
   63.7360    2.2550   33.2550 C   0  0  0  0  0  0  0  0  0  0  0  0
   64.7390    2.2710   33.9900 O   0  0  0  0  0  0  0  0  0  0  0  0
   62.6190    0.0410   33.3850 C   0  0  0  0  0  0  0  0  0  0  0  0
   62.9410    3.3130   33.1020 N   0  0  0  0  0  0  0  0  0  0  0  0
   63.1580    4.5640   33.8620 C   0  0  2  0  0  0  0  0  0  0  0  0
   62.2970    4.5370   35.1110 C   0  0  0  0  0  0  0  0  0  0  0  0
   61.1530    4.1010   35.0550 O   0  0  0  0  0  0  0  0  0  0  0  0
   62.7980    5.8090   33.0520 C   0  0  0  0  0  0  0  0  0  0  0  0
   63.5220    6.0190   31.7290 C   0  0  0  0  0  0  0  0  0  0  0  0
   62.9700    7.2550   31.1100 C   0  0  0  0  0  0  0  0  0  0  0  0
   65.0580    6.0870   31.8930 C   0  0  0  0  0  0  0  0  0  0  0  0
   62.8080    5.0460   36.2340 N   0  0  0  0  0  0  0  0  0  0  0  0
   62.0930    4.9770   37.5230 C   0  0  2  0  0  0  0  0  0  0  0  0
   60.6050    5.3000   37.4550 C   0  0  0  0  0  0  0  0  0  0  0  0
   59.7510    4.5700   38.0030 O   0  0  0  0  0  0  0  0  0  0  0  0
   62.7560    5.8960   38.5540 C   0  0  0  0  0  0  0  0  0  0  0  0
   60.2850    6.4010   36.7970 N   0  0  0  0  0  0  0  0  0  0  0  0
   58.8950    6.8300   36.7060 C   0  0  0  0  0  0  0  0  0  0  0  0
   67.3645   -3.2598   31.8710 H   0  0  0  0  0  0  0  0  0  0  0  0
   67.6502   -2.5592   33.4460 H   0  0  0  0  0  0  0  0  0  0  0  0
   68.9662   -2.7145   32.3071 H   0  0  0  0  0  0  0  0  0  0  0  0
   66.3206   -1.8492   30.4762 H   0  0  0  0  0  0  0  0  0  0  0  0
   67.3331    0.8422   30.5037 H   0  0  0  0  0  0  0  0  0  0  0  0
   65.4612   -0.4615   28.5682 H   0  0  0  0  0  0  0  0  0  0  0  0
   65.9439    1.2665   28.5158 H   0  0  0  0  0  0  0  0  0  0  0  0
   67.9948   -0.8444   28.4161 H   0  0  0  0  0  0  0  0  0  0  0  0
   67.0708   -0.3597   26.9621 H   0  0  0  0  0  0  0  0  0  0  0  0
   64.7474   -0.5739   32.1134 H   0  0  0  0  0  0  0  0  0  0  0  0
   62.7046    1.2889   31.6769 H   0  0  0  0  0  0  0  0  0  0  0  0
   63.2621   -0.2524   34.1883 H   0  0  0  0  0  0  0  0  0  0  0  0
   62.3265   -0.8245   32.8280 H   0  0  0  0  0  0  0  0  0  0  0  0
   61.7487    0.5207   33.7818 H   0  0  0  0  0  0  0  0  0  0  0  0
   62.1902    3.2612   32.4673 H   0  0  0  0  0  0  0  0  0  0  0  0
   64.1990    4.6172   34.1036 H   0  0  0  0  0  0  0  0  0  0  0  0
   61.7502    5.7620   32.8403 H   0  0  0  0  0  0  0  0  0  0  0  0
   63.1041    6.6313   33.6644 H   0  0  0  0  0  0  0  0  0  0  0  0
   63.3539    5.1773   31.0901 H   0  0  0  0  0  0  0  0  0  0  0  0
   63.1449    8.0876   31.7589 H   0  0  0  0  0  0  0  0  0  0  0  0
   61.9176    7.1375   30.9563 H   0  0  0  0  0  0  0  0  0  0  0  0
   63.4506    7.4284   30.1699 H   0  0  0  0  0  0  0  0  0  0  0  0
   65.3130    6.9115   32.5256 H   0  0  0  0  0  0  0  0  0  0  0  0
   65.5136    6.2191   30.9339 H   0  0  0  0  0  0  0  0  0  0  0  0
   65.4103    5.1775   32.3330 H   0  0  0  0  0  0  0  0  0  0  0  0
   63.6903    5.4815   36.2013 H   0  0  0  0  0  0  0  0  0  0  0  0
   62.1635    3.9504   37.8162 H   0  0  0  0  0  0  0  0  0  0  0  0
   62.6691    6.9131   38.2333 H   0  0  0  0  0  0  0  0  0  0  0  0
   63.7904    5.6388   38.6481 H   0  0  0  0  0  0  0  0  0  0  0  0
   62.2716    5.7780   39.5007 H   0  0  0  0  0  0  0  0  0  0  0  0
   60.9906    6.9350   36.3654 H   0  0  0  0  0  0  0  0  0  0  0  0
   58.2722    6.1349   37.2293 H   0  0  0  0  0  0  0  0  0  0  0  0
   58.6004    6.8692   35.6781 H   0  0  0  0  0  0  0  0  0  0  0  0
   58.7920    7.8009   37.1438 H   0  0  0  0  0  0  0  0  0  0  0  0
  1  2  1  0  0  0  0
  1 33  1  0  0  0  0
  1 34  1  0  0  0  0
  1 35  1  0  0  0  0
  2  3  2  0  0  0  0
  2  4  1  0  0  0  0
  4  5  1  0  0  0  0
  4 36  1  0  0  0  0
  5  8  1  0  0  0  0
  5  6  1  0  0  0  0
  5 37  1  6  0  0  0
  6 13  1  0  0  0  0
  6  7  2  0  0  0  0
  8 38  1  0  0  0  0
  8 39  1  0  0  0  0
  9 10  1  0  0  0  0
  9  8  1  0  0  0  0
  9 40  1  0  0  0  0
  9 41  1  0  0  0  0
 10 12  1  0  0  0  0
 11 10  2  0  0  0  0
 13 14  1  0  0  0  0
 13 42  1  0  0  0  0
 14 17  1  0  0  0  0
 14 43  1  1  0  0  0
 15 14  1  0  0  0  0
 15 16  2  0  0  0  0
 17 44  1  0  0  0  0
 17 45  1  0  0  0  0
 17 46  1  0  0  0  0
 18 15  1  0  0  0  0
 18 47  1  0  0  0  0
 19 20  1  0  0  0  0
 19 18  1  0  0  0  0
 19 48  1  1  0  0  0
 20 21  2  0  0  0  0
 22 19  1  0  0  0  0
 22 49  1  0  0  0  0
 22 50  1  0  0  0  0
 23 22  1  0  0  0  0
 23 24  1  0  0  0  0
 23 51  1  0  0  0  0
 24 52  1  0  0  0  0
 24 53  1  0  0  0  0
 24 54  1  0  0  0  0
 25 23  1  0  0  0  0
 25 55  1  0  0  0  0
 25 56  1  0  0  0  0
 25 57  1  0  0  0  0
 26 27  1  0  0  0  0
 26 20  1  0  0  0  0
 26 58  1  0  0  0  0
 27 28  1  0  0  0  0
 27 59  1  6  0  0  0
 28 29  2  0  0  0  0
 28 31  1  0  0  0  0
 30 27  1  0  0  0  0
 30 60  1  0  0  0  0
 30 61  1  0  0  0  0
 30 62  1  0  0  0  0
 31 32  1  0  0  0  0
 31 63  1  0  0  0  0
 32 64  1  0  0  0  0
 32 65  1  0  0  0  0
 32 66  1  0  0  0  0
M  CHG  1  12  -1
M  END
>  <MODEL>
       0

$$$$
selected_4mers/EALA/58_noH.pdb
 OpenBabel03042517503D

 66 65  0  0  1  0  0  0  0  0999 V2000
  103.4520   78.6940   33.5320 C   0  0  0  0  0  0  0  0  0  0  0  0
  103.3970   80.2050   33.7230 C   0  0  0  0  0  0  0  0  0  0  0  0
  102.7530   80.7030   34.6460 O   0  0  0  0  0  0  0  0  0  0  0  0
  104.0800   80.9340   32.8490 N   0  0  0  0  0  0  0  0  0  0  0  0
  104.0970   82.3870   32.9400 C   0  0  2  0  0  0  0  0  0  0  0  0
  102.7150   82.9740   32.7070 C   0  0  0  0  0  0  0  0  0  0  0  0
  102.2770   83.8580   33.4440 O   0  0  0  0  0  0  0  0  0  0  0  0
  105.1030   82.9570   31.9430 C   0  0  0  0  0  0  0  0  0  0  0  0
  106.5290   82.9260   32.4790 C   0  0  0  0  0  0  0  0  0  0  0  0
  107.5640   83.2290   31.4210 C   0  0  0  0  0  0  0  0  0  0  0  0
  107.3640   84.1910   30.6500 O   0  0  0  0  0  0  0  0  0  0  0  0
  108.5850   82.5100   31.3700 O   0  0  0  0  0  0  0  0  0  0  0  0
  102.0240   82.4760   31.6890 N   0  0  0  0  0  0  0  0  0  0  0  0
  100.6830   82.9570   31.3950 C   0  0  2  0  0  0  0  0  0  0  0  0
   99.7720   82.6740   32.5890 C   0  0  0  0  0  0  0  0  0  0  0  0
   98.8150   83.4050   32.8360 O   0  0  0  0  0  0  0  0  0  0  0  0
  100.1440   82.2730   30.1450 C   0  0  0  0  0  0  0  0  0  0  0  0
  100.0810   81.6180   33.3370 N   0  0  0  0  0  0  0  0  0  0  0  0
   99.2760   81.2490   34.5010 C   0  0  2  0  0  0  0  0  0  0  0  0
   99.8960   81.6830   35.8240 C   0  0  0  0  0  0  0  0  0  0  0  0
   99.4360   81.2840   36.8960 O   0  0  0  0  0  0  0  0  0  0  0  0
   99.0440   79.7360   34.5240 C   0  0  0  0  0  0  0  0  0  0  0  0
   98.1610   79.1900   33.3980 C   0  0  0  0  0  0  0  0  0  0  0  0
   98.0640   77.6690   33.4940 C   0  0  0  0  0  0  0  0  0  0  0  0
   96.7760   79.8320   33.5010 C   0  0  0  0  0  0  0  0  0  0  0  0
  100.9430   82.4960   35.7500 N   0  0  0  0  0  0  0  0  0  0  0  0
  101.6120   82.9680   36.9550 C   0  0  2  0  0  0  0  0  0  0  0  0
  100.6180   83.6650   37.8770 C   0  0  0  0  0  0  0  0  0  0  0  0
   99.7810   84.4490   37.4210 O   0  0  0  0  0  0  0  0  0  0  0  0
  102.7450   83.9210   36.5820 C   0  0  0  0  0  0  0  0  0  0  0  0
  100.7080   83.3650   39.1700 N   0  0  0  0  0  0  0  0  0  0  0  0
   99.8160   83.9740   40.1410 C   0  0  0  0  0  0  0  0  0  0  0  0
  104.0585   78.4639   32.6810 H   0  0  0  0  0  0  0  0  0  0  0  0
  102.4624   78.3178   33.3769 H   0  0  0  0  0  0  0  0  0  0  0  0
  103.8738   78.2394   34.4040 H   0  0  0  0  0  0  0  0  0  0  0  0
  104.5816   80.4864   32.1298 H   0  0  0  0  0  0  0  0  0  0  0  0
  104.3961   82.6587   33.9308 H   0  0  0  0  0  0  0  0  0  0  0  0
  105.0609   82.3794   31.0433 H   0  0  0  0  0  0  0  0  0  0  0  0
  104.8428   83.9792   31.7635 H   0  0  0  0  0  0  0  0  0  0  0  0
  106.6159   83.6531   33.2591 H   0  0  0  0  0  0  0  0  0  0  0  0
  106.7157   81.9343   32.8347 H   0  0  0  0  0  0  0  0  0  0  0  0
  102.4234   81.7734   31.1268 H   0  0  0  0  0  0  0  0  0  0  0  0
  100.7137   84.0116   31.2170 H   0  0  0  0  0  0  0  0  0  0  0  0
  100.1063   81.2157   30.3051 H   0  0  0  0  0  0  0  0  0  0  0  0
  100.7871   82.4856   29.3167 H   0  0  0  0  0  0  0  0  0  0  0  0
   99.1600   82.6373   29.9353 H   0  0  0  0  0  0  0  0  0  0  0  0
  100.8673   81.0741   33.1023 H   0  0  0  0  0  0  0  0  0  0  0  0
   98.3466   81.7696   34.4004 H   0  0  0  0  0  0  0  0  0  0  0  0
   99.9974   79.2547   34.4588 H   0  0  0  0  0  0  0  0  0  0  0  0
   98.5207   79.5316   35.4347 H   0  0  0  0  0  0  0  0  0  0  0  0
   98.5913   79.4313   32.4485 H   0  0  0  0  0  0  0  0  0  0  0  0
   97.6358   77.3977   34.4363 H   0  0  0  0  0  0  0  0  0  0  0  0
   99.0421   77.2433   33.4109 H   0  0  0  0  0  0  0  0  0  0  0  0
   97.4461   77.3003   32.7021 H   0  0  0  0  0  0  0  0  0  0  0  0
   96.3418   79.5932   34.4493 H   0  0  0  0  0  0  0  0  0  0  0  0
   96.1503   79.4578   32.7179 H   0  0  0  0  0  0  0  0  0  0  0  0
   96.8673   80.8940   33.4078 H   0  0  0  0  0  0  0  0  0  0  0  0
  101.2721   82.7841   34.8680 H   0  0  0  0  0  0  0  0  0  0  0  0
  102.0221   82.1266   37.4734 H   0  0  0  0  0  0  0  0  0  0  0  0
  102.3438   84.7662   36.0627 H   0  0  0  0  0  0  0  0  0  0  0  0
  103.4445   83.4138   35.9509 H   0  0  0  0  0  0  0  0  0  0  0  0
  103.2408   84.2510   37.4710 H   0  0  0  0  0  0  0  0  0  0  0  0
  101.3886   82.7213   39.4728 H   0  0  0  0  0  0  0  0  0  0  0  0
   99.1465   84.6419   39.6405 H   0  0  0  0  0  0  0  0  0  0  0  0
  100.3907   84.5182   40.8611 H   0  0  0  0  0  0  0  0  0  0  0  0
   99.2537   83.2105   40.6368 H   0  0  0  0  0  0  0  0  0  0  0  0
  1  2  1  0  0  0  0
  1 33  1  0  0  0  0
  1 34  1  0  0  0  0
  1 35  1  0  0  0  0
  2  3  2  0  0  0  0
  2  4  1  0  0  0  0
  4  5  1  0  0  0  0
  4 36  1  0  0  0  0
  5  8  1  0  0  0  0
  5  6  1  0  0  0  0
  5 37  1  6  0  0  0
  6 13  1  0  0  0  0
  6  7  2  0  0  0  0
  8 38  1  0  0  0  0
  8 39  1  0  0  0  0
  9 10  1  0  0  0  0
  9  8  1  0  0  0  0
  9 40  1  0  0  0  0
  9 41  1  0  0  0  0
 10 12  1  0  0  0  0
 11 10  2  0  0  0  0
 13 14  1  0  0  0  0
 13 42  1  0  0  0  0
 14 17  1  0  0  0  0
 14 43  1  1  0  0  0
 15 14  1  0  0  0  0
 15 16  2  0  0  0  0
 17 44  1  0  0  0  0
 17 45  1  0  0  0  0
 17 46  1  0  0  0  0
 18 15  1  0  0  0  0
 18 47  1  0  0  0  0
 19 20  1  0  0  0  0
 19 18  1  0  0  0  0
 19 48  1  1  0  0  0
 20 21  2  0  0  0  0
 22 19  1  0  0  0  0
 22 49  1  0  0  0  0
 22 50  1  0  0  0  0
 23 22  1  0  0  0  0
 23 24  1  0  0  0  0
 23 51  1  0  0  0  0
 24 52  1  0  0  0  0
 24 53  1  0  0  0  0
 24 54  1  0  0  0  0
 25 23  1  0  0  0  0
 25 55  1  0  0  0  0
 25 56  1  0  0  0  0
 25 57  1  0  0  0  0
 26 27  1  0  0  0  0
 26 20  1  0  0  0  0
 26 58  1  0  0  0  0
 27 28  1  0  0  0  0
 27 59  1  6  0  0  0
 28 29  2  0  0  0  0
 28 31  1  0  0  0  0
 30 27  1  0  0  0  0
 30 60  1  0  0  0  0
 30 61  1  0  0  0  0
 30 62  1  0  0  0  0
 31 32  1  0  0  0  0
 31 63  1  0  0  0  0
 32 64  1  0  0  0  0
 32 65  1  0  0  0  0
 32 66  1  0  0  0  0
M  CHG  1  12  -1
M  END
>  <MODEL>
       0

$$$$
selected_4mers/EALA/59_noH.pdb
 OpenBabel03042517503D

 66 65  0  0  1  0  0  0  0  0999 V2000
   -3.1740   36.4560  106.8560 C   0  0  0  0  0  0  0  0  0  0  0  0
   -2.0680   36.5880  107.8880 C   0  0  0  0  0  0  0  0  0  0  0  0
   -1.9480   37.6210  108.5460 O   0  0  0  0  0  0  0  0  0  0  0  0
   -1.2560   35.5480  108.0360 N   0  0  0  0  0  0  0  0  0  0  0  0
   -0.1650   35.5600  109.0010 C   0  0  2  0  0  0  0  0  0  0  0  0
    0.9950   36.4080  108.4750 C   0  0  0  0  0  0  0  0  0  0  0  0
    1.2510   36.4490  107.2730 O   0  0  0  0  0  0  0  0  0  0  0  0
    0.2860   34.1220  109.2720 C   0  0  0  0  0  0  0  0  0  0  0  0
    1.3910   33.9630  110.2930 C   0  0  0  0  0  0  0  0  0  0  0  0
    1.4210   32.5680  110.8980 C   0  0  0  0  0  0  0  0  0  0  0  0
    1.0700   31.5940  110.1930 O   0  0  0  0  0  0  0  0  0  0  0  0
    1.8080   32.4430  112.0810 O   0  0  0  0  0  0  0  0  0  0  0  0
    1.6880   37.0930  109.3770 N   0  0  0  0  0  0  0  0  0  0  0  0
    2.8050   37.9410  108.9740 C   0  0  2  0  0  0  0  0  0  0  0  0
    4.0240   37.1240  108.5570 C   0  0  0  0  0  0  0  0  0  0  0  0
    4.5730   36.3580  109.3490 O   0  0  0  0  0  0  0  0  0  0  0  0
    3.1760   38.8920  110.1110 C   0  0  0  0  0  0  0  0  0  0  0  0
    4.4350   37.2890  107.3050 N   0  0  0  0  0  0  0  0  0  0  0  0
    5.6040   36.5970  106.7700 C   0  0  2  0  0  0  0  0  0  0  0  0
    6.8780   37.3430  107.1720 C   0  0  0  0  0  0  0  0  0  0  0  0
    7.9260   36.7410  107.4170 O   0  0  0  0  0  0  0  0  0  0  0  0
    5.5350   36.5520  105.2400 C   0  0  0  0  0  0  0  0  0  0  0  0
    4.4510   35.6910  104.5930 C   0  0  0  0  0  0  0  0  0  0  0  0
    4.3740   35.9990  103.1040 C   0  0  0  0  0  0  0  0  0  0  0  0
    4.7670   34.2170  104.8260 C   0  0  0  0  0  0  0  0  0  0  0  0
    6.7790   38.6630  107.2230 N   0  0  0  0  0  0  0  0  0  0  0  0
    7.9360   39.4820  107.5610 C   0  0  2  0  0  0  0  0  0  0  0  0
    7.5120   40.8930  107.9250 C   0  0  0  0  0  0  0  0  0  0  0  0
    6.3900   41.3170  107.6310 O   0  0  0  0  0  0  0  0  0  0  0  0
    8.8870   39.5250  106.3770 C   0  0  0  0  0  0  0  0  0  0  0  0
    8.4190   41.6120  108.5720 N   0  0  0  0  0  0  0  0  0  0  0  0
    8.1710   42.9900  108.9550 C   0  0  0  0  0  0  0  0  0  0  0  0
   -3.1153   35.4939  106.3913 H   0  0  0  0  0  0  0  0  0  0  0  0
   -3.0618   37.2182  106.1134 H   0  0  0  0  0  0  0  0  0  0  0  0
   -4.1243   36.5629  107.3360 H   0  0  0  0  0  0  0  0  0  0  0  0
   -1.3949   34.7481  107.4791 H   0  0  0  0  0  0  0  0  0  0  0  0
   -0.5011   35.9952  109.9189 H   0  0  0  0  0  0  0  0  0  0  0  0
    0.6294   33.7054  108.3482 H   0  0  0  0  0  0  0  0  0  0  0  0
   -0.5657   33.6216  109.6833 H   0  0  0  0  0  0  0  0  0  0  0  0
    1.2400   34.6751  111.0773 H   0  0  0  0  0  0  0  0  0  0  0  0
    2.3237   34.1236  109.7938 H   0  0  0  0  0  0  0  0  0  0  0  0
    1.4453   37.0280  110.3289 H   0  0  0  0  0  0  0  0  0  0  0  0
    2.4895   38.5053  108.1214 H   0  0  0  0  0  0  0  0  0  0  0  0
    3.4909   38.3249  110.9619 H   0  0  0  0  0  0  0  0  0  0  0  0
    2.3243   39.4845  110.3726 H   0  0  0  0  0  0  0  0  0  0  0  0
    3.9725   39.5326  109.7946 H   0  0  0  0  0  0  0  0  0  0  0  0
    3.9339   37.8993  106.7170 H   0  0  0  0  0  0  0  0  0  0  0  0
    5.6180   35.6023  107.1642 H   0  0  0  0  0  0  0  0  0  0  0  0
    5.3891   37.5557  104.8990 H   0  0  0  0  0  0  0  0  0  0  0  0
    6.4535   36.0887  104.9458 H   0  0  0  0  0  0  0  0  0  0  0  0
    3.5011   35.9110  105.0338 H   0  0  0  0  0  0  0  0  0  0  0  0
    5.3170   35.7845  102.6462 H   0  0  0  0  0  0  0  0  0  0  0  0
    4.1374   37.0333  102.9655 H   0  0  0  0  0  0  0  0  0  0  0  0
    3.6135   35.3957  102.6539 H   0  0  0  0  0  0  0  0  0  0  0  0
    5.7155   33.9823  104.3899 H   0  0  0  0  0  0  0  0  0  0  0  0
    4.0076   33.6137  104.3741 H   0  0  0  0  0  0  0  0  0  0  0  0
    4.7996   34.0211  105.8774 H   0  0  0  0  0  0  0  0  0  0  0  0
    5.9154   39.0949  107.0307 H   0  0  0  0  0  0  0  0  0  0  0  0
    8.4266   39.0477  108.4069 H   0  0  0  0  0  0  0  0  0  0  0  0
    8.3895   39.9603  105.5356 H   0  0  0  0  0  0  0  0  0  0  0  0
    9.1975   38.5306  106.1326 H   0  0  0  0  0  0  0  0  0  0  0  0
    9.7438   40.1144  106.6289 H   0  0  0  0  0  0  0  0  0  0  0  0
    9.2840   41.2001  108.7987 H   0  0  0  0  0  0  0  0  0  0  0  0
    7.1916   43.2784  108.6350 H   0  0  0  0  0  0  0  0  0  0  0  0
    8.8983   43.6248  108.4936 H   0  0  0  0  0  0  0  0  0  0  0  0
    8.2403   43.0825  110.0187 H   0  0  0  0  0  0  0  0  0  0  0  0
  1  2  1  0  0  0  0
  1 33  1  0  0  0  0
  1 34  1  0  0  0  0
  1 35  1  0  0  0  0
  2  3  2  0  0  0  0
  2  4  1  0  0  0  0
  4  5  1  0  0  0  0
  4 36  1  0  0  0  0
  5  8  1  0  0  0  0
  5  6  1  0  0  0  0
  5 37  1  6  0  0  0
  6 13  1  0  0  0  0
  6  7  2  0  0  0  0
  8 38  1  0  0  0  0
  8 39  1  0  0  0  0
  9 10  1  0  0  0  0
  9  8  1  0  0  0  0
  9 40  1  0  0  0  0
  9 41  1  0  0  0  0
 10 12  1  0  0  0  0
 11 10  2  0  0  0  0
 13 14  1  0  0  0  0
 13 42  1  0  0  0  0
 14 17  1  0  0  0  0
 14 43  1  1  0  0  0
 15 14  1  0  0  0  0
 15 16  2  0  0  0  0
 17 44  1  0  0  0  0
 17 45  1  0  0  0  0
 17 46  1  0  0  0  0
 18 15  1  0  0  0  0
 18 47  1  0  0  0  0
 19 20  1  0  0  0  0
 19 18  1  0  0  0  0
 19 48  1  1  0  0  0
 20 21  2  0  0  0  0
 22 19  1  0  0  0  0
 22 49  1  0  0  0  0
 22 50  1  0  0  0  0
 23 22  1  0  0  0  0
 23 24  1  0  0  0  0
 23 51  1  0  0  0  0
 24 52  1  0  0  0  0
 24 53  1  0  0  0  0
 24 54  1  0  0  0  0
 25 23  1  0  0  0  0
 25 55  1  0  0  0  0
 25 56  1  0  0  0  0
 25 57  1  0  0  0  0
 26 27  1  0  0  0  0
 26 20  1  0  0  0  0
 26 58  1  0  0  0  0
 27 28  1  0  0  0  0
 27 59  1  6  0  0  0
 28 29  2  0  0  0  0
 28 31  1  0  0  0  0
 30 27  1  0  0  0  0
 30 60  1  0  0  0  0
 30 61  1  0  0  0  0
 30 62  1  0  0  0  0
 31 32  1  0  0  0  0
 31 63  1  0  0  0  0
 32 64  1  0  0  0  0
 32 65  1  0  0  0  0
 32 66  1  0  0  0  0
M  CHG  1  12  -1
M  END
>  <MODEL>
       0

$$$$
