selected_4mers/EALK/50_noH.pdb
 OpenBabel03042517503D

 77 76  0  0  1  0  0  0  0  0999 V2000
   42.1910   14.8450   16.7100 C   0  0  0  0  0  0  0  0  0  0  0  0
   43.5140   15.4130   17.2130 C   0  0  0  0  0  0  0  0  0  0  0  0
   44.4590   14.6610   17.4680 O   0  0  0  0  0  0  0  0  0  0  0  0
   43.5960   16.7370   17.3430 N   0  0  0  0  0  0  0  0  0  0  0  0
   44.8490   17.3370   17.8130 C   0  0  2  0  0  0  0  0  0  0  0  0
   45.1160   16.9950   19.2670 C   0  0  0  0  0  0  0  0  0  0  0  0
   46.2800   16.8070   19.6560 O   0  0  0  0  0  0  0  0  0  0  0  0
   44.8240   18.8330   17.5160 C   0  0  0  0  0  0  0  0  0  0  0  0
   44.8190   19.1810   16.0360 C   0  0  0  0  0  0  0  0  0  0  0  0
   45.9020   18.5080   15.2110 C   0  0  0  0  0  0  0  0  0  0  0  0
   47.0600   18.5610   15.6090 O   0  0  0  0  0  0  0  0  0  0  0  0
   45.6310   17.8690   14.1750 O   0  0  0  0  0  0  0  0  0  0  0  0
   44.0610   16.9260   20.0950 N   0  0  0  0  0  0  0  0  0  0  0  0
   44.2610   16.5340   21.4850 C   0  0  2  0  0  0  0  0  0  0  0  0
   44.8480   15.1540   21.5810 C   0  0  0  0  0  0  0  0  0  0  0  0
   45.7910   14.8810   22.3440 O   0  0  0  0  0  0  0  0  0  0  0  0
   42.9480   16.6310   22.2420 C   0  0  0  0  0  0  0  0  0  0  0  0
   44.2870   14.2120   20.8220 N   0  0  0  0  0  0  0  0  0  0  0  0
   44.8130   12.8390   20.8310 C   0  0  2  0  0  0  0  0  0  0  0  0
   46.2610   12.7960   20.4140 C   0  0  0  0  0  0  0  0  0  0  0  0
   47.0750   12.0690   20.9870 O   0  0  0  0  0  0  0  0  0  0  0  0
   43.9580   11.9530   19.9410 C   0  0  0  0  0  0  0  0  0  0  0  0
   42.5700   11.6120   20.4040 C   0  0  0  0  0  0  0  0  0  0  0  0
   41.7540   10.9510   19.2970 C   0  0  0  0  0  0  0  0  0  0  0  0
   42.6400   10.7500   21.6540 C   0  0  0  0  0  0  0  0  0  0  0  0
   46.6140   13.5440   19.3650 N   0  0  0  0  0  0  0  0  0  0  0  0
   48.0110   13.6100   18.9310 C   0  0  2  0  0  0  0  0  0  0  0  0
   48.9090   14.1670   20.0130 C   0  0  0  0  0  0  0  0  0  0  0  0
   50.0330   13.7180   20.2240 O   0  0  0  0  0  0  0  0  0  0  0  0
   48.0820   14.4470   17.6880 C   0  0  0  0  0  0  0  0  0  0  0  0
   47.5830   13.8040   16.4090 C   0  0  0  0  0  0  0  0  0  0  0  0
   47.5520   14.7820   15.2510 C   0  0  0  0  0  0  0  0  0  0  0  0
   46.9780   14.1990   13.9720 C   0  0  0  0  0  0  0  0  0  0  0  0
   46.8900   15.2850   12.9480 N   0  0  0  0  0  0  0  0  0  0  0  0
   48.4270   15.1830   20.7300 N   0  0  0  0  0  0  0  0  0  0  0  0
   49.1970   15.7770   21.8040 C   0  0  0  0  0  0  0  0  0  0  0  0
   41.4991   15.6445   16.5457 H   0  0  0  0  0  0  0  0  0  0  0  0
   41.7915   14.1718   17.4395 H   0  0  0  0  0  0  0  0  0  0  0  0
   42.3542   14.3202   15.7919 H   0  0  0  0  0  0  0  0  0  0  0  0
   42.8230   17.3066   17.1256 H   0  0  0  0  0  0  0  0  0  0  0  0
   45.6807   16.9225   17.2826 H   0  0  0  0  0  0  0  0  0  0  0  0
   43.9430   19.2473   17.9599 H   0  0  0  0  0  0  0  0  0  0  0  0
   45.7270   19.2393   17.9215 H   0  0  0  0  0  0  0  0  0  0  0  0
   43.8699   18.8964   15.6320 H   0  0  0  0  0  0  0  0  0  0  0  0
   45.0102   20.2321   15.9770 H   0  0  0  0  0  0  0  0  0  0  0  0
   43.1580   17.1388   19.7655 H   0  0  0  0  0  0  0  0  0  0  0  0
   44.9623   17.2061   21.9338 H   0  0  0  0  0  0  0  0  0  0  0  0
   42.2344   15.9640   21.8052 H   0  0  0  0  0  0  0  0  0  0  0  0
   42.5785   17.6337   22.1882 H   0  0  0  0  0  0  0  0  0  0  0  0
   43.1060   16.3636   23.2659 H   0  0  0  0  0  0  0  0  0  0  0  0
   43.5162   14.4371   20.2524 H   0  0  0  0  0  0  0  0  0  0  0  0
   44.7668   12.4673   21.8333 H   0  0  0  0  0  0  0  0  0  0  0  0
   43.8652   12.4470   18.9964 H   0  0  0  0  0  0  0  0  0  0  0  0
   44.4718   11.0145   19.9282 H   0  0  0  0  0  0  0  0  0  0  0  0
   42.0596   12.5192   20.6519 H   0  0  0  0  0  0  0  0  0  0  0  0
   42.2221   10.0331   19.0084 H   0  0  0  0  0  0  0  0  0  0  0  0
   41.7023   11.6059   18.4524 H   0  0  0  0  0  0  0  0  0  0  0  0
   40.7654   10.7505   19.6539 H   0  0  0  0  0  0  0  0  0  0  0  0
   43.1477    9.8355   21.4286 H   0  0  0  0  0  0  0  0  0  0  0  0
   41.6488   10.5333   21.9938 H   0  0  0  0  0  0  0  0  0  0  0  0
   43.1728   11.2744   22.4195 H   0  0  0  0  0  0  0  0  0  0  0  0
   45.9280   14.0561   18.8788 H   0  0  0  0  0  0  0  0  0  0  0  0
   48.3624   12.6205   18.7252 H   0  0  0  0  0  0  0  0  0  0  0  0
   47.5003   15.3291   17.8566 H   0  0  0  0  0  0  0  0  0  0  0  0
   49.1246   14.6257   17.5266 H   0  0  0  0  0  0  0  0  0  0  0  0
   48.2312   12.9911   16.1563 H   0  0  0  0  0  0  0  0  0  0  0  0
   46.5825   13.4654   16.5801 H   0  0  0  0  0  0  0  0  0  0  0  0
   46.9553   15.6233   15.5358 H   0  0  0  0  0  0  0  0  0  0  0  0
   48.5665   15.0512   15.0431 H   0  0  0  0  0  0  0  0  0  0  0  0
   47.6156   13.4177   13.6145 H   0  0  0  0  0  0  0  0  0  0  0  0
   46.0052   13.7950   14.1597 H   0  0  0  0  0  0  0  0  0  0  0  0
   47.8206   15.6649   12.7745 H   0  0  0  0  0  0  0  0  0  0  0  0
   46.2785   16.0262   13.2902 H   0  0  0  0  0  0  0  0  0  0  0  0
   47.5310   15.5361   20.5256 H   0  0  0  0  0  0  0  0  0  0  0  0
   50.1383   15.2752   21.8878 H   0  0  0  0  0  0  0  0  0  0  0  0
   48.6588   15.6815   22.7239 H   0  0  0  0  0  0  0  0  0  0  0  0
   49.3625   16.8130   21.5935 H   0  0  0  0  0  0  0  0  0  0  0  0
  1  2  1  0  0  0  0
  1 37  1  0  0  0  0
  1 38  1  0  0  0  0
  1 39  1  0  0  0  0
  2  4  1  0  0  0  0
  2  3  2  0  0  0  0
  4  5  1  0  0  0  0
  4 40  1  0  0  0  0
  5  6  1  0  0  0  0
  5 41  1  6  0  0  0
  6  7  2  0  0  0  0
  6 13  1  0  0  0  0
  8  5  1  0  0  0  0
  8 42  1  0  0  0  0
  8 43  1  0  0  0  0
  9  8  1  0  0  0  0
  9 44  1  0  0  0  0
  9 45  1  0  0  0  0
 10 11  1  0  0  0  0
 10  9  1  0  0  0  0
 12 10  2  0  0  0  0
 13 14  1  0  0  0  0
 13 46  1  0  0  0  0
 14 15  1  0  0  0  0
 14 17  1  0  0  0  0
 14 47  1  1  0  0  0
 15 16  2  0  0  0  0
 17 48  1  0  0  0  0
 17 49  1  0  0  0  0
 17 50  1  0  0  0  0
 18 19  1  0  0  0  0
 18 15  1  0  0  0  0
 18 51  1  0  0  0  0
 19 52  1  1  0  0  0
 20 19  1  0  0  0  0
 20 21  2  0  0  0  0
 22 23  1  0  0  0  0
 22 19  1  0  0  0  0
 22 53  1  0  0  0  0
 22 54  1  0  0  0  0
 23 25  1  0  0  0  0
 23 55  1  0  0  0  0
 24 23  1  0  0  0  0
 24 56  1  0  0  0  0
 24 57  1  0  0  0  0
 24 58  1  0  0  0  0
 25 59  1  0  0  0  0
 25 60  1  0  0  0  0
 25 61  1  0  0  0  0
 26 20  1  0  0  0  0
 26 62  1  0  0  0  0
 27 26  1  0  0  0  0
 27 28  1  0  0  0  0
 27 63  1  6  0  0  0
 28 29  2  0  0  0  0
 28 35  1  0  0  0  0
 30 27  1  0  0  0  0
 30 64  1  0  0  0  0
 30 65  1  0  0  0  0
 31 30  1  0  0  0  0
 31 66  1  0  0  0  0
 31 67  1  0  0  0  0
 32 31  1  0  0  0  0
 32 68  1  0  0  0  0
 32 69  1  0  0  0  0
 33 32  1  0  0  0  0
 33 70  1  0  0  0  0
 33 71  1  0  0  0  0
 34 33  1  0  0  0  0
 34 72  1  0  0  0  0
 34 73  1  0  0  0  0
 35 36  1  0  0  0  0
 35 74  1  0  0  0  0
 36 75  1  0  0  0  0
 36 76  1  0  0  0  0
 36 77  1  0  0  0  0
M  CHG  1  11  -1
M  END
>  <MODEL>
       0

$$$$
selected_4mers/EALK/51_noH.pdb
 OpenBabel03042517503D

 77 76  0  0  1  0  0  0  0  0999 V2000
   58.3380   27.3000   51.6280 C   0  0  0  0  0  0  0  0  0  0  0  0
   58.4810   26.0840   50.7050 C   0  0  0  0  0  0  0  0  0  0  0  0
   59.3040   26.0800   49.7900 O   0  0  0  0  0  0  0  0  0  0  0  0
   57.6820   25.0450   50.9420 N   0  0  0  0  0  0  0  0  0  0  0  0
   57.7700   23.8350   50.1230 C   0  0  2  0  0  0  0  0  0  0  0  0
   57.0310   23.9130   48.7810 C   0  0  0  0  0  0  0  0  0  0  0  0
   55.8850   24.3760   48.7110 O   0  0  0  0  0  0  0  0  0  0  0  0
   57.2630   22.6220   50.9210 C   0  0  0  0  0  0  0  0  0  0  0  0
   57.1940   21.3280   50.1130 C   0  0  0  0  0  0  0  0  0  0  0  0
   56.8440   20.1110   50.9620 C   0  0  0  0  0  0  0  0  0  0  0  0
   55.8140   20.1420   51.6650 O   0  0  0  0  0  0  0  0  0  0  0  0
   57.6000   19.1160   50.9210 O   0  0  0  0  0  0  0  0  0  0  0  0
   57.6990   23.4610   47.7180 N   0  0  0  0  0  0  0  0  0  0  0  0
   57.1090   23.4420   46.3850 C   0  0  2  0  0  0  0  0  0  0  0  0
   56.7530   21.9970   46.0710 C   0  0  0  0  0  0  0  0  0  0  0  0
   57.5610   21.0990   46.3000 O   0  0  0  0  0  0  0  0  0  0  0  0
   58.1010   23.9640   45.3640 C   0  0  0  0  0  0  0  0  0  0  0  0
   55.5470   21.7780   45.5530 N   0  0  0  0  0  0  0  0  0  0  0  0
   55.0710   20.4390   45.2130 C   0  0  2  0  0  0  0  0  0  0  0  0
   54.7280   20.3240   43.7300 C   0  0  0  0  0  0  0  0  0  0  0  0
   53.9520   21.1160   43.1970 O   0  0  0  0  0  0  0  0  0  0  0  0
   53.8370   20.1040   46.0510 C   0  0  0  0  0  0  0  0  0  0  0  0
   54.0520   20.1020   47.5690 C   0  0  0  0  0  0  0  0  0  0  0  0
   52.6920   19.9370   48.2620 C   0  0  0  0  0  0  0  0  0  0  0  0
   55.0100   18.9690   47.9690 C   0  0  0  0  0  0  0  0  0  0  0  0
   55.2870   19.3150   43.0690 N   0  0  0  0  0  0  0  0  0  0  0  0
   55.0430   19.1290   41.6430 C   0  0  2  0  0  0  0  0  0  0  0  0
   53.6330   18.7080   41.2530 C   0  0  0  0  0  0  0  0  0  0  0  0
   53.0430   17.7960   41.8410 O   0  0  0  0  0  0  0  0  0  0  0  0
   56.0170   18.0980   41.0600 C   0  0  0  0  0  0  0  0  0  0  0  0
   57.4660   18.5440   41.0300 C   0  0  0  0  0  0  0  0  0  0  0  0
   58.2990   17.6650   40.0970 C   0  0  0  0  0  0  0  0  0  0  0  0
   59.7010   18.2370   39.9250 C   0  0  0  0  0  0  0  0  0  0  0  0
   60.4870   17.5290   38.8770 N   0  0  0  0  0  0  0  0  0  0  0  0
   53.0960   19.3640   40.2330 N   0  0  0  0  0  0  0  0  0  0  0  0
   51.7820   18.9910   39.7420 C   0  0  0  0  0  0  0  0  0  0  0  0
   59.0327   28.0574   51.3303 H   0  0  0  0  0  0  0  0  0  0  0  0
   58.5401   27.0075   52.6372 H   0  0  0  0  0  0  0  0  0  0  0  0
   57.3414   27.6837   51.5606 H   0  0  0  0  0  0  0  0  0  0  0  0
   57.0262   25.0913   51.6748 H   0  0  0  0  0  0  0  0  0  0  0  0
   58.8069   23.7294   49.8808 H   0  0  0  0  0  0  0  0  0  0  0  0
   57.9217   22.4659   51.7496 H   0  0  0  0  0  0  0  0  0  0  0  0
   56.2626   22.8493   51.2251 H   0  0  0  0  0  0  0  0  0  0  0  0
   58.1466   21.1612   49.6550 H   0  0  0  0  0  0  0  0  0  0  0  0
   56.4161   21.4457   49.3878 H   0  0  0  0  0  0  0  0  0  0  0  0
   58.6185   23.1302   47.8376 H   0  0  0  0  0  0  0  0  0  0  0  0
   56.2406   24.0660   46.3486 H   0  0  0  0  0  0  0  0  0  0  0  0
   58.9816   23.3564   45.3792 H   0  0  0  0  0  0  0  0  0  0  0  0
   58.3605   24.9742   45.6030 H   0  0  0  0  0  0  0  0  0  0  0  0
   57.6609   23.9298   44.3893 H   0  0  0  0  0  0  0  0  0  0  0  0
   54.9533   22.5468   45.3929 H   0  0  0  0  0  0  0  0  0  0  0  0
   55.8580   19.7459   45.4255 H   0  0  0  0  0  0  0  0  0  0  0  0
   53.4982   19.1303   45.7646 H   0  0  0  0  0  0  0  0  0  0  0  0
   53.1285   20.8815   45.8552 H   0  0  0  0  0  0  0  0  0  0  0  0
   54.4938   21.0274   47.8745 H   0  0  0  0  0  0  0  0  0  0  0  0
   52.2471   19.0123   47.9588 H   0  0  0  0  0  0  0  0  0  0  0  0
   52.0509   20.7484   47.9871 H   0  0  0  0  0  0  0  0  0  0  0  0
   52.8302   19.9353   49.3230 H   0  0  0  0  0  0  0  0  0  0  0  0
   54.5927   18.0286   47.6749 H   0  0  0  0  0  0  0  0  0  0  0  0
   55.1524   18.9800   49.0294 H   0  0  0  0  0  0  0  0  0  0  0  0
   55.9519   19.1094   47.4812 H   0  0  0  0  0  0  0  0  0  0  0  0
   55.8730   18.6854   43.5480 H   0  0  0  0  0  0  0  0  0  0  0  0
   55.1905   20.1077   41.2364 H   0  0  0  0  0  0  0  0  0  0  0  0
   55.9540   17.2082   41.6509 H   0  0  0  0  0  0  0  0  0  0  0  0
   55.7252   17.9475   40.0416 H   0  0  0  0  0  0  0  0  0  0  0  0
   57.5119   19.5568   40.6878 H   0  0  0  0  0  0  0  0  0  0  0  0
   57.8656   18.4599   42.0190 H   0  0  0  0  0  0  0  0  0  0  0  0
   58.3697   16.6812   40.5119 H   0  0  0  0  0  0  0  0  0  0  0  0
   57.8219   17.6316   39.1398 H   0  0  0  0  0  0  0  0  0  0  0  0
   59.6186   19.2684   39.6525 H   0  0  0  0  0  0  0  0  0  0  0  0
   60.2166   18.1126   40.8543 H   0  0  0  0  0  0  0  0  0  0  0  0
   60.0198   17.6292   37.9758 H   0  0  0  0  0  0  0  0  0  0  0  0
   60.5576   16.5397   39.1152 H   0  0  0  0  0  0  0  0  0  0  0  0
   53.5884   20.1036   39.8091 H   0  0  0  0  0  0  0  0  0  0  0  0
   51.4039   18.1739   40.3201 H   0  0  0  0  0  0  0  0  0  0  0  0
   51.8548   18.6981   38.7155 H   0  0  0  0  0  0  0  0  0  0  0  0
   51.1187   19.8261   39.8285 H   0  0  0  0  0  0  0  0  0  0  0  0
  1  2  1  0  0  0  0
  1 37  1  0  0  0  0
  1 38  1  0  0  0  0
  1 39  1  0  0  0  0
  2  4  1  0  0  0  0
  2  3  2  0  0  0  0
  4  5  1  0  0  0  0
  4 40  1  0  0  0  0
  5  6  1  0  0  0  0
  5 41  1  6  0  0  0
  6  7  2  0  0  0  0
  6 13  1  0  0  0  0
  8  5  1  0  0  0  0
  8 42  1  0  0  0  0
  8 43  1  0  0  0  0
  9  8  1  0  0  0  0
  9 44  1  0  0  0  0
  9 45  1  0  0  0  0
 10 11  1  0  0  0  0
 10  9  1  0  0  0  0
 12 10  2  0  0  0  0
 13 14  1  0  0  0  0
 13 46  1  0  0  0  0
 14 15  1  0  0  0  0
 14 17  1  0  0  0  0
 14 47  1  1  0  0  0
 15 16  2  0  0  0  0
 17 48  1  0  0  0  0
 17 49  1  0  0  0  0
 17 50  1  0  0  0  0
 18 19  1  0  0  0  0
 18 15  1  0  0  0  0
 18 51  1  0  0  0  0
 19 52  1  1  0  0  0
 20 19  1  0  0  0  0
 20 21  2  0  0  0  0
 22 23  1  0  0  0  0
 22 19  1  0  0  0  0
 22 53  1  0  0  0  0
 22 54  1  0  0  0  0
 23 25  1  0  0  0  0
 23 55  1  0  0  0  0
 24 23  1  0  0  0  0
 24 56  1  0  0  0  0
 24 57  1  0  0  0  0
 24 58  1  0  0  0  0
 25 59  1  0  0  0  0
 25 60  1  0  0  0  0
 25 61  1  0  0  0  0
 26 20  1  0  0  0  0
 26 62  1  0  0  0  0
 27 26  1  0  0  0  0
 27 28  1  0  0  0  0
 27 63  1  6  0  0  0
 28 29  2  0  0  0  0
 28 35  1  0  0  0  0
 30 27  1  0  0  0  0
 30 64  1  0  0  0  0
 30 65  1  0  0  0  0
 31 30  1  0  0  0  0
 31 66  1  0  0  0  0
 31 67  1  0  0  0  0
 32 31  1  0  0  0  0
 32 68  1  0  0  0  0
 32 69  1  0  0  0  0
 33 32  1  0  0  0  0
 33 70  1  0  0  0  0
 33 71  1  0  0  0  0
 34 33  1  0  0  0  0
 34 72  1  0  0  0  0
 34 73  1  0  0  0  0
 35 36  1  0  0  0  0
 35 74  1  0  0  0  0
 36 75  1  0  0  0  0
 36 76  1  0  0  0  0
 36 77  1  0  0  0  0
M  CHG  1  11  -1
M  END
>  <MODEL>
       0

$$$$
selected_4mers/EALK/52_noH.pdb
 OpenBabel03042517503D

 77 76  0  0  1  0  0  0  0  0999 V2000
   52.0010   12.8580   28.9470 C   0  0  0  0  0  0  0  0  0  0  0  0
   51.3120   13.8510   28.0090 C   0  0  0  0  0  0  0  0  0  0  0  0
   51.1950   15.0170   28.3310 O   0  0  0  0  0  0  0  0  0  0  0  0
   50.8270   13.3540   26.8750 N   0  0  0  0  0  0  0  0  0  0  0  0
   50.2170   14.2210   25.8620 C   0  0  2  0  0  0  0  0  0  0  0  0
   48.7330   14.4630   26.0950 C   0  0  0  0  0  0  0  0  0  0  0  0
   48.1180   15.1660   25.3090 O   0  0  0  0  0  0  0  0  0  0  0  0
   50.3910   13.6140   24.4680 C   0  0  0  0  0  0  0  0  0  0  0  0
   51.7990   13.1410   24.1440 C   0  0  0  0  0  0  0  0  0  0  0  0
   52.0660   11.6790   24.5320 C   0  0  0  0  0  0  0  0  0  0  0  0
   53.1780   11.1890   24.2030 O   0  0  0  0  0  0  0  0  0  0  0  0
   51.1960   11.0350   25.1880 O   0  0  0  0  0  0  0  0  0  0  0  0
   48.1460   13.8810   27.1450 N   0  0  0  0  0  0  0  0  0  0  0  0
   46.7130   13.9770   27.3970 C   0  0  2  0  0  0  0  0  0  0  0  0
   46.3330   15.2260   28.1590 C   0  0  0  0  0  0  0  0  0  0  0  0
   47.1110   15.7400   28.9440 O   0  0  0  0  0  0  0  0  0  0  0  0
   46.2310   12.7330   28.1690 C   0  0  0  0  0  0  0  0  0  0  0  0
   45.0930   15.6410   27.9680 N   0  0  0  0  0  0  0  0  0  0  0  0
   44.4600   16.6840   28.7680 C   0  0  2  0  0  0  0  0  0  0  0  0
   44.0360   16.0780   30.0990 C   0  0  0  0  0  0  0  0  0  0  0  0
   43.4480   15.0160   30.1330 O   0  0  0  0  0  0  0  0  0  0  0  0
   43.2560   17.2200   28.0090 C   0  0  0  0  0  0  0  0  0  0  0  0
   43.5820   18.0590   26.7750 C   0  0  0  0  0  0  0  0  0  0  0  0
   42.3430   18.2890   25.9670 C   0  0  0  0  0  0  0  0  0  0  0  0
   44.1930   19.3890   27.1690 C   0  0  0  0  0  0  0  0  0  0  0  0
   44.3760   16.7470   31.1820 N   0  0  0  0  0  0  0  0  0  0  0  0
   44.1510   16.2150   32.5330 C   0  0  2  0  0  0  0  0  0  0  0  0
   43.3210   17.1210   33.4180 C   0  0  0  0  0  0  0  0  0  0  0  0
   43.2030   16.8840   34.6150 O   0  0  0  0  0  0  0  0  0  0  0  0
   45.4940   15.9080   33.1920 C   0  0  0  0  0  0  0  0  0  0  0  0
   46.0730   14.5780   32.7270 C   0  0  0  0  0  0  0  0  0  0  0  0
   47.0760   14.7400   31.6670 C   0  0  0  0  0  0  0  0  0  0  0  0
   48.3940   14.0990   32.0430 C   0  0  0  0  0  0  0  0  0  0  0  0
   49.3210   14.4340   30.9770 N   0  0  0  0  0  0  0  0  0  0  0  0
   42.6970   18.1380   32.8480 N   0  0  0  0  0  0  0  0  0  0  0  0
   41.8470   19.0230   33.6320 C   0  0  0  0  0  0  0  0  0  0  0  0
   52.0092   11.8879   28.4957 H   0  0  0  0  0  0  0  0  0  0  0  0
   51.4691   12.8155   29.8744 H   0  0  0  0  0  0  0  0  0  0  0  0
   53.0066   13.1762   29.1269 H   0  0  0  0  0  0  0  0  0  0  0  0
   50.8785   12.3844   26.7123 H   0  0  0  0  0  0  0  0  0  0  0  0
   50.7224   15.1611   25.9379 H   0  0  0  0  0  0  0  0  0  0  0  0
   49.7321   12.7749   24.3868 H   0  0  0  0  0  0  0  0  0  0  0  0
   50.1708   14.3962   23.7718 H   0  0  0  0  0  0  0  0  0  0  0  0
   52.4932   13.7620   24.6706 H   0  0  0  0  0  0  0  0  0  0  0  0
   51.9138   13.2078   23.0823 H   0  0  0  0  0  0  0  0  0  0  0  0
   48.7031   13.3671   27.7733 H   0  0  0  0  0  0  0  0  0  0  0  0
   46.2327   14.0305   26.4424 H   0  0  0  0  0  0  0  0  0  0  0  0
   46.7189   12.6924   29.1204 H   0  0  0  0  0  0  0  0  0  0  0  0
   46.4671   11.8522   27.6092 H   0  0  0  0  0  0  0  0  0  0  0  0
   45.1723   12.7908   28.3133 H   0  0  0  0  0  0  0  0  0  0  0  0
   44.5681   15.2239   27.2471 H   0  0  0  0  0  0  0  0  0  0  0  0
   45.1364   17.4924   28.9522 H   0  0  0  0  0  0  0  0  0  0  0  0
   42.6653   16.3851   27.6943 H   0  0  0  0  0  0  0  0  0  0  0  0
   42.7476   17.8747   28.6856 H   0  0  0  0  0  0  0  0  0  0  0  0
   44.2945   17.5210   26.1853 H   0  0  0  0  0  0  0  0  0  0  0  0
   41.6287   18.8270   26.5546 H   0  0  0  0  0  0  0  0  0  0  0  0
   41.9276   17.3471   25.6750 H   0  0  0  0  0  0  0  0  0  0  0  0
   42.5870   18.8573   25.0938 H   0  0  0  0  0  0  0  0  0  0  0  0
   43.4933   19.9417   27.7604 H   0  0  0  0  0  0  0  0  0  0  0  0
   44.4336   19.9460   26.2877 H   0  0  0  0  0  0  0  0  0  0  0  0
   45.0835   19.2181   27.7371 H   0  0  0  0  0  0  0  0  0  0  0  0
   44.7946   17.6325   31.0827 H   0  0  0  0  0  0  0  0  0  0  0  0
   43.5788   15.3181   32.4190 H   0  0  0  0  0  0  0  0  0  0  0  0
   45.3571   15.8721   34.2526 H   0  0  0  0  0  0  0  0  0  0  0  0
   46.1804   16.6801   32.9136 H   0  0  0  0  0  0  0  0  0  0  0  0
   46.5326   14.0931   33.5628 H   0  0  0  0  0  0  0  0  0  0  0  0
   45.2691   13.9961   32.3270 H   0  0  0  0  0  0  0  0  0  0  0  0
   46.7109   14.2830   30.7710 H   0  0  0  0  0  0  0  0  0  0  0  0
   47.2429   15.7869   31.5220 H   0  0  0  0  0  0  0  0  0  0  0  0
   48.7440   14.4886   32.9761 H   0  0  0  0  0  0  0  0  0  0  0  0
   48.2957   13.0398   32.1581 H   0  0  0  0  0  0  0  0  0  0  0  0
   49.3915   15.4482   30.8939 H   0  0  0  0  0  0  0  0  0  0  0  0
   48.9831   14.0435   30.0974 H   0  0  0  0  0  0  0  0  0  0  0  0
   42.8083   18.2986   31.8831 H   0  0  0  0  0  0  0  0  0  0  0  0
   41.8427   18.7016   34.6526 H   0  0  0  0  0  0  0  0  0  0  0  0
   40.8498   18.9950   33.2450 H   0  0  0  0  0  0  0  0  0  0  0  0
   42.2239   20.0228   33.5745 H   0  0  0  0  0  0  0  0  0  0  0  0
  1  2  1  0  0  0  0
  1 37  1  0  0  0  0
  1 38  1  0  0  0  0
  1 39  1  0  0  0  0
  2  4  1  0  0  0  0
  2  3  2  0  0  0  0
  4  5  1  0  0  0  0
  4 40  1  0  0  0  0
  5  6  1  0  0  0  0
  5 41  1  6  0  0  0
  6  7  2  0  0  0  0
  6 13  1  0  0  0  0
  8  5  1  0  0  0  0
  8 42  1  0  0  0  0
  8 43  1  0  0  0  0
  9  8  1  0  0  0  0
  9 44  1  0  0  0  0
  9 45  1  0  0  0  0
 10 11  1  0  0  0  0
 10  9  1  0  0  0  0
 12 10  2  0  0  0  0
 13 14  1  0  0  0  0
 13 46  1  0  0  0  0
 14 15  1  0  0  0  0
 14 17  1  0  0  0  0
 14 47  1  1  0  0  0
 15 16  2  0  0  0  0
 17 48  1  0  0  0  0
 17 49  1  0  0  0  0
 17 50  1  0  0  0  0
 18 19  1  0  0  0  0
 18 15  1  0  0  0  0
 18 51  1  0  0  0  0
 19 52  1  1  0  0  0
 20 19  1  0  0  0  0
 20 21  2  0  0  0  0
 22 23  1  0  0  0  0
 22 19  1  0  0  0  0
 22 53  1  0  0  0  0
 22 54  1  0  0  0  0
 23 25  1  0  0  0  0
 23 55  1  0  0  0  0
 24 23  1  0  0  0  0
 24 56  1  0  0  0  0
 24 57  1  0  0  0  0
 24 58  1  0  0  0  0
 25 59  1  0  0  0  0
 25 60  1  0  0  0  0
 25 61  1  0  0  0  0
 26 20  1  0  0  0  0
 26 62  1  0  0  0  0
 27 26  1  0  0  0  0
 27 28  1  0  0  0  0
 27 63  1  6  0  0  0
 28 29  2  0  0  0  0
 28 35  1  0  0  0  0
 30 27  1  0  0  0  0
 30 64  1  0  0  0  0
 30 65  1  0  0  0  0
 31 30  1  0  0  0  0
 31 66  1  0  0  0  0
 31 67  1  0  0  0  0
 32 31  1  0  0  0  0
 32 68  1  0  0  0  0
 32 69  1  0  0  0  0
 33 32  1  0  0  0  0
 33 70  1  0  0  0  0
 33 71  1  0  0  0  0
 34 33  1  0  0  0  0
 34 72  1  0  0  0  0
 34 73  1  0  0  0  0
 35 36  1  0  0  0  0
 35 74  1  0  0  0  0
 36 75  1  0  0  0  0
 36 76  1  0  0  0  0
 36 77  1  0  0  0  0
M  CHG  1  11  -1
M  END
>  <MODEL>
       0

$$$$
selected_4mers/EALK/53_noH.pdb
 OpenBabel03042517503D

 77 76  0  0  1  0  0  0  0  0999 V2000
   68.4640   20.4540    3.4640 C   0  0  0  0  0  0  0  0  0  0  0  0
   69.6200   21.4490    3.4270 C   0  0  0  0  0  0  0  0  0  0  0  0
   70.1200   21.7880    2.3700 O   0  0  0  0  0  0  0  0  0  0  0  0
   70.0700   21.9170    4.5840 N   0  0  0  0  0  0  0  0  0  0  0  0
   71.1630   22.8770    4.5930 C   0  0  2  0  0  0  0  0  0  0  0  0
   72.5020   22.2620    4.1720 C   0  0  0  0  0  0  0  0  0  0  0  0
   73.3140   22.9260    3.5340 O   0  0  0  0  0  0  0  0  0  0  0  0
   71.2740   23.5820    5.9470 C   0  0  0  0  0  0  0  0  0  0  0  0
   70.0720   24.4610    6.2900 C   0  0  0  0  0  0  0  0  0  0  0  0
   69.6210   25.3730    5.1340 C   0  0  0  0  0  0  0  0  0  0  0  0
   70.5190   26.0020    4.4920 O   0  0  0  0  0  0  0  0  0  0  0  0
   68.3680   25.4280    4.8900 O   0  0  0  0  0  0  0  0  0  0  0  0
   72.7090   20.9830    4.4760 N   0  0  0  0  0  0  0  0  0  0  0  0
   73.8980   20.2900    3.9960 C   0  0  2  0  0  0  0  0  0  0  0  0
   73.9280   20.3110    2.4580 C   0  0  0  0  0  0  0  0  0  0  0  0
   74.9450   20.6120    1.8470 O   0  0  0  0  0  0  0  0  0  0  0  0
   73.9150   18.8660    4.5370 C   0  0  0  0  0  0  0  0  0  0  0  0
   72.7910   20.0000    1.8430 N   0  0  0  0  0  0  0  0  0  0  0  0
   72.6760   20.0060    0.3860 C   0  0  2  0  0  0  0  0  0  0  0  0
   72.8800   21.3900   -0.2040 C   0  0  0  0  0  0  0  0  0  0  0  0
   73.5940   21.5580   -1.1810 O   0  0  0  0  0  0  0  0  0  0  0  0
   71.3270   19.4310   -0.0200 C   0  0  0  0  0  0  0  0  0  0  0  0
   71.2220   17.9080    0.0960 C   0  0  0  0  0  0  0  0  0  0  0  0
   69.7650   17.4280    0.2370 C   0  0  0  0  0  0  0  0  0  0  0  0
   71.9090   17.2200   -1.0730 C   0  0  0  0  0  0  0  0  0  0  0  0
   72.2480   22.3900    0.3900 N   0  0  0  0  0  0  0  0  0  0  0  0
   72.3520   23.7530   -0.1120 C   0  0  2  0  0  0  0  0  0  0  0  0
   73.7500   24.3100    0.0650 C   0  0  0  0  0  0  0  0  0  0  0  0
   74.1860   25.1340   -0.7220 O   0  0  0  0  0  0  0  0  0  0  0  0
   71.3090   24.6440    0.5680 C   0  0  0  0  0  0  0  0  0  0  0  0
   69.8730   24.3450    0.1280 C   0  0  0  0  0  0  0  0  0  0  0  0
   68.8500   25.2850    0.7690 C   0  0  0  0  0  0  0  0  0  0  0  0
   67.5010   25.1910    0.0430 C   0  0  0  0  0  0  0  0  0  0  0  0
   66.3500   25.9050    0.7460 N   0  0  0  0  0  0  0  0  0  0  0  0
   74.4630   23.8800    1.0960 N   0  0  0  0  0  0  0  0  0  0  0  0
   75.8230   24.3460    1.3060 C   0  0  0  0  0  0  0  0  0  0  0  0
   68.2095   20.1656    2.4655 H   0  0  0  0  0  0  0  0  0  0  0  0
   67.6159   20.9098    3.9307 H   0  0  0  0  0  0  0  0  0  0  0  0
   68.7559   19.5887    4.0217 H   0  0  0  0  0  0  0  0  0  0  0  0
   69.6671   21.6167    5.4306 H   0  0  0  0  0  0  0  0  0  0  0  0
   70.9242   23.6126    3.8536 H   0  0  0  0  0  0  0  0  0  0  0  0
   72.1488   24.1980    5.9350 H   0  0  0  0  0  0  0  0  0  0  0  0
   71.3201   22.8157    6.6924 H   0  0  0  0  0  0  0  0  0  0  0  0
   69.2540   23.8251    6.5573 H   0  0  0  0  0  0  0  0  0  0  0  0
   70.3720   25.1006    7.0936 H   0  0  0  0  0  0  0  0  0  0  0  0
   72.0533   20.5008    5.0299 H   0  0  0  0  0  0  0  0  0  0  0  0
   74.7765   20.7887    4.3488 H   0  0  0  0  0  0  0  0  0  0  0  0
   73.0443   18.3450    4.1973 H   0  0  0  0  0  0  0  0  0  0  0  0
   73.9211   18.8909    5.6067 H   0  0  0  0  0  0  0  0  0  0  0  0
   74.7915   18.3619    4.1869 H   0  0  0  0  0  0  0  0  0  0  0  0
   72.0047   19.7590    2.3841 H   0  0  0  0  0  0  0  0  0  0  0  0
   73.4574   19.3916   -0.0101 H   0  0  0  0  0  0  0  0  0  0  0  0
   70.5766   19.8659    0.6067 H   0  0  0  0  0  0  0  0  0  0  0  0
   71.1968   19.6658   -1.0558 H   0  0  0  0  0  0  0  0  0  0  0  0
   71.7305   17.6322    0.9962 H   0  0  0  0  0  0  0  0  0  0  0  0
   69.2179   17.6847   -0.6460 H   0  0  0  0  0  0  0  0  0  0  0  0
   69.3147   17.8995    1.0854 H   0  0  0  0  0  0  0  0  0  0  0  0
   69.7505   16.3663    0.3695 H   0  0  0  0  0  0  0  0  0  0  0  0
   71.4134   17.4843   -1.9837 H   0  0  0  0  0  0  0  0  0  0  0  0
   71.8656   16.1594   -0.9382 H   0  0  0  0  0  0  0  0  0  0  0  0
   72.9314   17.5321   -1.1197 H   0  0  0  0  0  0  0  0  0  0  0  0
   71.6975   22.2089    1.1859 H   0  0  0  0  0  0  0  0  0  0  0  0
   72.1547   23.7372   -1.1635 H   0  0  0  0  0  0  0  0  0  0  0  0
   71.5300   25.6643    0.3334 H   0  0  0  0  0  0  0  0  0  0  0  0
   71.3642   24.4491    1.6186 H   0  0  0  0  0  0  0  0  0  0  0  0
   69.6332   23.3393    0.4035 H   0  0  0  0  0  0  0  0  0  0  0  0
   69.8236   24.4882   -0.9312 H   0  0  0  0  0  0  0  0  0  0  0  0
   68.7168   25.0127    1.7952 H   0  0  0  0  0  0  0  0  0  0  0  0
   69.2115   26.2895    0.6966 H   0  0  0  0  0  0  0  0  0  0  0  0
   67.6153   25.6203   -0.9304 H   0  0  0  0  0  0  0  0  0  0  0  0
   67.2428   24.1530    0.0163 H   0  0  0  0  0  0  0  0  0  0  0  0
   66.5499   26.9039    0.7968 H   0  0  0  0  0  0  0  0  0  0  0  0
   66.2433   25.5312    1.6890 H   0  0  0  0  0  0  0  0  0  0  0  0
   74.0663   23.2370    1.7272 H   0  0  0  0  0  0  0  0  0  0  0  0
   76.0879   25.0343    0.5308 H   0  0  0  0  0  0  0  0  0  0  0  0
   76.4929   23.5118    1.2865 H   0  0  0  0  0  0  0  0  0  0  0  0
   75.8899   24.8350    2.2554 H   0  0  0  0  0  0  0  0  0  0  0  0
  1  2  1  0  0  0  0
  1 37  1  0  0  0  0
  1 38  1  0  0  0  0
  1 39  1  0  0  0  0
  2  4  1  0  0  0  0
  2  3  2  0  0  0  0
  4  5  1  0  0  0  0
  4 40  1  0  0  0  0
  5  6  1  0  0  0  0
  5 41  1  6  0  0  0
  6  7  2  0  0  0  0
  6 13  1  0  0  0  0
  8  5  1  0  0  0  0
  8 42  1  0  0  0  0
  8 43  1  0  0  0  0
  9  8  1  0  0  0  0
  9 44  1  0  0  0  0
  9 45  1  0  0  0  0
 10 11  1  0  0  0  0
 10  9  1  0  0  0  0
 12 10  2  0  0  0  0
 13 14  1  0  0  0  0
 13 46  1  0  0  0  0
 14 15  1  0  0  0  0
 14 17  1  0  0  0  0
 14 47  1  1  0  0  0
 15 16  2  0  0  0  0
 17 48  1  0  0  0  0
 17 49  1  0  0  0  0
 17 50  1  0  0  0  0
 18 19  1  0  0  0  0
 18 15  1  0  0  0  0
 18 51  1  0  0  0  0
 19 52  1  1  0  0  0
 20 19  1  0  0  0  0
 20 21  2  0  0  0  0
 22 23  1  0  0  0  0
 22 19  1  0  0  0  0
 22 53  1  0  0  0  0
 22 54  1  0  0  0  0
 23 25  1  0  0  0  0
 23 55  1  0  0  0  0
 24 23  1  0  0  0  0
 24 56  1  0  0  0  0
 24 57  1  0  0  0  0
 24 58  1  0  0  0  0
 25 59  1  0  0  0  0
 25 60  1  0  0  0  0
 25 61  1  0  0  0  0
 26 20  1  0  0  0  0
 26 62  1  0  0  0  0
 27 26  1  0  0  0  0
 27 28  1  0  0  0  0
 27 63  1  6  0  0  0
 28 29  2  0  0  0  0
 28 35  1  0  0  0  0
 30 27  1  0  0  0  0
 30 64  1  0  0  0  0
 30 65  1  0  0  0  0
 31 30  1  0  0  0  0
 31 66  1  0  0  0  0
 31 67  1  0  0  0  0
 32 31  1  0  0  0  0
 32 68  1  0  0  0  0
 32 69  1  0  0  0  0
 33 32  1  0  0  0  0
 33 70  1  0  0  0  0
 33 71  1  0  0  0  0
 34 33  1  0  0  0  0
 34 72  1  0  0  0  0
 34 73  1  0  0  0  0
 35 36  1  0  0  0  0
 35 74  1  0  0  0  0
 36 75  1  0  0  0  0
 36 76  1  0  0  0  0
 36 77  1  0  0  0  0
M  CHG  1  11  -1
M  END
>  <MODEL>
       0

$$$$
selected_4mers/EALK/54_noH.pdb
 OpenBabel03042517503D

 77 76  0  0  1  0  0  0  0  0999 V2000
   32.2880   25.6890   35.4410 C   0  0  0  0  0  0  0  0  0  0  0  0
   33.7150   25.5660   34.8870 C   0  0  0  0  0  0  0  0  0  0  0  0
   33.9810   25.9450   33.7530 O   0  0  0  0  0  0  0  0  0  0  0  0
   34.6190   25.0190   35.6910 N   0  0  0  0  0  0  0  0  0  0  0  0
   35.9890   24.8510   35.2320 C   0  0  2  0  0  0  0  0  0  0  0  0
   36.0690   23.8440   34.0900 C   0  0  0  0  0  0  0  0  0  0  0  0
   36.8470   24.0230   33.1470 O   0  0  0  0  0  0  0  0  0  0  0  0
   36.8910   24.4090   36.3900 C   0  0  0  0  0  0  0  0  0  0  0  0
   38.3880   24.2860   36.0450 C   0  0  0  0  0  0  0  0  0  0  0  0
   39.0550   25.5960   35.6000 C   0  0  0  0  0  0  0  0  0  0  0  0
   38.5790   26.6980   35.9610 O   0  0  0  0  0  0  0  0  0  0  0  0
   40.0790   25.5170   34.8800 O   0  0  0  0  0  0  0  0  0  0  0  0
   35.3030   22.7640   34.1880 N   0  0  0  0  0  0  0  0  0  0  0  0
   35.3800   21.6980   33.1820 C   0  0  2  0  0  0  0  0  0  0  0  0
   34.9050   22.1480   31.7930 C   0  0  0  0  0  0  0  0  0  0  0  0
   35.5040   21.7300   30.7770 O   0  0  0  0  0  0  0  0  0  0  0  0
   34.6440   20.4420   33.6440 C   0  0  0  0  0  0  0  0  0  0  0  0
   33.8690   22.9940   31.7490 N   0  0  0  0  0  0  0  0  0  0  0  0
   33.2840   23.4600   30.4780 C   0  0  2  0  0  0  0  0  0  0  0  0
   33.6810   24.8930   30.1480 C   0  0  0  0  0  0  0  0  0  0  0  0
   33.1130   25.5040   29.2520 O   0  0  0  0  0  0  0  0  0  0  0  0
   31.7560   23.2900   30.4940 C   0  0  0  0  0  0  0  0  0  0  0  0
   31.2690   21.8500   30.6720 C   0  0  0  0  0  0  0  0  0  0  0  0
   29.7540   21.7510   30.6320 C   0  0  0  0  0  0  0  0  0  0  0  0
   31.9490   20.8870   29.6540 C   0  0  0  0  0  0  0  0  0  0  0  0
   34.6460   25.4380   30.8920 N   0  0  0  0  0  0  0  0  0  0  0  0
   35.1440   26.8000   30.6600 C   0  0  2  0  0  0  0  0  0  0  0  0
   35.3970   27.0530   29.1630 C   0  0  0  0  0  0  0  0  0  0  0  0
   36.0620   26.2410   28.4930 O   0  0  0  0  0  0  0  0  0  0  0  0
   36.4690   27.0010   31.4140 C   0  0  0  0  0  0  0  0  0  0  0  0
   36.5280   28.3010   32.2130 C   0  0  0  0  0  0  0  0  0  0  0  0
   37.9630   28.8670   32.2970 C   0  0  0  0  0  0  0  0  0  0  0  0
   39.0410   27.7820   32.4940 C   0  0  0  0  0  0  0  0  0  0  0  0
   40.3640   28.4380   32.7810 N   0  0  0  0  0  0  0  0  0  0  0  0
   34.8780   28.1660   28.6480 N   0  0  0  0  0  0  0  0  0  0  0  0
   35.0700   28.5390   27.2330 C   0  0  0  0  0  0  0  0  0  0  0  0
   31.6574   26.1418   34.7047 H   0  0  0  0  0  0  0  0  0  0  0  0
   32.2987   26.2950   36.3228 H   0  0  0  0  0  0  0  0  0  0  0  0
   31.9136   24.7159   35.6815 H   0  0  0  0  0  0  0  0  0  0  0  0
   34.3626   24.7278   36.5958 H   0  0  0  0  0  0  0  0  0  0  0  0
   36.3306   25.7969   34.8666 H   0  0  0  0  0  0  0  0  0  0  0  0
   36.5498   23.4533   36.7293 H   0  0  0  0  0  0  0  0  0  0  0  0
   36.8192   25.1764   37.1322 H   0  0  0  0  0  0  0  0  0  0  0  0
   38.9016   23.9289   36.9131 H   0  0  0  0  0  0  0  0  0  0  0  0
   38.4517   23.6170   35.2124 H   0  0  0  0  0  0  0  0  0  0  0  0
   34.6771   22.6773   34.9430 H   0  0  0  0  0  0  0  0  0  0  0  0
   36.4172   21.4558   33.0797 H   0  0  0  0  0  0  0  0  0  0  0  0
   33.6021   20.6593   33.7539 H   0  0  0  0  0  0  0  0  0  0  0  0
   35.0423   20.1205   34.5836 H   0  0  0  0  0  0  0  0  0  0  0  0
   34.7720   19.6663   32.9182 H   0  0  0  0  0  0  0  0  0  0  0  0
   33.4836   23.3168   32.5954 H   0  0  0  0  0  0  0  0  0  0  0  0
   33.6847   22.8477   29.6974 H   0  0  0  0  0  0  0  0  0  0  0  0
   31.3709   23.6587   29.5663 H   0  0  0  0  0  0  0  0  0  0  0  0
   31.4028   23.8333   31.3454 H   0  0  0  0  0  0  0  0  0  0  0  0
   31.5671   21.5339   31.6498 H   0  0  0  0  0  0  0  0  0  0  0  0
   29.4018   22.0579   29.6693 H   0  0  0  0  0  0  0  0  0  0  0  0
   29.3351   22.3863   31.3842 H   0  0  0  0  0  0  0  0  0  0  0  0
   29.4578   20.7391   30.8143 H   0  0  0  0  0  0  0  0  0  0  0  0
   31.6758   21.1693   28.6587 H   0  0  0  0  0  0  0  0  0  0  0  0
   31.6265   19.8841   29.8415 H   0  0  0  0  0  0  0  0  0  0  0  0
   33.0119   20.9460   29.7624 H   0  0  0  0  0  0  0  0  0  0  0  0
   35.0382   24.9076   31.6229 H   0  0  0  0  0  0  0  0  0  0  0  0
   34.4003   27.4845   31.0111 H   0  0  0  0  0  0  0  0  0  0  0  0
   37.2665   27.0062   30.7006 H   0  0  0  0  0  0  0  0  0  0  0  0
   36.5551   26.1978   32.1157 H   0  0  0  0  0  0  0  0  0  0  0  0
   36.1727   28.1129   33.2046 H   0  0  0  0  0  0  0  0  0  0  0  0
   35.9177   29.0234   31.7124 H   0  0  0  0  0  0  0  0  0  0  0  0
   38.0114   29.5465   33.1222 H   0  0  0  0  0  0  0  0  0  0  0  0
   38.1671   29.3479   31.3632 H   0  0  0  0  0  0  0  0  0  0  0  0
   39.1205   27.1922   31.6048 H   0  0  0  0  0  0  0  0  0  0  0  0
   38.7686   27.1527   33.3154 H   0  0  0  0  0  0  0  0  0  0  0  0
   40.6231   29.0378   31.9977 H   0  0  0  0  0  0  0  0  0  0  0  0
   41.0779   27.7211   32.9110 H   0  0  0  0  0  0  0  0  0  0  0  0
   34.3494   28.7589   29.2297 H   0  0  0  0  0  0  0  0  0  0  0  0
   35.6628   27.7938   26.7450 H   0  0  0  0  0  0  0  0  0  0  0  0
   35.5688   29.4840   27.1778 H   0  0  0  0  0  0  0  0  0  0  0  0
   34.1176   28.6096   26.7504 H   0  0  0  0  0  0  0  0  0  0  0  0
  1  2  1  0  0  0  0
  1 37  1  0  0  0  0
  1 38  1  0  0  0  0
  1 39  1  0  0  0  0
  2  4  1  0  0  0  0
  2  3  2  0  0  0  0
  4  5  1  0  0  0  0
  4 40  1  0  0  0  0
  5  6  1  0  0  0  0
  5 41  1  6  0  0  0
  6  7  2  0  0  0  0
  6 13  1  0  0  0  0
  8  5  1  0  0  0  0
  8 42  1  0  0  0  0
  8 43  1  0  0  0  0
  9  8  1  0  0  0  0
  9 44  1  0  0  0  0
  9 45  1  0  0  0  0
 10 11  1  0  0  0  0
 10  9  1  0  0  0  0
 12 10  2  0  0  0  0
 13 14  1  0  0  0  0
 13 46  1  0  0  0  0
 14 15  1  0  0  0  0
 14 17  1  0  0  0  0
 14 47  1  1  0  0  0
 15 16  2  0  0  0  0
 17 48  1  0  0  0  0
 17 49  1  0  0  0  0
 17 50  1  0  0  0  0
 18 19  1  0  0  0  0
 18 15  1  0  0  0  0
 18 51  1  0  0  0  0
 19 52  1  1  0  0  0
 20 19  1  0  0  0  0
 20 21  2  0  0  0  0
 22 23  1  0  0  0  0
 22 19  1  0  0  0  0
 22 53  1  0  0  0  0
 22 54  1  0  0  0  0
 23 25  1  0  0  0  0
 23 55  1  0  0  0  0
 24 23  1  0  0  0  0
 24 56  1  0  0  0  0
 24 57  1  0  0  0  0
 24 58  1  0  0  0  0
 25 59  1  0  0  0  0
 25 60  1  0  0  0  0
 25 61  1  0  0  0  0
 26 20  1  0  0  0  0
 26 62  1  0  0  0  0
 27 26  1  0  0  0  0
 27 28  1  0  0  0  0
 27 63  1  6  0  0  0
 28 29  2  0  0  0  0
 28 35  1  0  0  0  0
 30 27  1  0  0  0  0
 30 64  1  0  0  0  0
 30 65  1  0  0  0  0
 31 30  1  0  0  0  0
 31 66  1  0  0  0  0
 31 67  1  0  0  0  0
 32 31  1  0  0  0  0
 32 68  1  0  0  0  0
 32 69  1  0  0  0  0
 33 32  1  0  0  0  0
 33 70  1  0  0  0  0
 33 71  1  0  0  0  0
 34 33  1  0  0  0  0
 34 72  1  0  0  0  0
 34 73  1  0  0  0  0
 35 36  1  0  0  0  0
 35 74  1  0  0  0  0
 36 75  1  0  0  0  0
 36 76  1  0  0  0  0
 36 77  1  0  0  0  0
M  CHG  1  11  -1
M  END
>  <MODEL>
       0

$$$$
