selected_4mers/EALL/85_noH.pdb
 OpenBabel03042517503D

 75 74  0  0  1  0  0  0  0  0999 V2000
   26.4420   11.9970    6.4540 C   0  0  0  0  0  0  0  0  0  0  0  0
   26.2120   13.1670    5.5130 C   0  0  0  0  0  0  0  0  0  0  0  0
   26.6520   14.2760    5.7760 O   0  0  0  0  0  0  0  0  0  0  0  0
   25.5560   12.8970    4.3880 N   0  0  0  0  0  0  0  0  0  0  0  0
   25.2120   13.9740    3.4700 C   0  0  2  0  0  0  0  0  0  0  0  0
   23.6990   14.1610    3.6190 C   0  0  0  0  0  0  0  0  0  0  0  0
   22.9740   13.1950    3.8240 O   0  0  0  0  0  0  0  0  0  0  0  0
   25.5040   13.5800    2.0130 C   0  0  0  0  0  0  0  0  0  0  0  0
   26.9550   13.5330    1.6110 C   0  0  0  0  0  0  0  0  0  0  0  0
   27.1340   14.0810    0.1980 C   0  0  0  0  0  0  0  0  0  0  0  0
   26.3460   13.6750   -0.6830 O   0  0  0  0  0  0  0  0  0  0  0  0
   28.0340   14.9160   -0.0320 O   0  0  0  0  0  0  0  0  0  0  0  0
   23.2270   15.3950    3.4770 N   0  0  0  0  0  0  0  0  0  0  0  0
   21.8040   15.6660    3.6090 C   0  0  2  0  0  0  0  0  0  0  0  0
   21.4010   16.7720    2.6560 C   0  0  0  0  0  0  0  0  0  0  0  0
   22.1990   17.6460    2.2870 O   0  0  0  0  0  0  0  0  0  0  0  0
   21.4710   16.0710    5.0680 C   0  0  0  0  0  0  0  0  0  0  0  0
   20.1310   16.7470    2.2880 N   0  0  0  0  0  0  0  0  0  0  0  0
   19.5800   17.7070    1.3640 C   0  0  2  0  0  0  0  0  0  0  0  0
   18.9240   18.8590    2.1180 C   0  0  0  0  0  0  0  0  0  0  0  0
   18.1000   18.6110    2.9990 O   0  0  0  0  0  0  0  0  0  0  0  0
   18.5490   16.9560    0.5320 C   0  0  0  0  0  0  0  0  0  0  0  0
   17.7730   17.6840   -0.5520 C   0  0  0  0  0  0  0  0  0  0  0  0
   18.7370   18.1610   -1.6250 C   0  0  0  0  0  0  0  0  0  0  0  0
   16.7260   16.7400   -1.1240 C   0  0  0  0  0  0  0  0  0  0  0  0
   19.3060   20.1020    1.8010 N   0  0  0  0  0  0  0  0  0  0  0  0
   18.6850   21.2830    2.4320 C   0  0  2  0  0  0  0  0  0  0  0  0
   17.3180   21.3530    1.7380 C   0  0  0  0  0  0  0  0  0  0  0  0
   17.2330   21.6250    0.5390 O   0  0  0  0  0  0  0  0  0  0  0  0
   19.5200   22.5300    2.1580 C   0  0  0  0  0  0  0  0  0  0  0  0
   20.9190   22.5640    2.8110 C   0  0  0  0  0  0  0  0  0  0  0  0
   21.6030   23.8500    2.3710 C   0  0  0  0  0  0  0  0  0  0  0  0
   20.8500   22.4650    4.3380 C   0  0  0  0  0  0  0  0  0  0  0  0
   16.2480   21.1150    2.4950 N   0  0  0  0  0  0  0  0  0  0  0  0
   14.9130   21.0190    1.8950 C   0  0  0  0  0  0  0  0  0  0  0  0
   25.9824   11.1190    6.0505 H   0  0  0  0  0  0  0  0  0  0  0  0
   26.0126   12.2176    7.4089 H   0  0  0  0  0  0  0  0  0  0  0  0
   27.4930   11.8302    6.5655 H   0  0  0  0  0  0  0  0  0  0  0  0
   25.3031   11.9695    4.1759 H   0  0  0  0  0  0  0  0  0  0  0  0
   25.7780   14.8545    3.6919 H   0  0  0  0  0  0  0  0  0  0  0  0
   25.0889   12.6075    1.8491 H   0  0  0  0  0  0  0  0  0  0  0  0
   25.0680   14.3536    1.4160 H   0  0  0  0  0  0  0  0  0  0  0  0
   27.5292   14.1239    2.2936 H   0  0  0  0  0  0  0  0  0  0  0  0
   27.2885   12.5166    1.6337 H   0  0  0  0  0  0  0  0  0  0  0  0
   23.8472   16.1339    3.2803 H   0  0  0  0  0  0  0  0  0  0  0  0
   21.2564   14.7796    3.3656 H   0  0  0  0  0  0  0  0  0  0  0  0
   22.0128   16.9573    5.3246 H   0  0  0  0  0  0  0  0  0  0  0  0
   21.7495   15.2783    5.7306 H   0  0  0  0  0  0  0  0  0  0  0  0
   20.4209   16.2569    5.1557 H   0  0  0  0  0  0  0  0  0  0  0  0
   19.5422   16.0497    2.6572 H   0  0  0  0  0  0  0  0  0  0  0  0
   20.3424   18.1314    0.7447 H   0  0  0  0  0  0  0  0  0  0  0  0
   19.0654   16.1499    0.0540 H   0  0  0  0  0  0  0  0  0  0  0  0
   17.7943   16.7012    1.2464 H   0  0  0  0  0  0  0  0  0  0  0  0
   17.2743   18.5411   -0.1500 H   0  0  0  0  0  0  0  0  0  0  0  0
   19.2493   17.3200   -2.0435 H   0  0  0  0  0  0  0  0  0  0  0  0
   19.4485   18.8328   -1.1922 H   0  0  0  0  0  0  0  0  0  0  0  0
   18.1921   18.6661   -2.3950 H   0  0  0  0  0  0  0  0  0  0  0  0
   17.2089   15.8761   -1.5308 H   0  0  0  0  0  0  0  0  0  0  0  0
   16.1791   17.2396   -1.8961 H   0  0  0  0  0  0  0  0  0  0  0  0
   16.0537   16.4403   -0.3474 H   0  0  0  0  0  0  0  0  0  0  0  0
   20.0168   20.2314    1.1322 H   0  0  0  0  0  0  0  0  0  0  0  0
   18.6072   21.2198    3.4973 H   0  0  0  0  0  0  0  0  0  0  0  0
   18.9713   23.3765    2.5149 H   0  0  0  0  0  0  0  0  0  0  0  0
   19.6939   22.5349    1.1022 H   0  0  0  0  0  0  0  0  0  0  0  0
   21.4821   21.7122    2.4911 H   0  0  0  0  0  0  0  0  0  0  0  0
   21.0273   24.6903    2.6987 H   0  0  0  0  0  0  0  0  0  0  0  0
   21.6810   23.8654    1.3040 H   0  0  0  0  0  0  0  0  0  0  0  0
   22.5816   23.8986    2.8009 H   0  0  0  0  0  0  0  0  0  0  0  0
   20.2953   23.2943    4.7245 H   0  0  0  0  0  0  0  0  0  0  0  0
   21.8409   22.4796    4.7415 H   0  0  0  0  0  0  0  0  0  0  0  0
   20.3656   21.5519    4.6147 H   0  0  0  0  0  0  0  0  0  0  0  0
   16.3544   21.0024    3.4672 H   0  0  0  0  0  0  0  0  0  0  0  0
   14.9858   21.1661    0.8377 H   0  0  0  0  0  0  0  0  0  0  0  0
   14.2777   21.7697    2.3166 H   0  0  0  0  0  0  0  0  0  0  0  0
   14.5017   20.0513    2.0930 H   0  0  0  0  0  0  0  0  0  0  0  0
  1 36  1  0  0  0  0
  1 37  1  0  0  0  0
  1 38  1  0  0  0  0
  2  3  2  0  0  0  0
  2  1  1  0  0  0  0
  4  2  1  0  0  0  0
  4 39  1  0  0  0  0
  5  6  1  0  0  0  0
  5  4  1  0  0  0  0
  5 40  1  1  0  0  0
  6  7  2  0  0  0  0
  8  5  1  0  0  0  0
  8 41  1  0  0  0  0
  8 42  1  0  0  0  0
  9  8  1  0  0  0  0
  9 43  1  0  0  0  0
  9 44  1  0  0  0  0
 10  9  1  0  0  0  0
 11 10  2  0  0  0  0
 12 10  1  0  0  0  0
 13 14  1  0  0  0  0
 13  6  1  0  0  0  0
 13 45  1  0  0  0  0
 14 17  1  0  0  0  0
 14 46  1  6  0  0  0
 15 14  1  0  0  0  0
 16 15  2  0  0  0  0
 17 47  1  0  0  0  0
 17 48  1  0  0  0  0
 17 49  1  0  0  0  0
 18 15  1  0  0  0  0
 18 50  1  0  0  0  0
 19 20  1  0  0  0  0
 19 18  1  0  0  0  0
 19 51  1  6  0  0  0
 20 21  2  0  0  0  0
 22 19  1  0  0  0  0
 22 52  1  0  0  0  0
 22 53  1  0  0  0  0
 23 22  1  0  0  0  0
 23 54  1  0  0  0  0
 24 23  1  0  0  0  0
 24 55  1  0  0  0  0
 24 56  1  0  0  0  0
 24 57  1  0  0  0  0
 25 23  1  0  0  0  0
 25 58  1  0  0  0  0
 25 59  1  0  0  0  0
 25 60  1  0  0  0  0
 26 20  1  0  0  0  0
 26 27  1  0  0  0  0
 26 61  1  0  0  0  0
 27 62  1  1  0  0  0
 28 27  1  0  0  0  0
 28 34  1  0  0  0  0
 29 28  2  0  0  0  0
 30 27  1  0  0  0  0
 30 31  1  0  0  0  0
 30 63  1  0  0  0  0
 30 64  1  0  0  0  0
 31 33  1  0  0  0  0
 31 65  1  0  0  0  0
 32 31  1  0  0  0  0
 32 66  1  0  0  0  0
 32 67  1  0  0  0  0
 32 68  1  0  0  0  0
 33 69  1  0  0  0  0
 33 70  1  0  0  0  0
 33 71  1  0  0  0  0
 34 72  1  0  0  0  0
 35 34  1  0  0  0  0
 35 73  1  0  0  0  0
 35 74  1  0  0  0  0
 35 75  1  0  0  0  0
M  CHG  1  12  -1
M  END
>  <MODEL>
       0

$$$$
selected_4mers/EALL/86_noH.pdb
 OpenBabel03042517503D

 75 74  0  0  1  0  0  0  0  0999 V2000
   20.0660  197.1890  106.9650 C   0  0  0  0  0  0  0  0  0  0  0  0
   19.6700  197.6490  108.3650 C   0  0  0  0  0  0  0  0  0  0  0  0
   18.7220  197.1250  108.9470 O   0  0  0  0  0  0  0  0  0  0  0  0
   20.3770  198.6390  108.9090 N   0  0  0  0  0  0  0  0  0  0  0  0
   20.0290  199.1220  110.2370 C   0  0  2  0  0  0  0  0  0  0  0  0
   18.6250  199.7180  110.2040 C   0  0  0  0  0  0  0  0  0  0  0  0
   17.8390  199.5320  111.1290 O   0  0  0  0  0  0  0  0  0  0  0  0
   21.0100  200.1910  110.7240 C   0  0  0  0  0  0  0  0  0  0  0  0
   20.8170  200.5200  112.2050 C   0  0  0  0  0  0  0  0  0  0  0  0
   21.4440  201.8360  112.6200 C   0  0  0  0  0  0  0  0  0  0  0  0
   20.7120  202.8450  112.6620 O   0  0  0  0  0  0  0  0  0  0  0  0
   22.6590  201.8610  112.9010 O   0  0  0  0  0  0  0  0  0  0  0  0
   18.3090  200.4440  109.1370 N   0  0  0  0  0  0  0  0  0  0  0  0
   16.9870  201.0420  109.0190 C   0  0  2  0  0  0  0  0  0  0  0  0
   15.9360  199.9340  108.9800 C   0  0  0  0  0  0  0  0  0  0  0  0
   14.8850  200.0410  109.6090 O   0  0  0  0  0  0  0  0  0  0  0  0
   16.9060  201.9040  107.7560 C   0  0  0  0  0  0  0  0  0  0  0  0
   16.2310  198.8700  108.2390 N   0  0  0  0  0  0  0  0  0  0  0  0
   15.3060  197.7450  108.1390 C   0  0  2  0  0  0  0  0  0  0  0  0
   15.1180  197.0460  109.4820 C   0  0  0  0  0  0  0  0  0  0  0  0
   13.9930  196.6930  109.8460 O   0  0  0  0  0  0  0  0  0  0  0  0
   15.7990  196.7390  107.0910 C   0  0  0  0  0  0  0  0  0  0  0  0
   15.6250  197.1670  105.6290 C   0  0  0  0  0  0  0  0  0  0  0  0
   16.4300  196.2430  104.7330 C   0  0  0  0  0  0  0  0  0  0  0  0
   14.1490  197.1500  105.2490 C   0  0  0  0  0  0  0  0  0  0  0  0
   16.2120  196.8410  110.2140 N   0  0  0  0  0  0  0  0  0  0  0  0
   16.1430  196.1890  111.5200 C   0  0  2  0  0  0  0  0  0  0  0  0
   15.3810  197.0640  112.5100 C   0  0  0  0  0  0  0  0  0  0  0  0
   14.6660  196.5550  113.3740 O   0  0  0  0  0  0  0  0  0  0  0  0
   17.5510  195.8930  112.0580 C   0  0  0  0  0  0  0  0  0  0  0  0
   18.0790  194.4600  111.8930 C   0  0  0  0  0  0  0  0  0  0  0  0
   17.3210  193.5220  112.8250 C   0  0  0  0  0  0  0  0  0  0  0  0
   17.9250  194.0210  110.4530 C   0  0  0  0  0  0  0  0  0  0  0  0
   15.5410  198.3790  112.3850 N   0  0  0  0  0  0  0  0  0  0  0  0
   14.8420  199.3180  113.2570 C   0  0  0  0  0  0  0  0  0  0  0  0
   20.9067  197.7582  106.6270 H   0  0  0  0  0  0  0  0  0  0  0  0
   19.2440  197.3351  106.2957 H   0  0  0  0  0  0  0  0  0  0  0  0
   20.3250  196.1511  106.9905 H   0  0  0  0  0  0  0  0  0  0  0  0
   21.1289  199.0405  108.4164 H   0  0  0  0  0  0  0  0  0  0  0  0
   20.0730  198.2926  110.9116 H   0  0  0  0  0  0  0  0  0  0  0  0
   20.8612  201.0821  110.1507 H   0  0  0  0  0  0  0  0  0  0  0  0
   22.0015  199.8087  110.5988 H   0  0  0  0  0  0  0  0  0  0  0  0
   21.2579  199.7370  112.7859 H   0  0  0  0  0  0  0  0  0  0  0  0
   19.7638  200.6070  112.3728 H   0  0  0  0  0  0  0  0  0  0  0  0
   18.9726  200.5783  108.4222 H   0  0  0  0  0  0  0  0  0  0  0  0
   16.8032  201.6718  109.8643 H   0  0  0  0  0  0  0  0  0  0  0  0
   17.0869  201.2941  106.8957 H   0  0  0  0  0  0  0  0  0  0  0  0
   17.6423  202.6788  107.8051 H   0  0  0  0  0  0  0  0  0  0  0  0
   15.9321  202.3415  107.6846 H   0  0  0  0  0  0  0  0  0  0  0  0
   17.0854  198.8405  107.7508 H   0  0  0  0  0  0  0  0  0  0  0  0
   14.3574  198.1365  107.8361 H   0  0  0  0  0  0  0  0  0  0  0  0
   16.8414  196.5691  107.2625 H   0  0  0  0  0  0  0  0  0  0  0  0
   15.1925  195.8662  107.2148 H   0  0  0  0  0  0  0  0  0  0  0  0
   15.9858  198.1663  105.5023 H   0  0  0  0  0  0  0  0  0  0  0  0
   16.0796  195.2387  104.8495 H   0  0  0  0  0  0  0  0  0  0  0  0
   17.4636  196.2939  105.0049 H   0  0  0  0  0  0  0  0  0  0  0  0
   16.3142  196.5451  103.7131 H   0  0  0  0  0  0  0  0  0  0  0  0
   13.7617  196.1595  105.3669 H   0  0  0  0  0  0  0  0  0  0  0  0
   14.0395  197.4568  104.2298 H   0  0  0  0  0  0  0  0  0  0  0  0
   13.6096  197.8218  105.8836 H   0  0  0  0  0  0  0  0  0  0  0  0
   17.0855  197.1350  109.8678 H   0  0  0  0  0  0  0  0  0  0  0  0
   15.6225  195.2617  111.4016 H   0  0  0  0  0  0  0  0  0  0  0  0
   17.5494  196.1169  113.1043 H   0  0  0  0  0  0  0  0  0  0  0  0
   18.2053  196.4978  111.4655 H   0  0  0  0  0  0  0  0  0  0  0  0
   19.1174  194.4298  112.1493 H   0  0  0  0  0  0  0  0  0  0  0  0
   16.2795  193.5414  112.5807 H   0  0  0  0  0  0  0  0  0  0  0  0
   17.4557  193.8399  113.8378 H   0  0  0  0  0  0  0  0  0  0  0  0
   17.6957  192.5263  112.7109 H   0  0  0  0  0  0  0  0  0  0  0  0
   16.8904  194.0459  110.1813 H   0  0  0  0  0  0  0  0  0  0  0  0
   18.2991  193.0247  110.3419 H   0  0  0  0  0  0  0  0  0  0  0  0
   18.4766  194.6820  109.8177 H   0  0  0  0  0  0  0  0  0  0  0  0
   16.1443  198.7264  111.6889 H   0  0  0  0  0  0  0  0  0  0  0  0
   14.2333  198.7757  113.9500 H   0  0  0  0  0  0  0  0  0  0  0  0
   14.2235  199.9608  112.6661 H   0  0  0  0  0  0  0  0  0  0  0  0
   15.5568  199.9058  113.7941 H   0  0  0  0  0  0  0  0  0  0  0  0
  1 36  1  0  0  0  0
  1 37  1  0  0  0  0
  1 38  1  0  0  0  0
  2  3  2  0  0  0  0
  2  1  1  0  0  0  0
  4  2  1  0  0  0  0
  4 39  1  0  0  0  0
  5  6  1  0  0  0  0
  5  4  1  0  0  0  0
  5 40  1  1  0  0  0
  6  7  2  0  0  0  0
  8  5  1  0  0  0  0
  8 41  1  0  0  0  0
  8 42  1  0  0  0  0
  9  8  1  0  0  0  0
  9 43  1  0  0  0  0
  9 44  1  0  0  0  0
 10  9  1  0  0  0  0
 11 10  2  0  0  0  0
 12 10  1  0  0  0  0
 13 14  1  0  0  0  0
 13  6  1  0  0  0  0
 13 45  1  0  0  0  0
 14 17  1  0  0  0  0
 14 46  1  6  0  0  0
 15 14  1  0  0  0  0
 16 15  2  0  0  0  0
 17 47  1  0  0  0  0
 17 48  1  0  0  0  0
 17 49  1  0  0  0  0
 18 15  1  0  0  0  0
 18 50  1  0  0  0  0
 19 20  1  0  0  0  0
 19 18  1  0  0  0  0
 19 51  1  6  0  0  0
 20 21  2  0  0  0  0
 22 19  1  0  0  0  0
 22 52  1  0  0  0  0
 22 53  1  0  0  0  0
 23 22  1  0  0  0  0
 23 54  1  0  0  0  0
 24 23  1  0  0  0  0
 24 55  1  0  0  0  0
 24 56  1  0  0  0  0
 24 57  1  0  0  0  0
 25 23  1  0  0  0  0
 25 58  1  0  0  0  0
 25 59  1  0  0  0  0
 25 60  1  0  0  0  0
 26 20  1  0  0  0  0
 26 27  1  0  0  0  0
 26 61  1  0  0  0  0
 27 62  1  1  0  0  0
 28 27  1  0  0  0  0
 28 34  1  0  0  0  0
 29 28  2  0  0  0  0
 30 27  1  0  0  0  0
 30 31  1  0  0  0  0
 30 63  1  0  0  0  0
 30 64  1  0  0  0  0
 31 33  1  0  0  0  0
 31 65  1  0  0  0  0
 32 31  1  0  0  0  0
 32 66  1  0  0  0  0
 32 67  1  0  0  0  0
 32 68  1  0  0  0  0
 33 69  1  0  0  0  0
 33 70  1  0  0  0  0
 33 71  1  0  0  0  0
 34 72  1  0  0  0  0
 35 34  1  0  0  0  0
 35 73  1  0  0  0  0
 35 74  1  0  0  0  0
 35 75  1  0  0  0  0
M  CHG  1  12  -1
M  END
>  <MODEL>
       0

$$$$
selected_4mers/EALL/87_noH.pdb
 OpenBabel03042517503D

 75 74  0  0  1  0  0  0  0  0999 V2000
   37.0180   16.3980    9.1480 C   0  0  0  0  0  0  0  0  0  0  0  0
   36.7960   15.6650   10.4720 C   0  0  0  0  0  0  0  0  0  0  0  0
   37.6620   15.6750   11.3390 O   0  0  0  0  0  0  0  0  0  0  0  0
   35.6340   15.0300   10.6080 N   0  0  0  0  0  0  0  0  0  0  0  0
   35.2860   14.2720   11.8070 C   0  0  2  0  0  0  0  0  0  0  0  0
   35.7720   12.8320   11.7680 C   0  0  0  0  0  0  0  0  0  0  0  0
   35.7070   12.1260   12.7780 O   0  0  0  0  0  0  0  0  0  0  0  0
   33.7680   14.2760   12.0070 C   0  0  0  0  0  0  0  0  0  0  0  0
   33.2340   15.5990   12.4910 C   0  0  0  0  0  0  0  0  0  0  0  0
   33.8150   15.9650   13.8380 C   0  0  0  0  0  0  0  0  0  0  0  0
   33.5120   15.2600   14.8260 O   0  0  0  0  0  0  0  0  0  0  0  0
   34.5810   16.9470   13.9050 O   0  0  0  0  0  0  0  0  0  0  0  0
   36.2310   12.3740   10.6070 N   0  0  0  0  0  0  0  0  0  0  0  0
   36.6920   10.9970   10.4880 C   0  0  2  0  0  0  0  0  0  0  0  0
   37.9060   10.7230   11.3730 C   0  0  0  0  0  0  0  0  0  0  0  0
   38.7310   11.5990   11.5970 O   0  0  0  0  0  0  0  0  0  0  0  0
   37.0100   10.6610    9.0290 C   0  0  0  0  0  0  0  0  0  0  0  0
   38.0140    9.4910   11.8550 N   0  0  0  0  0  0  0  0  0  0  0  0
   39.1780    9.0770   12.6330 C   0  0  2  0  0  0  0  0  0  0  0  0
   40.3470    8.7570   11.7190 C   0  0  0  0  0  0  0  0  0  0  0  0
   40.1800    8.1440   10.6580 O   0  0  0  0  0  0  0  0  0  0  0  0
   38.8310    7.8420   13.4570 C   0  0  0  0  0  0  0  0  0  0  0  0
   37.6590    8.0420   14.4170 C   0  0  0  0  0  0  0  0  0  0  0  0
   37.2800    6.7190   15.0650 C   0  0  0  0  0  0  0  0  0  0  0  0
   38.0040    9.0940   15.4600 C   0  0  0  0  0  0  0  0  0  0  0  0
   41.5370    9.1680   12.1420 N   0  0  0  0  0  0  0  0  0  0  0  0
   42.7440    8.9230   11.3700 C   0  0  2  0  0  0  0  0  0  0  0  0
   42.9550    7.4280   11.1650 C   0  0  0  0  0  0  0  0  0  0  0  0
   43.4140    7.0070   10.1150 O   0  0  0  0  0  0  0  0  0  0  0  0
   43.9410    9.5460   12.0860 C   0  0  0  0  0  0  0  0  0  0  0  0
   45.3080    9.4280   11.4070 C   0  0  0  0  0  0  0  0  0  0  0  0
   45.3060    9.9570    9.9710 C   0  0  0  0  0  0  0  0  0  0  0  0
   46.3790   10.1220   12.2720 C   0  0  0  0  0  0  0  0  0  0  0  0
   42.6030    6.6160   12.1540 N   0  0  0  0  0  0  0  0  0  0  0  0
   42.7280    5.1680   11.9840 C   0  0  0  0  0  0  0  0  0  0  0  0
   36.1574   16.2758    8.5240 H   0  0  0  0  0  0  0  0  0  0  0  0
   37.8765   15.9919    8.6551 H   0  0  0  0  0  0  0  0  0  0  0  0
   37.1754   17.4390    9.3387 H   0  0  0  0  0  0  0  0  0  0  0  0
   34.9830   15.0730    9.8707 H   0  0  0  0  0  0  0  0  0  0  0  0
   35.7800   14.7570   12.6229 H   0  0  0  0  0  0  0  0  0  0  0  0
   33.5184   13.5251   12.7272 H   0  0  0  0  0  0  0  0  0  0  0  0
   33.3223   14.0842   11.0534 H   0  0  0  0  0  0  0  0  0  0  0  0
   32.1693   15.5353   12.5761 H   0  0  0  0  0  0  0  0  0  0  0  0
   33.5123   16.3543   11.7861 H   0  0  0  0  0  0  0  0  0  0  0  0
   36.2595   12.9690    9.8231 H   0  0  0  0  0  0  0  0  0  0  0  0
   35.8976   10.3649   10.8260 H   0  0  0  0  0  0  0  0  0  0  0  0
   37.8040   11.2893    8.6832 H   0  0  0  0  0  0  0  0  0  0  0  0
   36.1397   10.8227    8.4279 H   0  0  0  0  0  0  0  0  0  0  0  0
   37.3086    9.6361    8.9559 H   0  0  0  0  0  0  0  0  0  0  0  0
   37.2935    8.8422   11.6842 H   0  0  0  0  0  0  0  0  0  0  0  0
   39.4559    9.8813   13.2816 H   0  0  0  0  0  0  0  0  0  0  0  0
   39.6919    7.5676   14.0302 H   0  0  0  0  0  0  0  0  0  0  0  0
   38.5364    7.0815   12.7643 H   0  0  0  0  0  0  0  0  0  0  0  0
   36.8114    8.3937   13.8667 H   0  0  0  0  0  0  0  0  0  0  0  0
   38.1122    6.3440   15.6233 H   0  0  0  0  0  0  0  0  0  0  0  0
   37.0128    6.0137   14.3060 H   0  0  0  0  0  0  0  0  0  0  0  0
   36.4484    6.8687   15.7215 H   0  0  0  0  0  0  0  0  0  0  0  0
   38.8507    8.7690   16.0278 H   0  0  0  0  0  0  0  0  0  0  0  0
   37.1689    9.2352   16.1139 H   0  0  0  0  0  0  0  0  0  0  0  0
   38.2351   10.0178   14.9720 H   0  0  0  0  0  0  0  0  0  0  0  0
   41.6031    9.6497   12.9981 H   0  0  0  0  0  0  0  0  0  0  0  0
   42.6418    9.3743   10.4053 H   0  0  0  0  0  0  0  0  0  0  0  0
   44.0184    9.0804   13.0463 H   0  0  0  0  0  0  0  0  0  0  0  0
   43.7337   10.5956   12.1029 H   0  0  0  0  0  0  0  0  0  0  0  0
   45.5458    8.3878   11.3281 H   0  0  0  0  0  0  0  0  0  0  0  0
   45.0732   11.0014    9.9760 H   0  0  0  0  0  0  0  0  0  0  0  0
   44.5715    9.4306    9.3980 H   0  0  0  0  0  0  0  0  0  0  0  0
   46.2719    9.8089    9.5350 H   0  0  0  0  0  0  0  0  0  0  0  0
   46.1492   11.1636   12.3565 H   0  0  0  0  0  0  0  0  0  0  0  0
   47.3387   10.0046   11.8137 H   0  0  0  0  0  0  0  0  0  0  0  0
   46.3924    9.6795   13.2461 H   0  0  0  0  0  0  0  0  0  0  0  0
   42.2591    6.9865   12.9988 H   0  0  0  0  0  0  0  0  0  0  0  0
   43.1159    4.9554   11.0097 H   0  0  0  0  0  0  0  0  0  0  0  0
   41.7662    4.7118   12.0923 H   0  0  0  0  0  0  0  0  0  0  0  0
   43.3933    4.7779   12.7257 H   0  0  0  0  0  0  0  0  0  0  0  0
  1 36  1  0  0  0  0
  1 37  1  0  0  0  0
  1 38  1  0  0  0  0
  2  3  2  0  0  0  0
  2  1  1  0  0  0  0
  4  2  1  0  0  0  0
  4 39  1  0  0  0  0
  5  6  1  0  0  0  0
  5  4  1  0  0  0  0
  5 40  1  1  0  0  0
  6  7  2  0  0  0  0
  8  5  1  0  0  0  0
  8 41  1  0  0  0  0
  8 42  1  0  0  0  0
  9  8  1  0  0  0  0
  9 43  1  0  0  0  0
  9 44  1  0  0  0  0
 10  9  1  0  0  0  0
 11 10  2  0  0  0  0
 12 10  1  0  0  0  0
 13 14  1  0  0  0  0
 13  6  1  0  0  0  0
 13 45  1  0  0  0  0
 14 17  1  0  0  0  0
 14 46  1  6  0  0  0
 15 14  1  0  0  0  0
 16 15  2  0  0  0  0
 17 47  1  0  0  0  0
 17 48  1  0  0  0  0
 17 49  1  0  0  0  0
 18 15  1  0  0  0  0
 18 50  1  0  0  0  0
 19 20  1  0  0  0  0
 19 18  1  0  0  0  0
 19 51  1  6  0  0  0
 20 21  2  0  0  0  0
 22 19  1  0  0  0  0
 22 52  1  0  0  0  0
 22 53  1  0  0  0  0
 23 22  1  0  0  0  0
 23 54  1  0  0  0  0
 24 23  1  0  0  0  0
 24 55  1  0  0  0  0
 24 56  1  0  0  0  0
 24 57  1  0  0  0  0
 25 23  1  0  0  0  0
 25 58  1  0  0  0  0
 25 59  1  0  0  0  0
 25 60  1  0  0  0  0
 26 20  1  0  0  0  0
 26 27  1  0  0  0  0
 26 61  1  0  0  0  0
 27 62  1  1  0  0  0
 28 27  1  0  0  0  0
 28 34  1  0  0  0  0
 29 28  2  0  0  0  0
 30 27  1  0  0  0  0
 30 31  1  0  0  0  0
 30 63  1  0  0  0  0
 30 64  1  0  0  0  0
 31 33  1  0  0  0  0
 31 65  1  0  0  0  0
 32 31  1  0  0  0  0
 32 66  1  0  0  0  0
 32 67  1  0  0  0  0
 32 68  1  0  0  0  0
 33 69  1  0  0  0  0
 33 70  1  0  0  0  0
 33 71  1  0  0  0  0
 34 72  1  0  0  0  0
 35 34  1  0  0  0  0
 35 73  1  0  0  0  0
 35 74  1  0  0  0  0
 35 75  1  0  0  0  0
M  CHG  1  12  -1
M  END
>  <MODEL>
       0

$$$$
selected_4mers/EALL/88_noH.pdb
 OpenBabel03042517503D

 75 74  0  0  1  0  0  0  0  0999 V2000
   27.1180  -11.3340   10.3690 C   0  0  0  0  0  0  0  0  0  0  0  0
   27.7210  -11.6650   11.7210 C   0  0  0  0  0  0  0  0  0  0  0  0
   28.9380  -11.8240   11.8410 O   0  0  0  0  0  0  0  0  0  0  0  0
   26.9150  -11.7400   12.7790 N   0  0  0  0  0  0  0  0  0  0  0  0
   27.4710  -11.9770   14.1130 C   0  0  2  0  0  0  0  0  0  0  0  0
   28.2370  -13.2900   14.1780 C   0  0  0  0  0  0  0  0  0  0  0  0
   29.3440  -13.3420   14.7010 O   0  0  0  0  0  0  0  0  0  0  0  0
   26.3770  -11.9490   15.1700 C   0  0  0  0  0  0  0  0  0  0  0  0
   26.9470  -12.1400   16.5550 C   0  0  0  0  0  0  0  0  0  0  0  0
   25.9530  -12.2100   17.6750 C   0  0  0  0  0  0  0  0  0  0  0  0
   24.7330  -12.2040   17.4120 O   0  0  0  0  0  0  0  0  0  0  0  0
   26.4180  -12.2390   18.8460 O   0  0  0  0  0  0  0  0  0  0  0  0
   27.6530  -14.3560   13.6470 N   0  0  0  0  0  0  0  0  0  0  0  0
   28.3040  -15.6530   13.6720 C   0  0  2  0  0  0  0  0  0  0  0  0
   29.6180  -15.6460   12.8840 C   0  0  0  0  0  0  0  0  0  0  0  0
   30.5990  -16.2490   13.3070 O   0  0  0  0  0  0  0  0  0  0  0  0
   27.3500  -16.7450   13.1770 C   0  0  0  0  0  0  0  0  0  0  0  0
   29.6550  -14.9590   11.7490 N   0  0  0  0  0  0  0  0  0  0  0  0
   30.8760  -14.8470   10.9560 C   0  0  2  0  0  0  0  0  0  0  0  0
   31.9530  -14.1050   11.7430 C   0  0  0  0  0  0  0  0  0  0  0  0
   33.1190  -14.5310   11.8080 O   0  0  0  0  0  0  0  0  0  0  0  0
   30.6170  -14.1290    9.6280 C   0  0  0  0  0  0  0  0  0  0  0  0
   31.8550  -13.8140    8.7710 C   0  0  0  0  0  0  0  0  0  0  0  0
   32.5240  -15.0870    8.2670 C   0  0  0  0  0  0  0  0  0  0  0  0
   31.5000  -12.9170    7.5980 C   0  0  0  0  0  0  0  0  0  0  0  0
   31.5910  -12.9760   12.3440 N   0  0  0  0  0  0  0  0  0  0  0  0
   32.5570  -12.2080   13.1330 C   0  0  2  0  0  0  0  0  0  0  0  0
   33.1090  -13.0360   14.2790 C   0  0  0  0  0  0  0  0  0  0  0  0
   34.3160  -13.1000   14.4990 O   0  0  0  0  0  0  0  0  0  0  0  0
   31.9140  -10.9350   13.6630 C   0  0  0  0  0  0  0  0  0  0  0  0
   31.4850   -9.8890   12.6390 C   0  0  0  0  0  0  0  0  0  0  0  0
   30.6650   -8.7800   13.3160 C   0  0  0  0  0  0  0  0  0  0  0  0
   32.6280   -9.2920   11.8520 C   0  0  0  0  0  0  0  0  0  0  0  0
   32.2230  -13.7210   15.0100 N   0  0  0  0  0  0  0  0  0  0  0  0
   32.6640  -14.4920   16.1650 C   0  0  0  0  0  0  0  0  0  0  0  0
   27.8910  -11.3118    9.6295 H   0  0  0  0  0  0  0  0  0  0  0  0
   26.6414  -10.3771   10.4156 H   0  0  0  0  0  0  0  0  0  0  0  0
   26.3962  -12.0796   10.1082 H   0  0  0  0  0  0  0  0  0  0  0  0
   25.9428  -11.6358   12.6638 H   0  0  0  0  0  0  0  0  0  0  0  0
   28.1616  -11.1849   14.3142 H   0  0  0  0  0  0  0  0  0  0  0  0
   25.6783  -12.7342   14.9693 H   0  0  0  0  0  0  0  0  0  0  0  0
   25.8951  -10.9944   15.1319 H   0  0  0  0  0  0  0  0  0  0  0  0
   27.6052  -11.3200   16.7532 H   0  0  0  0  0  0  0  0  0  0  0  0
   27.4276  -13.0958   16.5380 H   0  0  0  0  0  0  0  0  0  0  0  0
   26.7656  -14.2662   13.2301 H   0  0  0  0  0  0  0  0  0  0  0  0
   28.5579  -15.8735   14.6878 H   0  0  0  0  0  0  0  0  0  0  0  0
   27.0794  -16.5483   12.1606 H   0  0  0  0  0  0  0  0  0  0  0  0
   26.4698  -16.7523   13.7854 H   0  0  0  0  0  0  0  0  0  0  0  0
   27.8345  -17.6970   13.2393 H   0  0  0  0  0  0  0  0  0  0  0  0
   28.8365  -14.5125   11.4330 H   0  0  0  0  0  0  0  0  0  0  0  0
   31.2144  -15.8387   10.7395 H   0  0  0  0  0  0  0  0  0  0  0  0
   29.9656  -14.7462    9.0453 H   0  0  0  0  0  0  0  0  0  0  0  0
   30.2042  -13.1782    9.8934 H   0  0  0  0  0  0  0  0  0  0  0  0
   32.5469  -13.2952    9.4011 H   0  0  0  0  0  0  0  0  0  0  0  0
   31.8456  -15.6199    7.6340 H   0  0  0  0  0  0  0  0  0  0  0  0
   32.7928  -15.7025    9.1000 H   0  0  0  0  0  0  0  0  0  0  0  0
   33.4034  -14.8325    7.7131 H   0  0  0  0  0  0  0  0  0  0  0  0
   30.8077  -13.4235    6.9584 H   0  0  0  0  0  0  0  0  0  0  0  0
   32.3870  -12.6813    7.0480 H   0  0  0  0  0  0  0  0  0  0  0  0
   31.0551  -12.0142    7.9612 H   0  0  0  0  0  0  0  0  0  0  0  0
   30.6650  -12.6530   12.2580 H   0  0  0  0  0  0  0  0  0  0  0  0
   33.3721  -11.9435   12.4923 H   0  0  0  0  0  0  0  0  0  0  0  0
   31.0429  -11.2206   14.2149 H   0  0  0  0  0  0  0  0  0  0  0  0
   32.6808  -10.4586   14.2374 H   0  0  0  0  0  0  0  0  0  0  0  0
   30.8779  -10.4083   11.9273 H   0  0  0  0  0  0  0  0  0  0  0  0
   31.2785   -8.2656   14.0258 H   0  0  0  0  0  0  0  0  0  0  0  0
   29.8253   -9.2133   13.8181 H   0  0  0  0  0  0  0  0  0  0  0  0
   30.3201   -8.0889   12.5755 H   0  0  0  0  0  0  0  0  0  0  0  0
   33.2752   -8.7557   12.5141 H   0  0  0  0  0  0  0  0  0  0  0  0
   32.2406   -8.6229   11.1123 H   0  0  0  0  0  0  0  0  0  0  0  0
   33.1778  -10.0746   11.3722 H   0  0  0  0  0  0  0  0  0  0  0  0
   31.2692  -13.7042   14.7668 H   0  0  0  0  0  0  0  0  0  0  0  0
   33.7237  -14.3939   16.2758 H   0  0  0  0  0  0  0  0  0  0  0  0
   32.4142  -15.5226   16.0224 H   0  0  0  0  0  0  0  0  0  0  0  0
   32.1780  -14.1257   17.0450 H   0  0  0  0  0  0  0  0  0  0  0  0
  1 36  1  0  0  0  0
  1 37  1  0  0  0  0
  1 38  1  0  0  0  0
  2  3  2  0  0  0  0
  2  1  1  0  0  0  0
  4  2  1  0  0  0  0
  4 39  1  0  0  0  0
  5  6  1  0  0  0  0
  5  4  1  0  0  0  0
  5 40  1  1  0  0  0
  6  7  2  0  0  0  0
  8  5  1  0  0  0  0
  8 41  1  0  0  0  0
  8 42  1  0  0  0  0
  9  8  1  0  0  0  0
  9 43  1  0  0  0  0
  9 44  1  0  0  0  0
 10  9  1  0  0  0  0
 11 10  2  0  0  0  0
 12 10  1  0  0  0  0
 13 14  1  0  0  0  0
 13  6  1  0  0  0  0
 13 45  1  0  0  0  0
 14 17  1  0  0  0  0
 14 46  1  6  0  0  0
 15 14  1  0  0  0  0
 16 15  2  0  0  0  0
 17 47  1  0  0  0  0
 17 48  1  0  0  0  0
 17 49  1  0  0  0  0
 18 15  1  0  0  0  0
 18 50  1  0  0  0  0
 19 20  1  0  0  0  0
 19 18  1  0  0  0  0
 19 51  1  6  0  0  0
 20 21  2  0  0  0  0
 22 19  1  0  0  0  0
 22 52  1  0  0  0  0
 22 53  1  0  0  0  0
 23 22  1  0  0  0  0
 23 54  1  0  0  0  0
 24 23  1  0  0  0  0
 24 55  1  0  0  0  0
 24 56  1  0  0  0  0
 24 57  1  0  0  0  0
 25 23  1  0  0  0  0
 25 58  1  0  0  0  0
 25 59  1  0  0  0  0
 25 60  1  0  0  0  0
 26 20  1  0  0  0  0
 26 27  1  0  0  0  0
 26 61  1  0  0  0  0
 27 62  1  1  0  0  0
 28 27  1  0  0  0  0
 28 34  1  0  0  0  0
 29 28  2  0  0  0  0
 30 27  1  0  0  0  0
 30 31  1  0  0  0  0
 30 63  1  0  0  0  0
 30 64  1  0  0  0  0
 31 33  1  0  0  0  0
 31 65  1  0  0  0  0
 32 31  1  0  0  0  0
 32 66  1  0  0  0  0
 32 67  1  0  0  0  0
 32 68  1  0  0  0  0
 33 69  1  0  0  0  0
 33 70  1  0  0  0  0
 33 71  1  0  0  0  0
 34 72  1  0  0  0  0
 35 34  1  0  0  0  0
 35 73  1  0  0  0  0
 35 74  1  0  0  0  0
 35 75  1  0  0  0  0
M  CHG  1  12  -1
M  END
>  <MODEL>
       0

$$$$
selected_4mers/EALL/89_noH.pdb
 OpenBabel03042517503D

 75 74  0  0  1  0  0  0  0  0999 V2000
   15.7500   33.0380  -29.6230 C   0  0  0  0  0  0  0  0  0  0  0  0
   16.0830   33.9900  -28.4760 C   0  0  0  0  0  0  0  0  0  0  0  0
   15.2130   34.6900  -27.9570 O   0  0  0  0  0  0  0  0  0  0  0  0
   17.3550   34.0310  -28.0940 N   0  0  0  0  0  0  0  0  0  0  0  0
   17.7910   34.9360  -27.0360 C   0  0  2  0  0  0  0  0  0  0  0  0
   17.4480   36.3900  -27.3630 C   0  0  0  0  0  0  0  0  0  0  0  0
   17.0910   37.1610  -26.4800 O   0  0  0  0  0  0  0  0  0  0  0  0
   19.2890   34.7810  -26.7670 C   0  0  0  0  0  0  0  0  0  0  0  0
   19.7960   35.5890  -25.5710 C   0  0  0  0  0  0  0  0  0  0  0  0
   21.2400   35.2670  -25.2130 C   0  0  0  0  0  0  0  0  0  0  0  0
   21.8820   34.4860  -25.9470 O   0  0  0  0  0  0  0  0  0  0  0  0
   21.7400   35.8010  -24.1980 O   0  0  0  0  0  0  0  0  0  0  0  0
   17.5380   36.7630  -28.6350 N   0  0  0  0  0  0  0  0  0  0  0  0
   17.2290   38.1360  -29.0250 C   0  0  2  0  0  0  0  0  0  0  0  0
   15.7410   38.4880  -28.8920 C   0  0  0  0  0  0  0  0  0  0  0  0
   15.3740   39.6610  -28.9430 O   0  0  0  0  0  0  0  0  0  0  0  0
   17.7380   38.4310  -30.4390 C   0  0  0  0  0  0  0  0  0  0  0  0
   14.8940   37.4740  -28.7200 N   0  0  0  0  0  0  0  0  0  0  0  0
   13.4540   37.6740  -28.5360 C   0  0  2  0  0  0  0  0  0  0  0  0
   13.0400   37.8950  -27.0870 C   0  0  0  0  0  0  0  0  0  0  0  0
   11.8810   38.1990  -26.8110 O   0  0  0  0  0  0  0  0  0  0  0  0
   12.6810   36.4620  -29.0560 C   0  0  0  0  0  0  0  0  0  0  0  0
   12.6070   36.2660  -30.5610 C   0  0  0  0  0  0  0  0  0  0  0  0
   11.8250   34.9910  -30.8590 C   0  0  0  0  0  0  0  0  0  0  0  0
   11.9600   37.4750  -31.2120 C   0  0  0  0  0  0  0  0  0  0  0  0
   13.9740   37.7160  -26.1620 N   0  0  0  0  0  0  0  0  0  0  0  0
   13.6510   37.8110  -24.7420 C   0  0  2  0  0  0  0  0  0  0  0  0
   13.4090   39.2530  -24.3020 C   0  0  0  0  0  0  0  0  0  0  0  0
   14.2410   40.1330  -24.5240 O   0  0  0  0  0  0  0  0  0  0  0  0
   14.7510   37.1630  -23.8980 C   0  0  0  0  0  0  0  0  0  0  0  0
   15.0260   35.6900  -24.2160 C   0  0  0  0  0  0  0  0  0  0  0  0
   15.9710   35.0860  -23.1830 C   0  0  0  0  0  0  0  0  0  0  0  0
   13.7280   34.9050  -24.2820 C   0  0  0  0  0  0  0  0  0  0  0  0
   12.2490   39.4830  -23.6940 N   0  0  0  0  0  0  0  0  0  0  0  0
   11.8860   40.7790  -23.1300 C   0  0  0  0  0  0  0  0  0  0  0  0
   16.6376   32.5254  -29.9302 H   0  0  0  0  0  0  0  0  0  0  0  0
   15.3571   33.5961  -30.4471 H   0  0  0  0  0  0  0  0  0  0  0  0
   15.0220   32.3256  -29.2953 H   0  0  0  0  0  0  0  0  0  0  0  0
   18.0123   33.4426  -28.5309 H   0  0  0  0  0  0  0  0  0  0  0  0
   17.2595   34.6690  -26.1466 H   0  0  0  0  0  0  0  0  0  0  0  0
   19.8216   35.1004  -27.6383 H   0  0  0  0  0  0  0  0  0  0  0  0
   19.4557   33.7497  -26.5355 H   0  0  0  0  0  0  0  0  0  0  0  0
   19.1774   35.3728  -24.7251 H   0  0  0  0  0  0  0  0  0  0  0  0
   19.7530   36.6240  -25.8391 H   0  0  0  0  0  0  0  0  0  0  0  0
   17.8145   36.1103  -29.3183 H   0  0  0  0  0  0  0  0  0  0  0  0
   17.7465   38.7662  -28.3323 H   0  0  0  0  0  0  0  0  0  0  0  0
   17.2262   37.8053  -31.1401 H   0  0  0  0  0  0  0  0  0  0  0  0
   18.7889   38.2359  -30.4877 H   0  0  0  0  0  0  0  0  0  0  0  0
   17.5544   39.4579  -30.6771 H   0  0  0  0  0  0  0  0  0  0  0  0
   15.2490   36.5557  -28.7164 H   0  0  0  0  0  0  0  0  0  0  0  0
   13.2217   38.5620  -29.0859 H   0  0  0  0  0  0  0  0  0  0  0  0
   13.1395   35.5884  -28.6418 H   0  0  0  0  0  0  0  0  0  0  0  0
   11.6691   36.6364  -28.7552 H   0  0  0  0  0  0  0  0  0  0  0  0
   13.5923   36.1670  -30.9663 H   0  0  0  0  0  0  0  0  0  0  0  0
   10.8365   35.0770  -30.4585 H   0  0  0  0  0  0  0  0  0  0  0  0
   12.3203   34.1556  -30.4099 H   0  0  0  0  0  0  0  0  0  0  0  0
   11.7695   34.8458  -31.9177 H   0  0  0  0  0  0  0  0  0  0  0  0
   10.9700   37.6009  -30.8260 H   0  0  0  0  0  0  0  0  0  0  0  0
   11.9139   37.3280  -32.2709 H   0  0  0  0  0  0  0  0  0  0  0  0
   12.5400   38.3484  -30.9981 H   0  0  0  0  0  0  0  0  0  0  0  0
   14.8979   37.5163  -26.4373 H   0  0  0  0  0  0  0  0  0  0  0  0
   12.7366   37.2777  -24.5859 H   0  0  0  0  0  0  0  0  0  0  0  0
   14.4651   37.2330  -22.8693 H   0  0  0  0  0  0  0  0  0  0  0  0
   15.6532   37.6919  -24.1244 H   0  0  0  0  0  0  0  0  0  0  0  0
   15.4983   35.6348  -25.1746 H   0  0  0  0  0  0  0  0  0  0  0  0
   15.5172   35.1312  -22.2150 H   0  0  0  0  0  0  0  0  0  0  0  0
   16.8880   35.6372  -23.1731 H   0  0  0  0  0  0  0  0  0  0  0  0
   16.1709   34.0657  -23.4359 H   0  0  0  0  0  0  0  0  0  0  0  0
   13.2374   34.9465  -23.3320 H   0  0  0  0  0  0  0  0  0  0  0  0
   13.9397   33.8859  -24.5299 H   0  0  0  0  0  0  0  0  0  0  0  0
   13.0921   35.3295  -25.0306 H   0  0  0  0  0  0  0  0  0  0  0  0
   11.6038   38.7430  -23.6208 H   0  0  0  0  0  0  0  0  0  0  0  0
   12.6847   41.4732  -23.2883 H   0  0  0  0  0  0  0  0  0  0  0  0
   11.7077   40.6738  -22.0802 H   0  0  0  0  0  0  0  0  0  0  0  0
   10.9994   41.1403  -23.6079 H   0  0  0  0  0  0  0  0  0  0  0  0
  1 36  1  0  0  0  0
  1 37  1  0  0  0  0
  1 38  1  0  0  0  0
  2  3  2  0  0  0  0
  2  1  1  0  0  0  0
  4  2  1  0  0  0  0
  4 39  1  0  0  0  0
  5  6  1  0  0  0  0
  5  4  1  0  0  0  0
  5 40  1  1  0  0  0
  6  7  2  0  0  0  0
  8  5  1  0  0  0  0
  8 41  1  0  0  0  0
  8 42  1  0  0  0  0
  9  8  1  0  0  0  0
  9 43  1  0  0  0  0
  9 44  1  0  0  0  0
 10  9  1  0  0  0  0
 11 10  2  0  0  0  0
 12 10  1  0  0  0  0
 13 14  1  0  0  0  0
 13  6  1  0  0  0  0
 13 45  1  0  0  0  0
 14 17  1  0  0  0  0
 14 46  1  6  0  0  0
 15 14  1  0  0  0  0
 16 15  2  0  0  0  0
 17 47  1  0  0  0  0
 17 48  1  0  0  0  0
 17 49  1  0  0  0  0
 18 15  1  0  0  0  0
 18 50  1  0  0  0  0
 19 20  1  0  0  0  0
 19 18  1  0  0  0  0
 19 51  1  6  0  0  0
 20 21  2  0  0  0  0
 22 19  1  0  0  0  0
 22 52  1  0  0  0  0
 22 53  1  0  0  0  0
 23 22  1  0  0  0  0
 23 54  1  0  0  0  0
 24 23  1  0  0  0  0
 24 55  1  0  0  0  0
 24 56  1  0  0  0  0
 24 57  1  0  0  0  0
 25 23  1  0  0  0  0
 25 58  1  0  0  0  0
 25 59  1  0  0  0  0
 25 60  1  0  0  0  0
 26 20  1  0  0  0  0
 26 27  1  0  0  0  0
 26 61  1  0  0  0  0
 27 62  1  1  0  0  0
 28 27  1  0  0  0  0
 28 34  1  0  0  0  0
 29 28  2  0  0  0  0
 30 27  1  0  0  0  0
 30 31  1  0  0  0  0
 30 63  1  0  0  0  0
 30 64  1  0  0  0  0
 31 33  1  0  0  0  0
 31 65  1  0  0  0  0
 32 31  1  0  0  0  0
 32 66  1  0  0  0  0
 32 67  1  0  0  0  0
 32 68  1  0  0  0  0
 33 69  1  0  0  0  0
 33 70  1  0  0  0  0
 33 71  1  0  0  0  0
 34 72  1  0  0  0  0
 35 34  1  0  0  0  0
 35 73  1  0  0  0  0
 35 74  1  0  0  0  0
 35 75  1  0  0  0  0
M  CHG  1  12  -1
M  END
>  <MODEL>
       0

$$$$
