selected_4mers/EALR/190_noH.pdb
 OpenBabel03042517503D

 80 79  0  0  1  0  0  0  0  0999 V2000
  -31.5980    2.2200    3.1240 C   0  0  0  0  0  0  0  0  0  0  0  0
  -32.8020    1.6340    2.3910 C   0  0  0  0  0  0  0  0  0  0  0  0
  -32.8870    1.6960    1.1660 O   0  0  0  0  0  0  0  0  0  0  0  0
  -33.7380    1.0710    3.1490 N   0  0  0  0  0  0  0  0  0  0  0  0
  -34.9350    0.4880    2.5600 C   0  0  2  0  0  0  0  0  0  0  0  0
  -35.7570    1.5640    1.8610 C   0  0  0  0  0  0  0  0  0  0  0  0
  -36.2920    1.3320    0.7790 O   0  0  0  0  0  0  0  0  0  0  0  0
  -35.7740   -0.2050    3.6400 C   0  0  0  0  0  0  0  0  0  0  0  0
  -35.0460   -1.3680    4.3110 C   0  0  0  0  0  0  0  0  0  0  0  0
  -35.8420   -2.0140    5.4280 C   0  0  0  0  0  0  0  0  0  0  0  0
  -36.3800   -1.2780    6.2810 O   0  0  0  0  0  0  0  0  0  0  0  0
  -35.9160   -3.2610    5.4600 O   0  0  0  0  0  0  0  0  0  0  0  0
  -35.8500    2.7410    2.4740 N   0  0  0  0  0  0  0  0  0  0  0  0
  -36.6120    3.8420    1.8940 C   0  0  2  0  0  0  0  0  0  0  0  0
  -35.9630    4.3200    0.6000 C   0  0  0  0  0  0  0  0  0  0  0  0
  -36.6560    4.5960   -0.3790 O   0  0  0  0  0  0  0  0  0  0  0  0
  -36.7180    4.9930    2.8870 C   0  0  0  0  0  0  0  0  0  0  0  0
  -34.6380    4.4240    0.5890 N   0  0  0  0  0  0  0  0  0  0  0  0
  -33.9490    4.8570   -0.6190 C   0  0  2  0  0  0  0  0  0  0  0  0
  -34.1270    3.8360   -1.7410 C   0  0  0  0  0  0  0  0  0  0  0  0
  -34.3300    4.2110   -2.8960 O   0  0  0  0  0  0  0  0  0  0  0  0
  -32.4630    5.0860   -0.3380 C   0  0  0  0  0  0  0  0  0  0  0  0
  -32.1570    6.3060    0.5370 C   0  0  0  0  0  0  0  0  0  0  0  0
  -30.6720    6.3330    0.8640 C   0  0  0  0  0  0  0  0  0  0  0  0
  -32.5750    7.5850   -0.1830 C   0  0  0  0  0  0  0  0  0  0  0  0
  -34.0500    2.5480   -1.4120 N   0  0  0  0  0  0  0  0  0  0  0  0
  -34.2260    1.5120   -2.4260 C   0  0  2  0  0  0  0  0  0  0  0  0
  -35.6430    1.5740   -2.9890 C   0  0  0  0  0  0  0  0  0  0  0  0
  -35.8440    1.4530   -4.1970 O   0  0  0  0  0  0  0  0  0  0  0  0
  -33.9450    0.1270   -1.8310 C   0  0  0  0  0  0  0  0  0  0  0  0
  -34.2610   -1.0480   -2.7590 C   0  0  0  0  0  0  0  0  0  0  0  0
  -33.5180   -0.9770   -4.0870 C   0  0  0  0  0  0  0  0  0  0  0  0
  -33.8940   -2.1000   -4.9430 N   0  0  0  0  0  0  0  0  0  0  0  0
  -33.8550   -2.0780   -6.2700 C   0  0  0  0  0  0  0  0  0  0  0  0
  -33.4520   -0.9880   -6.9090 N   0  0  0  0  0  0  0  0  0  0  0  0
  -34.2390   -3.1460   -6.9580 N   0  0  0  0  0  0  0  0  0  0  0  0
  -36.6240    1.7740   -2.1130 N   0  0  0  0  0  0  0  0  0  0  0  0
  -38.0160    1.8610   -2.5440 C   0  0  0  0  0  0  0  0  0  0  0  0
  -30.9184    2.6418    2.4133 H   0  0  0  0  0  0  0  0  0  0  0  0
  -31.1042    1.4464    3.6741 H   0  0  0  0  0  0  0  0  0  0  0  0
  -31.9275    2.9826    3.7984 H   0  0  0  0  0  0  0  0  0  0  0  0
  -33.6195    1.0479    4.1261 H   0  0  0  0  0  0  0  0  0  0  0  0
  -34.6401   -0.2417    1.8351 H   0  0  0  0  0  0  0  0  0  0  0  0
  -36.6689   -0.5789    3.1881 H   0  0  0  0  0  0  0  0  0  0  0  0
  -35.9807    0.5214    4.3979 H   0  0  0  0  0  0  0  0  0  0  0  0
  -34.1262   -1.0027    4.7177 H   0  0  0  0  0  0  0  0  0  0  0  0
  -34.8890   -2.1160    3.5622 H   0  0  0  0  0  0  0  0  0  0  0  0
  -35.3951    2.8720    3.3372 H   0  0  0  0  0  0  0  0  0  0  0  0
  -37.5970    3.4895    1.6694 H   0  0  0  0  0  0  0  0  0  0  0  0
  -35.7382    5.3546    3.1198 H   0  0  0  0  0  0  0  0  0  0  0  0
  -37.1933    4.6494    3.7819 H   0  0  0  0  0  0  0  0  0  0  0  0
  -37.2969    5.7833    2.4565 H   0  0  0  0  0  0  0  0  0  0  0  0
  -34.1214    4.2080    1.3987 H   0  0  0  0  0  0  0  0  0  0  0  0
  -34.3824    5.7829   -0.9350 H   0  0  0  0  0  0  0  0  0  0  0  0
  -31.9626    5.2141   -1.2750 H   0  0  0  0  0  0  0  0  0  0  0  0
  -32.1234    4.2304    0.2074 H   0  0  0  0  0  0  0  0  0  0  0  0
  -32.7114    6.2403    1.4498 H   0  0  0  0  0  0  0  0  0  0  0  0
  -30.1082    6.3987   -0.0430 H   0  0  0  0  0  0  0  0  0  0  0  0
  -30.4053    5.4377    1.3857 H   0  0  0  0  0  0  0  0  0  0  0  0
  -30.4577    7.1817    1.4794 H   0  0  0  0  0  0  0  0  0  0  0  0
  -32.0318    7.6715   -1.1008 H   0  0  0  0  0  0  0  0  0  0  0  0
  -32.3624    8.4298    0.4383 H   0  0  0  0  0  0  0  0  0  0  0  0
  -33.6240    7.5505   -0.3913 H   0  0  0  0  0  0  0  0  0  0  0  0
  -33.8730    2.2922   -0.4779 H   0  0  0  0  0  0  0  0  0  0  0  0
  -33.5301    1.6826   -3.2207 H   0  0  0  0  0  0  0  0  0  0  0  0
  -32.9071    0.0792   -1.5755 H   0  0  0  0  0  0  0  0  0  0  0  0
  -34.5937    0.0256   -0.9862 H   0  0  0  0  0  0  0  0  0  0  0  0
  -33.9874   -1.9562   -2.2638 H   0  0  0  0  0  0  0  0  0  0  0  0
  -35.3079   -1.0102   -2.9766 H   0  0  0  0  0  0  0  0  0  0  0  0
  -33.7646   -0.0600   -4.5802 H   0  0  0  0  0  0  0  0  0  0  0  0
  -32.4657   -1.0222   -3.8983 H   0  0  0  0  0  0  0  0  0  0  0  0
  -34.2040   -2.9500   -4.4950 H   0  0  0  0  0  0  0  0  0  0  0  0
  -33.4246   -0.9761   -7.8930 H   0  0  0  0  0  0  0  0  0  0  0  0
  -33.1802   -0.1908   -6.3993 H   0  0  0  0  0  0  0  0  0  0  0  0
  -34.2116   -3.1337   -7.9420 H   0  0  0  0  0  0  0  0  0  0  0  0
  -34.5513   -3.9506   -6.4843 H   0  0  0  0  0  0  0  0  0  0  0  0
  -36.4073    1.8650   -1.1570 H   0  0  0  0  0  0  0  0  0  0  0  0
  -38.0687    1.7414   -3.6060 H   0  0  0  0  0  0  0  0  0  0  0  0
  -38.4144    2.8162   -2.2725 H   0  0  0  0  0  0  0  0  0  0  0  0
  -38.5852    1.0892   -2.0695 H   0  0  0  0  0  0  0  0  0  0  0  0
  1 39  1  0  0  0  0
  1 40  1  0  0  0  0
  1 41  1  0  0  0  0
  2  1  1  0  0  0  0
  2  4  1  0  0  0  0
  3  2  2  0  0  0  0
  4 42  1  0  0  0  0
  5  4  1  0  0  0  0
  5  8  1  0  0  0  0
  5 43  1  6  0  0  0
  6 13  1  0  0  0  0
  6  5  1  0  0  0  0
  7  6  2  0  0  0  0
  8  9  1  0  0  0  0
  8 44  1  0  0  0  0
  8 45  1  0  0  0  0
  9 10  1  0  0  0  0
  9 46  1  0  0  0  0
  9 47  1  0  0  0  0
 10 12  2  0  0  0  0
 10 11  1  0  0  0  0
 13 48  1  0  0  0  0
 14 13  1  0  0  0  0
 14 17  1  0  0  0  0
 14 49  1  6  0  0  0
 15 14  1  0  0  0  0
 16 15  2  0  0  0  0
 17 50  1  0  0  0  0
 17 51  1  0  0  0  0
 17 52  1  0  0  0  0
 18 15  1  0  0  0  0
 18 53  1  0  0  0  0
 19 22  1  0  0  0  0
 19 18  1  0  0  0  0
 19 54  1  6  0  0  0
 20 26  1  0  0  0  0
 20 19  1  0  0  0  0
 21 20  2  0  0  0  0
 22 23  1  0  0  0  0
 22 55  1  0  0  0  0
 22 56  1  0  0  0  0
 23 24  1  0  0  0  0
 23 57  1  0  0  0  0
 24 58  1  0  0  0  0
 24 59  1  0  0  0  0
 24 60  1  0  0  0  0
 25 23  1  0  0  0  0
 25 61  1  0  0  0  0
 25 62  1  0  0  0  0
 25 63  1  0  0  0  0
 26 64  1  0  0  0  0
 27 30  1  0  0  0  0
 27 26  1  0  0  0  0
 27 65  1  6  0  0  0
 28 27  1  0  0  0  0
 28 37  1  0  0  0  0
 29 28  2  0  0  0  0
 30 66  1  0  0  0  0
 30 67  1  0  0  0  0
 31 30  1  0  0  0  0
 31 68  1  0  0  0  0
 31 69  1  0  0  0  0
 32 31  1  0  0  0  0
 32 70  1  0  0  0  0
 32 71  1  0  0  0  0
 33 32  1  0  0  0  0
 34 33  1  0  0  0  0
 33 72  1  0  0  0  0
 35 34  2  0  0  0  0
 35 73  1  0  0  0  0
 35 74  1  0  0  0  0
 36 34  1  0  0  0  0
 36 75  1  0  0  0  0
 36 76  1  0  0  0  0
 37 77  1  0  0  0  0
 38 37  1  0  0  0  0
 38 78  1  0  0  0  0
 38 79  1  0  0  0  0
 38 80  1  0  0  0  0
M  CHG  1  11  -1
M  CHG  1  35  1
M  END
>  <MODEL>
       0

$$$$
selected_4mers/EALR/191_noH.pdb
 OpenBabel03042517503D

 80 79  0  0  1  0  0  0  0  0999 V2000
   43.4450   21.1540   -9.4640 C   0  0  0  0  0  0  0  0  0  0  0  0
   44.4390   20.8140  -10.5530 C   0  0  0  0  0  0  0  0  0  0  0  0
   45.1040   19.8270  -10.4420 O   0  0  0  0  0  0  0  0  0  0  0  0
   44.4450   21.6300  -11.6240 N   0  0  0  0  0  0  0  0  0  0  0  0
   45.2920   21.4240  -12.7880 C   0  0  2  0  0  0  0  0  0  0  0  0
   46.0860   22.6760  -13.1350 C   0  0  0  0  0  0  0  0  0  0  0  0
   45.5370   23.8040  -13.2380 O   0  0  0  0  0  0  0  0  0  0  0  0
   44.4540   20.9900  -13.9920 C   0  0  0  0  0  0  0  0  0  0  0  0
   45.3150   20.7820  -15.2220 C   0  0  0  0  0  0  0  0  0  0  0  0
   44.6170   20.1150  -16.4030 C   0  0  0  0  0  0  0  0  0  0  0  0
   43.3790   20.1000  -16.4690 O   0  0  0  0  0  0  0  0  0  0  0  0
   45.3690   19.5690  -17.2770 O   0  0  0  0  0  0  0  0  0  0  0  0
   47.3960   22.4690  -13.2960 N   0  0  0  0  0  0  0  0  0  0  0  0
   48.3450   23.5040  -13.6570 C   0  0  2  0  0  0  0  0  0  0  0  0
   49.0410   23.0680  -14.9530 C   0  0  0  0  0  0  0  0  0  0  0  0
   49.8700   22.1350  -14.9270 O   0  0  0  0  0  0  0  0  0  0  0  0
   49.3280   23.6600  -12.5760 C   0  0  0  0  0  0  0  0  0  0  0  0
   48.7320   23.7660  -16.0400 N   0  0  0  0  0  0  0  0  0  0  0  0
   49.1550   23.4140  -17.3790 C   0  0  2  0  0  0  0  0  0  0  0  0
   50.0460   24.4970  -17.9660 C   0  0  0  0  0  0  0  0  0  0  0  0
   49.7820   25.7060  -17.7960 O   0  0  0  0  0  0  0  0  0  0  0  0
   47.9450   23.1810  -18.2780 C   0  0  0  0  0  0  0  0  0  0  0  0
   48.2530   22.8350  -19.7600 C   0  0  0  0  0  0  0  0  0  0  0  0
   47.2490   21.8240  -20.2650 C   0  0  0  0  0  0  0  0  0  0  0  0
   48.3120   24.0440  -20.7130 C   0  0  0  0  0  0  0  0  0  0  0  0
   51.1170   24.0400  -18.6180 N   0  0  0  0  0  0  0  0  0  0  0  0
   52.0470   24.9240  -19.3300 C   0  0  2  0  0  0  0  0  0  0  0  0
   51.8640   24.7050  -20.8380 C   0  0  0  0  0  0  0  0  0  0  0  0
   52.0230   23.6020  -21.3290 O   0  0  0  0  0  0  0  0  0  0  0  0
   53.4780   24.6210  -18.9140 C   0  0  0  0  0  0  0  0  0  0  0  0
   53.6600   24.6180  -17.4360 C   0  0  0  0  0  0  0  0  0  0  0  0
   54.8130   25.4560  -16.9930 C   0  0  0  0  0  0  0  0  0  0  0  0
   54.5530   26.8740  -17.2090 N   0  0  0  0  0  0  0  0  0  0  0  0
   54.9520   27.8570  -16.3980 C   0  0  0  0  0  0  0  0  0  0  0  0
   55.6040   27.5990  -15.2710 N   0  0  0  0  0  0  0  0  0  0  0  0
   54.6840   29.1130  -16.7140 N   0  0  0  0  0  0  0  0  0  0  0  0
   51.5200   25.7680  -21.5590 N   0  0  0  0  0  0  0  0  0  0  0  0
   51.1490   25.6740  -22.9280 C   0  0  0  0  0  0  0  0  0  0  0  0
   42.9360   22.0608   -9.7162 H   0  0  0  0  0  0  0  0  0  0  0  0
   43.9623   21.2816   -8.5361 H   0  0  0  0  0  0  0  0  0  0  0  0
   42.7338   20.3601   -9.3697 H   0  0  0  0  0  0  0  0  0  0  0  0
   43.8429   22.4089  -11.6188 H   0  0  0  0  0  0  0  0  0  0  0  0
   45.9866   20.6478  -12.5432 H   0  0  0  0  0  0  0  0  0  0  0  0
   43.9564   20.0724  -13.7567 H   0  0  0  0  0  0  0  0  0  0  0  0
   43.7460   21.7636  -14.2047 H   0  0  0  0  0  0  0  0  0  0  0  0
   45.6672   21.7396  -15.5444 H   0  0  0  0  0  0  0  0  0  0  0  0
   46.0968   20.1142  -14.9256 H   0  0  0  0  0  0  0  0  0  0  0  0
   47.7386   21.5560  -13.1610 H   0  0  0  0  0  0  0  0  0  0  0  0
   47.8525   24.4424  -13.8043 H   0  0  0  0  0  0  0  0  0  0  0  0
   49.8312   22.7296  -12.4145 H   0  0  0  0  0  0  0  0  0  0  0  0
   48.8267   23.9550  -11.6779 H   0  0  0  0  0  0  0  0  0  0  0  0
   50.0419   24.4090  -12.8484 H   0  0  0  0  0  0  0  0  0  0  0  0
   48.1805   24.5738  -15.9280 H   0  0  0  0  0  0  0  0  0  0  0  0
   49.7194   22.5068  -17.3219 H   0  0  0  0  0  0  0  0  0  0  0  0
   47.3806   22.3719  -17.8637 H   0  0  0  0  0  0  0  0  0  0  0  0
   47.4211   24.1136  -18.3030 H   0  0  0  0  0  0  0  0  0  0  0  0
   49.2426   22.4282  -19.7622 H   0  0  0  0  0  0  0  0  0  0  0  0
   46.2703   22.2563  -20.2522 H   0  0  0  0  0  0  0  0  0  0  0  0
   47.2654   20.9596  -19.6346 H   0  0  0  0  0  0  0  0  0  0  0  0
   47.5007   21.5406  -21.2656 H   0  0  0  0  0  0  0  0  0  0  0  0
   47.3484   24.5066  -20.7623 H   0  0  0  0  0  0  0  0  0  0  0  0
   48.5999   23.7147  -21.6895 H   0  0  0  0  0  0  0  0  0  0  0  0
   49.0286   24.7504  -20.3491 H   0  0  0  0  0  0  0  0  0  0  0  0
   51.2901   23.0708  -18.6214 H   0  0  0  0  0  0  0  0  0  0  0  0
   51.8435   25.9462  -19.0878 H   0  0  0  0  0  0  0  0  0  0  0  0
   54.1216   25.3641  -19.3364 H   0  0  0  0  0  0  0  0  0  0  0  0
   53.7168   23.6408  -19.2704 H   0  0  0  0  0  0  0  0  0  0  0  0
   53.8257   23.6111  -17.1141 H   0  0  0  0  0  0  0  0  0  0  0  0
   52.7746   25.0332  -17.0018 H   0  0  0  0  0  0  0  0  0  0  0  0
   55.6829   25.1729  -17.5481 H   0  0  0  0  0  0  0  0  0  0  0  0
   54.9628   25.2965  -15.9456 H   0  0  0  0  0  0  0  0  0  0  0  0
   54.0320   27.1330  -18.0340 H   0  0  0  0  0  0  0  0  0  0  0  0
   55.8101   26.6687  -15.0235 H   0  0  0  0  0  0  0  0  0  0  0  0
   55.8815   28.3380  -14.6826 H   0  0  0  0  0  0  0  0  0  0  0  0
   54.2011   29.3188  -17.5469 H   0  0  0  0  0  0  0  0  0  0  0  0
   54.9674   29.8422  -16.1163 H   0  0  0  0  0  0  0  0  0  0  0  0
   51.5223   26.6534  -21.1285 H   0  0  0  0  0  0  0  0  0  0  0  0
   51.1977   24.6521  -23.2414 H   0  0  0  0  0  0  0  0  0  0  0  0
   51.8194   26.2610  -23.5203 H   0  0  0  0  0  0  0  0  0  0  0  0
   50.1506   26.0381  -23.0528 H   0  0  0  0  0  0  0  0  0  0  0  0
  1 39  1  0  0  0  0
  1 40  1  0  0  0  0
  1 41  1  0  0  0  0
  2  1  1  0  0  0  0
  2  4  1  0  0  0  0
  3  2  2  0  0  0  0
  4 42  1  0  0  0  0
  5  4  1  0  0  0  0
  5  8  1  0  0  0  0
  5 43  1  6  0  0  0
  6 13  1  0  0  0  0
  6  5  1  0  0  0  0
  7  6  2  0  0  0  0
  8  9  1  0  0  0  0
  8 44  1  0  0  0  0
  8 45  1  0  0  0  0
  9 10  1  0  0  0  0
  9 46  1  0  0  0  0
  9 47  1  0  0  0  0
 10 12  2  0  0  0  0
 10 11  1  0  0  0  0
 13 48  1  0  0  0  0
 14 13  1  0  0  0  0
 14 17  1  0  0  0  0
 14 49  1  6  0  0  0
 15 14  1  0  0  0  0
 16 15  2  0  0  0  0
 17 50  1  0  0  0  0
 17 51  1  0  0  0  0
 17 52  1  0  0  0  0
 18 15  1  0  0  0  0
 18 53  1  0  0  0  0
 19 22  1  0  0  0  0
 19 18  1  0  0  0  0
 19 54  1  6  0  0  0
 20 26  1  0  0  0  0
 20 19  1  0  0  0  0
 21 20  2  0  0  0  0
 22 23  1  0  0  0  0
 22 55  1  0  0  0  0
 22 56  1  0  0  0  0
 23 24  1  0  0  0  0
 23 57  1  0  0  0  0
 24 58  1  0  0  0  0
 24 59  1  0  0  0  0
 24 60  1  0  0  0  0
 25 23  1  0  0  0  0
 25 61  1  0  0  0  0
 25 62  1  0  0  0  0
 25 63  1  0  0  0  0
 26 64  1  0  0  0  0
 27 30  1  0  0  0  0
 27 26  1  0  0  0  0
 27 65  1  6  0  0  0
 28 27  1  0  0  0  0
 28 37  1  0  0  0  0
 29 28  2  0  0  0  0
 30 66  1  0  0  0  0
 30 67  1  0  0  0  0
 31 30  1  0  0  0  0
 31 68  1  0  0  0  0
 31 69  1  0  0  0  0
 32 31  1  0  0  0  0
 32 70  1  0  0  0  0
 32 71  1  0  0  0  0
 33 32  1  0  0  0  0
 34 33  1  0  0  0  0
 33 72  1  0  0  0  0
 35 34  2  0  0  0  0
 35 73  1  0  0  0  0
 35 74  1  0  0  0  0
 36 34  1  0  0  0  0
 36 75  1  0  0  0  0
 36 76  1  0  0  0  0
 37 77  1  0  0  0  0
 38 37  1  0  0  0  0
 38 78  1  0  0  0  0
 38 79  1  0  0  0  0
 38 80  1  0  0  0  0
M  CHG  1  11  -1
M  CHG  1  35  1
M  END
>  <MODEL>
       0

$$$$
selected_4mers/EALR/192_noH.pdb
 OpenBabel03042517503D

 80 79  0  0  1  0  0  0  0  0999 V2000
   25.0190   13.3850   25.2030 C   0  0  0  0  0  0  0  0  0  0  0  0
   25.5300   14.3630   26.2600 C   0  0  0  0  0  0  0  0  0  0  0  0
   26.3880   14.0180   27.0740 O   0  0  0  0  0  0  0  0  0  0  0  0
   25.0030   15.5820   26.2670 N   0  0  0  0  0  0  0  0  0  0  0  0
   25.4630   16.5660   27.1940 C   0  0  2  0  0  0  0  0  0  0  0  0
   25.0910   16.1420   28.5910 C   0  0  0  0  0  0  0  0  0  0  0  0
   25.9180   16.2570   29.4780 O   0  0  0  0  0  0  0  0  0  0  0  0
   24.9160   17.9640   26.8050 C   0  0  0  0  0  0  0  0  0  0  0  0
   25.4620   19.1120   27.5890 C   0  0  0  0  0  0  0  0  0  0  0  0
   26.9420   19.3780   27.3660 C   0  0  0  0  0  0  0  0  0  0  0  0
   27.5420   18.8490   26.3990 O   0  0  0  0  0  0  0  0  0  0  0  0
   27.5080   20.1540   28.1670 O   0  0  0  0  0  0  0  0  0  0  0  0
   23.8870   15.5630   28.7820 N   0  0  0  0  0  0  0  0  0  0  0  0
   23.4240   15.0160   30.0890 C   0  0  2  0  0  0  0  0  0  0  0  0
   24.3950   13.9860   30.6180 C   0  0  0  0  0  0  0  0  0  0  0  0
   24.7910   13.9830   31.7870 O   0  0  0  0  0  0  0  0  0  0  0  0
   21.9920   14.3790   29.9690 C   0  0  0  0  0  0  0  0  0  0  0  0
   24.8890   13.1520   29.7200 N   0  0  0  0  0  0  0  0  0  0  0  0
   25.7810   12.0840   30.1500 C   0  0  2  0  0  0  0  0  0  0  0  0
   27.1080   12.6300   30.5660 C   0  0  0  0  0  0  0  0  0  0  0  0
   27.7470   12.1170   31.4640 O   0  0  0  0  0  0  0  0  0  0  0  0
   25.9280   11.0710   29.0080 C   0  0  0  0  0  0  0  0  0  0  0  0
   26.5160    9.7230   29.4090 C   0  0  0  0  0  0  0  0  0  0  0  0
   25.7130    9.1360   30.5840 C   0  0  0  0  0  0  0  0  0  0  0  0
   26.4790    8.8250   28.1690 C   0  0  0  0  0  0  0  0  0  0  0  0
   27.5340   13.6990   29.9050 N   0  0  0  0  0  0  0  0  0  0  0  0
   28.7490   14.3890   30.2720 C   0  0  2  0  0  0  0  0  0  0  0  0
   28.5740   14.9640   31.6650 C   0  0  0  0  0  0  0  0  0  0  0  0
   29.4810   14.9130   32.5170 O   0  0  0  0  0  0  0  0  0  0  0  0
   29.0340   15.4600   29.2140 C   0  0  0  0  0  0  0  0  0  0  0  0
   30.3090   16.2190   29.2940 C   0  0  0  0  0  0  0  0  0  0  0  0
   30.3080   17.4300   28.2660 C   0  0  0  0  0  0  0  0  0  0  0  0
   31.4050   18.3370   28.6010 N   0  0  0  0  0  0  0  0  0  0  0  0
   31.5350   19.6180   28.2300 C   0  0  0  0  0  0  0  0  0  0  0  0
   30.5910   20.2650   27.5260 N   0  0  0  0  0  0  0  0  0  0  0  0
   32.6370   20.2700   28.6000 N   0  0  0  0  0  0  0  0  0  0  0  0
   27.3910   15.4990   31.9360 N   0  0  0  0  0  0  0  0  0  0  0  0
   27.0780   16.0700   33.2670 C   0  0  0  0  0  0  0  0  0  0  0  0
   24.2829   13.8689   24.5955 H   0  0  0  0  0  0  0  0  0  0  0  0
   24.5815   12.5356   25.6848 H   0  0  0  0  0  0  0  0  0  0  0  0
   25.8347   13.0657   24.5885 H   0  0  0  0  0  0  0  0  0  0  0  0
   24.2894   15.8091   25.6279 H   0  0  0  0  0  0  0  0  0  0  0  0
   26.5295   16.6459   27.1624 H   0  0  0  0  0  0  0  0  0  0  0  0
   23.8543   17.9505   26.9372 H   0  0  0  0  0  0  0  0  0  0  0  0
   25.2241   18.1276   25.7935 H   0  0  0  0  0  0  0  0  0  0  0  0
   25.3115   18.9088   28.6287 H   0  0  0  0  0  0  0  0  0  0  0  0
   24.9413   19.9849   27.2547 H   0  0  0  0  0  0  0  0  0  0  0  0
   23.2776   15.4980   28.0115 H   0  0  0  0  0  0  0  0  0  0  0  0
   23.3760   15.8354   30.7755 H   0  0  0  0  0  0  0  0  0  0  0  0
   22.0235   13.5569   29.2849 H   0  0  0  0  0  0  0  0  0  0  0  0
   21.3031   15.1151   29.6105 H   0  0  0  0  0  0  0  0  0  0  0  0
   21.6746   14.0314   30.9299 H   0  0  0  0  0  0  0  0  0  0  0  0
   24.6561   13.2517   28.7686 H   0  0  0  0  0  0  0  0  0  0  0  0
   25.3642   11.5924   31.0041 H   0  0  0  0  0  0  0  0  0  0  0  0
   24.9576   10.8983   28.5915 H   0  0  0  0  0  0  0  0  0  0  0  0
   26.6195   11.5026   28.3149 H   0  0  0  0  0  0  0  0  0  0  0  0
   27.5278    9.8135   29.7452 H   0  0  0  0  0  0  0  0  0  0  0  0
   24.6884    9.0256   30.2960 H   0  0  0  0  0  0  0  0  0  0  0  0
   25.7781    9.7945   31.4248 H   0  0  0  0  0  0  0  0  0  0  0  0
   26.1143    8.1799   30.8479 H   0  0  0  0  0  0  0  0  0  0  0  0
   25.4695    8.7301   27.8273 H   0  0  0  0  0  0  0  0  0  0  0  0
   26.8639    7.8580   28.4173 H   0  0  0  0  0  0  0  0  0  0  0  0
   27.0778    9.2595   27.3960 H   0  0  0  0  0  0  0  0  0  0  0  0
   27.0070   14.0313   29.1427 H   0  0  0  0  0  0  0  0  0  0  0  0
   29.5927   13.7315   30.3009 H   0  0  0  0  0  0  0  0  0  0  0  0
   29.0157   14.9742   28.2608 H   0  0  0  0  0  0  0  0  0  0  0  0
   28.2796   16.1998   29.3827 H   0  0  0  0  0  0  0  0  0  0  0  0
   30.4286   16.6009   30.2863 H   0  0  0  0  0  0  0  0  0  0  0  0
   31.1165   15.5611   29.0492 H   0  0  0  0  0  0  0  0  0  0  0  0
   30.4410   17.0573   27.2719 H   0  0  0  0  0  0  0  0  0  0  0  0
   29.3759   17.9524   28.3223 H   0  0  0  0  0  0  0  0  0  0  0  0
   32.1450   17.9570   29.1740 H   0  0  0  0  0  0  0  0  0  0  0  0
   30.7248   21.2069   27.2728 H   0  0  0  0  0  0  0  0  0  0  0  0
   29.7655   19.7971   27.2634 H   0  0  0  0  0  0  0  0  0  0  0  0
   32.7614   21.2121   28.3427 H   0  0  0  0  0  0  0  0  0  0  0  0
   33.3266   19.8095   29.1306 H   0  0  0  0  0  0  0  0  0  0  0  0
   26.7017   15.5172   31.2333 H   0  0  0  0  0  0  0  0  0  0  0  0
   27.9294   15.9698   33.9073 H   0  0  0  0  0  0  0  0  0  0  0  0
   26.2477   15.5468   33.6933 H   0  0  0  0  0  0  0  0  0  0  0  0
   26.8309   17.1057   33.1616 H   0  0  0  0  0  0  0  0  0  0  0  0
  1 39  1  0  0  0  0
  1 40  1  0  0  0  0
  1 41  1  0  0  0  0
  2  1  1  0  0  0  0
  2  4  1  0  0  0  0
  3  2  2  0  0  0  0
  4 42  1  0  0  0  0
  5  4  1  0  0  0  0
  5  8  1  0  0  0  0
  5 43  1  6  0  0  0
  6 13  1  0  0  0  0
  6  5  1  0  0  0  0
  7  6  2  0  0  0  0
  8  9  1  0  0  0  0
  8 44  1  0  0  0  0
  8 45  1  0  0  0  0
  9 10  1  0  0  0  0
  9 46  1  0  0  0  0
  9 47  1  0  0  0  0
 10 12  2  0  0  0  0
 10 11  1  0  0  0  0
 13 48  1  0  0  0  0
 14 13  1  0  0  0  0
 14 17  1  0  0  0  0
 14 49  1  6  0  0  0
 15 14  1  0  0  0  0
 16 15  2  0  0  0  0
 17 50  1  0  0  0  0
 17 51  1  0  0  0  0
 17 52  1  0  0  0  0
 18 15  1  0  0  0  0
 18 53  1  0  0  0  0
 19 22  1  0  0  0  0
 19 18  1  0  0  0  0
 19 54  1  6  0  0  0
 20 26  1  0  0  0  0
 20 19  1  0  0  0  0
 21 20  2  0  0  0  0
 22 23  1  0  0  0  0
 22 55  1  0  0  0  0
 22 56  1  0  0  0  0
 23 24  1  0  0  0  0
 23 57  1  0  0  0  0
 24 58  1  0  0  0  0
 24 59  1  0  0  0  0
 24 60  1  0  0  0  0
 25 23  1  0  0  0  0
 25 61  1  0  0  0  0
 25 62  1  0  0  0  0
 25 63  1  0  0  0  0
 26 64  1  0  0  0  0
 27 30  1  0  0  0  0
 27 26  1  0  0  0  0
 27 65  1  6  0  0  0
 28 27  1  0  0  0  0
 28 37  1  0  0  0  0
 29 28  2  0  0  0  0
 30 66  1  0  0  0  0
 30 67  1  0  0  0  0
 31 30  1  0  0  0  0
 31 68  1  0  0  0  0
 31 69  1  0  0  0  0
 32 31  1  0  0  0  0
 32 70  1  0  0  0  0
 32 71  1  0  0  0  0
 33 32  1  0  0  0  0
 34 33  1  0  0  0  0
 33 72  1  0  0  0  0
 35 34  2  0  0  0  0
 35 73  1  0  0  0  0
 35 74  1  0  0  0  0
 36 34  1  0  0  0  0
 36 75  1  0  0  0  0
 36 76  1  0  0  0  0
 37 77  1  0  0  0  0
 38 37  1  0  0  0  0
 38 78  1  0  0  0  0
 38 79  1  0  0  0  0
 38 80  1  0  0  0  0
M  CHG  1  11  -1
M  CHG  1  35  1
M  END
>  <MODEL>
       0

$$$$
selected_4mers/EALR/193_noH.pdb
 OpenBabel03042517503D

 80 79  0  0  1  0  0  0  0  0999 V2000
   35.0870   -7.9060   33.6480 C   0  0  0  0  0  0  0  0  0  0  0  0
   35.7660   -8.1870   34.9850 C   0  0  0  0  0  0  0  0  0  0  0  0
   35.0710   -8.4560   35.9670 O   0  0  0  0  0  0  0  0  0  0  0  0
   37.1040   -8.1260   35.0390 N   0  0  0  0  0  0  0  0  0  0  0  0
   37.7950   -8.3510   36.3080 C   0  0  2  0  0  0  0  0  0  0  0  0
   37.3390   -7.3550   37.3870 C   0  0  0  0  0  0  0  0  0  0  0  0
   37.1440   -7.7620   38.5330 O   0  0  0  0  0  0  0  0  0  0  0  0
   39.3190   -8.3430   36.1660 C   0  0  0  0  0  0  0  0  0  0  0  0
   40.0880   -8.8390   37.4160 C   0  0  0  0  0  0  0  0  0  0  0  0
   39.6770  -10.2550   37.8970 C   0  0  0  0  0  0  0  0  0  0  0  0
   39.8640  -10.5680   39.1000 O   0  0  0  0  0  0  0  0  0  0  0  0
   39.1540  -11.0540   37.0910 O   0  0  0  0  0  0  0  0  0  0  0  0
   37.1480   -6.0780   37.0220 N   0  0  0  0  0  0  0  0  0  0  0  0
   36.6460   -5.0850   37.9750 C   0  0  2  0  0  0  0  0  0  0  0  0
   35.3020   -5.5300   38.5440 C   0  0  0  0  0  0  0  0  0  0  0  0
   35.1100   -5.5000   39.7390 O   0  0  0  0  0  0  0  0  0  0  0  0
   36.5170   -3.6730   37.3390 C   0  0  0  0  0  0  0  0  0  0  0  0
   34.3790   -5.9310   37.6830 N   0  0  0  0  0  0  0  0  0  0  0  0
   33.0470   -6.3840   38.1330 C   0  0  2  0  0  0  0  0  0  0  0  0
   33.1060   -7.6390   38.9920 C   0  0  0  0  0  0  0  0  0  0  0  0
   32.3470   -7.7960   39.9540 O   0  0  0  0  0  0  0  0  0  0  0  0
   32.1440   -6.6330   36.9310 C   0  0  0  0  0  0  0  0  0  0  0  0
   31.7680   -5.4260   36.0720 C   0  0  0  0  0  0  0  0  0  0  0  0
   31.0650   -5.9900   34.8630 C   0  0  0  0  0  0  0  0  0  0  0  0
   30.8630   -4.4530   36.8060 C   0  0  0  0  0  0  0  0  0  0  0  0
   34.0000   -8.5550   38.6260 N   0  0  0  0  0  0  0  0  0  0  0  0
   34.1810   -9.7450   39.4130 C   0  0  2  0  0  0  0  0  0  0  0  0
   34.6860   -9.4030   40.8160 C   0  0  0  0  0  0  0  0  0  0  0  0
   34.1450   -9.8850   41.7960 O   0  0  0  0  0  0  0  0  0  0  0  0
   35.1360  -10.6870   38.7050 C   0  0  0  0  0  0  0  0  0  0  0  0
   35.0890  -12.0890   39.2400 C   0  0  0  0  0  0  0  0  0  0  0  0
   35.9210  -12.9320   38.3340 C   0  0  0  0  0  0  0  0  0  0  0  0
   35.3200  -12.9480   36.9880 N   0  0  0  0  0  0  0  0  0  0  0  0
   35.8150  -12.4360   35.8880 C   0  0  0  0  0  0  0  0  0  0  0  0
   35.1830  -12.6510   34.7220 N   0  0  0  0  0  0  0  0  0  0  0  0
   36.9440  -11.7960   35.9610 N   0  0  0  0  0  0  0  0  0  0  0  0
   35.7070   -8.5530   40.9050 N   0  0  0  0  0  0  0  0  0  0  0  0
   36.3070   -8.2190   42.1880 C   0  0  0  0  0  0  0  0  0  0  0  0
   35.8302   -7.6919   32.9086 H   0  0  0  0  0  0  0  0  0  0  0  0
   34.4328   -7.0655   33.7499 H   0  0  0  0  0  0  0  0  0  0  0  0
   34.5218   -8.7635   33.3478 H   0  0  0  0  0  0  0  0  0  0  0  0
   37.6213   -7.9298   34.2246 H   0  0  0  0  0  0  0  0  0  0  0  0
   37.5186   -9.3353   36.6237 H   0  0  0  0  0  0  0  0  0  0  0  0
   39.6293   -7.3399   35.9600 H   0  0  0  0  0  0  0  0  0  0  0  0
   39.5526   -9.0264   35.3765 H   0  0  0  0  0  0  0  0  0  0  0  0
   39.9105   -8.1491   38.2144 H   0  0  0  0  0  0  0  0  0  0  0  0
   41.1198   -8.8968   37.1385 H   0  0  0  0  0  0  0  0  0  0  0  0
   37.3486   -5.8037   36.0980 H   0  0  0  0  0  0  0  0  0  0  0  0
   37.3622   -5.0149   38.7669 H   0  0  0  0  0  0  0  0  0  0  0  0
   35.8061   -3.7053   36.5400 H   0  0  0  0  0  0  0  0  0  0  0  0
   37.4683   -3.3653   36.9578 H   0  0  0  0  0  0  0  0  0  0  0  0
   36.1879   -2.9762   38.0813 H   0  0  0  0  0  0  0  0  0  0  0  0
   34.5855   -5.9271   36.7204 H   0  0  0  0  0  0  0  0  0  0  0  0
   32.6467   -5.6002   38.7416 H   0  0  0  0  0  0  0  0  0  0  0  0
   32.6412   -7.3363   36.2962 H   0  0  0  0  0  0  0  0  0  0  0  0
   31.2186   -6.9704   37.3491 H   0  0  0  0  0  0  0  0  0  0  0  0
   32.6419   -4.8664   35.8110 H   0  0  0  0  0  0  0  0  0  0  0  0
   30.2014   -6.5386   35.1762 H   0  0  0  0  0  0  0  0  0  0  0  0
   31.7298   -6.6419   34.3357 H   0  0  0  0  0  0  0  0  0  0  0  0
   30.7650   -5.1897   34.2192 H   0  0  0  0  0  0  0  0  0  0  0  0
   29.9632   -4.9533   37.0974 H   0  0  0  0  0  0  0  0  0  0  0  0
   30.6227   -3.6336   36.1612 H   0  0  0  0  0  0  0  0  0  0  0  0
   31.3652   -4.0863   37.6767 H   0  0  0  0  0  0  0  0  0  0  0  0
   34.5391   -8.4173   37.8138 H   0  0  0  0  0  0  0  0  0  0  0  0
   33.2350  -10.2328   39.5230 H   0  0  0  0  0  0  0  0  0  0  0  0
   34.8822  -10.7109   37.6658 H   0  0  0  0  0  0  0  0  0  0  0  0
   36.1268  -10.3174   38.8683 H   0  0  0  0  0  0  0  0  0  0  0  0
   35.4854  -12.1162   40.2335 H   0  0  0  0  0  0  0  0  0  0  0  0
   34.0820  -12.4490   39.2771 H   0  0  0  0  0  0  0  0  0  0  0  0
   36.9098  -12.5270   38.2783 H   0  0  0  0  0  0  0  0  0  0  0  0
   35.9654  -13.9303   38.7166 H   0  0  0  0  0  0  0  0  0  0  0  0
   34.4240  -13.4060   36.9040 H   0  0  0  0  0  0  0  0  0  0  0  0
   35.5449  -12.2717   33.8887 H   0  0  0  0  0  0  0  0  0  0  0  0
   34.3580  -13.1878   34.7009 H   0  0  0  0  0  0  0  0  0  0  0  0
   37.3392  -11.4010   35.1504 H   0  0  0  0  0  0  0  0  0  0  0  0
   37.4039  -11.7062   36.8269 H   0  0  0  0  0  0  0  0  0  0  0  0
   36.0638   -8.1415   40.0849 H   0  0  0  0  0  0  0  0  0  0  0  0
   35.8017   -8.7504   42.9672 H   0  0  0  0  0  0  0  0  0  0  0  0
   36.2196   -7.1664   42.3594 H   0  0  0  0  0  0  0  0  0  0  0  0
   37.3409   -8.4946   42.1808 H   0  0  0  0  0  0  0  0  0  0  0  0
  1 39  1  0  0  0  0
  1 40  1  0  0  0  0
  1 41  1  0  0  0  0
  2  1  1  0  0  0  0
  2  4  1  0  0  0  0
  3  2  2  0  0  0  0
  4 42  1  0  0  0  0
  5  4  1  0  0  0  0
  5  8  1  0  0  0  0
  5 43  1  6  0  0  0
  6 13  1  0  0  0  0
  6  5  1  0  0  0  0
  7  6  2  0  0  0  0
  8  9  1  0  0  0  0
  8 44  1  0  0  0  0
  8 45  1  0  0  0  0
  9 10  1  0  0  0  0
  9 46  1  0  0  0  0
  9 47  1  0  0  0  0
 10 12  2  0  0  0  0
 10 11  1  0  0  0  0
 13 48  1  0  0  0  0
 14 13  1  0  0  0  0
 14 17  1  0  0  0  0
 14 49  1  6  0  0  0
 15 14  1  0  0  0  0
 16 15  2  0  0  0  0
 17 50  1  0  0  0  0
 17 51  1  0  0  0  0
 17 52  1  0  0  0  0
 18 15  1  0  0  0  0
 18 53  1  0  0  0  0
 19 22  1  0  0  0  0
 19 18  1  0  0  0  0
 19 54  1  6  0  0  0
 20 26  1  0  0  0  0
 20 19  1  0  0  0  0
 21 20  2  0  0  0  0
 22 23  1  0  0  0  0
 22 55  1  0  0  0  0
 22 56  1  0  0  0  0
 23 24  1  0  0  0  0
 23 57  1  0  0  0  0
 24 58  1  0  0  0  0
 24 59  1  0  0  0  0
 24 60  1  0  0  0  0
 25 23  1  0  0  0  0
 25 61  1  0  0  0  0
 25 62  1  0  0  0  0
 25 63  1  0  0  0  0
 26 64  1  0  0  0  0
 27 30  1  0  0  0  0
 27 26  1  0  0  0  0
 27 65  1  6  0  0  0
 28 27  1  0  0  0  0
 28 37  1  0  0  0  0
 29 28  2  0  0  0  0
 30 66  1  0  0  0  0
 30 67  1  0  0  0  0
 31 30  1  0  0  0  0
 31 68  1  0  0  0  0
 31 69  1  0  0  0  0
 32 31  1  0  0  0  0
 32 70  1  0  0  0  0
 32 71  1  0  0  0  0
 33 32  1  0  0  0  0
 34 33  1  0  0  0  0
 33 72  1  0  0  0  0
 35 34  2  0  0  0  0
 35 73  1  0  0  0  0
 35 74  1  0  0  0  0
 36 34  1  0  0  0  0
 36 75  1  0  0  0  0
 36 76  1  0  0  0  0
 37 77  1  0  0  0  0
 38 37  1  0  0  0  0
 38 78  1  0  0  0  0
 38 79  1  0  0  0  0
 38 80  1  0  0  0  0
M  CHG  1  11  -1
M  CHG  1  35  1
M  END
>  <MODEL>
       0

$$$$
selected_4mers/EALR/194_noH.pdb
 OpenBabel03042517503D

 80 79  0  0  1  0  0  0  0  0999 V2000
   22.7510  -14.2880    7.8900 C   0  0  0  0  0  0  0  0  0  0  0  0
   22.0570  -14.2890    6.5280 C   0  0  0  0  0  0  0  0  0  0  0  0
   21.9410  -15.3230    5.8690 O   0  0  0  0  0  0  0  0  0  0  0  0
   21.5980  -13.1160    6.1190 N   0  0  0  0  0  0  0  0  0  0  0  0
   21.0470  -12.9060    4.7980 C   0  0  2  0  0  0  0  0  0  0  0  0
   22.0880  -13.2530    3.7120 C   0  0  0  0  0  0  0  0  0  0  0  0
   21.7900  -13.9560    2.7530 O   0  0  0  0  0  0  0  0  0  0  0  0
   20.5900  -11.4530    4.6990 C   0  0  0  0  0  0  0  0  0  0  0  0
   19.6940  -11.0850    3.5540 C   0  0  0  0  0  0  0  0  0  0  0  0
   19.1170   -9.6720    3.7160 C   0  0  0  0  0  0  0  0  0  0  0  0
   19.8670   -8.7420    4.1070 O   0  0  0  0  0  0  0  0  0  0  0  0
   17.9080   -9.4920    3.4500 O   0  0  0  0  0  0  0  0  0  0  0  0
   23.3200  -12.7910    3.8750 N   0  0  0  0  0  0  0  0  0  0  0  0
   24.3520  -13.0030    2.8590 C   0  0  2  0  0  0  0  0  0  0  0  0
   24.8160  -14.4580    2.7630 C   0  0  0  0  0  0  0  0  0  0  0  0
   25.2750  -14.8940    1.7120 O   0  0  0  0  0  0  0  0  0  0  0  0
   25.5680  -12.0720    3.1330 C   0  0  0  0  0  0  0  0  0  0  0  0
   24.7170  -15.2010    3.8650 N   0  0  0  0  0  0  0  0  0  0  0  0
   25.2820  -16.5490    3.9310 C   0  0  2  0  0  0  0  0  0  0  0  0
   24.2280  -17.6460    3.8170 C   0  0  0  0  0  0  0  0  0  0  0  0
   24.5080  -18.8150    4.0610 O   0  0  0  0  0  0  0  0  0  0  0  0
   26.0690  -16.7110    5.2310 C   0  0  0  0  0  0  0  0  0  0  0  0
   27.2880  -15.8030    5.3790 C   0  0  0  0  0  0  0  0  0  0  0  0
   27.8510  -15.9890    6.7720 C   0  0  0  0  0  0  0  0  0  0  0  0
   28.3750  -16.0650    4.2980 C   0  0  0  0  0  0  0  0  0  0  0  0
   23.0080  -17.2630    3.4690 N   0  0  0  0  0  0  0  0  0  0  0  0
   21.9850  -18.2500    3.1210 C   0  0  2  0  0  0  0  0  0  0  0  0
   22.5160  -19.2560    2.0910 C   0  0  0  0  0  0  0  0  0  0  0  0
   23.1280  -18.8670    1.0960 O   0  0  0  0  0  0  0  0  0  0  0  0
   20.7400  -17.5440    2.5750 C   0  0  0  0  0  0  0  0  0  0  0  0
   19.7090  -17.2520    3.6480 C   0  0  0  0  0  0  0  0  0  0  0  0
   18.7910  -16.0930    3.2970 C   0  0  0  0  0  0  0  0  0  0  0  0
   18.3610  -16.1170    1.9020 N   0  0  0  0  0  0  0  0  0  0  0  0
   18.7810  -15.2780    0.9530 C   0  0  0  0  0  0  0  0  0  0  0  0
   19.6520  -14.3180    1.2260 N   0  0  0  0  0  0  0  0  0  0  0  0
   18.3190  -15.3930   -0.2900 N   0  0  0  0  0  0  0  0  0  0  0  0
   22.2860  -20.5410    2.3480 N   0  0  0  0  0  0  0  0  0  0  0  0
   22.7350  -21.6210    1.4670 C   0  0  0  0  0  0  0  0  0  0  0  0
   23.0812  -15.2788    8.1227 H   0  0  0  0  0  0  0  0  0  0  0  0
   22.0641  -13.9556    8.6401 H   0  0  0  0  0  0  0  0  0  0  0  0
   23.5934  -13.6289    7.8606 H   0  0  0  0  0  0  0  0  0  0  0  0
   21.6333  -12.3537    6.7410 H   0  0  0  0  0  0  0  0  0  0  0  0
   20.2088  -13.5514    4.6373 H   0  0  0  0  0  0  0  0  0  0  0  0
   20.0673  -11.2192    5.6029 H   0  0  0  0  0  0  0  0  0  0  0  0
   21.4881  -10.8957    4.5321 H   0  0  0  0  0  0  0  0  0  0  0  0
   20.2574  -11.1274    2.6453 H   0  0  0  0  0  0  0  0  0  0  0  0
   18.8788  -11.7777    3.5324 H   0  0  0  0  0  0  0  0  0  0  0  0
   23.5451  -12.2956    4.6955 H   0  0  0  0  0  0  0  0  0  0  0  0
   23.9085  -12.7606    1.9159 H   0  0  0  0  0  0  0  0  0  0  0  0
   26.0035  -12.3228    4.0776 H   0  0  0  0  0  0  0  0  0  0  0  0
   25.2406  -11.0535    3.1504 H   0  0  0  0  0  0  0  0  0  0  0  0
   26.2962  -12.1994    2.3594 H   0  0  0  0  0  0  0  0  0  0  0  0
   24.2533  -14.8346    4.6523 H   0  0  0  0  0  0  0  0  0  0  0  0
   25.9308  -16.6601    3.0874 H   0  0  0  0  0  0  0  0  0  0  0  0
   26.4045  -17.7254    5.2890 H   0  0  0  0  0  0  0  0  0  0  0  0
   25.3984  -16.4329    6.0170 H   0  0  0  0  0  0  0  0  0  0  0  0
   26.9763  -14.7900    5.2325 H   0  0  0  0  0  0  0  0  0  0  0  0
   28.1570  -17.0063    6.9001 H   0  0  0  0  0  0  0  0  0  0  0  0
   27.1000  -15.7487    7.4953 H   0  0  0  0  0  0  0  0  0  0  0  0
   28.6939  -15.3435    6.9051 H   0  0  0  0  0  0  0  0  0  0  0  0
   28.7333  -17.0692    4.3885 H   0  0  0  0  0  0  0  0  0  0  0  0
   29.1875  -15.3826    4.4364 H   0  0  0  0  0  0  0  0  0  0  0  0
   27.9521  -15.9235    3.3253 H   0  0  0  0  0  0  0  0  0  0  0  0
   22.7874  -16.3039    3.4443 H   0  0  0  0  0  0  0  0  0  0  0  0
   21.7241  -18.7887    4.0079 H   0  0  0  0  0  0  0  0  0  0  0  0
   20.2914  -18.1693    1.8316 H   0  0  0  0  0  0  0  0  0  0  0  0
   21.0552  -16.6057    2.1687 H   0  0  0  0  0  0  0  0  0  0  0  0
   20.2218  -17.0163    4.5571 H   0  0  0  0  0  0  0  0  0  0  0  0
   19.0967  -18.1240    3.7461 H   0  0  0  0  0  0  0  0  0  0  0  0
   17.9246  -16.1409    3.9231 H   0  0  0  0  0  0  0  0  0  0  0  0
   19.3405  -15.1878    3.4502 H   0  0  0  0  0  0  0  0  0  0  0  0
   17.6920  -16.8250    1.6340 H   0  0  0  0  0  0  0  0  0  0  0  0
   19.9512  -13.7077    0.5138 H   0  0  0  0  0  0  0  0  0  0  0  0
   20.0001  -14.2148    2.1411 H   0  0  0  0  0  0  0  0  0  0  0  0
   18.6292  -14.7738   -0.9897 H   0  0  0  0  0  0  0  0  0  0  0  0
   17.6671  -16.0973   -0.5097 H   0  0  0  0  0  0  0  0  0  0  0  0
   21.7922  -20.7761    3.1666 H   0  0  0  0  0  0  0  0  0  0  0  0
   23.2521  -21.2050    0.6277 H   0  0  0  0  0  0  0  0  0  0  0  0
   21.8876  -22.1770    1.1239 H   0  0  0  0  0  0  0  0  0  0  0  0
   23.3933  -22.2702    2.0056 H   0  0  0  0  0  0  0  0  0  0  0  0
  1 39  1  0  0  0  0
  1 40  1  0  0  0  0
  1 41  1  0  0  0  0
  2  1  1  0  0  0  0
  2  4  1  0  0  0  0
  3  2  2  0  0  0  0
  4 42  1  0  0  0  0
  5  4  1  0  0  0  0
  5  8  1  0  0  0  0
  5 43  1  6  0  0  0
  6 13  1  0  0  0  0
  6  5  1  0  0  0  0
  7  6  2  0  0  0  0
  8  9  1  0  0  0  0
  8 44  1  0  0  0  0
  8 45  1  0  0  0  0
  9 10  1  0  0  0  0
  9 46  1  0  0  0  0
  9 47  1  0  0  0  0
 10 12  2  0  0  0  0
 10 11  1  0  0  0  0
 13 48  1  0  0  0  0
 14 13  1  0  0  0  0
 14 17  1  0  0  0  0
 14 49  1  6  0  0  0
 15 14  1  0  0  0  0
 16 15  2  0  0  0  0
 17 50  1  0  0  0  0
 17 51  1  0  0  0  0
 17 52  1  0  0  0  0
 18 15  1  0  0  0  0
 18 53  1  0  0  0  0
 19 22  1  0  0  0  0
 19 18  1  0  0  0  0
 19 54  1  6  0  0  0
 20 26  1  0  0  0  0
 20 19  1  0  0  0  0
 21 20  2  0  0  0  0
 22 23  1  0  0  0  0
 22 55  1  0  0  0  0
 22 56  1  0  0  0  0
 23 24  1  0  0  0  0
 23 57  1  0  0  0  0
 24 58  1  0  0  0  0
 24 59  1  0  0  0  0
 24 60  1  0  0  0  0
 25 23  1  0  0  0  0
 25 61  1  0  0  0  0
 25 62  1  0  0  0  0
 25 63  1  0  0  0  0
 26 64  1  0  0  0  0
 27 30  1  0  0  0  0
 27 26  1  0  0  0  0
 27 65  1  6  0  0  0
 28 27  1  0  0  0  0
 28 37  1  0  0  0  0
 29 28  2  0  0  0  0
 30 66  1  0  0  0  0
 30 67  1  0  0  0  0
 31 30  1  0  0  0  0
 31 68  1  0  0  0  0
 31 69  1  0  0  0  0
 32 31  1  0  0  0  0
 32 70  1  0  0  0  0
 32 71  1  0  0  0  0
 33 32  1  0  0  0  0
 34 33  1  0  0  0  0
 33 72  1  0  0  0  0
 35 34  2  0  0  0  0
 35 73  1  0  0  0  0
 35 74  1  0  0  0  0
 36 34  1  0  0  0  0
 36 75  1  0  0  0  0
 36 76  1  0  0  0  0
 37 77  1  0  0  0  0
 38 37  1  0  0  0  0
 38 78  1  0  0  0  0
 38 79  1  0  0  0  0
 38 80  1  0  0  0  0
M  CHG  1  11  -1
M  CHG  1  35  1
M  END
>  <MODEL>
       0

$$$$
