selected_4mers/EAVA/390_noH.pdb
 OpenBabel03042517593D

 63 62  0  0  1  0  0  0  0  0999 V2000
   61.5480   10.3840   28.0250 C   0  0  0  0  0  0  0  0  0  0  0  0
   60.6960    9.2310   27.4810 C   0  0  0  0  0  0  0  0  0  0  0  0
   61.2420    8.1820   27.1520 O   0  0  0  0  0  0  0  0  0  0  0  0
   59.3940    9.4530   27.4690 N   0  0  0  0  0  0  0  0  0  0  0  0
   58.4380    8.4860   26.8590 C   0  0  2  0  0  0  0  0  0  0  0  0
   57.5820    9.1570   25.8330 C   0  0  0  0  0  0  0  0  0  0  0  0
   56.8950   10.1460   26.1370 O   0  0  0  0  0  0  0  0  0  0  0  0
   57.5580    7.8720   27.9360 C   0  0  0  0  0  0  0  0  0  0  0  0
   56.5910    6.7950   27.3990 C   0  0  0  0  0  0  0  0  0  0  0  0
   55.8010    6.0980   28.5280 C   0  0  0  0  0  0  0  0  0  0  0  0
   54.8300    6.6920   29.0610 O   0  0  0  0  0  0  0  0  0  0  0  0
   56.1790    4.9420   28.8740 O   0  0  0  0  0  0  0  0  0  0  0  0
   57.5910    8.6110   24.6050 N   0  0  0  0  0  0  0  0  0  0  0  0
   56.6540    8.9890   23.5690 C   0  0  2  0  0  0  0  0  0  0  0  0
   55.4860    8.0150   23.6240 C   0  0  0  0  0  0  0  0  0  0  0  0
   55.7090    6.8220   23.8600 O   0  0  0  0  0  0  0  0  0  0  0  0
   57.2740    9.0090   22.2130 C   0  0  0  0  0  0  0  0  0  0  0  0
   54.3120    8.5630   23.4280 N   0  0  0  0  0  0  0  0  0  0  0  0
   53.0630    7.8340   23.4290 C   0  0  2  0  0  0  0  0  0  0  0  0
   52.3140    8.1400   22.1490 C   0  0  0  0  0  0  0  0  0  0  0  0
   52.1030    9.3080   21.7880 O   0  0  0  0  0  0  0  0  0  0  0  0
   52.1690    8.2640   24.6310 C   0  0  0  0  0  0  0  0  0  0  0  0
   50.8690    7.4790   24.6330 C   0  0  0  0  0  0  0  0  0  0  0  0
   52.9580    8.1180   25.9400 C   0  0  0  0  0  0  0  0  0  0  0  0
   51.8700    7.0860   21.4590 N   0  0  0  0  0  0  0  0  0  0  0  0
   51.0780    7.2600   20.2620 C   0  0  2  0  0  0  0  0  0  0  0  0
   49.7510    6.5890   20.4650 C   0  0  0  0  0  0  0  0  0  0  0  0
   49.6830    5.4100   20.8050 O   0  0  0  0  0  0  0  0  0  0  0  0
   51.8430    6.7380   19.0080 C   0  0  0  0  0  0  0  0  0  0  0  0
   48.6920    7.3680   20.3150 N   0  0  0  0  0  0  0  0  0  0  0  0
   47.3450    6.9670   20.6260 C   0  0  0  0  0  0  0  0  0  0  0  0
   62.5816   10.1092   27.9938 H   0  0  0  0  0  0  0  0  0  0  0  0
   61.2643   10.5911   29.0357 H   0  0  0  0  0  0  0  0  0  0  0  0
   61.3926   11.2562   27.4251 H   0  0  0  0  0  0  0  0  0  0  0  0
   59.0455   10.2799   27.8741 H   0  0  0  0  0  0  0  0  0  0  0  0
   59.0045    7.7152   26.3796 H   0  0  0  0  0  0  0  0  0  0  0  0
   56.9804    8.6517   28.3870 H   0  0  0  0  0  0  0  0  0  0  0  0
   58.2073    7.3913   28.6376 H   0  0  0  0  0  0  0  0  0  0  0  0
   57.1576    6.0574   26.8700 H   0  0  0  0  0  0  0  0  0  0  0  0
   55.8849    7.2806   26.7583 H   0  0  0  0  0  0  0  0  0  0  0  0
   58.2652    7.9231   24.4011 H   0  0  0  0  0  0  0  0  0  0  0  0
   56.3205    9.9901   23.7464 H   0  0  0  0  0  0  0  0  0  0  0  0
   57.6321    8.0304   21.9701 H   0  0  0  0  0  0  0  0  0  0  0  0
   58.0909    9.7000   22.2045 H   0  0  0  0  0  0  0  0  0  0  0  0
   56.5439    9.3110   21.4914 H   0  0  0  0  0  0  0  0  0  0  0  0
   54.2780    9.5341   23.2698 H   0  0  0  0  0  0  0  0  0  0  0  0
   53.2806    6.7894   23.5085 H   0  0  0  0  0  0  0  0  0  0  0  0
   51.9002    9.2952   24.5350 H   0  0  0  0  0  0  0  0  0  0  0  0
   51.0830    6.4349   24.7274 H   0  0  0  0  0  0  0  0  0  0  0  0
   50.3451    7.6543   23.7166 H   0  0  0  0  0  0  0  0  0  0  0  0
   50.2629    7.7948   25.4563 H   0  0  0  0  0  0  0  0  0  0  0  0
   53.2454    7.0957   26.0711 H   0  0  0  0  0  0  0  0  0  0  0  0
   52.3452    8.4245   26.7619 H   0  0  0  0  0  0  0  0  0  0  0  0
   53.8333    8.7321   25.8993 H   0  0  0  0  0  0  0  0  0  0  0  0
   52.0853    6.1771   21.7702 H   0  0  0  0  0  0  0  0  0  0  0  0
   50.9003    8.2992   20.0791 H   0  0  0  0  0  0  0  0  0  0  0  0
   52.0536    5.6957   19.1270 H   0  0  0  0  0  0  0  0  0  0  0  0
   52.7608    7.2773   18.9000 H   0  0  0  0  0  0  0  0  0  0  0  0
   51.2396    6.8827   18.1363 H   0  0  0  0  0  0  0  0  0  0  0  0
   48.8342    8.2787   19.9691 H   0  0  0  0  0  0  0  0  0  0  0  0
   47.3473    5.9603   20.9886 H   0  0  0  0  0  0  0  0  0  0  0  0
   46.7423    7.0270   19.7439 H   0  0  0  0  0  0  0  0  0  0  0  0
   46.9441    7.6156   21.3766 H   0  0  0  0  0  0  0  0  0  0  0  0
  1 32  1  0  0  0  0
  1 33  1  0  0  0  0
  1 34  1  0  0  0  0
  2  1  1  0  0  0  0
  3  2  2  0  0  0  0
  4  2  1  0  0  0  0
  4 35  1  0  0  0  0
  5  4  1  0  0  0  0
  5  8  1  0  0  0  0
  5 36  1  6  0  0  0
  6  7  2  0  0  0  0
  6  5  1  0  0  0  0
  8 37  1  0  0  0  0
  8 38  1  0  0  0  0
  9  8  1  0  0  0  0
  9 10  1  0  0  0  0
  9 39  1  0  0  0  0
  9 40  1  0  0  0  0
 10 12  2  0  0  0  0
 10 11  1  0  0  0  0
 13  6  1  0  0  0  0
 13 41  1  0  0  0  0
 14 15  1  0  0  0  0
 14 13  1  0  0  0  0
 14 42  1  1  0  0  0
 15 16  2  0  0  0  0
 17 14  1  0  0  0  0
 17 43  1  0  0  0  0
 17 44  1  0  0  0  0
 17 45  1  0  0  0  0
 18 19  1  0  0  0  0
 18 15  1  0  0  0  0
 18 46  1  0  0  0  0
 19 22  1  0  0  0  0
 19 47  1  1  0  0  0
 20 19  1  0  0  0  0
 21 20  2  0  0  0  0
 22 23  1  0  0  0  0
 22 24  1  0  0  0  0
 22 48  1  0  0  0  0
 23 49  1  0  0  0  0
 23 50  1  0  0  0  0
 23 51  1  0  0  0  0
 24 52  1  0  0  0  0
 24 53  1  0  0  0  0
 24 54  1  0  0  0  0
 25 20  1  0  0  0  0
 25 55  1  0  0  0  0
 26 27  1  0  0  0  0
 26 25  1  0  0  0  0
 26 56  1  6  0  0  0
 27 28  2  0  0  0  0
 29 26  1  0  0  0  0
 29 57  1  0  0  0  0
 29 58  1  0  0  0  0
 29 59  1  0  0  0  0
 30 27  1  0  0  0  0
 30 31  1  0  0  0  0
 30 60  1  0  0  0  0
 31 61  1  0  0  0  0
 31 62  1  0  0  0  0
 31 63  1  0  0  0  0
M  CHG  1  11  -1
M  END
>  <MODEL>
       0

$$$$
selected_4mers/EAVA/391_noH.pdb
 OpenBabel03042517593D

 63 62  0  0  1  0  0  0  0  0999 V2000
   40.6870  -24.4620   52.5760 C   0  0  0  0  0  0  0  0  0  0  0  0
   39.7170  -23.3700   52.1330 C   0  0  0  0  0  0  0  0  0  0  0  0
   40.0120  -22.6290   51.1830 O   0  0  0  0  0  0  0  0  0  0  0  0
   38.5700  -23.2680   52.8060 N   0  0  0  0  0  0  0  0  0  0  0  0
   37.5480  -22.2800   52.4630 C   0  0  2  0  0  0  0  0  0  0  0  0
   37.4410  -21.1450   53.4890 C   0  0  0  0  0  0  0  0  0  0  0  0
   37.1900  -19.9950   53.1340 O   0  0  0  0  0  0  0  0  0  0  0  0
   36.1830  -22.9720   52.2620 C   0  0  0  0  0  0  0  0  0  0  0  0
   36.1900  -24.1080   51.2320 C   0  0  0  0  0  0  0  0  0  0  0  0
   36.0000  -23.6350   49.7910 C   0  0  0  0  0  0  0  0  0  0  0  0
   36.0780  -22.4140   49.5250 O   0  0  0  0  0  0  0  0  0  0  0  0
   35.7750  -24.4970   48.9120 O   0  0  0  0  0  0  0  0  0  0  0  0
   37.6660  -21.4620   54.7650 N   0  0  0  0  0  0  0  0  0  0  0  0
   37.6620  -20.4610   55.8040 C   0  0  2  0  0  0  0  0  0  0  0  0
   38.6740  -20.8550   56.8890 C   0  0  0  0  0  0  0  0  0  0  0  0
   38.9920  -22.0440   57.0460 O   0  0  0  0  0  0  0  0  0  0  0  0
   36.2590  -20.2980   56.3800 C   0  0  0  0  0  0  0  0  0  0  0  0
   39.2080  -19.8420   57.5770 N   0  0  0  0  0  0  0  0  0  0  0  0
   40.1420  -20.0390   58.7070 C   0  0  2  0  0  0  0  0  0  0  0  0
   39.7420  -19.1260   59.8560 C   0  0  0  0  0  0  0  0  0  0  0  0
   39.1020  -18.0940   59.6450 O   0  0  0  0  0  0  0  0  0  0  0  0
   41.6630  -19.8090   58.3440 C   0  0  0  0  0  0  0  0  0  0  0  0
   42.1090  -20.7420   57.2110 C   0  0  0  0  0  0  0  0  0  0  0  0
   41.9730  -18.3290   58.0130 C   0  0  0  0  0  0  0  0  0  0  0  0
   40.0750  -19.5300   61.0750 N   0  0  0  0  0  0  0  0  0  0  0  0
   39.8470  -18.6480   62.2230 C   0  0  2  0  0  0  0  0  0  0  0  0
   41.2000  -18.2320   62.8270 C   0  0  0  0  0  0  0  0  0  0  0  0
   42.2100  -18.9500   62.6930 O   0  0  0  0  0  0  0  0  0  0  0  0
   38.9480  -19.3430   63.2490 C   0  0  0  0  0  0  0  0  0  0  0  0
   41.2330  -17.0660   63.4780 N   0  0  0  0  0  0  0  0  0  0  0  0
   42.4590  -16.5510   64.0660 C   0  0  0  0  0  0  0  0  0  0  0  0
   41.5604  -24.4352   51.9584 H   0  0  0  0  0  0  0  0  0  0  0  0
   40.2144  -25.4176   52.4842 H   0  0  0  0  0  0  0  0  0  0  0  0
   40.9662  -24.2987   53.5959 H   0  0  0  0  0  0  0  0  0  0  0  0
   38.4057  -23.8793   53.5601 H   0  0  0  0  0  0  0  0  0  0  0  0
   37.8513  -21.8237   51.5439 H   0  0  0  0  0  0  0  0  0  0  0  0
   35.8717  -23.3760   53.2026 H   0  0  0  0  0  0  0  0  0  0  0  0
   35.5161  -22.2247   51.8855 H   0  0  0  0  0  0  0  0  0  0  0  0
   37.1282  -24.6182   51.2987 H   0  0  0  0  0  0  0  0  0  0  0  0
   35.3610  -24.7437   51.4633 H   0  0  0  0  0  0  0  0  0  0  0  0
   37.8389  -22.4014   55.0035 H   0  0  0  0  0  0  0  0  0  0  0  0
   37.9510  -19.5152   55.3956 H   0  0  0  0  0  0  0  0  0  0  0  0
   35.9353  -21.2278   56.7991 H   0  0  0  0  0  0  0  0  0  0  0  0
   35.5860  -20.0039   55.6019 H   0  0  0  0  0  0  0  0  0  0  0  0
   36.2716  -19.5480   57.1430 H   0  0  0  0  0  0  0  0  0  0  0  0
   38.9689  -18.9222   57.3202 H   0  0  0  0  0  0  0  0  0  0  0  0
   40.0624  -21.0689   58.9861 H   0  0  0  0  0  0  0  0  0  0  0  0
   42.2320  -20.0533   59.2166 H   0  0  0  0  0  0  0  0  0  0  0  0
   41.5534  -20.5175   56.3245 H   0  0  0  0  0  0  0  0  0  0  0  0
   41.9318  -21.7582   57.4952 H   0  0  0  0  0  0  0  0  0  0  0  0
   43.1529  -20.6011   57.0230 H   0  0  0  0  0  0  0  0  0  0  0  0
   41.4242  -18.0357   57.1426 H   0  0  0  0  0  0  0  0  0  0  0  0
   43.0210  -18.2167   57.8285 H   0  0  0  0  0  0  0  0  0  0  0  0
   41.6881  -17.7115   58.8391 H   0  0  0  0  0  0  0  0  0  0  0  0
   40.4743  -20.4200   61.2081 H   0  0  0  0  0  0  0  0  0  0  0  0
   39.3409  -17.7597   61.9072 H   0  0  0  0  0  0  0  0  0  0  0  0
   39.4225  -20.2395   63.5896 H   0  0  0  0  0  0  0  0  0  0  0  0
   38.0102  -19.5862   62.7948 H   0  0  0  0  0  0  0  0  0  0  0  0
   38.7830  -18.6890   64.0797 H   0  0  0  0  0  0  0  0  0  0  0  0
   40.4044  -16.5410   63.5619 H   0  0  0  0  0  0  0  0  0  0  0  0
   43.2580  -17.2392   63.8848 H   0  0  0  0  0  0  0  0  0  0  0  0
   42.3252  -16.4296   65.1206 H   0  0  0  0  0  0  0  0  0  0  0  0
   42.6961  -15.6052   63.6253 H   0  0  0  0  0  0  0  0  0  0  0  0
  1 32  1  0  0  0  0
  1 33  1  0  0  0  0
  1 34  1  0  0  0  0
  2  1  1  0  0  0  0
  2  4  1  0  0  0  0
  3  2  2  0  0  0  0
  4 35  1  0  0  0  0
  5  4  1  0  0  0  0
  5  6  1  0  0  0  0
  5 36  1  6  0  0  0
  6 13  1  0  0  0  0
  7  6  2  0  0  0  0
  8  5  1  0  0  0  0
  8 37  1  0  0  0  0
  8 38  1  0  0  0  0
  9  8  1  0  0  0  0
  9 39  1  0  0  0  0
  9 40  1  0  0  0  0
 10  9  1  0  0  0  0
 11 10  1  0  0  0  0
 12 10  2  0  0  0  0
 13 14  1  0  0  0  0
 13 41  1  0  0  0  0
 14 17  1  0  0  0  0
 14 15  1  0  0  0  0
 14 42  1  6  0  0  0
 15 16  2  0  0  0  0
 15 18  1  0  0  0  0
 17 43  1  0  0  0  0
 17 44  1  0  0  0  0
 17 45  1  0  0  0  0
 18 19  1  0  0  0  0
 18 46  1  0  0  0  0
 19 20  1  0  0  0  0
 19 47  1  1  0  0  0
 20 25  1  0  0  0  0
 21 20  2  0  0  0  0
 22 19  1  0  0  0  0
 22 48  1  0  0  0  0
 23 22  1  0  0  0  0
 23 49  1  0  0  0  0
 23 50  1  0  0  0  0
 23 51  1  0  0  0  0
 24 22  1  0  0  0  0
 24 52  1  0  0  0  0
 24 53  1  0  0  0  0
 24 54  1  0  0  0  0
 25 26  1  0  0  0  0
 25 55  1  0  0  0  0
 26 27  1  0  0  0  0
 26 29  1  0  0  0  0
 26 56  1  6  0  0  0
 27 30  1  0  0  0  0
 28 27  2  0  0  0  0
 29 57  1  0  0  0  0
 29 58  1  0  0  0  0
 29 59  1  0  0  0  0
 30 31  1  0  0  0  0
 30 60  1  0  0  0  0
 31 61  1  0  0  0  0
 31 62  1  0  0  0  0
 31 63  1  0  0  0  0
M  CHG  1  11  -1
M  END
>  <MODEL>
       0

$$$$
selected_4mers/EAVA/392_noH.pdb
 OpenBabel03042517593D

 63 62  0  0  1  0  0  0  0  0999 V2000
  -95.1710  -13.0160  -92.7880 C   0  0  0  0  0  0  0  0  0  0  0  0
  -95.2190  -13.6070  -91.3950 C   0  0  0  0  0  0  0  0  0  0  0  0
  -95.9920  -13.1400  -90.5490 O   0  0  0  0  0  0  0  0  0  0  0  0
  -94.4010  -14.6080  -91.0880 N   0  0  0  0  0  0  0  0  0  0  0  0
  -94.1050  -15.0350  -89.7280 C   0  0  2  0  0  0  0  0  0  0  0  0
  -95.3320  -15.4220  -88.9040 C   0  0  0  0  0  0  0  0  0  0  0  0
  -95.4650  -15.0840  -87.7070 O   0  0  0  0  0  0  0  0  0  0  0  0
  -93.3130  -13.8930  -89.0540 C   0  0  0  0  0  0  0  0  0  0  0  0
  -92.0180  -13.5800  -89.8050 C   0  0  0  0  0  0  0  0  0  0  0  0
  -91.2370  -12.4600  -89.1650 C   0  0  0  0  0  0  0  0  0  0  0  0
  -91.7180  -11.9990  -88.1100 O   0  0  0  0  0  0  0  0  0  0  0  0
  -90.1960  -12.0250  -89.7140 O   0  0  0  0  0  0  0  0  0  0  0  0
  -96.2330  -16.1990  -89.5020 N   0  0  0  0  0  0  0  0  0  0  0  0
  -97.4180  -16.6270  -88.7470 C   0  0  2  0  0  0  0  0  0  0  0  0
  -97.1760  -17.8100  -87.8120 C   0  0  0  0  0  0  0  0  0  0  0  0
  -97.9630  -18.0220  -86.8650 O   0  0  0  0  0  0  0  0  0  0  0  0
  -98.5660  -17.0120  -89.6770 C   0  0  0  0  0  0  0  0  0  0  0  0
  -96.1450  -18.6040  -88.0190 N   0  0  0  0  0  0  0  0  0  0  0  0
  -95.8960  -19.8020  -87.2020 C   0  0  2  0  0  0  0  0  0  0  0  0
  -95.2120  -19.4760  -85.8900 C   0  0  0  0  0  0  0  0  0  0  0  0
  -94.3530  -18.5800  -85.8410 O   0  0  0  0  0  0  0  0  0  0  0  0
  -95.0000  -20.7300  -88.0480 C   0  0  0  0  0  0  0  0  0  0  0  0
  -94.3480  -21.8400  -87.2370 C   0  0  0  0  0  0  0  0  0  0  0  0
  -95.8210  -21.2760  -89.2090 C   0  0  0  0  0  0  0  0  0  0  0  0
  -95.5480  -20.1580  -84.7930 N   0  0  0  0  0  0  0  0  0  0  0  0
  -94.9950  -19.8840  -83.4800 C   0  0  2  0  0  0  0  0  0  0  0  0
  -93.5280  -20.2690  -83.3000 C   0  0  0  0  0  0  0  0  0  0  0  0
  -93.0340  -21.2020  -83.9490 O   0  0  0  0  0  0  0  0  0  0  0  0
  -95.7940  -20.6870  -82.4510 C   0  0  0  0  0  0  0  0  0  0  0  0
  -92.8300  -19.6030  -82.3930 N   0  0  0  0  0  0  0  0  0  0  0  0
  -91.5210  -19.9350  -81.8930 C   0  0  0  0  0  0  0  0  0  0  0  0
  -94.4498  -13.5451  -93.3753 H   0  0  0  0  0  0  0  0  0  0  0  0
  -94.8945  -11.9841  -92.7283 H   0  0  0  0  0  0  0  0  0  0  0  0
  -96.1348  -13.1011  -93.2450 H   0  0  0  0  0  0  0  0  0  0  0  0
  -93.9673  -15.0919  -91.8275 H   0  0  0  0  0  0  0  0  0  0  0  0
  -93.5330  -15.9380  -89.7761 H   0  0  0  0  0  0  0  0  0  0  0  0
  -93.9226  -13.0139  -89.0334 H   0  0  0  0  0  0  0  0  0  0  0  0
  -93.0559  -14.2059  -88.0636 H   0  0  0  0  0  0  0  0  0  0  0  0
  -91.4083  -14.4592  -89.8194 H   0  0  0  0  0  0  0  0  0  0  0  0
  -92.2822  -13.2690  -90.7941 H   0  0  0  0  0  0  0  0  0  0  0  0
  -96.1068  -16.4824  -90.4363 H   0  0  0  0  0  0  0  0  0  0  0  0
  -97.6660  -15.7722  -88.1531 H   0  0  0  0  0  0  0  0  0  0  0  0
  -98.2854  -17.8679  -90.2546 H   0  0  0  0  0  0  0  0  0  0  0  0
  -98.7832  -16.1948  -90.3327 H   0  0  0  0  0  0  0  0  0  0  0  0
  -99.4339  -17.2431  -89.0955 H   0  0  0  0  0  0  0  0  0  0  0  0
  -95.5184  -18.3877  -88.7469 H   0  0  0  0  0  0  0  0  0  0  0  0
  -96.8267  -20.2634  -86.9456 H   0  0  0  0  0  0  0  0  0  0  0  0
  -94.1814  -20.1540  -88.4260 H   0  0  0  0  0  0  0  0  0  0  0  0
  -95.1061  -22.4690  -86.8192 H   0  0  0  0  0  0  0  0  0  0  0  0
  -93.7661  -21.4108  -86.4483 H   0  0  0  0  0  0  0  0  0  0  0  0
  -93.7133  -22.4208  -87.8731 H   0  0  0  0  0  0  0  0  0  0  0  0
  -96.6387  -21.8515  -88.8281 H   0  0  0  0  0  0  0  0  0  0  0  0
  -95.2024  -21.8976  -89.8220 H   0  0  0  0  0  0  0  0  0  0  0  0
  -96.1986  -20.4625  -89.7925 H   0  0  0  0  0  0  0  0  0  0  0  0
  -96.2058  -20.8854  -84.8794 H   0  0  0  0  0  0  0  0  0  0  0  0
  -95.0579  -18.8233  -83.3539 H   0  0  0  0  0  0  0  0  0  0  0  0
  -95.6783  -21.7326  -82.6466 H   0  0  0  0  0  0  0  0  0  0  0  0
  -96.8289  -20.4239  -82.5188 H   0  0  0  0  0  0  0  0  0  0  0  0
  -95.4334  -20.4660  -81.4681 H   0  0  0  0  0  0  0  0  0  0  0  0
  -93.2509  -18.7946  -82.0208 H   0  0  0  0  0  0  0  0  0  0  0  0
  -91.1725  -20.8270  -82.3703 H   0  0  0  0  0  0  0  0  0  0  0  0
  -91.5724  -20.0929  -80.8360 H   0  0  0  0  0  0  0  0  0  0  0  0
  -90.8454  -19.1318  -82.1012 H   0  0  0  0  0  0  0  0  0  0  0  0
  1  2  1  0  0  0  0
  1 32  1  0  0  0  0
  1 33  1  0  0  0  0
  1 34  1  0  0  0  0
  2  4  1  0  0  0  0
  2  3  2  0  0  0  0
  4  5  1  0  0  0  0
  4 35  1  0  0  0  0
  5  8  1  0  0  0  0
  5  6  1  0  0  0  0
  5 36  1  6  0  0  0
  6  7  2  0  0  0  0
  8 37  1  0  0  0  0
  8 38  1  0  0  0  0
  9 10  1  0  0  0  0
  9  8  1  0  0  0  0
  9 39  1  0  0  0  0
  9 40  1  0  0  0  0
 10 11  1  0  0  0  0
 12 10  2  0  0  0  0
 13  6  1  0  0  0  0
 13 14  1  0  0  0  0
 13 41  1  0  0  0  0
 14 15  1  0  0  0  0
 14 42  1  1  0  0  0
 15 16  2  0  0  0  0
 17 14  1  0  0  0  0
 17 43  1  0  0  0  0
 17 44  1  0  0  0  0
 17 45  1  0  0  0  0
 18 15  1  0  0  0  0
 18 19  1  0  0  0  0
 18 46  1  0  0  0  0
 19 20  1  0  0  0  0
 19 47  1  1  0  0  0
 20 21  2  0  0  0  0
 20 25  1  0  0  0  0
 22 23  1  0  0  0  0
 22 19  1  0  0  0  0
 22 48  1  0  0  0  0
 23 49  1  0  0  0  0
 23 50  1  0  0  0  0
 23 51  1  0  0  0  0
 24 22  1  0  0  0  0
 24 52  1  0  0  0  0
 24 53  1  0  0  0  0
 24 54  1  0  0  0  0
 25 26  1  0  0  0  0
 25 55  1  0  0  0  0
 26 27  1  0  0  0  0
 26 29  1  0  0  0  0
 26 56  1  1  0  0  0
 27 30  1  0  0  0  0
 28 27  2  0  0  0  0
 29 57  1  0  0  0  0
 29 58  1  0  0  0  0
 29 59  1  0  0  0  0
 30 31  1  0  0  0  0
 30 60  1  0  0  0  0
 31 61  1  0  0  0  0
 31 62  1  0  0  0  0
 31 63  1  0  0  0  0
M  CHG  1  11  -1
M  END
>  <MODEL>
       0

$$$$
selected_4mers/EAVA/393_noH.pdb
 OpenBabel03042517593D

 63 62  0  0  1  0  0  0  0  0999 V2000
    0.7650   27.7600    7.0610 C   0  0  0  0  0  0  0  0  0  0  0  0
    1.0990   29.1520    7.5910 C   0  0  0  0  0  0  0  0  0  0  0  0
    2.2750   29.5160    7.6760 O   0  0  0  0  0  0  0  0  0  0  0  0
    0.0900   29.9420    7.9560 N   0  0  0  0  0  0  0  0  0  0  0  0
    0.3230   31.3160    8.4500 C   0  0  2  0  0  0  0  0  0  0  0  0
    1.0630   31.2760    9.7780 C   0  0  0  0  0  0  0  0  0  0  0  0
    1.9230   32.1270   10.0150 O   0  0  0  0  0  0  0  0  0  0  0  0
   -0.9970   32.0470    8.5580 C   0  0  0  0  0  0  0  0  0  0  0  0
   -1.5540   32.3850    7.1770 C   0  0  0  0  0  0  0  0  0  0  0  0
   -2.9040   33.0280    7.1750 C   0  0  0  0  0  0  0  0  0  0  0  0
   -3.5080   33.2160    8.2570 O   0  0  0  0  0  0  0  0  0  0  0  0
   -3.2770   33.2850    5.9870 O   0  0  0  0  0  0  0  0  0  0  0  0
    0.7160   30.3290   10.6500 N   0  0  0  0  0  0  0  0  0  0  0  0
    1.3990   30.2280   11.9440 C   0  0  2  0  0  0  0  0  0  0  0  0
    2.8580   29.8190   11.7260 C   0  0  0  0  0  0  0  0  0  0  0  0
    3.7360   30.3650   12.4040 O   0  0  0  0  0  0  0  0  0  0  0  0
    0.6600   29.2150   12.7760 C   0  0  0  0  0  0  0  0  0  0  0  0
    3.1270   28.9190   10.8280 N   0  0  0  0  0  0  0  0  0  0  0  0
    4.5120   28.5350   10.5210 C   0  0  2  0  0  0  0  0  0  0  0  0
    5.2690   29.7070    9.9270 C   0  0  0  0  0  0  0  0  0  0  0  0
    6.4160   29.9510   10.3060 O   0  0  0  0  0  0  0  0  0  0  0  0
    4.5590   27.2620    9.6280 C   0  0  0  0  0  0  0  0  0  0  0  0
    5.9830   27.0130    9.1370 C   0  0  0  0  0  0  0  0  0  0  0  0
    4.0240   26.0790   10.3740 C   0  0  0  0  0  0  0  0  0  0  0  0
    4.6390   30.4550    9.0080 N   0  0  0  0  0  0  0  0  0  0  0  0
    5.3160   31.5980    8.4210 C   0  0  2  0  0  0  0  0  0  0  0  0
    5.6690   32.6410    9.4740 C   0  0  0  0  0  0  0  0  0  0  0  0
    6.7730   33.2010    9.4670 O   0  0  0  0  0  0  0  0  0  0  0  0
    4.4510   32.2180    7.3240 C   0  0  0  0  0  0  0  0  0  0  0  0
    4.7430   32.9080   10.3820 N   0  0  0  0  0  0  0  0  0  0  0  0
    5.0060   33.8940   11.4480 C   0  0  0  0  0  0  0  0  0  0  0  0
    1.6700   27.2471    6.8106 H   0  0  0  0  0  0  0  0  0  0  0  0
    0.1519   27.8482    6.1885 H   0  0  0  0  0  0  0  0  0  0  0  0
    0.2389   27.2090    7.8124 H   0  0  0  0  0  0  0  0  0  0  0  0
   -0.8323   29.6029    7.8953 H   0  0  0  0  0  0  0  0  0  0  0  0
    0.9391   31.8513    7.7581 H   0  0  0  0  0  0  0  0  0  0  0  0
   -1.6986   31.4265    9.0753 H   0  0  0  0  0  0  0  0  0  0  0  0
   -0.8366   32.9602    9.0921 H   0  0  0  0  0  0  0  0  0  0  0  0
   -0.8686   33.0526    6.6980 H   0  0  0  0  0  0  0  0  0  0  0  0
   -1.6689   31.4517    6.6665 H   0  0  0  0  0  0  0  0  0  0  0  0
   -0.0021   29.6945   10.4242 H   0  0  0  0  0  0  0  0  0  0  0  0
    1.4030   31.1690   12.4534 H   0  0  0  0  0  0  0  0  0  0  0  0
    0.6544   28.2728   12.2689 H   0  0  0  0  0  0  0  0  0  0  0  0
   -0.3467   29.5443   12.9279 H   0  0  0  0  0  0  0  0  0  0  0  0
    1.1468   29.1076   13.7228 H   0  0  0  0  0  0  0  0  0  0  0  0
    2.3878   28.4855   10.3434 H   0  0  0  0  0  0  0  0  0  0  0  0
    5.0092   28.2751   11.4321 H   0  0  0  0  0  0  0  0  0  0  0  0
    3.9367   27.4159    8.7713 H   0  0  0  0  0  0  0  0  0  0  0  0
    6.6274   26.8556    9.9766 H   0  0  0  0  0  0  0  0  0  0  0  0
    6.3222   27.8621    8.5812 H   0  0  0  0  0  0  0  0  0  0  0  0
    5.9974   26.1468    8.5090 H   0  0  0  0  0  0  0  0  0  0  0  0
    4.6279   25.8999   11.2389 H   0  0  0  0  0  0  0  0  0  0  0  0
    4.0454   25.2177    9.7395 H   0  0  0  0  0  0  0  0  0  0  0  0
    3.0164   26.2741   10.6767 H   0  0  0  0  0  0  0  0  0  0  0  0
    3.7210   30.2297    8.7327 H   0  0  0  0  0  0  0  0  0  0  0  0
    6.2315   31.2512    7.9891 H   0  0  0  0  0  0  0  0  0  0  0  0
    3.5330   32.5674    7.7484 H   0  0  0  0  0  0  0  0  0  0  0  0
    4.2409   31.4817    6.5766 H   0  0  0  0  0  0  0  0  0  0  0  0
    4.9735   33.0389    6.8790 H   0  0  0  0  0  0  0  0  0  0  0  0
    3.8743   32.4462   10.3458 H   0  0  0  0  0  0  0  0  0  0  0  0
    5.9925   34.2914   11.3308 H   0  0  0  0  0  0  0  0  0  0  0  0
    4.9245   33.4175   12.4026 H   0  0  0  0  0  0  0  0  0  0  0  0
    4.2916   34.6880   11.3836 H   0  0  0  0  0  0  0  0  0  0  0  0
  1  2  1  0  0  0  0
  1 32  1  0  0  0  0
  1 33  1  0  0  0  0
  1 34  1  0  0  0  0
  2  3  2  0  0  0  0
  2  4  1  0  0  0  0
  4  5  1  0  0  0  0
  4 35  1  0  0  0  0
  5  8  1  0  0  0  0
  5  6  1  0  0  0  0
  5 36  1  6  0  0  0
  6  7  2  0  0  0  0
  6 13  1  0  0  0  0
  8 37  1  0  0  0  0
  8 38  1  0  0  0  0
  9  8  1  0  0  0  0
  9 39  1  0  0  0  0
  9 40  1  0  0  0  0
 10  9  1  0  0  0  0
 10 11  1  0  0  0  0
 12 10  2  0  0  0  0
 13 14  1  0  0  0  0
 13 41  1  0  0  0  0
 14 17  1  0  0  0  0
 14 42  1  1  0  0  0
 15 14  1  0  0  0  0
 15 16  2  0  0  0  0
 17 43  1  0  0  0  0
 17 44  1  0  0  0  0
 17 45  1  0  0  0  0
 18 15  1  0  0  0  0
 18 46  1  0  0  0  0
 19 18  1  0  0  0  0
 19 47  1  1  0  0  0
 20 21  2  0  0  0  0
 20 19  1  0  0  0  0
 22 24  1  0  0  0  0
 22 19  1  0  0  0  0
 22 48  1  0  0  0  0
 23 22  1  0  0  0  0
 23 49  1  0  0  0  0
 23 50  1  0  0  0  0
 23 51  1  0  0  0  0
 24 52  1  0  0  0  0
 24 53  1  0  0  0  0
 24 54  1  0  0  0  0
 25 20  1  0  0  0  0
 25 55  1  0  0  0  0
 26 25  1  0  0  0  0
 26 27  1  0  0  0  0
 26 56  1  6  0  0  0
 27 30  1  0  0  0  0
 28 27  2  0  0  0  0
 29 26  1  0  0  0  0
 29 57  1  0  0  0  0
 29 58  1  0  0  0  0
 29 59  1  0  0  0  0
 30 31  1  0  0  0  0
 30 60  1  0  0  0  0
 31 61  1  0  0  0  0
 31 62  1  0  0  0  0
 31 63  1  0  0  0  0
M  CHG  1  11  -1
M  END
>  <MODEL>
       0

$$$$
selected_4mers/EAVA/394_noH.pdb
 OpenBabel03042517593D

 63 62  0  0  1  0  0  0  0  0999 V2000
   21.6310    8.8080  -18.3020 C   0  0  0  0  0  0  0  0  0  0  0  0
   20.7760   10.0730  -18.2560 C   0  0  0  0  0  0  0  0  0  0  0  0
   21.2820   11.1220  -17.8520 O   0  0  0  0  0  0  0  0  0  0  0  0
   19.4910    9.9780  -18.6260 N   0  0  0  0  0  0  0  0  0  0  0  0
   18.6170   11.1340  -18.5270 C   0  0  2  0  0  0  0  0  0  0  0  0
   18.5800   11.6630  -17.1060 C   0  0  0  0  0  0  0  0  0  0  0  0
   18.5730   12.8880  -16.9020 O   0  0  0  0  0  0  0  0  0  0  0  0
   17.2120   10.7580  -19.0290 C   0  0  0  0  0  0  0  0  0  0  0  0
   17.2630   10.5030  -20.5390 C   0  0  0  0  0  0  0  0  0  0  0  0
   15.9860   10.5270  -21.2580 C   0  0  0  0  0  0  0  0  0  0  0  0
   15.0020    9.9920  -20.7090 O   0  0  0  0  0  0  0  0  0  0  0  0
   16.0000   11.1000  -22.3830 O   0  0  0  0  0  0  0  0  0  0  0  0
   18.5460   10.7500  -16.1310 N   0  0  0  0  0  0  0  0  0  0  0  0
   18.4830   11.2030  -14.7200 C   0  0  2  0  0  0  0  0  0  0  0  0
   19.7880   11.8970  -14.3170 C   0  0  0  0  0  0  0  0  0  0  0  0
   19.7570   12.8950  -13.5850 O   0  0  0  0  0  0  0  0  0  0  0  0
   18.1770   10.0240  -13.7960 C   0  0  0  0  0  0  0  0  0  0  0  0
   20.9270   11.3700  -14.7860 N   0  0  0  0  0  0  0  0  0  0  0  0
   22.1940   12.0170  -14.4880 C   0  0  2  0  0  0  0  0  0  0  0  0
   22.2390   13.4270  -15.0900 C   0  0  0  0  0  0  0  0  0  0  0  0
   22.6180   14.3780  -14.4060 O   0  0  0  0  0  0  0  0  0  0  0  0
   23.3790   11.2010  -15.0530 C   0  0  0  0  0  0  0  0  0  0  0  0
   24.6920   11.9160  -14.8570 C   0  0  0  0  0  0  0  0  0  0  0  0
   23.4830    9.8380  -14.3970 C   0  0  0  0  0  0  0  0  0  0  0  0
   21.7940   13.5890  -16.3400 N   0  0  0  0  0  0  0  0  0  0  0  0
   21.7850   14.9170  -16.9590 C   0  0  2  0  0  0  0  0  0  0  0  0
   20.8330   15.8750  -16.2310 C   0  0  0  0  0  0  0  0  0  0  0  0
   21.1700   17.0330  -15.9810 O   0  0  0  0  0  0  0  0  0  0  0  0
   21.4160   14.8140  -18.4320 C   0  0  0  0  0  0  0  0  0  0  0  0
   19.6510   15.3750  -15.8640 N   0  0  0  0  0  0  0  0  0  0  0  0
   18.6560   16.1900  -15.1290 C   0  0  0  0  0  0  0  0  0  0  0  0
   21.0442    7.9942  -18.6739 H   0  0  0  0  0  0  0  0  0  0  0  0
   21.9784    8.5763  -17.3168 H   0  0  0  0  0  0  0  0  0  0  0  0
   22.4694    8.9674  -18.9475 H   0  0  0  0  0  0  0  0  0  0  0  0
   19.1391    9.1234  -18.9653 H   0  0  0  0  0  0  0  0  0  0  0  0
   18.9990   11.9204  -19.1440 H   0  0  0  0  0  0  0  0  0  0  0  0
   16.8790    9.8729  -18.5284 H   0  0  0  0  0  0  0  0  0  0  0  0
   16.5329   11.5591  -18.8243 H   0  0  0  0  0  0  0  0  0  0  0  0
   17.8924   11.2520  -20.9724 H   0  0  0  0  0  0  0  0  0  0  0  0
   17.6223    9.5003  -20.6411 H   0  0  0  0  0  0  0  0  0  0  0  0
   18.5625    9.7895  -16.3463 H   0  0  0  0  0  0  0  0  0  0  0  0
   17.6902   11.9152  -14.6242 H   0  0  0  0  0  0  0  0  0  0  0  0
   18.9581    9.2970  -13.8749 H   0  0  0  0  0  0  0  0  0  0  0  0
   17.2462    9.5798  -14.0809 H   0  0  0  0  0  0  0  0  0  0  0  0
   18.1126   10.3701  -12.7856 H   0  0  0  0  0  0  0  0  0  0  0  0
   20.9059   10.5493  -15.3293 H   0  0  0  0  0  0  0  0  0  0  0  0
   22.2777   12.0764  -13.4229 H   0  0  0  0  0  0  0  0  0  0  0  0
   23.1844   11.0848  -16.0987 H   0  0  0  0  0  0  0  0  0  0  0  0
   24.8831   12.0303  -13.8104 H   0  0  0  0  0  0  0  0  0  0  0  0
   24.6454   12.8803  -15.3185 H   0  0  0  0  0  0  0  0  0  0  0  0
   25.4792   11.3448  -15.3030 H   0  0  0  0  0  0  0  0  0  0  0  0
   23.6776    9.9591  -13.3518 H   0  0  0  0  0  0  0  0  0  0  0  0
   24.2815    9.2857  -14.8468 H   0  0  0  0  0  0  0  0  0  0  0  0
   22.5634    9.3073  -14.5294 H   0  0  0  0  0  0  0  0  0  0  0  0
   21.4700   12.8106  -16.8483 H   0  0  0  0  0  0  0  0  0  0  0  0
   22.7728   15.3201  -16.8773 H   0  0  0  0  0  0  0  0  0  0  0  0
   20.4289   14.4116  -18.5251 H   0  0  0  0  0  0  0  0  0  0  0  0
   22.1117   14.1713  -18.9299 H   0  0  0  0  0  0  0  0  0  0  0  0
   21.4480   15.7867  -18.8766 H   0  0  0  0  0  0  0  0  0  0  0  0
   19.4350   14.4408  -16.0875 H   0  0  0  0  0  0  0  0  0  0  0  0
   19.0480   17.1727  -14.9691 H   0  0  0  0  0  0  0  0  0  0  0  0
   18.4467   15.7316  -14.1851 H   0  0  0  0  0  0  0  0  0  0  0  0
   17.7546   16.2544  -15.7019 H   0  0  0  0  0  0  0  0  0  0  0  0
  1  2  1  0  0  0  0
  1 32  1  0  0  0  0
  1 33  1  0  0  0  0
  1 34  1  0  0  0  0
  2  3  2  0  0  0  0
  4  5  1  0  0  0  0
  4  2  1  0  0  0  0
  4 35  1  0  0  0  0
  5  6  1  0  0  0  0
  5 36  1  6  0  0  0
  6  7  2  0  0  0  0
  6 13  1  0  0  0  0
  8  5  1  0  0  0  0
  8 37  1  0  0  0  0
  8 38  1  0  0  0  0
  9  8  1  0  0  0  0
  9 39  1  0  0  0  0
  9 40  1  0  0  0  0
 10 11  1  0  0  0  0
 10  9  1  0  0  0  0
 12 10  2  0  0  0  0
 13 14  1  0  0  0  0
 13 41  1  0  0  0  0
 14 15  1  0  0  0  0
 14 17  1  0  0  0  0
 14 42  1  1  0  0  0
 15 16  2  0  0  0  0
 17 43  1  0  0  0  0
 17 44  1  0  0  0  0
 17 45  1  0  0  0  0
 18 19  1  0  0  0  0
 18 15  1  0  0  0  0
 18 46  1  0  0  0  0
 19 47  1  1  0  0  0
 20 19  1  0  0  0  0
 20 21  2  0  0  0  0
 22 23  1  0  0  0  0
 22 19  1  0  0  0  0
 22 24  1  0  0  0  0
 22 48  1  0  0  0  0
 23 49  1  0  0  0  0
 23 50  1  0  0  0  0
 23 51  1  0  0  0  0
 24 52  1  0  0  0  0
 24 53  1  0  0  0  0
 24 54  1  0  0  0  0
 25 20  1  0  0  0  0
 25 55  1  0  0  0  0
 26 25  1  0  0  0  0
 26 27  1  0  0  0  0
 26 56  1  1  0  0  0
 27 28  2  0  0  0  0
 27 30  1  0  0  0  0
 29 26  1  0  0  0  0
 29 57  1  0  0  0  0
 29 58  1  0  0  0  0
 29 59  1  0  0  0  0
 30 31  1  0  0  0  0
 30 60  1  0  0  0  0
 31 61  1  0  0  0  0
 31 62  1  0  0  0  0
 31 63  1  0  0  0  0
M  CHG  1  11  -1
M  END
>  <MODEL>
       0

$$$$
