selected_4mers/EAVK/430_noH.pdb
 OpenBabel03042517593D

 74 73  0  0  1  0  0  0  0  0999 V2000
   40.3250   46.9560   67.8940 C   0  0  0  0  0  0  0  0  0  0  0  0
   40.9080   45.6380   68.4190 C   0  0  0  0  0  0  0  0  0  0  0  0
   40.8090   44.6090   67.7460 O   0  0  0  0  0  0  0  0  0  0  0  0
   41.5040   45.6580   69.6120 N   0  0  0  0  0  0  0  0  0  0  0  0
   42.0020   44.4140   70.2190 C   0  0  2  0  0  0  0  0  0  0  0  0
   40.8600   43.4400   70.4960 C   0  0  0  0  0  0  0  0  0  0  0  0
   41.0120   42.2350   70.2960 O   0  0  0  0  0  0  0  0  0  0  0  0
   42.7880   44.6730   71.5130 C   0  0  0  0  0  0  0  0  0  0  0  0
   44.1980   45.2120   71.3100 C   0  0  0  0  0  0  0  0  0  0  0  0
   45.0010   44.4240   70.2850 C   0  0  0  0  0  0  0  0  0  0  0  0
   45.0530   43.1810   70.3780 O   0  0  0  0  0  0  0  0  0  0  0  0
   45.5800   45.0540   69.3760 O   0  0  0  0  0  0  0  0  0  0  0  0
   39.7230   43.9620   70.9530 N   0  0  0  0  0  0  0  0  0  0  0  0
   38.5440   43.1310   71.2030 C   0  0  2  0  0  0  0  0  0  0  0  0
   38.0490   42.4710   69.9180 C   0  0  0  0  0  0  0  0  0  0  0  0
   37.7010   41.2860   69.9110 O   0  0  0  0  0  0  0  0  0  0  0  0
   37.4340   43.9540   71.8370 C   0  0  0  0  0  0  0  0  0  0  0  0
   38.0210   43.2370   68.8310 N   0  0  0  0  0  0  0  0  0  0  0  0
   37.5980   42.7030   67.5370 C   0  0  2  0  0  0  0  0  0  0  0  0
   38.5600   41.6120   67.0600 C   0  0  0  0  0  0  0  0  0  0  0  0
   38.1270   40.5540   66.5970 O   0  0  0  0  0  0  0  0  0  0  0  0
   37.4880   43.8180   66.4760 C   0  0  0  0  0  0  0  0  0  0  0  0
   37.1770   43.2240   65.1010 C   0  0  0  0  0  0  0  0  0  0  0  0
   36.4280   44.8230   66.8820 C   0  0  0  0  0  0  0  0  0  0  0  0
   39.8570   41.8740   67.1990 N   0  0  0  0  0  0  0  0  0  0  0  0
   40.9080   40.9270   66.8260 C   0  0  2  0  0  0  0  0  0  0  0  0
   40.7550   39.6020   67.5680 C   0  0  0  0  0  0  0  0  0  0  0  0
   40.7940   38.5300   66.9600 O   0  0  0  0  0  0  0  0  0  0  0  0
   42.2790   41.5310   67.1310 C   0  0  0  0  0  0  0  0  0  0  0  0
   43.4410   40.9070   66.3640 C   0  0  0  0  0  0  0  0  0  0  0  0
   44.8060   41.4130   66.8470 C   0  0  0  0  0  0  0  0  0  0  0  0
   44.8710   42.9390   66.9950 C   0  0  0  0  0  0  0  0  0  0  0  0
   46.2380   43.4300   67.3510 N   0  0  0  0  0  0  0  0  0  0  0  0
   40.5830   39.6790   68.8840 N   0  0  0  0  0  0  0  0  0  0  0  0
   40.3820   38.4720   69.6920 C   0  0  0  0  0  0  0  0  0  0  0  0
   39.8812   46.7924   66.9342 H   0  0  0  0  0  0  0  0  0  0  0  0
   41.1063   47.6819   67.8066 H   0  0  0  0  0  0  0  0  0  0  0  0
   39.5809   47.3131   68.5749 H   0  0  0  0  0  0  0  0  0  0  0  0
   41.6115   46.5119   70.0901 H   0  0  0  0  0  0  0  0  0  0  0  0
   42.6710   43.9764   69.5078 H   0  0  0  0  0  0  0  0  0  0  0  0
   42.8591   43.7497   72.0491 H   0  0  0  0  0  0  0  0  0  0  0  0
   42.2506   45.4308   72.0439 H   0  0  0  0  0  0  0  0  0  0  0  0
   44.1293   46.2275   70.9800 H   0  0  0  0  0  0  0  0  0  0  0  0
   44.7083   45.1265   72.2466 H   0  0  0  0  0  0  0  0  0  0  0  0
   39.6743   44.9298   71.1268 H   0  0  0  0  0  0  0  0  0  0  0  0
   38.8288   42.3565   71.8842 H   0  0  0  0  0  0  0  0  0  0  0  0
   37.1395   44.7331   71.1653 H   0  0  0  0  0  0  0  0  0  0  0  0
   37.7869   44.3852   72.7505 H   0  0  0  0  0  0  0  0  0  0  0  0
   36.5944   43.3230   72.0415 H   0  0  0  0  0  0  0  0  0  0  0  0
   38.2902   44.1815   68.8989 H   0  0  0  0  0  0  0  0  0  0  0  0
   36.6271   42.2728   67.6682 H   0  0  0  0  0  0  0  0  0  0  0  0
   38.4282   44.3247   66.4120 H   0  0  0  0  0  0  0  0  0  0  0  0
   36.2391   42.7104   65.1382 H   0  0  0  0  0  0  0  0  0  0  0  0
   37.9495   42.5364   64.8265 H   0  0  0  0  0  0  0  0  0  0  0  0
   37.1249   44.0097   64.3765 H   0  0  0  0  0  0  0  0  0  0  0  0
   35.4794   44.3327   66.9510 H   0  0  0  0  0  0  0  0  0  0  0  0
   36.3749   45.6010   66.1494 H   0  0  0  0  0  0  0  0  0  0  0  0
   36.6815   45.2446   67.8322 H   0  0  0  0  0  0  0  0  0  0  0  0
   40.1220   42.7464   67.5704 H   0  0  0  0  0  0  0  0  0  0  0  0
   40.8209   40.7328   65.7774 H   0  0  0  0  0  0  0  0  0  0  0  0
   42.2439   42.5732   66.8911 H   0  0  0  0  0  0  0  0  0  0  0  0
   42.4668   41.3409   68.1671 H   0  0  0  0  0  0  0  0  0  0  0  0
   43.4046   39.8452   66.4910 H   0  0  0  0  0  0  0  0  0  0  0  0
   43.3374   41.1853   65.3360 H   0  0  0  0  0  0  0  0  0  0  0  0
   45.5501   41.1084   66.1410 H   0  0  0  0  0  0  0  0  0  0  0  0
   44.9740   40.9935   67.8169 H   0  0  0  0  0  0  0  0  0  0  0  0
   44.1898   43.2370   67.7644 H   0  0  0  0  0  0  0  0  0  0  0  0
   44.6124   43.3654   66.0483 H   0  0  0  0  0  0  0  0  0  0  0  0
   46.5153   43.0403   68.2519 H   0  0  0  0  0  0  0  0  0  0  0  0
   46.2290   44.4483   67.4093 H   0  0  0  0  0  0  0  0  0  0  0  0
   40.5907   40.5602   69.3229 H   0  0  0  0  0  0  0  0  0  0  0  0
   40.4022   37.6106   69.0576 H   0  0  0  0  0  0  0  0  0  0  0  0
   39.4352   38.5280   70.1873 H   0  0  0  0  0  0  0  0  0  0  0  0
   41.1619   38.3966   70.4207 H   0  0  0  0  0  0  0  0  0  0  0  0
  1  2  1  0  0  0  0
  1 36  1  0  0  0  0
  1 37  1  0  0  0  0
  1 38  1  0  0  0  0
  2  4  1  0  0  0  0
  3  2  2  0  0  0  0
  4  5  1  0  0  0  0
  4 39  1  0  0  0  0
  5  6  1  0  0  0  0
  5  8  1  0  0  0  0
  5 40  1  6  0  0  0
  6 13  1  0  0  0  0
  7  6  2  0  0  0  0
  8 41  1  0  0  0  0
  8 42  1  0  0  0  0
  9  8  1  0  0  0  0
  9 43  1  0  0  0  0
  9 44  1  0  0  0  0
 10 11  1  0  0  0  0
 10  9  1  0  0  0  0
 12 10  2  0  0  0  0
 13 14  1  0  0  0  0
 13 45  1  0  0  0  0
 14 17  1  0  0  0  0
 14 46  1  1  0  0  0
 15 14  1  0  0  0  0
 16 15  2  0  0  0  0
 17 47  1  0  0  0  0
 17 48  1  0  0  0  0
 17 49  1  0  0  0  0
 18 15  1  0  0  0  0
 18 50  1  0  0  0  0
 19 18  1  0  0  0  0
 19 51  1  1  0  0  0
 20 25  1  0  0  0  0
 20 19  1  0  0  0  0
 21 20  2  0  0  0  0
 22 24  1  0  0  0  0
 22 19  1  0  0  0  0
 22 52  1  0  0  0  0
 23 22  1  0  0  0  0
 23 53  1  0  0  0  0
 23 54  1  0  0  0  0
 23 55  1  0  0  0  0
 24 56  1  0  0  0  0
 24 57  1  0  0  0  0
 24 58  1  0  0  0  0
 25 59  1  0  0  0  0
 26 29  1  0  0  0  0
 26 25  1  0  0  0  0
 26 27  1  0  0  0  0
 26 60  1  6  0  0  0
 27 34  1  0  0  0  0
 28 27  2  0  0  0  0
 29 61  1  0  0  0  0
 29 62  1  0  0  0  0
 30 31  1  0  0  0  0
 30 29  1  0  0  0  0
 30 63  1  0  0  0  0
 30 64  1  0  0  0  0
 31 32  1  0  0  0  0
 31 65  1  0  0  0  0
 31 66  1  0  0  0  0
 32 33  1  0  0  0  0
 32 67  1  0  0  0  0
 32 68  1  0  0  0  0
 33 69  1  0  0  0  0
 33 70  1  0  0  0  0
 34 35  1  0  0  0  0
 34 71  1  0  0  0  0
 35 72  1  0  0  0  0
 35 73  1  0  0  0  0
 35 74  1  0  0  0  0
M  CHG  1  11  -1
M  END
>  <MODEL>
       0

$$$$
selected_4mers/EAVK/431_noH.pdb
 OpenBabel03042517593D

 74 73  0  0  1  0  0  0  0  0999 V2000
   -7.4300   45.4140   23.3210 C   0  0  0  0  0  0  0  0  0  0  0  0
   -7.8220   44.8720   21.9480 C   0  0  0  0  0  0  0  0  0  0  0  0
   -7.7150   43.6620   21.6850 O   0  0  0  0  0  0  0  0  0  0  0  0
   -8.2520   45.7640   21.0650 N   0  0  0  0  0  0  0  0  0  0  0  0
   -8.6550   45.3070   19.7300 C   0  0  2  0  0  0  0  0  0  0  0  0
   -7.4450   44.7080   19.0030 C   0  0  0  0  0  0  0  0  0  0  0  0
   -7.5730   43.7070   18.2510 O   0  0  0  0  0  0  0  0  0  0  0  0
   -9.3140   46.4850   18.9760 C   0  0  0  0  0  0  0  0  0  0  0  0
  -10.6190   46.9350   19.7270 C   0  0  0  0  0  0  0  0  0  0  0  0
  -11.6540   45.8050   19.8080 C   0  0  0  0  0  0  0  0  0  0  0  0
  -12.0710   45.3060   18.7410 O   0  0  0  0  0  0  0  0  0  0  0  0
  -12.0240   45.3850   20.9260 O   0  0  0  0  0  0  0  0  0  0  0  0
   -6.2770   45.3230   19.1930 N   0  0  0  0  0  0  0  0  0  0  0  0
   -5.0650   44.8500   18.5130 C   0  0  2  0  0  0  0  0  0  0  0  0
   -4.6660   43.4520   18.9590 C   0  0  0  0  0  0  0  0  0  0  0  0
   -4.2830   42.6270   18.1250 O   0  0  0  0  0  0  0  0  0  0  0  0
   -3.8790   45.8370   18.7110 C   0  0  0  0  0  0  0  0  0  0  0  0
   -4.7610   43.1780   20.2490 N   0  0  0  0  0  0  0  0  0  0  0  0
   -4.3480   41.8380   20.7190 C   0  0  2  0  0  0  0  0  0  0  0  0
   -5.4120   40.7940   20.4920 C   0  0  0  0  0  0  0  0  0  0  0  0
   -5.0920   39.5860   20.4410 O   0  0  0  0  0  0  0  0  0  0  0  0
   -3.8530   41.8040   22.2120 C   0  0  0  0  0  0  0  0  0  0  0  0
   -2.6020   42.7000   22.3910 C   0  0  0  0  0  0  0  0  0  0  0  0
   -4.9540   42.1650   23.1930 C   0  0  0  0  0  0  0  0  0  0  0  0
   -6.6610   41.2420   20.3220 N   0  0  0  0  0  0  0  0  0  0  0  0
   -7.7540   40.3230   20.0280 C   0  0  2  0  0  0  0  0  0  0  0  0
   -7.7420   39.8890   18.5720 C   0  0  0  0  0  0  0  0  0  0  0  0
   -8.2360   38.8170   18.2360 O   0  0  0  0  0  0  0  0  0  0  0  0
   -9.1020   40.9660   20.3300 C   0  0  0  0  0  0  0  0  0  0  0  0
   -9.4060   41.0550   21.8180 C   0  0  0  0  0  0  0  0  0  0  0  0
  -10.7870   41.6280   22.0880 C   0  0  0  0  0  0  0  0  0  0  0  0
  -11.8660   40.5830   21.8410 C   0  0  0  0  0  0  0  0  0  0  0  0
  -13.1080   40.8940   22.6220 N   0  0  0  0  0  0  0  0  0  0  0  0
   -7.1400   40.6960   17.7220 N   0  0  0  0  0  0  0  0  0  0  0  0
   -7.1790   40.4250   16.2910 C   0  0  0  0  0  0  0  0  0  0  0  0
   -7.5947   46.4709   23.3475 H   0  0  0  0  0  0  0  0  0  0  0  0
   -6.3956   45.2095   23.5031 H   0  0  0  0  0  0  0  0  0  0  0  0
   -8.0250   44.9413   24.0742 H   0  0  0  0  0  0  0  0  0  0  0  0
   -8.3000   46.7184   21.3019 H   0  0  0  0  0  0  0  0  0  0  0  0
   -9.3841   44.5261   19.7895 H   0  0  0  0  0  0  0  0  0  0  0  0
   -8.6290   47.3058   18.9314 H   0  0  0  0  0  0  0  0  0  0  0  0
   -9.5672   46.1722   17.9846 H   0  0  0  0  0  0  0  0  0  0  0  0
  -11.0510   47.7623   19.2036 H   0  0  0  0  0  0  0  0  0  0  0  0
  -10.3484   47.2076   20.7257 H   0  0  0  0  0  0  0  0  0  0  0  0
   -6.2271   46.1008   19.7944 H   0  0  0  0  0  0  0  0  0  0  0  0
   -5.3000   44.8059   17.4701 H   0  0  0  0  0  0  0  0  0  0  0  0
   -3.6311   45.8927   19.7504 H   0  0  0  0  0  0  0  0  0  0  0  0
   -4.1601   46.8075   18.3589 H   0  0  0  0  0  0  0  0  0  0  0  0
   -3.0301   45.4897   18.1599 H   0  0  0  0  0  0  0  0  0  0  0  0
   -5.0992   43.8512   20.8827 H   0  0  0  0  0  0  0  0  0  0  0  0
   -3.5011   41.5953   20.1118 H   0  0  0  0  0  0  0  0  0  0  0  0
   -3.5735   40.7960   22.4373 H   0  0  0  0  0  0  0  0  0  0  0  0
   -2.8563   43.7158   22.1709 H   0  0  0  0  0  0  0  0  0  0  0  0
   -1.8309   42.3731   21.7251 H   0  0  0  0  0  0  0  0  0  0  0  0
   -2.2547   42.6301   23.4006 H   0  0  0  0  0  0  0  0  0  0  0  0
   -5.2757   43.1697   23.0142 H   0  0  0  0  0  0  0  0  0  0  0  0
   -4.5821   42.0822   24.1929 H   0  0  0  0  0  0  0  0  0  0  0  0
   -5.7802   41.4975   23.0634 H   0  0  0  0  0  0  0  0  0  0  0  0
   -6.8448   42.2063   20.3965 H   0  0  0  0  0  0  0  0  0  0  0  0
   -7.6119   39.4658   20.6524 H   0  0  0  0  0  0  0  0  0  0  0  0
   -9.8683   40.3849   19.8609 H   0  0  0  0  0  0  0  0  0  0  0  0
   -9.0675   41.9668   19.9530 H   0  0  0  0  0  0  0  0  0  0  0  0
   -8.6752   41.6838   22.2821 H   0  0  0  0  0  0  0  0  0  0  0  0
   -9.3774   40.0635   22.2191 H   0  0  0  0  0  0  0  0  0  0  0  0
  -10.9528   42.4629   21.4397 H   0  0  0  0  0  0  0  0  0  0  0  0
  -10.8359   41.9347   23.1119 H   0  0  0  0  0  0  0  0  0  0  0  0
  -11.4976   39.6234   22.1381 H   0  0  0  0  0  0  0  0  0  0  0  0
  -12.1100   40.5863   20.7992 H   0  0  0  0  0  0  0  0  0  0  0  0
  -12.8916   40.8946   23.6188 H   0  0  0  0  0  0  0  0  0  0  0  0
  -13.8173   40.1870   22.4285 H   0  0  0  0  0  0  0  0  0  0  0  0
   -6.6603   41.4880   18.0564 H   0  0  0  0  0  0  0  0  0  0  0  0
   -7.7393   39.5311   16.1124 H   0  0  0  0  0  0  0  0  0  0  0  0
   -6.1816   40.2999   15.9244 H   0  0  0  0  0  0  0  0  0  0  0  0
   -7.6447   41.2449   15.7853 H   0  0  0  0  0  0  0  0  0  0  0  0
  1 36  1  0  0  0  0
  1 37  1  0  0  0  0
  1 38  1  0  0  0  0
  2  1  1  0  0  0  0
  3  2  2  0  0  0  0
  4  2  1  0  0  0  0
  4 39  1  0  0  0  0
  5  4  1  0  0  0  0
  5 40  1  1  0  0  0
  6 13  1  0  0  0  0
  6  5  1  0  0  0  0
  7  6  2  0  0  0  0
  8  9  1  0  0  0  0
  8  5  1  0  0  0  0
  8 41  1  0  0  0  0
  8 42  1  0  0  0  0
  9 10  1  0  0  0  0
  9 43  1  0  0  0  0
  9 44  1  0  0  0  0
 10 12  1  0  0  0  0
 11 10  2  0  0  0  0
 13 45  1  0  0  0  0
 14 17  1  0  0  0  0
 14 15  1  0  0  0  0
 14 13  1  0  0  0  0
 14 46  1  6  0  0  0
 15 18  1  0  0  0  0
 16 15  2  0  0  0  0
 17 47  1  0  0  0  0
 17 48  1  0  0  0  0
 17 49  1  0  0  0  0
 18 19  1  0  0  0  0
 18 50  1  0  0  0  0
 19 22  1  0  0  0  0
 19 51  1  6  0  0  0
 20 19  1  0  0  0  0
 21 20  2  0  0  0  0
 22 23  1  0  0  0  0
 22 24  1  0  0  0  0
 22 52  1  0  0  0  0
 23 53  1  0  0  0  0
 23 54  1  0  0  0  0
 23 55  1  0  0  0  0
 24 56  1  0  0  0  0
 24 57  1  0  0  0  0
 24 58  1  0  0  0  0
 25 20  1  0  0  0  0
 25 59  1  0  0  0  0
 26 25  1  0  0  0  0
 26 29  1  0  0  0  0
 26 60  1  1  0  0  0
 27 26  1  0  0  0  0
 28 27  2  0  0  0  0
 29 30  1  0  0  0  0
 29 61  1  0  0  0  0
 29 62  1  0  0  0  0
 30 31  1  0  0  0  0
 30 63  1  0  0  0  0
 30 64  1  0  0  0  0
 31 65  1  0  0  0  0
 31 66  1  0  0  0  0
 32 31  1  0  0  0  0
 32 33  1  0  0  0  0
 32 67  1  0  0  0  0
 32 68  1  0  0  0  0
 33 69  1  0  0  0  0
 33 70  1  0  0  0  0
 34 27  1  0  0  0  0
 34 71  1  0  0  0  0
 35 34  1  0  0  0  0
 35 72  1  0  0  0  0
 35 73  1  0  0  0  0
 35 74  1  0  0  0  0
M  CHG  1  12  -1
M  END
>  <MODEL>
       0

$$$$
selected_4mers/EAVK/432_noH.pdb
 OpenBabel03042517593D

 74 73  0  0  1  0  0  0  0  0999 V2000
  100.9420   44.6800   40.5650 C   0  0  0  0  0  0  0  0  0  0  0  0
  100.6060   43.3060   39.9710 C   0  0  0  0  0  0  0  0  0  0  0  0
  100.8860   43.0730   38.7900 O   0  0  0  0  0  0  0  0  0  0  0  0
  100.0120   42.4100   40.7550 N   0  0  0  0  0  0  0  0  0  0  0  0
   99.7130   41.0640   40.2540 C   0  0  2  0  0  0  0  0  0  0  0  0
   98.5420   40.9890   39.2690 C   0  0  0  0  0  0  0  0  0  0  0  0
   98.3230   39.9410   38.6550 O   0  0  0  0  0  0  0  0  0  0  0  0
   99.4950   40.0770   41.3970 C   0  0  0  0  0  0  0  0  0  0  0  0
  100.7570   39.7370   42.1750 C   0  0  0  0  0  0  0  0  0  0  0  0
  100.5910   38.4780   43.0060 C   0  0  0  0  0  0  0  0  0  0  0  0
  100.5120   38.5930   44.2430 O   0  0  0  0  0  0  0  0  0  0  0  0
  100.5350   37.3720   42.4170 O   0  0  0  0  0  0  0  0  0  0  0  0
   97.7970   42.0820   39.1210 N   0  0  0  0  0  0  0  0  0  0  0  0
   96.7190   42.1490   38.1280 C   0  0  2  0  0  0  0  0  0  0  0  0
   97.1530   42.7770   36.7990 C   0  0  0  0  0  0  0  0  0  0  0  0
   96.6890   42.3650   35.7310 O   0  0  0  0  0  0  0  0  0  0  0  0
   95.5150   42.8930   38.6900 C   0  0  0  0  0  0  0  0  0  0  0  0
   98.0380   43.7660   36.8630 N   0  0  0  0  0  0  0  0  0  0  0  0
   98.3000   44.6290   35.7130 C   0  0  2  0  0  0  0  0  0  0  0  0
   99.7520   44.5860   35.2550 C   0  0  0  0  0  0  0  0  0  0  0  0
  100.6700   44.7830   36.0500 O   0  0  0  0  0  0  0  0  0  0  0  0
   97.8640   46.0940   36.0000 C   0  0  0  0  0  0  0  0  0  0  0  0
   98.2440   47.0250   34.8490 C   0  0  0  0  0  0  0  0  0  0  0  0
   96.3740   46.1650   36.2520 C   0  0  0  0  0  0  0  0  0  0  0  0
   99.9440   44.3290   33.9620 N   0  0  0  0  0  0  0  0  0  0  0  0
  101.2620   44.3450   33.3480 C   0  0  2  0  0  0  0  0  0  0  0  0
  101.2430   45.2040   32.0830 C   0  0  0  0  0  0  0  0  0  0  0  0
  100.3690   45.0300   31.2200 O   0  0  0  0  0  0  0  0  0  0  0  0
  101.7210   42.9190   33.0270 C   0  0  0  0  0  0  0  0  0  0  0  0
  103.0720   42.8370   32.3260 C   0  0  0  0  0  0  0  0  0  0  0  0
  103.5700   41.3970   32.1710 C   0  0  0  0  0  0  0  0  0  0  0  0
  102.8860   40.6580   31.0400 C   0  0  0  0  0  0  0  0  0  0  0  0
  103.7020   39.4670   30.6360 N   0  0  0  0  0  0  0  0  0  0  0  0
  102.2030   46.1230   31.9760 N   0  0  0  0  0  0  0  0  0  0  0  0
  102.3620   46.9520   30.7780 C   0  0  0  0  0  0  0  0  0  0  0  0
  101.4127   45.2857   39.8190 H   0  0  0  0  0  0  0  0  0  0  0  0
  101.6056   44.5570   41.3953 H   0  0  0  0  0  0  0  0  0  0  0  0
  100.0421   45.1556   40.8950 H   0  0  0  0  0  0  0  0  0  0  0  0
   99.7713   42.6522   41.6784 H   0  0  0  0  0  0  0  0  0  0  0  0
  100.5854   40.7891   39.6988 H   0  0  0  0  0  0  0  0  0  0  0  0
   99.0987   39.1713   40.9876 H   0  0  0  0  0  0  0  0  0  0  0  0
   98.8255   40.5473   42.0865 H   0  0  0  0  0  0  0  0  0  0  0  0
  100.9913   40.5526   42.8267 H   0  0  0  0  0  0  0  0  0  0  0  0
  101.5438   39.5663   41.4702 H   0  0  0  0  0  0  0  0  0  0  0  0
   97.9736   42.8645   39.6917 H   0  0  0  0  0  0  0  0  0  0  0  0
   96.4489   41.1357   37.9156 H   0  0  0  0  0  0  0  0  0  0  0  0
   95.7883   43.9057   38.9013 H   0  0  0  0  0  0  0  0  0  0  0  0
   95.1896   42.4160   39.5908 H   0  0  0  0  0  0  0  0  0  0  0  0
   94.7211   42.8801   37.9728 H   0  0  0  0  0  0  0  0  0  0  0  0
   98.5277   43.9207   37.7030 H   0  0  0  0  0  0  0  0  0  0  0  0
   97.7087   44.2418   34.9097 H   0  0  0  0  0  0  0  0  0  0  0  0
   98.3828   46.4194   36.8774 H   0  0  0  0  0  0  0  0  0  0  0  0
   97.7356   46.7178   33.9590 H   0  0  0  0  0  0  0  0  0  0  0  0
   99.3011   46.9813   34.6890 H   0  0  0  0  0  0  0  0  0  0  0  0
   97.9614   48.0277   35.0931 H   0  0  0  0  0  0  0  0  0  0  0  0
   95.8486   45.8408   35.3781 H   0  0  0  0  0  0  0  0  0  0  0  0
   96.0985   47.1734   36.4802 H   0  0  0  0  0  0  0  0  0  0  0  0
   96.1210   45.5310   37.0760 H   0  0  0  0  0  0  0  0  0  0  0  0
   99.1630   44.1201   33.4002 H   0  0  0  0  0  0  0  0  0  0  0  0
  101.9583   44.7723   34.0390 H   0  0  0  0  0  0  0  0  0  0  0  0
  101.7864   42.3735   33.9452 H   0  0  0  0  0  0  0  0  0  0  0  0
  100.9998   42.5103   32.3505 H   0  0  0  0  0  0  0  0  0  0  0  0
  102.9804   43.2742   31.3537 H   0  0  0  0  0  0  0  0  0  0  0  0
  103.7824   43.3618   32.9301 H   0  0  0  0  0  0  0  0  0  0  0  0
  104.6223   41.4181   31.9785 H   0  0  0  0  0  0  0  0  0  0  0  0
  103.3428   40.8781   33.0788 H   0  0  0  0  0  0  0  0  0  0  0  0
  101.9196   40.3318   31.3635 H   0  0  0  0  0  0  0  0  0  0  0  0
  102.7862   41.3153   30.2016 H   0  0  0  0  0  0  0  0  0  0  0  0
  103.8005   38.8366   31.4318 H   0  0  0  0  0  0  0  0  0  0  0  0
  104.6249   39.7752   30.3300 H   0  0  0  0  0  0  0  0  0  0  0  0
  102.8264   46.2490   32.7275 H   0  0  0  0  0  0  0  0  0  0  0  0
  101.6109   46.6916   30.0618 H   0  0  0  0  0  0  0  0  0  0  0  0
  103.3308   46.7858   30.3552 H   0  0  0  0  0  0  0  0  0  0  0  0
  102.2604   47.9839   31.0422 H   0  0  0  0  0  0  0  0  0  0  0  0
  1 36  1  0  0  0  0
  1 37  1  0  0  0  0
  1 38  1  0  0  0  0
  2  1  1  0  0  0  0
  2  4  1  0  0  0  0
  3  2  2  0  0  0  0
  4 39  1  0  0  0  0
  5  4  1  0  0  0  0
  5  8  1  0  0  0  0
  5 40  1  6  0  0  0
  6  5  1  0  0  0  0
  7  6  2  0  0  0  0
  8  9  1  0  0  0  0
  8 41  1  0  0  0  0
  8 42  1  0  0  0  0
  9 10  1  0  0  0  0
  9 43  1  0  0  0  0
  9 44  1  0  0  0  0
 10 11  1  0  0  0  0
 12 10  2  0  0  0  0
 13  6  1  0  0  0  0
 13 45  1  0  0  0  0
 14 17  1  0  0  0  0
 14 13  1  0  0  0  0
 14 46  1  6  0  0  0
 15 18  1  0  0  0  0
 15 14  1  0  0  0  0
 16 15  2  0  0  0  0
 17 47  1  0  0  0  0
 17 48  1  0  0  0  0
 17 49  1  0  0  0  0
 18 50  1  0  0  0  0
 19 22  1  0  0  0  0
 19 18  1  0  0  0  0
 19 51  1  6  0  0  0
 20 19  1  0  0  0  0
 20 21  2  0  0  0  0
 22 24  1  0  0  0  0
 22 52  1  0  0  0  0
 23 22  1  0  0  0  0
 23 53  1  0  0  0  0
 23 54  1  0  0  0  0
 23 55  1  0  0  0  0
 24 56  1  0  0  0  0
 24 57  1  0  0  0  0
 24 58  1  0  0  0  0
 25 20  1  0  0  0  0
 25 59  1  0  0  0  0
 26 25  1  0  0  0  0
 26 60  1  1  0  0  0
 27 26  1  0  0  0  0
 28 27  2  0  0  0  0
 29 26  1  0  0  0  0
 29 61  1  0  0  0  0
 29 62  1  0  0  0  0
 30 29  1  0  0  0  0
 30 63  1  0  0  0  0
 30 64  1  0  0  0  0
 31 30  1  0  0  0  0
 31 65  1  0  0  0  0
 31 66  1  0  0  0  0
 32 31  1  0  0  0  0
 32 67  1  0  0  0  0
 32 68  1  0  0  0  0
 33 32  1  0  0  0  0
 33 69  1  0  0  0  0
 33 70  1  0  0  0  0
 34 27  1  0  0  0  0
 34 71  1  0  0  0  0
 35 34  1  0  0  0  0
 35 72  1  0  0  0  0
 35 73  1  0  0  0  0
 35 74  1  0  0  0  0
M  CHG  1  11  -1
M  END
>  <MODEL>
       0

$$$$
selected_4mers/EAVK/433_noH.pdb
 OpenBabel03042517593D

 74 73  0  0  1  0  0  0  0  0999 V2000
   18.1900   86.1270   79.5320 C   0  0  0  0  0  0  0  0  0  0  0  0
   17.8610   87.2130   78.4880 C   0  0  0  0  0  0  0  0  0  0  0  0
   16.6910   87.4440   78.1740 O   0  0  0  0  0  0  0  0  0  0  0  0
   18.8830   87.8710   77.9360 N   0  0  0  0  0  0  0  0  0  0  0  0
   18.6200   88.9120   76.9360 C   0  0  2  0  0  0  0  0  0  0  0  0
   18.1070   88.2790   75.6400 C   0  0  0  0  0  0  0  0  0  0  0  0
   17.1790   88.7890   74.9970 O   0  0  0  0  0  0  0  0  0  0  0  0
   19.8950   89.7250   76.6620 C   0  0  0  0  0  0  0  0  0  0  0  0
   19.7250   90.8770   75.6650 C   0  0  0  0  0  0  0  0  0  0  0  0
   18.5430   91.8010   75.9850 C   0  0  0  0  0  0  0  0  0  0  0  0
   18.4180   92.2160   77.1650 O   0  0  0  0  0  0  0  0  0  0  0  0
   17.7480   92.1050   75.0460 O   0  0  0  0  0  0  0  0  0  0  0  0
   18.6600   87.1150   75.2950 N   0  0  0  0  0  0  0  0  0  0  0  0
   18.2640   86.4540   74.0550 C   0  0  2  0  0  0  0  0  0  0  0  0
   16.7940   86.0110   73.9480 C   0  0  0  0  0  0  0  0  0  0  0  0
   16.2710   85.8610   72.8340 O   0  0  0  0  0  0  0  0  0  0  0  0
   19.2070   85.2620   73.7820 C   0  0  0  0  0  0  0  0  0  0  0  0
   16.1080   85.8060   75.0690 N   0  0  0  0  0  0  0  0  0  0  0  0
   14.7170   85.3570   74.9440 C   0  0  2  0  0  0  0  0  0  0  0  0
   13.6810   86.4760   75.0350 C   0  0  0  0  0  0  0  0  0  0  0  0
   12.4730   86.2340   74.8980 O   0  0  0  0  0  0  0  0  0  0  0  0
   14.3750   84.2490   75.9760 C   0  0  0  0  0  0  0  0  0  0  0  0
   15.3440   83.0630   75.7910 C   0  0  0  0  0  0  0  0  0  0  0  0
   14.4340   84.7930   77.4110 C   0  0  0  0  0  0  0  0  0  0  0  0
   14.1440   87.7040   75.2560 N   0  0  0  0  0  0  0  0  0  0  0  0
   13.2010   88.8120   75.3350 C   0  0  2  0  0  0  0  0  0  0  0  0
   12.5500   88.9890   73.9650 C   0  0  0  0  0  0  0  0  0  0  0  0
   13.2350   88.9920   72.9330 O   0  0  0  0  0  0  0  0  0  0  0  0
   13.9170   90.0980   75.7910 C   0  0  0  0  0  0  0  0  0  0  0  0
   14.3620   90.0530   77.2540 C   0  0  0  0  0  0  0  0  0  0  0  0
   15.1340   91.3240   77.6650 C   0  0  0  0  0  0  0  0  0  0  0  0
   15.5190   91.2820   79.1490 C   0  0  0  0  0  0  0  0  0  0  0  0
   16.3940   92.4220   79.5800 N   0  0  0  0  0  0  0  0  0  0  0  0
   11.2240   89.1020   73.9520 N   0  0  0  0  0  0  0  0  0  0  0  0
   10.5060   89.2540   72.6950 C   0  0  0  0  0  0  0  0  0  0  0  0
   19.2498   86.0743   79.6699 H   0  0  0  0  0  0  0  0  0  0  0  0
   17.8275   85.1807   79.1886 H   0  0  0  0  0  0  0  0  0  0  0  0
   17.7211   86.3725   80.4619 H   0  0  0  0  0  0  0  0  0  0  0  0
   19.8079   87.6590   78.1984 H   0  0  0  0  0  0  0  0  0  0  0  0
   17.8702   89.5729   77.3181 H   0  0  0  0  0  0  0  0  0  0  0  0
   20.2328   90.1361   77.5903 H   0  0  0  0  0  0  0  0  0  0  0  0
   20.5940   89.0463   76.2196 H   0  0  0  0  0  0  0  0  0  0  0  0
   20.6212   91.4616   75.6685 H   0  0  0  0  0  0  0  0  0  0  0  0
   19.5279   90.4370   74.7098 H   0  0  0  0  0  0  0  0  0  0  0  0
   19.3367   86.7008   75.8779 H   0  0  0  0  0  0  0  0  0  0  0  0
   18.3553   87.2103   73.3036 H   0  0  0  0  0  0  0  0  0  0  0  0
   19.0874   84.5289   74.5522 H   0  0  0  0  0  0  0  0  0  0  0  0
   20.2206   85.6046   73.7700 H   0  0  0  0  0  0  0  0  0  0  0  0
   18.9664   84.8266   72.8347 H   0  0  0  0  0  0  0  0  0  0  0  0
   16.5193   85.9505   75.9517 H   0  0  0  0  0  0  0  0  0  0  0  0
   14.6561   84.9593   73.9525 H   0  0  0  0  0  0  0  0  0  0  0  0
   13.3739   83.9113   75.8071 H   0  0  0  0  0  0  0  0  0  0  0  0
   16.3479   83.3932   75.9584 H   0  0  0  0  0  0  0  0  0  0  0  0
   15.2553   82.6819   74.7951 H   0  0  0  0  0  0  0  0  0  0  0  0
   15.1009   82.2913   76.4912 H   0  0  0  0  0  0  0  0  0  0  0  0
   15.4237   85.1422   77.6196 H   0  0  0  0  0  0  0  0  0  0  0  0
   14.1783   84.0140   78.0985 H   0  0  0  0  0  0  0  0  0  0  0  0
   13.7412   85.6018   77.5146 H   0  0  0  0  0  0  0  0  0  0  0  0
   15.1097   87.8615   75.3645 H   0  0  0  0  0  0  0  0  0  0  0  0
   12.4427   88.6017   76.0600 H   0  0  0  0  0  0  0  0  0  0  0  0
   13.2477   90.9232   75.6643 H   0  0  0  0  0  0  0  0  0  0  0  0
   14.7986   90.2004   75.1933 H   0  0  0  0  0  0  0  0  0  0  0  0
   14.9963   89.2030   77.3957 H   0  0  0  0  0  0  0  0  0  0  0  0
   13.4849   89.9886   77.8634 H   0  0  0  0  0  0  0  0  0  0  0  0
   14.5167   92.1800   77.4884 H   0  0  0  0  0  0  0  0  0  0  0  0
   16.0304   91.3796   77.0833 H   0  0  0  0  0  0  0  0  0  0  0  0
   16.0406   90.3668   79.3364 H   0  0  0  0  0  0  0  0  0  0  0  0
   14.6104   91.3575   79.7090 H   0  0  0  0  0  0  0  0  0  0  0  0
   17.2752   92.3869   79.0675 H   0  0  0  0  0  0  0  0  0  0  0  0
   16.5794   92.3490   80.5804 H   0  0  0  0  0  0  0  0  0  0  0  0
   10.7243   89.0826   74.8001 H   0  0  0  0  0  0  0  0  0  0  0  0
   11.2035   89.2540   71.8836 H   0  0  0  0  0  0  0  0  0  0  0  0
    9.9667   90.1781   72.7018 H   0  0  0  0  0  0  0  0  0  0  0  0
    9.8200   88.4416   72.5756 H   0  0  0  0  0  0  0  0  0  0  0  0
  1 36  1  0  0  0  0
  1 37  1  0  0  0  0
  1 38  1  0  0  0  0
  2  1  1  0  0  0  0
  3  2  2  0  0  0  0
  4  2  1  0  0  0  0
  4 39  1  0  0  0  0
  5  4  1  0  0  0  0
  5 40  1  1  0  0  0
  6  5  1  0  0  0  0
  7  6  2  0  0  0  0
  8  5  1  0  0  0  0
  8 41  1  0  0  0  0
  8 42  1  0  0  0  0
  9 10  1  0  0  0  0
  9  8  1  0  0  0  0
  9 43  1  0  0  0  0
  9 44  1  0  0  0  0
 10 11  1  0  0  0  0
 12 10  2  0  0  0  0
 13  6  1  0  0  0  0
 13 45  1  0  0  0  0
 14 13  1  0  0  0  0
 14 46  1  6  0  0  0
 15 14  1  0  0  0  0
 15 18  1  0  0  0  0
 16 15  2  0  0  0  0
 17 14  1  0  0  0  0
 17 47  1  0  0  0  0
 17 48  1  0  0  0  0
 17 49  1  0  0  0  0
 18 50  1  0  0  0  0
 19 20  1  0  0  0  0
 19 18  1  0  0  0  0
 19 22  1  0  0  0  0
 19 51  1  6  0  0  0
 20 25  1  0  0  0  0
 21 20  2  0  0  0  0
 22 24  1  0  0  0  0
 22 52  1  0  0  0  0
 23 22  1  0  0  0  0
 23 53  1  0  0  0  0
 23 54  1  0  0  0  0
 23 55  1  0  0  0  0
 24 56  1  0  0  0  0
 24 57  1  0  0  0  0
 24 58  1  0  0  0  0
 25 26  1  0  0  0  0
 25 59  1  0  0  0  0
 26 29  1  0  0  0  0
 26 60  1  1  0  0  0
 27 26  1  0  0  0  0
 28 27  2  0  0  0  0
 29 30  1  0  0  0  0
 29 61  1  0  0  0  0
 29 62  1  0  0  0  0
 30 31  1  0  0  0  0
 30 63  1  0  0  0  0
 30 64  1  0  0  0  0
 31 32  1  0  0  0  0
 31 65  1  0  0  0  0
 31 66  1  0  0  0  0
 32 33  1  0  0  0  0
 32 67  1  0  0  0  0
 32 68  1  0  0  0  0
 33 69  1  0  0  0  0
 33 70  1  0  0  0  0
 34 27  1  0  0  0  0
 34 71  1  0  0  0  0
 35 34  1  0  0  0  0
 35 72  1  0  0  0  0
 35 73  1  0  0  0  0
 35 74  1  0  0  0  0
M  CHG  1  11  -1
M  END
>  <MODEL>
       0

$$$$
selected_4mers/EAVK/434_noH.pdb
 OpenBabel03042517593D

 74 73  0  0  1  0  0  0  0  0999 V2000
   55.6910   42.2270   30.2490 C   0  0  0  0  0  0  0  0  0  0  0  0
   56.2530   43.6450   30.2950 C   0  0  0  0  0  0  0  0  0  0  0  0
   56.0980   44.3500   31.2900 O   0  0  0  0  0  0  0  0  0  0  0  0
   56.9090   44.0590   29.2160 N   0  0  0  0  0  0  0  0  0  0  0  0
   57.4880   45.3960   29.1470 C   0  0  2  0  0  0  0  0  0  0  0  0
   56.4100   46.4760   29.1870 C   0  0  0  0  0  0  0  0  0  0  0  0
   56.5480   47.4810   29.8810 O   0  0  0  0  0  0  0  0  0  0  0  0
   58.3100   45.5500   27.8610 C   0  0  0  0  0  0  0  0  0  0  0  0
   58.7610   46.9790   27.5670 C   0  0  0  0  0  0  0  0  0  0  0  0
   59.4100   47.1200   26.1980 C   0  0  0  0  0  0  0  0  0  0  0  0
   59.7510   48.2580   25.8090 O   0  0  0  0  0  0  0  0  0  0  0  0
   59.5780   46.0920   25.5120 O   0  0  0  0  0  0  0  0  0  0  0  0
   55.3330   46.2590   28.4410 N   0  0  0  0  0  0  0  0  0  0  0  0
   54.2450   47.2270   28.3660 C   0  0  2  0  0  0  0  0  0  0  0  0
   53.5110   47.4970   29.6770 C   0  0  0  0  0  0  0  0  0  0  0  0
   53.1250   48.6370   29.9480 O   0  0  0  0  0  0  0  0  0  0  0  0
   53.2440   46.7880   27.3030 C   0  0  0  0  0  0  0  0  0  0  0  0
   53.3220   46.4630   30.4910 N   0  0  0  0  0  0  0  0  0  0  0  0
   52.5870   46.6150   31.7440 C   0  0  2  0  0  0  0  0  0  0  0  0
   53.4030   47.0800   32.9470 C   0  0  0  0  0  0  0  0  0  0  0  0
   52.8400   47.4560   33.9720 O   0  0  0  0  0  0  0  0  0  0  0  0
   51.8650   45.2960   32.1300 C   0  0  0  0  0  0  0  0  0  0  0  0
   50.9950   44.8220   30.9750 C   0  0  0  0  0  0  0  0  0  0  0  0
   52.8750   44.2300   32.4990 C   0  0  0  0  0  0  0  0  0  0  0  0
   54.7240   47.0620   32.8270 N   0  0  0  0  0  0  0  0  0  0  0  0
   55.5770   47.4780   33.9350 C   0  0  2  0  0  0  0  0  0  0  0  0
   55.2590   48.8940   34.4320 C   0  0  0  0  0  0  0  0  0  0  0  0
   55.3390   49.8620   33.6780 O   0  0  0  0  0  0  0  0  0  0  0  0
   57.0490   47.3920   33.5180 C   0  0  0  0  0  0  0  0  0  0  0  0
   58.0380   47.6920   34.6310 C   0  0  0  0  0  0  0  0  0  0  0  0
   57.8890   46.7050   35.7780 C   0  0  0  0  0  0  0  0  0  0  0  0
   58.8930   46.9830   36.8880 C   0  0  0  0  0  0  0  0  0  0  0  0
   58.6620   46.0990   38.0660 N   0  0  0  0  0  0  0  0  0  0  0  0
   54.8830   48.9950   35.7040 N   0  0  0  0  0  0  0  0  0  0  0  0
   54.5850   50.2840   36.3070 C   0  0  0  0  0  0  0  0  0  0  0  0
   55.9284   41.7797   29.3064 H   0  0  0  0  0  0  0  0  0  0  0  0
   54.6284   42.2604   30.3704 H   0  0  0  0  0  0  0  0  0  0  0  0
   56.1221   41.6467   31.0379 H   0  0  0  0  0  0  0  0  0  0  0  0
   57.0061   43.4511   28.4477 H   0  0  0  0  0  0  0  0  0  0  0  0
   58.1213   45.5174   30.0008 H   0  0  0  0  0  0  0  0  0  0  0  0
   59.1814   44.9349   27.9453 H   0  0  0  0  0  0  0  0  0  0  0  0
   57.6706   45.2598   27.0537 H   0  0  0  0  0  0  0  0  0  0  0  0
   57.9074   47.6229   27.6091 H   0  0  0  0  0  0  0  0  0  0  0  0
   59.4933   47.2442   28.3007 H   0  0  0  0  0  0  0  0  0  0  0  0
   55.2674   45.4230   27.9253 H   0  0  0  0  0  0  0  0  0  0  0  0
   54.7134   48.1546   28.1110 H   0  0  0  0  0  0  0  0  0  0  0  0
   52.7988   45.8596   27.5941 H   0  0  0  0  0  0  0  0  0  0  0  0
   53.7485   46.6639   26.3676 H   0  0  0  0  0  0  0  0  0  0  0  0
   52.4822   47.5325   27.2013 H   0  0  0  0  0  0  0  0  0  0  0  0
   53.6832   45.5807   30.2453 H   0  0  0  0  0  0  0  0  0  0  0  0
   51.8936   47.4006   31.5273 H   0  0  0  0  0  0  0  0  0  0  0  0
   51.2416   45.4805   32.9798 H   0  0  0  0  0  0  0  0  0  0  0  0
   51.6094   44.6345   30.1193 H   0  0  0  0  0  0  0  0  0  0  0  0
   50.2744   45.5767   30.7382 H   0  0  0  0  0  0  0  0  0  0  0  0
   50.4895   43.9216   31.2554 H   0  0  0  0  0  0  0  0  0  0  0  0
   53.5080   44.0325   31.6592 H   0  0  0  0  0  0  0  0  0  0  0  0
   52.3617   43.3334   32.7774 H   0  0  0  0  0  0  0  0  0  0  0  0
   53.4691   44.5708   33.3211 H   0  0  0  0  0  0  0  0  0  0  0  0
   55.1327   46.7650   31.9820 H   0  0  0  0  0  0  0  0  0  0  0  0
   55.3833   46.8097   34.7479 H   0  0  0  0  0  0  0  0  0  0  0  0
   57.2136   48.0932   32.7268 H   0  0  0  0  0  0  0  0  0  0  0  0
   57.2225   46.3785   33.2220 H   0  0  0  0  0  0  0  0  0  0  0  0
   57.8622   48.6820   34.9970 H   0  0  0  0  0  0  0  0  0  0  0  0
   59.0290   47.6068   34.2365 H   0  0  0  0  0  0  0  0  0  0  0  0
   58.0470   45.7141   35.4066 H   0  0  0  0  0  0  0  0  0  0  0  0
   56.9040   46.8077   36.1831 H   0  0  0  0  0  0  0  0  0  0  0  0
   58.7984   48.0036   37.1951 H   0  0  0  0  0  0  0  0  0  0  0  0
   59.8749   46.7891   36.5096 H   0  0  0  0  0  0  0  0  0  0  0  0
   57.7291   46.2697   38.4414 H   0  0  0  0  0  0  0  0  0  0  0  0
   59.3590   46.2993   38.7833 H   0  0  0  0  0  0  0  0  0  0  0  0
   54.8048   48.1789   36.2491 H   0  0  0  0  0  0  0  0  0  0  0  0
   54.7197   51.0575   35.5801 H   0  0  0  0  0  0  0  0  0  0  0  0
   55.2440   50.4522   37.1331 H   0  0  0  0  0  0  0  0  0  0  0  0
   53.5721   50.2909   36.6517 H   0  0  0  0  0  0  0  0  0  0  0  0
  1  2  1  0  0  0  0
  1 36  1  0  0  0  0
  1 37  1  0  0  0  0
  1 38  1  0  0  0  0
  2  3  2  0  0  0  0
  4  2  1  0  0  0  0
  4 39  1  0  0  0  0
  5  6  1  0  0  0  0
  5  4  1  0  0  0  0
  5 40  1  1  0  0  0
  6  7  2  0  0  0  0
  8  5  1  0  0  0  0
  8 41  1  0  0  0  0
  8 42  1  0  0  0  0
  9  8  1  0  0  0  0
  9 43  1  0  0  0  0
  9 44  1  0  0  0  0
 10  9  1  0  0  0  0
 11 10  1  0  0  0  0
 12 10  2  0  0  0  0
 13  6  1  0  0  0  0
 13 45  1  0  0  0  0
 14 13  1  0  0  0  0
 14 15  1  0  0  0  0
 14 46  1  6  0  0  0
 15 16  2  0  0  0  0
 15 18  1  0  0  0  0
 17 14  1  0  0  0  0
 17 47  1  0  0  0  0
 17 48  1  0  0  0  0
 17 49  1  0  0  0  0
 18 19  1  0  0  0  0
 18 50  1  0  0  0  0
 19 22  1  0  0  0  0
 19 20  1  0  0  0  0
 19 51  1  6  0  0  0
 20 21  2  0  0  0  0
 22 24  1  0  0  0  0
 22 52  1  0  0  0  0
 23 22  1  0  0  0  0
 23 53  1  0  0  0  0
 23 54  1  0  0  0  0
 23 55  1  0  0  0  0
 24 56  1  0  0  0  0
 24 57  1  0  0  0  0
 24 58  1  0  0  0  0
 25 20  1  0  0  0  0
 25 26  1  0  0  0  0
 25 59  1  0  0  0  0
 26 27  1  0  0  0  0
 26 60  1  1  0  0  0
 27 34  1  0  0  0  0
 28 27  2  0  0  0  0
 29 26  1  0  0  0  0
 29 30  1  0  0  0  0
 29 61  1  0  0  0  0
 29 62  1  0  0  0  0
 30 31  1  0  0  0  0
 30 63  1  0  0  0  0
 30 64  1  0  0  0  0
 31 32  1  0  0  0  0
 31 65  1  0  0  0  0
 31 66  1  0  0  0  0
 32 33  1  0  0  0  0
 32 67  1  0  0  0  0
 32 68  1  0  0  0  0
 33 69  1  0  0  0  0
 33 70  1  0  0  0  0
 34 35  1  0  0  0  0
 34 71  1  0  0  0  0
 35 72  1  0  0  0  0
 35 73  1  0  0  0  0
 35 74  1  0  0  0  0
M  CHG  1  11  -1
M  END
>  <MODEL>
       0

$$$$
