selected_4mers/EEAL/105_noH.pdb
 OpenBabel03042517503D

 71 70  0  0  1  0  0  0  0  0999 V2000
  -64.5570   29.4630   24.9870 C   0  0  0  0  0  0  0  0  0  0  0  0
  -64.9570   28.0570   25.4190 C   0  0  0  0  0  0  0  0  0  0  0  0
  -64.1700   27.1190   25.2930 O   0  0  0  0  0  0  0  0  0  0  0  0
  -66.1880   27.9060   25.9030 N   0  0  0  0  0  0  0  0  0  0  0  0
  -66.6430   26.5870   26.3680 C   0  0  2  0  0  0  0  0  0  0  0  0
  -66.6500   25.5410   25.2600 C   0  0  0  0  0  0  0  0  0  0  0  0
  -66.1660   24.4260   25.4560 O   0  0  0  0  0  0  0  0  0  0  0  0
  -68.0180   26.6440   27.0140 C   0  0  0  0  0  0  0  0  0  0  0  0
  -68.0950   25.7140   28.2190 C   0  0  0  0  0  0  0  0  0  0  0  0
  -69.4980   25.2640   28.5380 C   0  0  0  0  0  0  0  0  0  0  0  0
  -70.4440   26.0430   28.2770 O   0  0  0  0  0  0  0  0  0  0  0  0
  -69.6470   24.1320   29.0570 O   0  0  0  0  0  0  0  0  0  0  0  0
  -67.1790   25.9100   24.0980 N   0  0  0  0  0  0  0  0  0  0  0  0
  -67.2280   24.9850   22.9650 C   0  0  2  0  0  0  0  0  0  0  0  0
  -65.8170   24.5900   22.4980 C   0  0  0  0  0  0  0  0  0  0  0  0
  -65.5600   23.4150   22.2060 O   0  0  0  0  0  0  0  0  0  0  0  0
  -68.0620   25.5690   21.8180 C   0  0  0  0  0  0  0  0  0  0  0  0
  -69.5520   25.8210   22.1330 C   0  0  0  0  0  0  0  0  0  0  0  0
  -70.2220   24.6760   22.8870 C   0  0  0  0  0  0  0  0  0  0  0  0
  -70.8300   24.9260   23.9570 O   0  0  0  0  0  0  0  0  0  0  0  0
  -70.1440   23.5290   22.4110 O   0  0  0  0  0  0  0  0  0  0  0  0
  -64.9010   25.5620   22.4700 N   0  0  0  0  0  0  0  0  0  0  0  0
  -63.5040   25.2840   22.1600 C   0  0  2  0  0  0  0  0  0  0  0  0
  -62.8990   24.2990   23.1480 C   0  0  0  0  0  0  0  0  0  0  0  0
  -62.1860   23.3760   22.7560 O   0  0  0  0  0  0  0  0  0  0  0  0
  -62.6860   26.5680   22.1210 C   0  0  0  0  0  0  0  0  0  0  0  0
  -63.2010   24.4810   24.4300 N   0  0  0  0  0  0  0  0  0  0  0  0
  -62.6970   23.5630   25.4630 C   0  0  2  0  0  0  0  0  0  0  0  0
  -63.2150   22.1190   25.3200 C   0  0  0  0  0  0  0  0  0  0  0  0
  -62.4530   21.1620   25.5050 O   0  0  0  0  0  0  0  0  0  0  0  0
  -62.9910   24.1200   26.8630 C   0  0  0  0  0  0  0  0  0  0  0  0
  -62.1420   25.3190   27.2980 C   0  0  0  0  0  0  0  0  0  0  0  0
  -62.6080   25.8240   28.6560 C   0  0  0  0  0  0  0  0  0  0  0  0
  -60.6700   24.9880   27.3270 C   0  0  0  0  0  0  0  0  0  0  0  0
  -64.4940   21.9890   24.9730 N   0  0  0  0  0  0  0  0  0  0  0  0
  -65.1040   20.6940   24.6670 C   0  0  0  0  0  0  0  0  0  0  0  0
  -63.5522   29.4509   24.6194 H   0  0  0  0  0  0  0  0  0  0  0  0
  -64.6223   30.1256   25.8246 H   0  0  0  0  0  0  0  0  0  0  0  0
  -65.2157   29.7995   24.2138 H   0  0  0  0  0  0  0  0  0  0  0  0
  -66.7954   28.6794   25.9498 H   0  0  0  0  0  0  0  0  0  0  0  0
  -65.9272   26.2911   27.1062 H   0  0  0  0  0  0  0  0  0  0  0  0
  -68.7543   26.3481   26.2962 H   0  0  0  0  0  0  0  0  0  0  0  0
  -68.1977   27.6456   27.3447 H   0  0  0  0  0  0  0  0  0  0  0  0
  -67.7018   26.2288   29.0707 H   0  0  0  0  0  0  0  0  0  0  0  0
  -67.5287   24.8383   27.9794 H   0  0  0  0  0  0  0  0  0  0  0  0
  -67.5433   26.8191   23.9979 H   0  0  0  0  0  0  0  0  0  0  0  0
  -67.7109   24.0886   23.2939 H   0  0  0  0  0  0  0  0  0  0  0  0
  -67.6234   26.5032   21.5355 H   0  0  0  0  0  0  0  0  0  0  0  0
  -68.0490   24.8309   21.0435 H   0  0  0  0  0  0  0  0  0  0  0  0
  -70.0723   25.9675   21.2096 H   0  0  0  0  0  0  0  0  0  0  0  0
  -69.5962   26.6813   22.7676 H   0  0  0  0  0  0  0  0  0  0  0  0
  -65.1758   26.4874   22.6632 H   0  0  0  0  0  0  0  0  0  0  0  0
  -63.4769   24.8359   21.1887 H   0  0  0  0  0  0  0  0  0  0  0  0
  -62.7020   27.0305   23.0857 H   0  0  0  0  0  0  0  0  0  0  0  0
  -63.1053   27.2362   21.3981 H   0  0  0  0  0  0  0  0  0  0  0  0
  -61.6760   26.3394   21.8518 H   0  0  0  0  0  0  0  0  0  0  0  0
  -63.7699   25.2408   24.6915 H   0  0  0  0  0  0  0  0  0  0  0  0
  -61.6382   23.5025   25.3208 H   0  0  0  0  0  0  0  0  0  0  0  0
  -62.8320   23.3322   27.5693 H   0  0  0  0  0  0  0  0  0  0  0  0
  -63.9991   24.4769   26.8268 H   0  0  0  0  0  0  0  0  0  0  0  0
  -62.2752   26.0939   26.5722 H   0  0  0  0  0  0  0  0  0  0  0  0
  -62.4775   25.0536   29.3870 H   0  0  0  0  0  0  0  0  0  0  0  0
  -63.6424   26.0921   28.6011 H   0  0  0  0  0  0  0  0  0  0  0  0
  -62.0317   26.6814   28.9347 H   0  0  0  0  0  0  0  0  0  0  0  0
  -60.4926   24.2135   28.0436 H   0  0  0  0  0  0  0  0  0  0  0  0
  -60.1136   25.8603   27.5996 H   0  0  0  0  0  0  0  0  0  0  0  0
  -60.3600   24.6555   26.3584 H   0  0  0  0  0  0  0  0  0  0  0  0
  -65.0528   22.7978   24.9200 H   0  0  0  0  0  0  0  0  0  0  0  0
  -64.3709   19.9213   24.7694 H   0  0  0  0  0  0  0  0  0  0  0  0
  -65.4752   20.7028   23.6635 H   0  0  0  0  0  0  0  0  0  0  0  0
  -65.9118   20.5113   25.3445 H   0  0  0  0  0  0  0  0  0  0  0  0
  1  2  1  0  0  0  0
  1 37  1  0  0  0  0
  1 38  1  0  0  0  0
  1 39  1  0  0  0  0
  2  4  1  0  0  0  0
  3  2  2  0  0  0  0
  4  5  1  0  0  0  0
  4 40  1  0  0  0  0
  5  8  1  0  0  0  0
  5 41  1  1  0  0  0
  6  7  2  0  0  0  0
  6  5  1  0  0  0  0
  8  9  1  0  0  0  0
  8 42  1  0  0  0  0
  8 43  1  0  0  0  0
  9 10  1  0  0  0  0
  9 44  1  0  0  0  0
  9 45  1  0  0  0  0
 10 12  1  0  0  0  0
 11 10  2  0  0  0  0
 13  6  1  0  0  0  0
 13 46  1  0  0  0  0
 14 13  1  0  0  0  0
 14 47  1  1  0  0  0
 15 14  1  0  0  0  0
 16 15  2  0  0  0  0
 17 18  1  0  0  0  0
 17 14  1  0  0  0  0
 17 48  1  0  0  0  0
 17 49  1  0  0  0  0
 18 19  1  0  0  0  0
 18 50  1  0  0  0  0
 18 51  1  0  0  0  0
 19 20  1  0  0  0  0
 21 19  2  0  0  0  0
 22 15  1  0  0  0  0
 22 52  1  0  0  0  0
 23 22  1  0  0  0  0
 23 24  1  0  0  0  0
 23 53  1  6  0  0  0
 24 27  1  0  0  0  0
 25 24  2  0  0  0  0
 26 23  1  0  0  0  0
 26 54  1  0  0  0  0
 26 55  1  0  0  0  0
 26 56  1  0  0  0  0
 27 28  1  0  0  0  0
 27 57  1  0  0  0  0
 28 31  1  0  0  0  0
 28 58  1  6  0  0  0
 29 28  1  0  0  0  0
 29 30  2  0  0  0  0
 31 32  1  0  0  0  0
 31 59  1  0  0  0  0
 31 60  1  0  0  0  0
 32 34  1  0  0  0  0
 32 33  1  0  0  0  0
 32 61  1  0  0  0  0
 33 62  1  0  0  0  0
 33 63  1  0  0  0  0
 33 64  1  0  0  0  0
 34 65  1  0  0  0  0
 34 66  1  0  0  0  0
 34 67  1  0  0  0  0
 35 29  1  0  0  0  0
 35 68  1  0  0  0  0
 36 35  1  0  0  0  0
 36 69  1  0  0  0  0
 36 70  1  0  0  0  0
 36 71  1  0  0  0  0
M  CHG  1  12  -1
M  CHG  1  20  -1
M  END
>  <MODEL>
       0

$$$$
selected_4mers/EEAL/106_noH.pdb
 OpenBabel03042517503D

 71 70  0  0  1  0  0  0  0  0999 V2000
   28.8430  101.8140   24.5600 C   0  0  0  0  0  0  0  0  0  0  0  0
   27.9370  101.8560   25.7910 C   0  0  0  0  0  0  0  0  0  0  0  0
   28.4140  102.1160   26.9020 O   0  0  0  0  0  0  0  0  0  0  0  0
   26.6440  101.6040   25.5980 N   0  0  0  0  0  0  0  0  0  0  0  0
   25.6700  101.6540   26.7070 C   0  0  2  0  0  0  0  0  0  0  0  0
   25.8470  100.4870   27.6600 C   0  0  0  0  0  0  0  0  0  0  0  0
   25.5880  100.5940   28.8520 O   0  0  0  0  0  0  0  0  0  0  0  0
   24.2400  101.6490   26.1350 C   0  0  0  0  0  0  0  0  0  0  0  0
   23.9970  102.8150   25.1550 C   0  0  0  0  0  0  0  0  0  0  0  0
   22.6250  102.7860   24.4570 C   0  0  0  0  0  0  0  0  0  0  0  0
   22.2050  103.8550   23.9510 O   0  0  0  0  0  0  0  0  0  0  0  0
   21.9740  101.7130   24.4050 O   0  0  0  0  0  0  0  0  0  0  0  0
   26.2990   99.3600   27.1240 N   0  0  0  0  0  0  0  0  0  0  0  0
   26.5020   98.1680   27.9200 C   0  0  2  0  0  0  0  0  0  0  0  0
   27.6780   98.2860   28.8750 C   0  0  0  0  0  0  0  0  0  0  0  0
   28.6770   98.9550   28.5690 O   0  0  0  0  0  0  0  0  0  0  0  0
   26.7380   96.9550   27.0070 C   0  0  0  0  0  0  0  0  0  0  0  0
   25.5190   96.5290   26.2080 C   0  0  0  0  0  0  0  0  0  0  0  0
   25.2110   97.4330   25.0110 C   0  0  0  0  0  0  0  0  0  0  0  0
   24.1420   97.2210   24.4070 O   0  0  0  0  0  0  0  0  0  0  0  0
   26.0200   98.3310   24.6590 O   0  0  0  0  0  0  0  0  0  0  0  0
   27.5410   97.6100   30.0150 N   0  0  0  0  0  0  0  0  0  0  0  0
   28.5640   97.5290   31.0380 C   0  0  2  0  0  0  0  0  0  0  0  0
   29.2010   96.1470   30.8130 C   0  0  0  0  0  0  0  0  0  0  0  0
   28.6560   95.1170   31.2430 O   0  0  0  0  0  0  0  0  0  0  0  0
   27.9310   97.5960   32.4190 C   0  0  0  0  0  0  0  0  0  0  0  0
   30.3380   96.1240   30.1270 N   0  0  0  0  0  0  0  0  0  0  0  0
   31.0200   94.8630   29.8220 C   0  0  2  0  0  0  0  0  0  0  0  0
   31.8580   94.4550   31.0120 C   0  0  0  0  0  0  0  0  0  0  0  0
   33.0650   94.7140   31.0540 O   0  0  0  0  0  0  0  0  0  0  0  0
   31.9060   95.0580   28.5990 C   0  0  0  0  0  0  0  0  0  0  0  0
   31.1370   95.5430   27.3720 C   0  0  0  0  0  0  0  0  0  0  0  0
   32.1410   95.7210   26.2120 C   0  0  0  0  0  0  0  0  0  0  0  0
   30.0220   94.5810   27.0110 C   0  0  0  0  0  0  0  0  0  0  0  0
   31.2140   93.8160   31.9750 N   0  0  0  0  0  0  0  0  0  0  0  0
   31.8730   93.4140   33.2170 C   0  0  0  0  0  0  0  0  0  0  0  0
   28.2593  101.5752   23.6956 H   0  0  0  0  0  0  0  0  0  0  0  0
   29.5977  101.0682   24.6979 H   0  0  0  0  0  0  0  0  0  0  0  0
   29.3059  102.7692   24.4251 H   0  0  0  0  0  0  0  0  0  0  0  0
   26.3291  101.3786   24.6929 H   0  0  0  0  0  0  0  0  0  0  0  0
   25.8401  102.5547   27.2589 H   0  0  0  0  0  0  0  0  0  0  0  0
   24.0795  100.7260   25.6181 H   0  0  0  0  0  0  0  0  0  0  0  0
   23.5599  101.7623   26.9533 H   0  0  0  0  0  0  0  0  0  0  0  0
   24.0752  103.7321   25.7006 H   0  0  0  0  0  0  0  0  0  0  0  0
   24.7331  102.7233   24.3839 H   0  0  0  0  0  0  0  0  0  0  0  0
   26.5013   99.3341   26.1609 H   0  0  0  0  0  0  0  0  0  0  0  0
   25.6131   98.0420   28.5021 H   0  0  0  0  0  0  0  0  0  0  0  0
   27.5206   97.1999   26.3197 H   0  0  0  0  0  0  0  0  0  0  0  0
   26.9883   96.1341   27.6460 H   0  0  0  0  0  0  0  0  0  0  0  0
   25.6846   95.5359   25.8457 H   0  0  0  0  0  0  0  0  0  0  0  0
   24.6790   96.5926   26.8678 H   0  0  0  0  0  0  0  0  0  0  0  0
   26.6923   97.1363   30.1720 H   0  0  0  0  0  0  0  0  0  0  0  0
   29.2730   98.3284   30.9820 H   0  0  0  0  0  0  0  0  0  0  0  0
   27.2114   96.8106   32.5200 H   0  0  0  0  0  0  0  0  0  0  0  0
   27.4465   98.5418   32.5438 H   0  0  0  0  0  0  0  0  0  0  0  0
   28.6897   97.4827   33.1650 H   0  0  0  0  0  0  0  0  0  0  0  0
   30.7310   96.9717   29.8169 H   0  0  0  0  0  0  0  0  0  0  0  0
   30.3033   94.0955   29.6167 H   0  0  0  0  0  0  0  0  0  0  0  0
   32.6591   95.7801   28.8360 H   0  0  0  0  0  0  0  0  0  0  0  0
   32.3267   94.1049   28.3551 H   0  0  0  0  0  0  0  0  0  0  0  0
   30.6678   96.4818   27.5803 H   0  0  0  0  0  0  0  0  0  0  0  0
   32.6121   94.7837   26.0011 H   0  0  0  0  0  0  0  0  0  0  0  0
   32.8839   96.4390   26.4903 H   0  0  0  0  0  0  0  0  0  0  0  0
   31.6225   96.0636   25.3409 H   0  0  0  0  0  0  0  0  0  0  0  0
   30.4374   93.6197   26.7916 H   0  0  0  0  0  0  0  0  0  0  0  0
   29.4986   94.9476   26.1528 H   0  0  0  0  0  0  0  0  0  0  0  0
   29.3432   94.4969   27.8338 H   0  0  0  0  0  0  0  0  0  0  0  0
   30.2605   93.6043   31.8515 H   0  0  0  0  0  0  0  0  0  0  0  0
   32.8988   93.7171   33.1908 H   0  0  0  0  0  0  0  0  0  0  0  0
   31.8179   92.3506   33.3220 H   0  0  0  0  0  0  0  0  0  0  0  0
   31.3845   93.8801   34.0470 H   0  0  0  0  0  0  0  0  0  0  0  0
  1  2  1  0  0  0  0
  1 37  1  0  0  0  0
  1 38  1  0  0  0  0
  1 39  1  0  0  0  0
  2  3  2  0  0  0  0
  4  2  1  0  0  0  0
  4  5  1  0  0  0  0
  4 40  1  0  0  0  0
  5  6  1  0  0  0  0
  5 41  1  1  0  0  0
  6  7  2  0  0  0  0
  8  5  1  0  0  0  0
  8 42  1  0  0  0  0
  8 43  1  0  0  0  0
  9  8  1  0  0  0  0
  9 44  1  0  0  0  0
  9 45  1  0  0  0  0
 10  9  1  0  0  0  0
 11 10  2  0  0  0  0
 12 10  1  0  0  0  0
 13  6  1  0  0  0  0
 13 14  1  0  0  0  0
 13 46  1  0  0  0  0
 14 15  1  0  0  0  0
 14 47  1  1  0  0  0
 15 22  1  0  0  0  0
 16 15  2  0  0  0  0
 17 14  1  0  0  0  0
 17 48  1  0  0  0  0
 17 49  1  0  0  0  0
 18 17  1  0  0  0  0
 18 50  1  0  0  0  0
 18 51  1  0  0  0  0
 19 18  1  0  0  0  0
 20 19  2  0  0  0  0
 21 19  1  0  0  0  0
 22 23  1  0  0  0  0
 22 52  1  0  0  0  0
 23 26  1  0  0  0  0
 23 53  1  6  0  0  0
 24 23  1  0  0  0  0
 24 25  2  0  0  0  0
 26 54  1  0  0  0  0
 26 55  1  0  0  0  0
 26 56  1  0  0  0  0
 27 24  1  0  0  0  0
 27 57  1  0  0  0  0
 28 27  1  0  0  0  0
 28 29  1  0  0  0  0
 28 58  1  6  0  0  0
 29 30  2  0  0  0  0
 29 35  1  0  0  0  0
 31 28  1  0  0  0  0
 31 59  1  0  0  0  0
 31 60  1  0  0  0  0
 32 31  1  0  0  0  0
 32 61  1  0  0  0  0
 33 32  1  0  0  0  0
 33 62  1  0  0  0  0
 33 63  1  0  0  0  0
 33 64  1  0  0  0  0
 34 32  1  0  0  0  0
 34 65  1  0  0  0  0
 34 66  1  0  0  0  0
 34 67  1  0  0  0  0
 35 36  1  0  0  0  0
 35 68  1  0  0  0  0
 36 69  1  0  0  0  0
 36 70  1  0  0  0  0
 36 71  1  0  0  0  0
M  CHG  1  12  -1
M  CHG  1  21  -1
M  END
>  <MODEL>
       0

$$$$
selected_4mers/EEAL/107_noH.pdb
 OpenBabel03042517503D

 71 70  0  0  1  0  0  0  0  0999 V2000
   29.5410  -17.4750   77.1060 C   0  0  0  0  0  0  0  0  0  0  0  0
   30.6770  -16.7960   77.8590 C   0  0  0  0  0  0  0  0  0  0  0  0
   31.7990  -16.7100   77.3530 O   0  0  0  0  0  0  0  0  0  0  0  0
   30.3910  -16.3140   79.0640 N   0  0  0  0  0  0  0  0  0  0  0  0
   31.4020  -15.6360   79.8690 C   0  0  2  0  0  0  0  0  0  0  0  0
   32.6500  -16.4930   80.0610 C   0  0  0  0  0  0  0  0  0  0  0  0
   33.7710  -15.9890   80.0380 O   0  0  0  0  0  0  0  0  0  0  0  0
   30.8290  -15.2740   81.2410 C   0  0  0  0  0  0  0  0  0  0  0  0
   29.6600  -14.2930   81.2190 C   0  0  0  0  0  0  0  0  0  0  0  0
   30.0560  -12.9020   80.7400 C   0  0  0  0  0  0  0  0  0  0  0  0
   31.1890  -12.4680   81.0450 O   0  0  0  0  0  0  0  0  0  0  0  0
   29.2280  -12.2380   80.0740 O   0  0  0  0  0  0  0  0  0  0  0  0
   32.4370  -17.7910   80.2510 N   0  0  0  0  0  0  0  0  0  0  0  0
   33.5150  -18.7460   80.4760 C   0  0  2  0  0  0  0  0  0  0  0  0
   34.4710  -18.8860   79.2950 C   0  0  0  0  0  0  0  0  0  0  0  0
   35.6350  -19.2350   79.4780 O   0  0  0  0  0  0  0  0  0  0  0  0
   32.9120  -20.1130   80.8280 C   0  0  0  0  0  0  0  0  0  0  0  0
   33.8980  -21.2690   80.8450 C   0  0  0  0  0  0  0  0  0  0  0  0
   33.2640  -22.5690   81.3300 C   0  0  0  0  0  0  0  0  0  0  0  0
   32.1380  -22.8940   80.8880 O   0  0  0  0  0  0  0  0  0  0  0  0
   33.8990  -23.2680   82.1500 O   0  0  0  0  0  0  0  0  0  0  0  0
   33.9790  -18.6140   78.0900 N   0  0  0  0  0  0  0  0  0  0  0  0
   34.8000  -18.7230   76.8850 C   0  0  2  0  0  0  0  0  0  0  0  0
   35.7710  -17.5530   76.7240 C   0  0  0  0  0  0  0  0  0  0  0  0
   36.7540  -17.6520   75.9880 O   0  0  0  0  0  0  0  0  0  0  0  0
   33.9060  -18.8260   75.6610 C   0  0  0  0  0  0  0  0  0  0  0  0
   35.4950  -16.4480   77.4100 N   0  0  0  0  0  0  0  0  0  0  0  0
   36.3550  -15.2710   77.3280 C   0  0  2  0  0  0  0  0  0  0  0  0
   37.0850  -14.9870   78.6390 C   0  0  0  0  0  0  0  0  0  0  0  0
   36.4800  -14.5340   79.6160 O   0  0  0  0  0  0  0  0  0  0  0  0
   35.5310  -14.0410   76.9280 C   0  0  0  0  0  0  0  0  0  0  0  0
   36.2610  -12.6920   76.9590 C   0  0  0  0  0  0  0  0  0  0  0  0
   37.4460  -12.7190   76.0020 C   0  0  0  0  0  0  0  0  0  0  0  0
   35.2960  -11.5800   76.5830 C   0  0  0  0  0  0  0  0  0  0  0  0
   38.4030  -15.2460   78.6760 N   0  0  0  0  0  0  0  0  0  0  0  0
   39.1840  -14.9990   79.8920 C   0  0  0  0  0  0  0  0  0  0  0  0
   29.8968  -17.8172   76.1567 H   0  0  0  0  0  0  0  0  0  0  0  0
   28.7439  -16.7767   76.9576 H   0  0  0  0  0  0  0  0  0  0  0  0
   29.1840  -18.3082   77.6746 H   0  0  0  0  0  0  0  0  0  0  0  0
   29.4791  -16.4163   79.4207 H   0  0  0  0  0  0  0  0  0  0  0  0
   31.6822  -14.7490   79.3402 H   0  0  0  0  0  0  0  0  0  0  0  0
   31.6145  -14.8399   81.8237 H   0  0  0  0  0  0  0  0  0  0  0  0
   30.4449  -16.1843   81.6518 H   0  0  0  0  0  0  0  0  0  0  0  0
   28.9057  -14.6767   80.5642 H   0  0  0  0  0  0  0  0  0  0  0  0
   29.3063  -14.1956   82.2241 H   0  0  0  0  0  0  0  0  0  0  0  0
   31.5100  -18.1222   80.2393 H   0  0  0  0  0  0  0  0  0  0  0  0
   34.1016  -18.3667   81.2865 H   0  0  0  0  0  0  0  0  0  0  0  0
   32.1530  -20.3356   80.1074 H   0  0  0  0  0  0  0  0  0  0  0  0
   32.5395  -20.0252   81.8272 H   0  0  0  0  0  0  0  0  0  0  0  0
   34.7093  -21.0188   81.4963 H   0  0  0  0  0  0  0  0  0  0  0  0
   34.2339  -21.4252   79.8412 H   0  0  0  0  0  0  0  0  0  0  0  0
   33.0393  -18.3324   78.0072 H   0  0  0  0  0  0  0  0  0  0  0  0
   35.3911  -19.6093   76.9847 H   0  0  0  0  0  0  0  0  0  0  0  0
   33.3201  -17.9352   75.5713 H   0  0  0  0  0  0  0  0  0  0  0  0
   33.2573  -19.6708   75.7632 H   0  0  0  0  0  0  0  0  0  0  0  0
   34.5110  -18.9446   74.7864 H   0  0  0  0  0  0  0  0  0  0  0  0
   34.6956  -16.4230   77.9841 H   0  0  0  0  0  0  0  0  0  0  0  0
   37.0942  -15.4783   76.5826 H   0  0  0  0  0  0  0  0  0  0  0  0
   35.1768  -14.1967   75.9304 H   0  0  0  0  0  0  0  0  0  0  0  0
   34.7591  -13.9637   77.6650 H   0  0  0  0  0  0  0  0  0  0  0  0
   36.6284  -12.5097   77.9473 H   0  0  0  0  0  0  0  0  0  0  0  0
   37.0968  -12.9005   75.0070 H   0  0  0  0  0  0  0  0  0  0  0  0
   38.1202  -13.4979   76.2911 H   0  0  0  0  0  0  0  0  0  0  0  0
   37.9533  -11.7775   76.0358 H   0  0  0  0  0  0  0  0  0  0  0  0
   34.9215  -11.7515   75.5955 H   0  0  0  0  0  0  0  0  0  0  0  0
   35.8061  -10.6399   76.6127 H   0  0  0  0  0  0  0  0  0  0  0  0
   34.4809  -11.5656   77.2761 H   0  0  0  0  0  0  0  0  0  0  0  0
   38.8500  -15.6063   77.8762 H   0  0  0  0  0  0  0  0  0  0  0  0
   38.5424  -14.6109   80.6553 H   0  0  0  0  0  0  0  0  0  0  0  0
   39.9572  -14.2900   79.6814 H   0  0  0  0  0  0  0  0  0  0  0  0
   39.6224  -15.9159   80.2267 H   0  0  0  0  0  0  0  0  0  0  0  0
  1  2  1  0  0  0  0
  1 37  1  0  0  0  0
  1 38  1  0  0  0  0
  1 39  1  0  0  0  0
  2  4  1  0  0  0  0
  3  2  2  0  0  0  0
  4  5  1  0  0  0  0
  4 40  1  0  0  0  0
  5  6  1  0  0  0  0
  5  8  1  0  0  0  0
  5 41  1  6  0  0  0
  6 13  1  0  0  0  0
  7  6  2  0  0  0  0
  8 42  1  0  0  0  0
  8 43  1  0  0  0  0
  9  8  1  0  0  0  0
  9 44  1  0  0  0  0
  9 45  1  0  0  0  0
 10 11  1  0  0  0  0
 10  9  1  0  0  0  0
 12 10  2  0  0  0  0
 13 14  1  0  0  0  0
 13 46  1  0  0  0  0
 14 17  1  0  0  0  0
 14 47  1  1  0  0  0
 15 16  2  0  0  0  0
 15 14  1  0  0  0  0
 17 18  1  0  0  0  0
 17 48  1  0  0  0  0
 17 49  1  0  0  0  0
 18 19  1  0  0  0  0
 18 50  1  0  0  0  0
 18 51  1  0  0  0  0
 19 21  1  0  0  0  0
 20 19  2  0  0  0  0
 22 15  1  0  0  0  0
 22 52  1  0  0  0  0
 23 22  1  0  0  0  0
 23 53  1  1  0  0  0
 24 23  1  0  0  0  0
 24 27  1  0  0  0  0
 25 24  2  0  0  0  0
 26 23  1  0  0  0  0
 26 54  1  0  0  0  0
 26 55  1  0  0  0  0
 26 56  1  0  0  0  0
 27 57  1  0  0  0  0
 28 27  1  0  0  0  0
 28 29  1  0  0  0  0
 28 58  1  6  0  0  0
 29 35  1  0  0  0  0
 29 30  2  0  0  0  0
 31 32  1  0  0  0  0
 31 28  1  0  0  0  0
 31 59  1  0  0  0  0
 31 60  1  0  0  0  0
 32 61  1  0  0  0  0
 33 32  1  0  0  0  0
 33 62  1  0  0  0  0
 33 63  1  0  0  0  0
 33 64  1  0  0  0  0
 34 32  1  0  0  0  0
 34 65  1  0  0  0  0
 34 66  1  0  0  0  0
 34 67  1  0  0  0  0
 35 36  1  0  0  0  0
 35 68  1  0  0  0  0
 36 69  1  0  0  0  0
 36 70  1  0  0  0  0
 36 71  1  0  0  0  0
M  CHG  1  11  -1
M  CHG  1  21  -1
M  END
>  <MODEL>
       0

$$$$
selected_4mers/EEAL/108_noH.pdb
 OpenBabel03042517503D

 71 70  0  0  1  0  0  0  0  0999 V2000
   19.3640  -28.9690   53.5090 C   0  0  0  0  0  0  0  0  0  0  0  0
   19.0100  -29.7550   54.7680 C   0  0  0  0  0  0  0  0  0  0  0  0
   19.1210  -30.9790   54.8020 O   0  0  0  0  0  0  0  0  0  0  0  0
   18.5870  -29.0210   55.7940 N   0  0  0  0  0  0  0  0  0  0  0  0
   18.1760  -29.5820   57.0800 C   0  0  2  0  0  0  0  0  0  0  0  0
   19.3040  -30.1220   57.9540 C   0  0  0  0  0  0  0  0  0  0  0  0
   19.0760  -30.4660   59.1100 O   0  0  0  0  0  0  0  0  0  0  0  0
   17.1410  -30.6940   56.8680 C   0  0  0  0  0  0  0  0  0  0  0  0
   15.9000  -30.2650   56.1080 C   0  0  0  0  0  0  0  0  0  0  0  0
   15.0310  -29.3010   56.8890 C   0  0  0  0  0  0  0  0  0  0  0  0
   15.5150  -28.2000   57.2270 O   0  0  0  0  0  0  0  0  0  0  0  0
   13.8630  -29.6510   57.1690 O   0  0  0  0  0  0  0  0  0  0  0  0
   20.5180  -30.2000   57.4280 N   0  0  0  0  0  0  0  0  0  0  0  0
   21.6040  -30.7300   58.2400 C   0  0  2  0  0  0  0  0  0  0  0  0
   22.2730  -29.7390   59.1870 C   0  0  0  0  0  0  0  0  0  0  0  0
   22.0420  -28.5330   59.1170 O   0  0  0  0  0  0  0  0  0  0  0  0
   22.6330  -31.4310   57.3530 C   0  0  0  0  0  0  0  0  0  0  0  0
   22.1550  -32.8100   56.9130 C   0  0  0  0  0  0  0  0  0  0  0  0
   21.6560  -33.6400   58.0880 C   0  0  0  0  0  0  0  0  0  0  0  0
   20.4320  -33.8640   58.1930 O   0  0  0  0  0  0  0  0  0  0  0  0
   22.4890  -34.0540   58.9180 O   0  0  0  0  0  0  0  0  0  0  0  0
   23.0890  -30.2910   60.0830 N   0  0  0  0  0  0  0  0  0  0  0  0
   23.7990  -29.5570   61.1280 C   0  0  2  0  0  0  0  0  0  0  0  0
   24.4360  -28.2190   60.7630 C   0  0  0  0  0  0  0  0  0  0  0  0
   24.3300  -27.2530   61.5190 O   0  0  0  0  0  0  0  0  0  0  0  0
   24.8530  -30.4700   61.7570 C   0  0  0  0  0  0  0  0  0  0  0  0
   25.0990  -28.1580   59.6170 N   0  0  0  0  0  0  0  0  0  0  0  0
   25.7570  -26.9270   59.1970 C   0  0  2  0  0  0  0  0  0  0  0  0
   25.1420  -26.3810   57.9150 C   0  0  0  0  0  0  0  0  0  0  0  0
   25.8370  -25.7670   57.1040 O   0  0  0  0  0  0  0  0  0  0  0  0
   27.2500  -27.1970   58.9890 C   0  0  0  0  0  0  0  0  0  0  0  0
   28.0040  -27.6790   60.2350 C   0  0  0  0  0  0  0  0  0  0  0  0
   29.3500  -28.2610   59.8410 C   0  0  0  0  0  0  0  0  0  0  0  0
   28.1720  -26.5230   61.2000 C   0  0  0  0  0  0  0  0  0  0  0  0
   23.8390  -26.5920   57.7440 N   0  0  0  0  0  0  0  0  0  0  0  0
   23.1480  -26.1320   56.5450 C   0  0  0  0  0  0  0  0  0  0  0  0
   19.6911  -29.6449   52.7467 H   0  0  0  0  0  0  0  0  0  0  0  0
   20.1477  -28.2749   53.7304 H   0  0  0  0  0  0  0  0  0  0  0  0
   18.5015  -28.4360   53.1670 H   0  0  0  0  0  0  0  0  0  0  0  0
   18.5486  -28.0438   55.6806 H   0  0  0  0  0  0  0  0  0  0  0  0
   17.7627  -28.7508   57.6121 H   0  0  0  0  0  0  0  0  0  0  0  0
   17.6094  -31.4863   56.3223 H   0  0  0  0  0  0  0  0  0  0  0  0
   16.8124  -30.9922   57.8417 H   0  0  0  0  0  0  0  0  0  0  0  0
   15.3223  -31.1361   55.8792 H   0  0  0  0  0  0  0  0  0  0  0  0
   16.2256  -29.7579   55.2239 H   0  0  0  0  0  0  0  0  0  0  0  0
   20.6827  -29.9044   56.5035 H   0  0  0  0  0  0  0  0  0  0  0  0
   21.1393  -31.4353   58.8969 H   0  0  0  0  0  0  0  0  0  0  0  0
   22.8072  -30.8313   56.4842 H   0  0  0  0  0  0  0  0  0  0  0  0
   23.5315  -31.5558   57.9205 H   0  0  0  0  0  0  0  0  0  0  0  0
   22.9683  -33.3253   56.4462 H   0  0  0  0  0  0  0  0  0  0  0  0
   21.3407  -32.6768   56.2318 H   0  0  0  0  0  0  0  0  0  0  0  0
   23.2238  -31.2652   60.0380 H   0  0  0  0  0  0  0  0  0  0  0  0
   23.0217  -29.2783   61.8085 H   0  0  0  0  0  0  0  0  0  0  0  0
   25.5979  -30.7104   61.0274 H   0  0  0  0  0  0  0  0  0  0  0  0
   24.3865  -31.3697   62.1002 H   0  0  0  0  0  0  0  0  0  0  0  0
   25.3119  -29.9685   62.5834 H   0  0  0  0  0  0  0  0  0  0  0  0
   25.1477  -28.9552   59.0414 H   0  0  0  0  0  0  0  0  0  0  0  0
   25.6240  -26.1914   59.9626 H   0  0  0  0  0  0  0  0  0  0  0  0
   27.7076  -26.2892   58.6551 H   0  0  0  0  0  0  0  0  0  0  0  0
   27.3124  -27.9929   58.2765 H   0  0  0  0  0  0  0  0  0  0  0  0
   27.4417  -28.4504   60.7184 H   0  0  0  0  0  0  0  0  0  0  0  0
   29.9350  -27.5090   59.3540 H   0  0  0  0  0  0  0  0  0  0  0  0
   29.2011  -29.0845   59.1742 H   0  0  0  0  0  0  0  0  0  0  0  0
   29.8624  -28.5996   60.7172 H   0  0  0  0  0  0  0  0  0  0  0  0
   28.7334  -25.7436   60.7286 H   0  0  0  0  0  0  0  0  0  0  0  0
   28.6920  -26.8594   62.0725 H   0  0  0  0  0  0  0  0  0  0  0  0
   27.2092  -26.1496   61.4804 H   0  0  0  0  0  0  0  0  0  0  0  0
   23.3317  -27.0680   58.4407 H   0  0  0  0  0  0  0  0  0  0  0  0
   23.8442  -25.6389   55.8992 H   0  0  0  0  0  0  0  0  0  0  0  0
   22.3717  -25.4491   56.8206 H   0  0  0  0  0  0  0  0  0  0  0  0
   22.7211  -26.9705   56.0355 H   0  0  0  0  0  0  0  0  0  0  0  0
  1  2  1  0  0  0  0
  1 37  1  0  0  0  0
  1 38  1  0  0  0  0
  1 39  1  0  0  0  0
  2  3  2  0  0  0  0
  2  4  1  0  0  0  0
  4  5  1  0  0  0  0
  4 40  1  0  0  0  0
  5  6  1  0  0  0  0
  5 41  1  1  0  0  0
  6  7  2  0  0  0  0
  8  5  1  0  0  0  0
  8 42  1  0  0  0  0
  8 43  1  0  0  0  0
  9  8  1  0  0  0  0
  9 10  1  0  0  0  0
  9 44  1  0  0  0  0
  9 45  1  0  0  0  0
 10 12  2  0  0  0  0
 10 11  1  0  0  0  0
 13  6  1  0  0  0  0
 13 14  1  0  0  0  0
 13 46  1  0  0  0  0
 14 15  1  0  0  0  0
 14 47  1  1  0  0  0
 15 22  1  0  0  0  0
 16 15  2  0  0  0  0
 17 14  1  0  0  0  0
 17 48  1  0  0  0  0
 17 49  1  0  0  0  0
 18 17  1  0  0  0  0
 18 19  1  0  0  0  0
 18 50  1  0  0  0  0
 18 51  1  0  0  0  0
 19 20  2  0  0  0  0
 19 21  1  0  0  0  0
 22 23  1  0  0  0  0
 22 52  1  0  0  0  0
 23 26  1  0  0  0  0
 23 53  1  1  0  0  0
 24 23  1  0  0  0  0
 24 25  2  0  0  0  0
 26 54  1  0  0  0  0
 26 55  1  0  0  0  0
 26 56  1  0  0  0  0
 27 24  1  0  0  0  0
 27 57  1  0  0  0  0
 28 27  1  0  0  0  0
 28 58  1  1  0  0  0
 29 28  1  0  0  0  0
 30 29  2  0  0  0  0
 31 28  1  0  0  0  0
 31 32  1  0  0  0  0
 31 59  1  0  0  0  0
 31 60  1  0  0  0  0
 32 34  1  0  0  0  0
 32 61  1  0  0  0  0
 33 32  1  0  0  0  0
 33 62  1  0  0  0  0
 33 63  1  0  0  0  0
 33 64  1  0  0  0  0
 34 65  1  0  0  0  0
 34 66  1  0  0  0  0
 34 67  1  0  0  0  0
 35 29  1  0  0  0  0
 35 68  1  0  0  0  0
 36 35  1  0  0  0  0
 36 69  1  0  0  0  0
 36 70  1  0  0  0  0
 36 71  1  0  0  0  0
M  CHG  1  11  -1
M  CHG  1  21  -1
M  END
>  <MODEL>
       0

$$$$
selected_4mers/EEAL/109_noH.pdb
 OpenBabel03042517503D

 71 70  0  0  1  0  0  0  0  0999 V2000
   20.3170   -6.1680   12.9470 C   0  0  0  0  0  0  0  0  0  0  0  0
   18.7880   -6.0350   13.0690 C   0  0  0  0  0  0  0  0  0  0  0  0
   18.2940   -5.1710   13.7880 O   0  0  0  0  0  0  0  0  0  0  0  0
   18.0730   -6.9290   12.3850 N   0  0  0  0  0  0  0  0  0  0  0  0
   16.6220   -6.9060   12.3060 C   0  0  2  0  0  0  0  0  0  0  0  0
   15.8520   -7.2440   13.5850 C   0  0  0  0  0  0  0  0  0  0  0  0
   14.6530   -6.9940   13.6430 O   0  0  0  0  0  0  0  0  0  0  0  0
   16.1190   -7.7550   11.1420 C   0  0  0  0  0  0  0  0  0  0  0  0
   16.6410   -7.2690    9.7650 C   0  0  0  0  0  0  0  0  0  0  0  0
   17.9470   -7.9260    9.3590 C   0  0  0  0  0  0  0  0  0  0  0  0
   18.6790   -8.4570   10.2470 O   0  0  0  0  0  0  0  0  0  0  0  0
   18.2240   -7.9160    8.1350 O   0  0  0  0  0  0  0  0  0  0  0  0
   16.5300   -7.7520   14.6170 N   0  0  0  0  0  0  0  0  0  0  0  0
   15.8850   -8.0190   15.9060 C   0  0  2  0  0  0  0  0  0  0  0  0
   16.5430   -7.2420   17.0810 C   0  0  0  0  0  0  0  0  0  0  0  0
   16.0410   -7.2880   18.2080 O   0  0  0  0  0  0  0  0  0  0  0  0
   15.9210   -9.5260   16.1950 C   0  0  0  0  0  0  0  0  0  0  0  0
   17.3410  -10.0240   16.5800 C   0  0  0  0  0  0  0  0  0  0  0  0
   17.5250  -11.5450   16.5390 C   0  0  0  0  0  0  0  0  0  0  0  0
   16.5690  -12.2920   16.8490 O   0  0  0  0  0  0  0  0  0  0  0  0
   18.6440  -11.9840   16.1810 O   0  0  0  0  0  0  0  0  0  0  0  0
   17.6500   -6.5410   16.8330 N   0  0  0  0  0  0  0  0  0  0  0  0
   18.3700   -5.8550   17.8930 C   0  0  2  0  0  0  0  0  0  0  0  0
   17.5290   -4.6810   18.4280 C   0  0  0  0  0  0  0  0  0  0  0  0
   16.6870   -4.1030   17.7100 O   0  0  0  0  0  0  0  0  0  0  0  0
   19.8020   -5.3730   17.4050 C   0  0  0  0  0  0  0  0  0  0  0  0
   17.7160   -4.3800   19.7010 N   0  0  0  0  0  0  0  0  0  0  0  0
   17.0270   -3.2760   20.3480 C   0  0  2  0  0  0  0  0  0  0  0  0
   18.0390   -2.3990   21.0830 C   0  0  0  0  0  0  0  0  0  0  0  0
   19.0930   -2.8800   21.5100 O   0  0  0  0  0  0  0  0  0  0  0  0
   15.9950   -3.8050   21.3310 C   0  0  0  0  0  0  0  0  0  0  0  0
   14.9100   -4.7070   20.7280 C   0  0  0  0  0  0  0  0  0  0  0  0
   14.0800   -5.3700   21.8230 C   0  0  0  0  0  0  0  0  0  0  0  0
   14.0160   -3.8890   19.7820 C   0  0  0  0  0  0  0  0  0  0  0  0
   17.6970   -1.1100   21.2000 N   0  0  0  0  0  0  0  0  0  0  0  0
   18.4460   -0.1530   21.9960 C   0  0  0  0  0  0  0  0  0  0  0  0
   20.5531   -6.9710   12.2805 H   0  0  0  0  0  0  0  0  0  0  0  0
   20.7355   -6.3697   13.9109 H   0  0  0  0  0  0  0  0  0  0  0  0
   20.7250   -5.2556   12.5649 H   0  0  0  0  0  0  0  0  0  0  0  0
   18.5541   -7.6432   11.9078 H   0  0  0  0  0  0  0  0  0  0  0  0
   16.4057   -5.8713   12.1401 H   0  0  0  0  0  0  0  0  0  0  0  0
   16.4419   -8.7640   11.2919 H   0  0  0  0  0  0  0  0  0  0  0  0
   15.0522   -7.6743   11.1256 H   0  0  0  0  0  0  0  0  0  0  0  0
   15.9027   -7.4912    9.0230 H   0  0  0  0  0  0  0  0  0  0  0  0
   16.8237   -6.2178    9.8455 H   0  0  0  0  0  0  0  0  0  0  0  0
   17.4879   -7.9524   14.5095 H   0  0  0  0  0  0  0  0  0  0  0  0
   14.8738   -7.6769   15.8322 H   0  0  0  0  0  0  0  0  0  0  0  0
   15.5987  -10.0510   15.3201 H   0  0  0  0  0  0  0  0  0  0  0  0
   15.2742   -9.7131   17.0266 H   0  0  0  0  0  0  0  0  0  0  0  0
   17.5518   -9.6905   17.5746 H   0  0  0  0  0  0  0  0  0  0  0  0
   18.0089   -9.6213   15.8475 H   0  0  0  0  0  0  0  0  0  0  0  0
   17.9877   -6.4868   15.9098 H   0  0  0  0  0  0  0  0  0  0  0  0
   18.5322   -6.5454   18.6942 H   0  0  0  0  0  0  0  0  0  0  0  0
   19.6889   -4.6773   16.5999 H   0  0  0  0  0  0  0  0  0  0  0  0
   20.3675   -6.2173   17.0700 H   0  0  0  0  0  0  0  0  0  0  0  0
   20.3146   -4.8996   18.2162 H   0  0  0  0  0  0  0  0  0  0  0  0
   18.3443   -4.9229   20.2299 H   0  0  0  0  0  0  0  0  0  0  0  0
   16.5271   -2.6934   19.6026 H   0  0  0  0  0  0  0  0  0  0  0  0
   15.5111   -2.9654   21.7846 H   0  0  0  0  0  0  0  0  0  0  0  0
   16.5350   -4.4172   22.0228 H   0  0  0  0  0  0  0  0  0  0  0  0
   15.3846   -5.4842   20.1662 H   0  0  0  0  0  0  0  0  0  0  0  0
   13.5907   -4.6171   22.4049 H   0  0  0  0  0  0  0  0  0  0  0  0
   14.7206   -5.9490   22.4549 H   0  0  0  0  0  0  0  0  0  0  0  0
   13.3466   -6.0089   21.3772 H   0  0  0  0  0  0  0  0  0  0  0  0
   13.5352   -3.1075   20.3325 H   0  0  0  0  0  0  0  0  0  0  0  0
   13.2751   -4.5285   19.3495 H   0  0  0  0  0  0  0  0  0  0  0  0
   14.6154   -3.4616   19.0055 H   0  0  0  0  0  0  0  0  0  0  0  0
   16.8964   -0.7943   20.7218 H   0  0  0  0  0  0  0  0  0  0  0  0
   19.2815   -0.6434   22.4503 H   0  0  0  0  0  0  0  0  0  0  0  0
   17.8122    0.2510   22.7576 H   0  0  0  0  0  0  0  0  0  0  0  0
   18.7959    0.6382   21.3664 H   0  0  0  0  0  0  0  0  0  0  0  0
  1  2  1  0  0  0  0
  1 37  1  0  0  0  0
  1 38  1  0  0  0  0
  1 39  1  0  0  0  0
  2  3  2  0  0  0  0
  4  2  1  0  0  0  0
  4 40  1  0  0  0  0
  5  4  1  0  0  0  0
  5  6  1  0  0  0  0
  5 41  1  6  0  0  0
  6  7  2  0  0  0  0
  6 13  1  0  0  0  0
  8  5  1  0  0  0  0
  8 42  1  0  0  0  0
  8 43  1  0  0  0  0
  9  8  1  0  0  0  0
  9 44  1  0  0  0  0
  9 45  1  0  0  0  0
 10  9  1  0  0  0  0
 10 11  1  0  0  0  0
 12 10  2  0  0  0  0
 13 14  1  0  0  0  0
 13 46  1  0  0  0  0
 14 17  1  0  0  0  0
 14 15  1  0  0  0  0
 14 47  1  6  0  0  0
 15 16  2  0  0  0  0
 17 18  1  0  0  0  0
 17 48  1  0  0  0  0
 17 49  1  0  0  0  0
 18 50  1  0  0  0  0
 18 51  1  0  0  0  0
 19 18  1  0  0  0  0
 19 20  1  0  0  0  0
 21 19  2  0  0  0  0
 22 15  1  0  0  0  0
 22 23  1  0  0  0  0
 22 52  1  0  0  0  0
 23 24  1  0  0  0  0
 23 53  1  1  0  0  0
 24 27  1  0  0  0  0
 25 24  2  0  0  0  0
 26 23  1  0  0  0  0
 26 54  1  0  0  0  0
 26 55  1  0  0  0  0
 26 56  1  0  0  0  0
 27 28  1  0  0  0  0
 27 57  1  0  0  0  0
 28 29  1  0  0  0  0
 28 31  1  0  0  0  0
 28 58  1  6  0  0  0
 29 35  1  0  0  0  0
 29 30  2  0  0  0  0
 31 59  1  0  0  0  0
 31 60  1  0  0  0  0
 32 31  1  0  0  0  0
 32 33  1  0  0  0  0
 32 61  1  0  0  0  0
 33 62  1  0  0  0  0
 33 63  1  0  0  0  0
 33 64  1  0  0  0  0
 34 32  1  0  0  0  0
 34 65  1  0  0  0  0
 34 66  1  0  0  0  0
 34 67  1  0  0  0  0
 35 36  1  0  0  0  0
 35 68  1  0  0  0  0
 36 69  1  0  0  0  0
 36 70  1  0  0  0  0
 36 71  1  0  0  0  0
M  CHG  1  11  -1
M  CHG  1  20  -1
M  END
>  <MODEL>
       0

$$$$
