selected_4mers/EELK/175_noH.pdb
 OpenBabel03042517503D

 82 81  0  0  1  0  0  0  0  0999 V2000
   -4.6890   -8.6780  -45.0710 C   0  0  0  0  0  0  0  0  0  0  0  0
   -3.3500   -8.2450  -44.4810 C   0  0  0  0  0  0  0  0  0  0  0  0
   -2.4540   -9.0810  -44.3090 O   0  0  0  0  0  0  0  0  0  0  0  0
   -3.2120   -6.9550  -44.1670 N   0  0  0  0  0  0  0  0  0  0  0  0
   -1.9800   -6.4590  -43.5260 C   0  0  2  0  0  0  0  0  0  0  0  0
   -1.8470   -7.0760  -42.1580 C   0  0  0  0  0  0  0  0  0  0  0  0
   -2.8400   -7.3910  -41.5010 O   0  0  0  0  0  0  0  0  0  0  0  0
   -1.9570   -4.9410  -43.3040 C   0  0  0  0  0  0  0  0  0  0  0  0
   -2.5070   -4.0540  -44.3630 C   0  0  0  0  0  0  0  0  0  0  0  0
   -3.9520   -3.7570  -44.0950 C   0  0  0  0  0  0  0  0  0  0  0  0
   -4.7490   -4.7000  -44.2460 O   0  0  0  0  0  0  0  0  0  0  0  0
   -4.2840   -2.5990  -43.7150 O   0  0  0  0  0  0  0  0  0  0  0  0
   -0.6030   -7.2220  -41.7200 N   0  0  0  0  0  0  0  0  0  0  0  0
   -0.3470   -7.6990  -40.3810 C   0  0  2  0  0  0  0  0  0  0  0  0
    0.8170   -6.9120  -39.8500 C   0  0  0  0  0  0  0  0  0  0  0  0
    1.8080   -6.7230  -40.5640 O   0  0  0  0  0  0  0  0  0  0  0  0
    0.0030   -9.1770  -40.4120 C   0  0  0  0  0  0  0  0  0  0  0  0
    0.2680   -9.7560  -39.0320 C   0  0  0  0  0  0  0  0  0  0  0  0
    0.7830  -11.1710  -39.0500 C   0  0  0  0  0  0  0  0  0  0  0  0
    1.2410  -11.6540  -37.9910 O   0  0  0  0  0  0  0  0  0  0  0  0
    0.7310  -11.8170  -40.1200 O   0  0  0  0  0  0  0  0  0  0  0  0
    0.7130   -6.4830  -38.5920 N   0  0  0  0  0  0  0  0  0  0  0  0
    1.8440   -5.8770  -37.8670 C   0  0  2  0  0  0  0  0  0  0  0  0
    2.0910   -6.6230  -36.5630 C   0  0  0  0  0  0  0  0  0  0  0  0
    1.1720   -7.2290  -35.9710 O   0  0  0  0  0  0  0  0  0  0  0  0
    1.5880   -4.4010  -37.5050 C   0  0  0  0  0  0  0  0  0  0  0  0
    1.2470   -3.3150  -38.5360 C   0  0  0  0  0  0  0  0  0  0  0  0
    0.7580   -2.0390  -37.8490 C   0  0  0  0  0  0  0  0  0  0  0  0
    2.4510   -2.9630  -39.3460 C   0  0  0  0  0  0  0  0  0  0  0  0
    3.3390   -6.5350  -36.1110 N   0  0  0  0  0  0  0  0  0  0  0  0
    3.7200   -6.9840  -34.7790 C   0  0  2  0  0  0  0  0  0  0  0  0
    4.6960   -5.9550  -34.2400 C   0  0  0  0  0  0  0  0  0  0  0  0
    5.4410   -5.3460  -35.0100 O   0  0  0  0  0  0  0  0  0  0  0  0
    4.4120   -8.3500  -34.8110 C   0  0  0  0  0  0  0  0  0  0  0  0
    4.3540   -9.0780  -33.4870 C   0  0  0  0  0  0  0  0  0  0  0  0
    5.1460  -10.3950  -33.4740 C   0  0  0  0  0  0  0  0  0  0  0  0
    4.7670  -11.3470  -34.6120 C   0  0  0  0  0  0  0  0  0  0  0  0
    3.3640  -11.7710  -34.5530 N   0  0  0  0  0  0  0  0  0  0  0  0
    4.7000   -5.7760  -32.9170 N   0  0  0  0  0  0  0  0  0  0  0  0
    5.5880   -4.7930  -32.2770 C   0  0  0  0  0  0  0  0  0  0  0  0
   -4.6657   -9.7280  -45.2757 H   0  0  0  0  0  0  0  0  0  0  0  0
   -4.8688   -8.1414  -45.9791 H   0  0  0  0  0  0  0  0  0  0  0  0
   -5.4714   -8.4682  -44.3719 H   0  0  0  0  0  0  0  0  0  0  0  0
   -3.9428   -6.3260  -44.3661 H   0  0  0  0  0  0  0  0  0  0  0  0
   -1.1875   -6.7225  -44.1949 H   0  0  0  0  0  0  0  0  0  0  0  0
   -2.5120   -4.7454  -42.4103 H   0  0  0  0  0  0  0  0  0  0  0  0
   -0.9151   -4.6989  -43.2789 H   0  0  0  0  0  0  0  0  0  0  0  0
   -1.9551   -3.1374  -44.3774 H   0  0  0  0  0  0  0  0  0  0  0  0
   -2.4229   -4.5477  -45.3086 H   0  0  0  0  0  0  0  0  0  0  0  0
    0.1520   -7.0033  -42.3128 H   0  0  0  0  0  0  0  0  0  0  0  0
   -1.2106   -7.5752  -39.7615 H   0  0  0  0  0  0  0  0  0  0  0  0
    0.8808   -9.3066  -41.0100 H   0  0  0  0  0  0  0  0  0  0  0  0
   -0.8395   -9.6959  -40.8193 H   0  0  0  0  0  0  0  0  0  0  0  0
   -0.6473   -9.7381  -38.4782 H   0  0  0  0  0  0  0  0  0  0  0  0
    1.0317   -9.1543  -38.5853 H   0  0  0  0  0  0  0  0  0  0  0  0
   -0.1516   -6.5744  -38.1301 H   0  0  0  0  0  0  0  0  0  0  0  0
    2.6874   -5.9388  -38.5225 H   0  0  0  0  0  0  0  0  0  0  0  0
    0.7740   -4.4087  -36.8105 H   0  0  0  0  0  0  0  0  0  0  0  0
    2.5652   -4.0925  -37.1972 H   0  0  0  0  0  0  0  0  0  0  0  0
    0.4763   -3.7097  -39.1646 H   0  0  0  0  0  0  0  0  0  0  0  0
    1.5341   -1.6512  -37.2228 H   0  0  0  0  0  0  0  0  0  0  0  0
   -0.1027   -2.2619  -37.2537 H   0  0  0  0  0  0  0  0  0  0  0  0
    0.5005   -1.3113  -38.5899 H   0  0  0  0  0  0  0  0  0  0  0  0
    3.2110   -2.5704  -38.7032 H   0  0  0  0  0  0  0  0  0  0  0  0
    2.1867   -2.2273  -40.0766 H   0  0  0  0  0  0  0  0  0  0  0  0
    2.8180   -3.8391  -39.8386 H   0  0  0  0  0  0  0  0  0  0  0  0
    4.0303   -6.1524  -36.6983 H   0  0  0  0  0  0  0  0  0  0  0  0
    2.8456   -7.0833  -34.1703 H   0  0  0  0  0  0  0  0  0  0  0  0
    5.4388   -8.2050  -35.0747 H   0  0  0  0  0  0  0  0  0  0  0  0
    3.8942   -8.9522  -35.5280 H   0  0  0  0  0  0  0  0  0  0  0  0
    3.3302   -9.2967  -33.2658 H   0  0  0  0  0  0  0  0  0  0  0  0
    4.8001   -8.4363  -32.7562 H   0  0  0  0  0  0  0  0  0  0  0  0
    6.1875  -10.1647  -33.5578 H   0  0  0  0  0  0  0  0  0  0  0  0
    4.9131  -10.8932  -32.5562 H   0  0  0  0  0  0  0  0  0  0  0  0
    4.9352  -10.8498  -35.5444 H   0  0  0  0  0  0  0  0  0  0  0  0
    5.3734  -12.2233  -34.5153 H   0  0  0  0  0  0  0  0  0  0  0  0
    2.7582  -10.9553  -34.6428 H   0  0  0  0  0  0  0  0  0  0  0  0
    3.1850  -12.2308  -33.6603 H   0  0  0  0  0  0  0  0  0  0  0  0
    4.0950   -6.3140  -32.3569 H   0  0  0  0  0  0  0  0  0  0  0  0
    6.1729   -4.3003  -33.0254 H   0  0  0  0  0  0  0  0  0  0  0  0
    6.2372   -5.2934  -31.5892 H   0  0  0  0  0  0  0  0  0  0  0  0
    4.9998   -4.0704  -31.7509 H   0  0  0  0  0  0  0  0  0  0  0  0
  1  2  1  0  0  0  0
  1 41  1  0  0  0  0
  1 42  1  0  0  0  0
  1 43  1  0  0  0  0
  2  3  2  0  0  0  0
  2  4  1  0  0  0  0
  4  5  1  0  0  0  0
  4 44  1  0  0  0  0
  5  8  1  0  0  0  0
  5  6  1  0  0  0  0
  5 45  1  6  0  0  0
  6 13  1  0  0  0  0
  6  7  2  0  0  0  0
  8 46  1  0  0  0  0
  8 47  1  0  0  0  0
  9 10  1  0  0  0  0
  9  8  1  0  0  0  0
  9 48  1  0  0  0  0
  9 49  1  0  0  0  0
 10 12  1  0  0  0  0
 11 10  2  0  0  0  0
 13 14  1  0  0  0  0
 13 50  1  0  0  0  0
 14 15  1  0  0  0  0
 14 51  1  1  0  0  0
 15 22  1  0  0  0  0
 16 15  2  0  0  0  0
 17 14  1  0  0  0  0
 17 18  1  0  0  0  0
 17 52  1  0  0  0  0
 17 53  1  0  0  0  0
 18 54  1  0  0  0  0
 18 55  1  0  0  0  0
 19 18  1  0  0  0  0
 19 20  1  0  0  0  0
 21 19  2  0  0  0  0
 22 23  1  0  0  0  0
 22 56  1  0  0  0  0
 23 26  1  0  0  0  0
 23 24  1  0  0  0  0
 23 57  1  6  0  0  0
 24 30  1  0  0  0  0
 24 25  2  0  0  0  0
 26 58  1  0  0  0  0
 26 59  1  0  0  0  0
 27 28  1  0  0  0  0
 27 26  1  0  0  0  0
 27 60  1  0  0  0  0
 28 61  1  0  0  0  0
 28 62  1  0  0  0  0
 28 63  1  0  0  0  0
 29 27  1  0  0  0  0
 29 64  1  0  0  0  0
 29 65  1  0  0  0  0
 29 66  1  0  0  0  0
 30 31  1  0  0  0  0
 30 67  1  0  0  0  0
 31 32  1  0  0  0  0
 31 68  1  1  0  0  0
 32 39  1  0  0  0  0
 33 32  2  0  0  0  0
 34 31  1  0  0  0  0
 34 35  1  0  0  0  0
 34 69  1  0  0  0  0
 34 70  1  0  0  0  0
 35 36  1  0  0  0  0
 35 71  1  0  0  0  0
 35 72  1  0  0  0  0
 36 73  1  0  0  0  0
 36 74  1  0  0  0  0
 37 38  1  0  0  0  0
 37 36  1  0  0  0  0
 37 75  1  0  0  0  0
 37 76  1  0  0  0  0
 38 77  1  0  0  0  0
 38 78  1  0  0  0  0
 39 40  1  0  0  0  0
 39 79  1  0  0  0  0
 40 80  1  0  0  0  0
 40 81  1  0  0  0  0
 40 82  1  0  0  0  0
M  CHG  1  12  -1
M  CHG  1  20  -1
M  END
>  <MODEL>
       0

$$$$
selected_4mers/EELK/176_noH.pdb
 OpenBabel03042517503D

 82 81  0  0  1  0  0  0  0  0999 V2000
   -4.5550   16.5570   13.1060 C   0  0  0  0  0  0  0  0  0  0  0  0
   -4.8700   17.8780   12.4040 C   0  0  0  0  0  0  0  0  0  0  0  0
   -5.5440   17.8930   11.3740 O   0  0  0  0  0  0  0  0  0  0  0  0
   -4.3540   18.9820   12.9470 N   0  0  0  0  0  0  0  0  0  0  0  0
   -4.5490   20.3000   12.3350 C   0  0  2  0  0  0  0  0  0  0  0  0
   -3.8690   20.4300   10.9730 C   0  0  0  0  0  0  0  0  0  0  0  0
   -4.4250   21.0260   10.0510 O   0  0  0  0  0  0  0  0  0  0  0  0
   -4.1100   21.4270   13.2820 C   0  0  0  0  0  0  0  0  0  0  0  0
   -5.0580   21.6560   14.4560 C   0  0  0  0  0  0  0  0  0  0  0  0
   -6.4920   21.9040   14.0090 C   0  0  0  0  0  0  0  0  0  0  0  0
   -6.7110   22.7710   13.1330 O   0  0  0  0  0  0  0  0  0  0  0  0
   -7.4000   21.2240   14.5300 O   0  0  0  0  0  0  0  0  0  0  0  0
   -2.6750   19.8560   10.8430 N   0  0  0  0  0  0  0  0  0  0  0  0
   -1.9790   19.8420    9.5630 C   0  0  2  0  0  0  0  0  0  0  0  0
   -2.7440   18.9980    8.5370 C   0  0  0  0  0  0  0  0  0  0  0  0
   -2.8330   19.3760    7.3750 O   0  0  0  0  0  0  0  0  0  0  0  0
   -0.5330   19.3580    9.7270 C   0  0  0  0  0  0  0  0  0  0  0  0
    0.3930   20.4030   10.3800 C   0  0  0  0  0  0  0  0  0  0  0  0
    1.7950   19.8830   10.6640 C   0  0  0  0  0  0  0  0  0  0  0  0
    2.5920   20.6060   11.3050 O   0  0  0  0  0  0  0  0  0  0  0  0
    2.1140   18.7510   10.2540 O   0  0  0  0  0  0  0  0  0  0  0  0
   -3.3170   17.8770    8.9760 N   0  0  0  0  0  0  0  0  0  0  0  0
   -4.1610   17.0540    8.0920 C   0  0  2  0  0  0  0  0  0  0  0  0
   -5.3960   17.8150    7.6010 C   0  0  0  0  0  0  0  0  0  0  0  0
   -5.7330   17.7480    6.4180 O   0  0  0  0  0  0  0  0  0  0  0  0
   -4.5800   15.7470    8.7690 C   0  0  0  0  0  0  0  0  0  0  0  0
   -5.3080   14.7560    7.8500 C   0  0  0  0  0  0  0  0  0  0  0  0
   -4.4650   14.3950    6.6260 C   0  0  0  0  0  0  0  0  0  0  0  0
   -5.7050   13.5170    8.6150 C   0  0  0  0  0  0  0  0  0  0  0  0
   -6.0550   18.5410    8.5060 N   0  0  0  0  0  0  0  0  0  0  0  0
   -7.2310   19.3470    8.1510 C   0  0  2  0  0  0  0  0  0  0  0  0
   -6.8910   20.3700    7.0700 C   0  0  0  0  0  0  0  0  0  0  0  0
   -7.6720   20.5750    6.1370 O   0  0  0  0  0  0  0  0  0  0  0  0
   -7.8310   20.0220    9.3900 C   0  0  0  0  0  0  0  0  0  0  0  0
   -8.6000   19.0560   10.2860 C   0  0  0  0  0  0  0  0  0  0  0  0
   -8.7390   19.5600   11.7140 C   0  0  0  0  0  0  0  0  0  0  0  0
  -10.0420   20.2990   11.9440 C   0  0  0  0  0  0  0  0  0  0  0  0
  -10.1930   20.6330   13.3870 N   0  0  0  0  0  0  0  0  0  0  0  0
   -5.7080   20.9730    7.1820 N   0  0  0  0  0  0  0  0  0  0  0  0
   -5.2320   21.9590    6.2150 C   0  0  0  0  0  0  0  0  0  0  0  0
   -5.0223   15.7522   12.5780 H   0  0  0  0  0  0  0  0  0  0  0  0
   -4.9263   16.5887   14.1090 H   0  0  0  0  0  0  0  0  0  0  0  0
   -3.4959   16.4055   13.1223 H   0  0  0  0  0  0  0  0  0  0  0  0
   -3.8304   18.9100   13.7776 H   0  0  0  0  0  0  0  0  0  0  0  0
   -5.6003   20.3976   12.1616 H   0  0  0  0  0  0  0  0  0  0  0  0
   -4.0469   22.3344   12.7186 H   0  0  0  0  0  0  0  0  0  0  0  0
   -3.1685   21.1334   13.6971 H   0  0  0  0  0  0  0  0  0  0  0  0
   -4.7193   22.5068   15.0094 H   0  0  0  0  0  0  0  0  0  0  0  0
   -5.0533   20.7692   15.0548 H   0  0  0  0  0  0  0  0  0  0  0  0
   -2.2544   19.4331   11.6263 H   0  0  0  0  0  0  0  0  0  0  0  0
   -1.9394   20.8451    9.1927 H   0  0  0  0  0  0  0  0  0  0  0  0
   -0.1441   19.1179    8.7595 H   0  0  0  0  0  0  0  0  0  0  0  0
   -0.5566   18.5079   10.3763 H   0  0  0  0  0  0  0  0  0  0  0  0
   -0.0464   20.7131   11.3050 H   0  0  0  0  0  0  0  0  0  0  0  0
    0.4930   21.2108    9.6855 H   0  0  0  0  0  0  0  0  0  0  0  0
   -3.1735   17.5939    9.9080 H   0  0  0  0  0  0  0  0  0  0  0  0
   -3.5610   16.8158    7.2386 H   0  0  0  0  0  0  0  0  0  0  0  0
   -3.6997   15.2687    9.1449 H   0  0  0  0  0  0  0  0  0  0  0  0
   -5.2742   16.0131    9.5385 H   0  0  0  0  0  0  0  0  0  0  0  0
   -6.1961   15.2353    7.4944 H   0  0  0  0  0  0  0  0  0  0  0  0
   -3.5646   13.9117    6.9430 H   0  0  0  0  0  0  0  0  0  0  0  0
   -4.2206   15.2858    6.0860 H   0  0  0  0  0  0  0  0  0  0  0  0
   -5.0201   13.7350    5.9927 H   0  0  0  0  0  0  0  0  0  0  0  0
   -4.8268   13.0252    8.9779 H   0  0  0  0  0  0  0  0  0  0  0  0
   -6.2427   12.8555    7.9683 H   0  0  0  0  0  0  0  0  0  0  0  0
   -6.3270   13.7919    9.4411 H   0  0  0  0  0  0  0  0  0  0  0  0
   -5.7438   18.5364    9.4400 H   0  0  0  0  0  0  0  0  0  0  0  0
   -7.9724   18.6878    7.7501 H   0  0  0  0  0  0  0  0  0  0  0  0
   -8.4997   20.7926    9.0675 H   0  0  0  0  0  0  0  0  0  0  0  0
   -7.0176   20.4116    9.9658 H   0  0  0  0  0  0  0  0  0  0  0  0
   -8.0823   18.1197   10.3029 H   0  0  0  0  0  0  0  0  0  0  0  0
   -9.5858   18.9575    9.8819 H   0  0  0  0  0  0  0  0  0  0  0  0
   -7.9264   20.2235   11.9244 H   0  0  0  0  0  0  0  0  0  0  0  0
   -8.7293   18.7085   12.3619 H   0  0  0  0  0  0  0  0  0  0  0  0
  -10.8589   19.6800   11.6367 H   0  0  0  0  0  0  0  0  0  0  0  0
  -10.0365   21.2043   11.3737 H   0  0  0  0  0  0  0  0  0  0  0  0
  -10.1989   19.7735   13.9361 H   0  0  0  0  0  0  0  0  0  0  0  0
  -11.0699   21.1339   13.5301 H   0  0  0  0  0  0  0  0  0  0  0  0
   -5.1318   20.7449    7.9470 H   0  0  0  0  0  0  0  0  0  0  0  0
   -5.9687   22.0936    5.4508 H   0  0  0  0  0  0  0  0  0  0  0  0
   -4.3197   21.6148    5.7743 H   0  0  0  0  0  0  0  0  0  0  0  0
   -5.0589   22.8908    6.7116 H   0  0  0  0  0  0  0  0  0  0  0  0
  1 41  1  0  0  0  0
  1 42  1  0  0  0  0
  1 43  1  0  0  0  0
  2  4  1  0  0  0  0
  2  1  1  0  0  0  0
  3  2  2  0  0  0  0
  4 44  1  0  0  0  0
  5  4  1  0  0  0  0
  5  8  1  0  0  0  0
  5 45  1  6  0  0  0
  6  5  1  0  0  0  0
  7  6  2  0  0  0  0
  8  9  1  0  0  0  0
  8 46  1  0  0  0  0
  8 47  1  0  0  0  0
  9 48  1  0  0  0  0
  9 49  1  0  0  0  0
 10  9  1  0  0  0  0
 10 12  1  0  0  0  0
 11 10  2  0  0  0  0
 13  6  1  0  0  0  0
 13 50  1  0  0  0  0
 14 17  1  0  0  0  0
 14 13  1  0  0  0  0
 14 51  1  6  0  0  0
 15 22  1  0  0  0  0
 15 14  1  0  0  0  0
 16 15  2  0  0  0  0
 17 18  1  0  0  0  0
 17 52  1  0  0  0  0
 17 53  1  0  0  0  0
 18 19  1  0  0  0  0
 18 54  1  0  0  0  0
 18 55  1  0  0  0  0
 19 20  1  0  0  0  0
 21 19  2  0  0  0  0
 22 56  1  0  0  0  0
 23 26  1  0  0  0  0
 23 22  1  0  0  0  0
 23 57  1  6  0  0  0
 24 23  1  0  0  0  0
 24 30  1  0  0  0  0
 25 24  2  0  0  0  0
 26 58  1  0  0  0  0
 26 59  1  0  0  0  0
 27 29  1  0  0  0  0
 27 26  1  0  0  0  0
 27 60  1  0  0  0  0
 28 27  1  0  0  0  0
 28 61  1  0  0  0  0
 28 62  1  0  0  0  0
 28 63  1  0  0  0  0
 29 64  1  0  0  0  0
 29 65  1  0  0  0  0
 29 66  1  0  0  0  0
 30 67  1  0  0  0  0
 31 30  1  0  0  0  0
 31 34  1  0  0  0  0
 31 68  1  6  0  0  0
 32 39  1  0  0  0  0
 32 31  1  0  0  0  0
 33 32  2  0  0  0  0
 34 35  1  0  0  0  0
 34 69  1  0  0  0  0
 34 70  1  0  0  0  0
 35 36  1  0  0  0  0
 35 71  1  0  0  0  0
 35 72  1  0  0  0  0
 36 37  1  0  0  0  0
 36 73  1  0  0  0  0
 36 74  1  0  0  0  0
 37 38  1  0  0  0  0
 37 75  1  0  0  0  0
 37 76  1  0  0  0  0
 38 77  1  0  0  0  0
 38 78  1  0  0  0  0
 39 79  1  0  0  0  0
 40 39  1  0  0  0  0
 40 80  1  0  0  0  0
 40 81  1  0  0  0  0
 40 82  1  0  0  0  0
M  CHG  1  12  -1
M  CHG  1  20  -1
M  END
>  <MODEL>
       0

$$$$
selected_4mers/EELK/177_noH.pdb
 OpenBabel03042517503D

 82 81  0  0  1  0  0  0  0  0999 V2000
    5.0950   13.6090    5.5320 C   0  0  0  0  0  0  0  0  0  0  0  0
    5.5850   12.1740    5.3020 C   0  0  0  0  0  0  0  0  0  0  0  0
    6.7760   11.8720    5.5350 O   0  0  0  0  0  0  0  0  0  0  0  0
    4.6510   11.3310    4.8410 N   0  0  0  0  0  0  0  0  0  0  0  0
    4.9410    9.9410    4.5240 C   0  0  2  0  0  0  0  0  0  0  0  0
    6.1920    9.8590    3.6260 C   0  0  0  0  0  0  0  0  0  0  0  0
    7.0780    9.0040    3.8310 O   0  0  0  0  0  0  0  0  0  0  0  0
    3.7280    9.3010    3.8260 C   0  0  0  0  0  0  0  0  0  0  0  0
    3.9950    7.9150    3.2450 C   0  0  0  0  0  0  0  0  0  0  0  0
    4.3310    6.8600    4.2970 C   0  0  0  0  0  0  0  0  0  0  0  0
    3.9190    7.0190    5.4670 O   0  0  0  0  0  0  0  0  0  0  0  0
    4.9880    5.8470    3.9340 O   0  0  0  0  0  0  0  0  0  0  0  0
    6.2720   10.7500    2.6410 N   0  0  0  0  0  0  0  0  0  0  0  0
    7.3350   10.6850    1.6360 C   0  0  2  0  0  0  0  0  0  0  0  0
    8.6940   11.0010    2.2470 C   0  0  0  0  0  0  0  0  0  0  0  0
    9.7290   10.4110    1.8380 O   0  0  0  0  0  0  0  0  0  0  0  0
    7.0730   11.6330    0.4690 C   0  0  0  0  0  0  0  0  0  0  0  0
    5.8950   11.2800   -0.3920 C   0  0  0  0  0  0  0  0  0  0  0  0
    4.5640   11.7280    0.1880 C   0  0  0  0  0  0  0  0  0  0  0  0
    4.5150   12.2920    1.3050 O   0  0  0  0  0  0  0  0  0  0  0  0
    3.5480   11.4710   -0.4790 O   0  0  0  0  0  0  0  0  0  0  0  0
    8.7050   11.9380    3.2030 N   0  0  0  0  0  0  0  0  0  0  0  0
    9.9610   12.2990    3.8550 C   0  0  2  0  0  0  0  0  0  0  0  0
   10.3790   11.1860    4.8130 C   0  0  0  0  0  0  0  0  0  0  0  0
   11.5570   10.7880    4.8690 O   0  0  0  0  0  0  0  0  0  0  0  0
    9.8360   13.6470    4.5740 C   0  0  0  0  0  0  0  0  0  0  0  0
   11.0850   14.1580    5.2990 C   0  0  0  0  0  0  0  0  0  0  0  0
   12.3190   14.2350    4.3480 C   0  0  0  0  0  0  0  0  0  0  0  0
   10.7410   15.5170    5.9090 C   0  0  0  0  0  0  0  0  0  0  0  0
    9.4070   10.6570    5.5600 N   0  0  0  0  0  0  0  0  0  0  0  0
    9.6750    9.5050    6.4230 C   0  0  2  0  0  0  0  0  0  0  0  0
   10.3090    8.3600    5.5910 C   0  0  0  0  0  0  0  0  0  0  0  0
   11.3260    7.7720    5.9830 O   0  0  0  0  0  0  0  0  0  0  0  0
    8.3720    9.0450    7.1180 C   0  0  0  0  0  0  0  0  0  0  0  0
    8.5350    7.8710    8.0810 C   0  0  0  0  0  0  0  0  0  0  0  0
    8.3370    6.5390    7.3840 C   0  0  0  0  0  0  0  0  0  0  0  0
    6.8830    6.3930    6.9580 C   0  0  0  0  0  0  0  0  0  0  0  0
    6.5780    5.0480    6.4230 N   0  0  0  0  0  0  0  0  0  0  0  0
    9.7590    8.1010    4.4130 N   0  0  0  0  0  0  0  0  0  0  0  0
   10.2860    7.0260    3.5670 C   0  0  0  0  0  0  0  0  0  0  0  0
    4.0572   13.6762    5.2803 H   0  0  0  0  0  0  0  0  0  0  0  0
    5.6557   14.2804    4.9158 H   0  0  0  0  0  0  0  0  0  0  0  0
    5.2303   13.8715    6.5604 H   0  0  0  0  0  0  0  0  0  0  0  0
    3.7339   11.6648    4.7119 H   0  0  0  0  0  0  0  0  0  0  0  0
    5.1359    9.4033    5.4283 H   0  0  0  0  0  0  0  0  0  0  0  0
    2.9360    9.2176    4.5406 H   0  0  0  0  0  0  0  0  0  0  0  0
    3.4798    9.9357    3.0012 H   0  0  0  0  0  0  0  0  0  0  0  0
    4.8178    7.9871    2.5647 H   0  0  0  0  0  0  0  0  0  0  0  0
    3.0927    7.5995    2.7643 H   0  0  0  0  0  0  0  0  0  0  0  0
    5.6016   11.4689    2.5867 H   0  0  0  0  0  0  0  0  0  0  0  0
    7.3412    9.6814    1.2649 H   0  0  0  0  0  0  0  0  0  0  0  0
    6.9089   12.6119    0.8687 H   0  0  0  0  0  0  0  0  0  0  0  0
    7.9328   11.5673   -0.1645 H   0  0  0  0  0  0  0  0  0  0  0  0
    6.0220   11.7455   -1.3470 H   0  0  0  0  0  0  0  0  0  0  0  0
    5.8646   10.2127   -0.4613 H   0  0  0  0  0  0  0  0  0  0  0  0
    7.8673   12.3833    3.4663 H   0  0  0  0  0  0  0  0  0  0  0  0
   10.7236   12.4095    3.1126 H   0  0  0  0  0  0  0  0  0  0  0  0
    9.0544   13.5565    5.2991 H   0  0  0  0  0  0  0  0  0  0  0  0
    9.6473   14.3620    3.8006 H   0  0  0  0  0  0  0  0  0  0  0  0
   11.3668   13.4743    6.0723 H   0  0  0  0  0  0  0  0  0  0  0  0
   12.1074   14.9073    3.5429 H   0  0  0  0  0  0  0  0  0  0  0  0
   12.5275   13.2620    3.9547 H   0  0  0  0  0  0  0  0  0  0  0  0
   13.1686   14.5886    4.8940 H   0  0  0  0  0  0  0  0  0  0  0  0
   10.4601   16.1962    5.1314 H   0  0  0  0  0  0  0  0  0  0  0  0
   11.5944   15.9016    6.4274 H   0  0  0  0  0  0  0  0  0  0  0  0
    9.9277   15.4044    6.5952 H   0  0  0  0  0  0  0  0  0  0  0  0
    8.5026   11.0448    5.5303 H   0  0  0  0  0  0  0  0  0  0  0  0
   10.3705    9.7857    7.1861 H   0  0  0  0  0  0  0  0  0  0  0  0
    7.6745    8.7577    6.3592 H   0  0  0  0  0  0  0  0  0  0  0  0
    8.0394    9.8728    7.7087 H   0  0  0  0  0  0  0  0  0  0  0  0
    7.8120    7.9628    8.8644 H   0  0  0  0  0  0  0  0  0  0  0  0
    9.5308    7.8971    8.4716 H   0  0  0  0  0  0  0  0  0  0  0  0
    8.9669    6.4926    6.5203 H   0  0  0  0  0  0  0  0  0  0  0  0
    8.5900    5.7464    8.0568 H   0  0  0  0  0  0  0  0  0  0  0  0
    6.2576    6.5737    7.8072 H   0  0  0  0  0  0  0  0  0  0  0  0
    6.7023    7.1008    6.1762 H   0  0  0  0  0  0  0  0  0  0  0  0
    6.7412    4.3489    7.1475 H   0  0  0  0  0  0  0  0  0  0  0  0
    7.1807    4.8556    5.6229 H   0  0  0  0  0  0  0  0  0  0  0  0
    8.9913    8.6343    4.1041 H   0  0  0  0  0  0  0  0  0  0  0  0
   11.1131    6.5580    4.0588 H   0  0  0  0  0  0  0  0  0  0  0  0
   10.6110    7.4341    2.6328 H   0  0  0  0  0  0  0  0  0  0  0  0
    9.5186    6.3012    3.3919 H   0  0  0  0  0  0  0  0  0  0  0  0
  1 41  1  0  0  0  0
  1 42  1  0  0  0  0
  1 43  1  0  0  0  0
  2  1  1  0  0  0  0
  2  3  2  0  0  0  0
  4  2  1  0  0  0  0
  4 44  1  0  0  0  0
  5  4  1  0  0  0  0
  5 45  1  1  0  0  0
  6  7  2  0  0  0  0
  6  5  1  0  0  0  0
  8  5  1  0  0  0  0
  8 46  1  0  0  0  0
  8 47  1  0  0  0  0
  9  8  1  0  0  0  0
  9 10  1  0  0  0  0
  9 48  1  0  0  0  0
  9 49  1  0  0  0  0
 10 11  1  0  0  0  0
 12 10  2  0  0  0  0
 13  6  1  0  0  0  0
 13 50  1  0  0  0  0
 14 15  1  0  0  0  0
 14 13  1  0  0  0  0
 14 51  1  6  0  0  0
 15 22  1  0  0  0  0
 16 15  2  0  0  0  0
 17 14  1  0  0  0  0
 17 52  1  0  0  0  0
 17 53  1  0  0  0  0
 18 19  1  0  0  0  0
 18 17  1  0  0  0  0
 18 54  1  0  0  0  0
 18 55  1  0  0  0  0
 19 20  1  0  0  0  0
 21 19  2  0  0  0  0
 22 23  1  0  0  0  0
 22 56  1  0  0  0  0
 23 26  1  0  0  0  0
 23 24  1  0  0  0  0
 23 57  1  6  0  0  0
 24 25  2  0  0  0  0
 24 30  1  0  0  0  0
 26 27  1  0  0  0  0
 26 58  1  0  0  0  0
 26 59  1  0  0  0  0
 27 29  1  0  0  0  0
 27 60  1  0  0  0  0
 28 27  1  0  0  0  0
 28 61  1  0  0  0  0
 28 62  1  0  0  0  0
 28 63  1  0  0  0  0
 29 64  1  0  0  0  0
 29 65  1  0  0  0  0
 29 66  1  0  0  0  0
 30 31  1  0  0  0  0
 30 67  1  0  0  0  0
 31 34  1  0  0  0  0
 31 68  1  1  0  0  0
 32 33  2  0  0  0  0
 32 31  1  0  0  0  0
 34 35  1  0  0  0  0
 34 69  1  0  0  0  0
 34 70  1  0  0  0  0
 35 71  1  0  0  0  0
 35 72  1  0  0  0  0
 36 35  1  0  0  0  0
 36 73  1  0  0  0  0
 36 74  1  0  0  0  0
 37 36  1  0  0  0  0
 37 75  1  0  0  0  0
 37 76  1  0  0  0  0
 38 37  1  0  0  0  0
 38 77  1  0  0  0  0
 38 78  1  0  0  0  0
 39 32  1  0  0  0  0
 39 79  1  0  0  0  0
 40 39  1  0  0  0  0
 40 80  1  0  0  0  0
 40 81  1  0  0  0  0
 40 82  1  0  0  0  0
M  CHG  1  11  -1
M  CHG  1  20  -1
M  END
>  <MODEL>
       0

$$$$
selected_4mers/EELK/178_noH.pdb
 OpenBabel03042517503D

 82 81  0  0  1  0  0  0  0  0999 V2000
   29.8180   29.3480   -0.5120 C   0  0  0  0  0  0  0  0  0  0  0  0
   30.0420   30.8450   -0.6800 C   0  0  0  0  0  0  0  0  0  0  0  0
   30.6390   31.4970    0.1880 O   0  0  0  0  0  0  0  0  0  0  0  0
   29.5430   31.4050   -1.7480 N   0  0  0  0  0  0  0  0  0  0  0  0
   29.7370   32.7970   -2.1220 C   0  0  2  0  0  0  0  0  0  0  0  0
   28.9970   33.7590   -1.2240 C   0  0  0  0  0  0  0  0  0  0  0  0
   29.2350   34.9400   -1.3190 O   0  0  0  0  0  0  0  0  0  0  0  0
   29.2340   32.9920   -3.5580 C   0  0  0  0  0  0  0  0  0  0  0  0
   27.7090   32.8600   -3.7250 C   0  0  0  0  0  0  0  0  0  0  0  0
   27.3540   32.6710   -5.1920 C   0  0  0  0  0  0  0  0  0  0  0  0
   28.0900   33.3000   -6.0100 O   0  0  0  0  0  0  0  0  0  0  0  0
   26.4150   31.9260   -5.5240 O   0  0  0  0  0  0  0  0  0  0  0  0
   28.0900   33.2540   -0.3910 N   0  0  0  0  0  0  0  0  0  0  0  0
   27.4110   34.0850    0.5770 C   0  0  2  0  0  0  0  0  0  0  0  0
   28.1880   34.2810    1.8770 C   0  0  0  0  0  0  0  0  0  0  0  0
   27.8110   35.1070    2.6740 O   0  0  0  0  0  0  0  0  0  0  0  0
   26.0790   33.4320    0.9750 C   0  0  0  0  0  0  0  0  0  0  0  0
   25.0990   33.3920   -0.1480 C   0  0  0  0  0  0  0  0  0  0  0  0
   23.9760   32.3870   -0.0050 C   0  0  0  0  0  0  0  0  0  0  0  0
   23.8770   31.6450    0.9980 O   0  0  0  0  0  0  0  0  0  0  0  0
   23.1570   32.3370   -0.9800 O   0  0  0  0  0  0  0  0  0  0  0  0
   29.2270   33.4750    2.0580 N   0  0  0  0  0  0  0  0  0  0  0  0
   30.0050   33.5230    3.2740 C   0  0  2  0  0  0  0  0  0  0  0  0
   31.3040   34.2810    3.0090 C   0  0  0  0  0  0  0  0  0  0  0  0
   32.1320   33.8160    2.2600 O   0  0  0  0  0  0  0  0  0  0  0  0
   30.3050   32.1380    3.8170 C   0  0  0  0  0  0  0  0  0  0  0  0
   29.1220   31.1950    4.1170 C   0  0  0  0  0  0  0  0  0  0  0  0
   29.6430   29.8730    4.6900 C   0  0  0  0  0  0  0  0  0  0  0  0
   28.0900   31.8120    5.0460 C   0  0  0  0  0  0  0  0  0  0  0  0
   31.4500   35.4120    3.6800 N   0  0  0  0  0  0  0  0  0  0  0  0
   32.6840   36.1770    3.6310 C   0  0  2  0  0  0  0  0  0  0  0  0
   33.7030   35.5940    4.6010 C   0  0  0  0  0  0  0  0  0  0  0  0
   33.4270   35.4130    5.7770 O   0  0  0  0  0  0  0  0  0  0  0  0
   32.4350   37.6360    3.9860 C   0  0  0  0  0  0  0  0  0  0  0  0
   33.5690   38.6160    3.6700 C   0  0  0  0  0  0  0  0  0  0  0  0
   33.0970   40.0730    3.7610 C   0  0  0  0  0  0  0  0  0  0  0  0
   31.7040   40.2640    3.1920 C   0  0  0  0  0  0  0  0  0  0  0  0
   31.3310   41.6580    2.8410 N   0  0  0  0  0  0  0  0  0  0  0  0
   34.9050   35.3390    4.1240 N   0  0  0  0  0  0  0  0  0  0  0  0
   35.9460   34.9200    5.0570 C   0  0  0  0  0  0  0  0  0  0  0  0
   29.2882   28.9691   -1.3610 H   0  0  0  0  0  0  0  0  0  0  0  0
   29.2453   29.1703    0.3742 H   0  0  0  0  0  0  0  0  0  0  0  0
   30.7631   28.8528   -0.4312 H   0  0  0  0  0  0  0  0  0  0  0  0
   28.9954   30.8444   -2.3439 H   0  0  0  0  0  0  0  0  0  0  0  0
   30.7818   33.0087   -2.0296 H   0  0  0  0  0  0  0  0  0  0  0  0
   29.5222   33.9699   -3.8829 H   0  0  0  0  0  0  0  0  0  0  0  0
   29.6725   32.2102   -4.1423 H   0  0  0  0  0  0  0  0  0  0  0  0
   27.3644   32.0148   -3.1665 H   0  0  0  0  0  0  0  0  0  0  0  0
   27.2405   33.7522   -3.3652 H   0  0  0  0  0  0  0  0  0  0  0  0
   27.8771   32.2938   -0.4352 H   0  0  0  0  0  0  0  0  0  0  0  0
   27.2898   35.0338    0.0975 H   0  0  0  0  0  0  0  0  0  0  0  0
   26.2718   32.4299    1.2968 H   0  0  0  0  0  0  0  0  0  0  0  0
   25.6503   34.0234    1.7569 H   0  0  0  0  0  0  0  0  0  0  0  0
   24.6607   34.3641   -0.2364 H   0  0  0  0  0  0  0  0  0  0  0  0
   25.6554   33.0864   -1.0093 H   0  0  0  0  0  0  0  0  0  0  0  0
   29.4713   32.8340    1.3519 H   0  0  0  0  0  0  0  0  0  0  0  0
   29.4283   34.0316    4.0181 H   0  0  0  0  0  0  0  0  0  0  0  0
   30.8462   32.2671    4.7310 H   0  0  0  0  0  0  0  0  0  0  0  0
   30.8327   31.6530    3.0226 H   0  0  0  0  0  0  0  0  0  0  0  0
   28.6202   31.0137    3.1895 H   0  0  0  0  0  0  0  0  0  0  0  0
   30.1439   30.0589    5.6171 H   0  0  0  0  0  0  0  0  0  0  0  0
   30.3274   29.4292    3.9975 H   0  0  0  0  0  0  0  0  0  0  0  0
   28.8215   29.2077    4.8556 H   0  0  0  0  0  0  0  0  0  0  0  0
   28.5407   32.0153    5.9949 H   0  0  0  0  0  0  0  0  0  0  0  0
   27.2753   31.1308    5.1767 H   0  0  0  0  0  0  0  0  0  0  0  0
   27.7273   32.7243    4.6206 H   0  0  0  0  0  0  0  0  0  0  0  0
   30.7021   35.7441    4.2273 H   0  0  0  0  0  0  0  0  0  0  0  0
   33.0640   36.1227    2.6322 H   0  0  0  0  0  0  0  0  0  0  0  0
   32.2437   37.6873    5.0375 H   0  0  0  0  0  0  0  0  0  0  0  0
   31.6145   37.9424    3.3714 H   0  0  0  0  0  0  0  0  0  0  0  0
   34.3643   38.4642    4.3695 H   0  0  0  0  0  0  0  0  0  0  0  0
   33.9006   38.4332    2.6693 H   0  0  0  0  0  0  0  0  0  0  0  0
   33.0923   40.3695    4.7891 H   0  0  0  0  0  0  0  0  0  0  0  0
   33.7708   40.6717    3.1844 H   0  0  0  0  0  0  0  0  0  0  0  0
   31.6286   39.6713    2.3044 H   0  0  0  0  0  0  0  0  0  0  0  0
   31.0311   39.9722    3.9710 H   0  0  0  0  0  0  0  0  0  0  0  0
   31.9415   41.9963    2.0972 H   0  0  0  0  0  0  0  0  0  0  0  0
   31.4330   42.2543    3.6622 H   0  0  0  0  0  0  0  0  0  0  0  0
   35.0958   35.4289    3.1624 H   0  0  0  0  0  0  0  0  0  0  0  0
   35.5433   34.8831    6.0476 H   0  0  0  0  0  0  0  0  0  0  0  0
   36.7549   35.6198    5.0266 H   0  0  0  0  0  0  0  0  0  0  0  0
   36.3031   33.9499    4.7808 H   0  0  0  0  0  0  0  0  0  0  0  0
  1 41  1  0  0  0  0
  1 42  1  0  0  0  0
  1 43  1  0  0  0  0
  2  1  1  0  0  0  0
  2  3  2  0  0  0  0
  4  2  1  0  0  0  0
  4 44  1  0  0  0  0
  5  4  1  0  0  0  0
  5  6  1  0  0  0  0
  5 45  1  1  0  0  0
  6 13  1  0  0  0  0
  7  6  2  0  0  0  0
  8  5  1  0  0  0  0
  8 46  1  0  0  0  0
  8 47  1  0  0  0  0
  9  8  1  0  0  0  0
  9 48  1  0  0  0  0
  9 49  1  0  0  0  0
 10  9  1  0  0  0  0
 11 10  2  0  0  0  0
 12 10  1  0  0  0  0
 13 14  1  0  0  0  0
 13 50  1  0  0  0  0
 14 17  1  0  0  0  0
 14 15  1  0  0  0  0
 14 51  1  6  0  0  0
 15 22  1  0  0  0  0
 15 16  2  0  0  0  0
 17 52  1  0  0  0  0
 17 53  1  0  0  0  0
 18 19  1  0  0  0  0
 18 17  1  0  0  0  0
 18 54  1  0  0  0  0
 18 55  1  0  0  0  0
 19 20  1  0  0  0  0
 21 19  2  0  0  0  0
 22 23  1  0  0  0  0
 22 56  1  0  0  0  0
 23 26  1  0  0  0  0
 23 57  1  1  0  0  0
 24 23  1  0  0  0  0
 24 30  1  0  0  0  0
 25 24  2  0  0  0  0
 26 27  1  0  0  0  0
 26 58  1  0  0  0  0
 26 59  1  0  0  0  0
 27 28  1  0  0  0  0
 27 29  1  0  0  0  0
 27 60  1  0  0  0  0
 28 61  1  0  0  0  0
 28 62  1  0  0  0  0
 28 63  1  0  0  0  0
 29 64  1  0  0  0  0
 29 65  1  0  0  0  0
 29 66  1  0  0  0  0
 30 67  1  0  0  0  0
 31 30  1  0  0  0  0
 31 34  1  0  0  0  0
 31 32  1  0  0  0  0
 31 68  1  6  0  0  0
 32 33  2  0  0  0  0
 34 69  1  0  0  0  0
 34 70  1  0  0  0  0
 35 36  1  0  0  0  0
 35 34  1  0  0  0  0
 35 71  1  0  0  0  0
 35 72  1  0  0  0  0
 36 73  1  0  0  0  0
 36 74  1  0  0  0  0
 37 36  1  0  0  0  0
 37 75  1  0  0  0  0
 37 76  1  0  0  0  0
 38 37  1  0  0  0  0
 38 77  1  0  0  0  0
 38 78  1  0  0  0  0
 39 32  1  0  0  0  0
 39 40  1  0  0  0  0
 39 79  1  0  0  0  0
 40 80  1  0  0  0  0
 40 81  1  0  0  0  0
 40 82  1  0  0  0  0
M  CHG  1  12  -1
M  CHG  1  20  -1
M  END
>  <MODEL>
       0

$$$$
selected_4mers/EELK/179_noH.pdb
 OpenBabel03042517503D

 82 81  0  0  1  0  0  0  0  0999 V2000
   14.9740  -24.6830   23.8160 C   0  0  0  0  0  0  0  0  0  0  0  0
   14.7240  -26.0830   24.3580 C   0  0  0  0  0  0  0  0  0  0  0  0
   15.5330  -26.6270   25.1140 O   0  0  0  0  0  0  0  0  0  0  0  0
   13.5970  -26.6620   23.9780 N   0  0  0  0  0  0  0  0  0  0  0  0
   13.2620  -28.0150   24.4280 C   0  0  2  0  0  0  0  0  0  0  0  0
   14.3220  -29.0290   24.0030 C   0  0  0  0  0  0  0  0  0  0  0  0
   14.7420  -29.8700   24.7970 O   0  0  0  0  0  0  0  0  0  0  0  0
   11.8970  -28.4330   23.8910 C   0  0  0  0  0  0  0  0  0  0  0  0
   10.7490  -27.5900   24.4090 C   0  0  0  0  0  0  0  0  0  0  0  0
    9.5190  -27.6940   23.5310 C   0  0  0  0  0  0  0  0  0  0  0  0
    9.5250  -28.5210   22.5890 O   0  0  0  0  0  0  0  0  0  0  0  0
    8.5500  -26.9410   23.7790 O   0  0  0  0  0  0  0  0  0  0  0  0
   14.7550  -28.9470   22.7490 N   0  0  0  0  0  0  0  0  0  0  0  0
   15.7550  -29.8670   22.2190 C   0  0  2  0  0  0  0  0  0  0  0  0
   17.0730  -29.7390   22.9840 C   0  0  0  0  0  0  0  0  0  0  0  0
   17.7560  -30.7380   23.2550 O   0  0  0  0  0  0  0  0  0  0  0  0
   15.9690  -29.6000   20.7200 C   0  0  0  0  0  0  0  0  0  0  0  0
   17.0940  -30.4070   20.0820 C   0  0  0  0  0  0  0  0  0  0  0  0
   16.8420  -31.9140   20.0990 C   0  0  0  0  0  0  0  0  0  0  0  0
   15.6620  -32.3370   20.1670 O   0  0  0  0  0  0  0  0  0  0  0  0
   17.8320  -32.6720   20.0310 O   0  0  0  0  0  0  0  0  0  0  0  0
   17.4100  -28.5040   23.3500 N   0  0  0  0  0  0  0  0  0  0  0  0
   18.6440  -28.2090   24.0730 C   0  0  2  0  0  0  0  0  0  0  0  0
   18.4470  -28.3250   25.5890 C   0  0  0  0  0  0  0  0  0  0  0  0
   19.3680  -28.0710   26.3580 O   0  0  0  0  0  0  0  0  0  0  0  0
   19.1570  -26.8070   23.7190 C   0  0  0  0  0  0  0  0  0  0  0  0
   19.5490  -26.5680   22.2580 C   0  0  0  0  0  0  0  0  0  0  0  0
   19.8880  -25.1010   22.0440 C   0  0  0  0  0  0  0  0  0  0  0  0
   20.7110  -27.4690   21.8450 C   0  0  0  0  0  0  0  0  0  0  0  0
   17.2400  -28.7010   25.9980 N   0  0  0  0  0  0  0  0  0  0  0  0
   16.8770  -28.8050   27.4100 C   0  0  2  0  0  0  0  0  0  0  0  0
   17.1520  -27.5300   28.2150 C   0  0  0  0  0  0  0  0  0  0  0  0
   17.8080  -27.5690   29.2580 O   0  0  0  0  0  0  0  0  0  0  0  0
   17.5710  -30.0110   28.0570 C   0  0  0  0  0  0  0  0  0  0  0  0
   17.3630  -31.3170   27.2980 C   0  0  0  0  0  0  0  0  0  0  0  0
   18.1080  -32.4710   27.9500 C   0  0  0  0  0  0  0  0  0  0  0  0
   18.0010  -33.7440   27.1180 C   0  0  0  0  0  0  0  0  0  0  0  0
   16.5930  -34.1940   26.9350 N   0  0  0  0  0  0  0  0  0  0  0  0
   16.6420  -26.3980   27.7380 N   0  0  0  0  0  0  0  0  0  0  0  0
   16.8260  -25.1440   28.4560 C   0  0  0  0  0  0  0  0  0  0  0  0
   14.1603  -24.3948   23.1837 H   0  0  0  0  0  0  0  0  0  0  0  0
   15.8835  -24.6759   23.2524 H   0  0  0  0  0  0  0  0  0  0  0  0
   15.0539  -23.9941   24.6308 H   0  0  0  0  0  0  0  0  0  0  0  0
   12.9766  -26.1782   23.3862 H   0  0  0  0  0  0  0  0  0  0  0  0
   13.2303  -27.9987   25.4974 H   0  0  0  0  0  0  0  0  0  0  0  0
   11.9168  -28.3561   22.8240 H   0  0  0  0  0  0  0  0  0  0  0  0
   11.7240  -29.4338   24.2276 H   0  0  0  0  0  0  0  0  0  0  0  0
   10.4970  -27.9201   25.3951 H   0  0  0  0  0  0  0  0  0  0  0  0
   11.0665  -26.5682   24.4088 H   0  0  0  0  0  0  0  0  0  0  0  0
   14.3906  -28.2459   22.1617 H   0  0  0  0  0  0  0  0  0  0  0  0
   15.3994  -30.8683   22.3445 H   0  0  0  0  0  0  0  0  0  0  0  0
   15.0594  -29.8333   20.2070 H   0  0  0  0  0  0  0  0  0  0  0  0
   16.2497  -28.5711   20.6340 H   0  0  0  0  0  0  0  0  0  0  0  0
   17.2031  -30.0924   19.0651 H   0  0  0  0  0  0  0  0  0  0  0  0
   17.9783  -30.2272   20.6569 H   0  0  0  0  0  0  0  0  0  0  0  0
   16.8042  -27.7614   23.1246 H   0  0  0  0  0  0  0  0  0  0  0  0
   19.3721  -28.9336   23.7734 H   0  0  0  0  0  0  0  0  0  0  0  0
   18.3863  -26.1074   23.9668 H   0  0  0  0  0  0  0  0  0  0  0  0
   20.0626  -26.6893   24.2766 H   0  0  0  0  0  0  0  0  0  0  0  0
   18.7152  -26.8185   21.6360 H   0  0  0  0  0  0  0  0  0  0  0  0
   20.7213  -24.8340   22.6599 H   0  0  0  0  0  0  0  0  0  0  0  0
   19.0436  -24.4980   22.3053 H   0  0  0  0  0  0  0  0  0  0  0  0
   20.1376  -24.9389   21.0162 H   0  0  0  0  0  0  0  0  0  0  0  0
   21.5666  -27.2465   22.4478 H   0  0  0  0  0  0  0  0  0  0  0  0
   20.9461  -27.2983   20.8152 H   0  0  0  0  0  0  0  0  0  0  0  0
   20.4344  -28.4934   21.9826 H   0  0  0  0  0  0  0  0  0  0  0  0
   16.5602  -28.9192   25.3201 H   0  0  0  0  0  0  0  0  0  0  0  0
   15.8166  -28.9461   27.4331 H   0  0  0  0  0  0  0  0  0  0  0  0
   18.6211  -29.8112   28.1044 H   0  0  0  0  0  0  0  0  0  0  0  0
   17.1361  -30.1396   29.0261 H   0  0  0  0  0  0  0  0  0  0  0  0
   16.3177  -31.5450   27.2801 H   0  0  0  0  0  0  0  0  0  0  0  0
   17.7450  -31.1911   26.3065 H   0  0  0  0  0  0  0  0  0  0  0  0
   19.1399  -32.2066   28.0504 H   0  0  0  0  0  0  0  0  0  0  0  0
   17.6684  -32.6570   28.9076 H   0  0  0  0  0  0  0  0  0  0  0  0
   18.4298  -33.5606   26.1550 H   0  0  0  0  0  0  0  0  0  0  0  0
   18.5222  -34.5176   27.6422 H   0  0  0  0  0  0  0  0  0  0  0  0
   16.0684  -33.4752   26.4365 H   0  0  0  0  0  0  0  0  0  0  0  0
   16.1663  -34.3552   27.8473 H   0  0  0  0  0  0  0  0  0  0  0  0
   16.1364  -26.4077   26.8933 H   0  0  0  0  0  0  0  0  0  0  0  0
   17.3950  -25.3219   29.3445 H   0  0  0  0  0  0  0  0  0  0  0  0
   15.8707  -24.7402   28.7191 H   0  0  0  0  0  0  0  0  0  0  0  0
   17.3474  -24.4488   27.8318 H   0  0  0  0  0  0  0  0  0  0  0  0
  1  2  1  0  0  0  0
  1 41  1  0  0  0  0
  1 42  1  0  0  0  0
  1 43  1  0  0  0  0
  2  3  2  0  0  0  0
  4  2  1  0  0  0  0
  4  5  1  0  0  0  0
  4 44  1  0  0  0  0
  5 45  1  1  0  0  0
  6  5  1  0  0  0  0
  6  7  2  0  0  0  0
  8  9  1  0  0  0  0
  8  5  1  0  0  0  0
  8 46  1  0  0  0  0
  8 47  1  0  0  0  0
  9 48  1  0  0  0  0
  9 49  1  0  0  0  0
 10 12  1  0  0  0  0
 10  9  1  0  0  0  0
 11 10  2  0  0  0  0
 13  6  1  0  0  0  0
 13 50  1  0  0  0  0
 14 13  1  0  0  0  0
 14 15  1  0  0  0  0
 14 51  1  1  0  0  0
 15 16  2  0  0  0  0
 15 22  1  0  0  0  0
 17 14  1  0  0  0  0
 17 52  1  0  0  0  0
 17 53  1  0  0  0  0
 18 19  1  0  0  0  0
 18 17  1  0  0  0  0
 18 54  1  0  0  0  0
 18 55  1  0  0  0  0
 19 20  1  0  0  0  0
 21 19  2  0  0  0  0
 22 23  1  0  0  0  0
 22 56  1  0  0  0  0
 23 24  1  0  0  0  0
 23 57  1  6  0  0  0
 24 30  1  0  0  0  0
 24 25  2  0  0  0  0
 26 23  1  0  0  0  0
 26 58  1  0  0  0  0
 26 59  1  0  0  0  0
 27 26  1  0  0  0  0
 27 60  1  0  0  0  0
 28 27  1  0  0  0  0
 28 61  1  0  0  0  0
 28 62  1  0  0  0  0
 28 63  1  0  0  0  0
 29 27  1  0  0  0  0
 29 64  1  0  0  0  0
 29 65  1  0  0  0  0
 29 66  1  0  0  0  0
 30 31  1  0  0  0  0
 30 67  1  0  0  0  0
 31 34  1  0  0  0  0
 31 32  1  0  0  0  0
 31 68  1  1  0  0  0
 32 33  2  0  0  0  0
 34 69  1  0  0  0  0
 34 70  1  0  0  0  0
 35 36  1  0  0  0  0
 35 34  1  0  0  0  0
 35 71  1  0  0  0  0
 35 72  1  0  0  0  0
 36 73  1  0  0  0  0
 36 74  1  0  0  0  0
 37 36  1  0  0  0  0
 37 75  1  0  0  0  0
 37 76  1  0  0  0  0
 38 37  1  0  0  0  0
 38 77  1  0  0  0  0
 38 78  1  0  0  0  0
 39 32  1  0  0  0  0
 39 40  1  0  0  0  0
 39 79  1  0  0  0  0
 40 80  1  0  0  0  0
 40 81  1  0  0  0  0
 40 82  1  0  0  0  0
M  CHG  1  12  -1
M  CHG  1  20  -1
M  END
>  <MODEL>
       0

$$$$
