selected_4mers/EEVL/415_noH.pdb
 OpenBabel03042517593D

 77 76  0  0  1  0  0  0  0  0999 V2000
  -22.9510   25.9350   84.8120 C   0  0  0  0  0  0  0  0  0  0  0  0
  -23.6300   25.5870   83.4780 C   0  0  0  0  0  0  0  0  0  0  0  0
  -23.3360   26.2320   82.4450 O   0  0  0  0  0  0  0  0  0  0  0  0
  -24.5630   24.6390   83.4820 N   0  0  0  0  0  0  0  0  0  0  0  0
  -25.2680   24.2910   82.2300 C   0  0  2  0  0  0  0  0  0  0  0  0
  -25.9480   25.5170   81.6450 C   0  0  0  0  0  0  0  0  0  0  0  0
  -25.8880   25.7480   80.4450 O   0  0  0  0  0  0  0  0  0  0  0  0
  -26.2870   23.1730   82.4700 C   0  0  0  0  0  0  0  0  0  0  0  0
  -25.6840   21.9070   83.0010 C   0  0  0  0  0  0  0  0  0  0  0  0
  -26.7020   20.9320   83.5560 C   0  0  0  0  0  0  0  0  0  0  0  0
  -27.2400   20.1130   82.7600 O   0  0  0  0  0  0  0  0  0  0  0  0
  -26.9290   20.9440   84.7850 O   0  0  0  0  0  0  0  0  0  0  0  0
  -26.6030   26.3170   82.4810 N   0  0  0  0  0  0  0  0  0  0  0  0
  -27.2860   27.5310   82.0020 C   0  0  2  0  0  0  0  0  0  0  0  0
  -26.3210   28.5750   81.4620 C   0  0  0  0  0  0  0  0  0  0  0  0
  -26.5530   29.1910   80.4200 O   0  0  0  0  0  0  0  0  0  0  0  0
  -28.1460   28.1070   83.1320 C   0  0  0  0  0  0  0  0  0  0  0  0
  -29.3020   27.1670   83.4770 C   0  0  0  0  0  0  0  0  0  0  0  0
  -30.0370   27.5520   84.7720 C   0  0  0  0  0  0  0  0  0  0  0  0
  -29.4260   27.6220   85.8730 O   0  0  0  0  0  0  0  0  0  0  0  0
  -31.2660   27.7420   84.6910 O   0  0  0  0  0  0  0  0  0  0  0  0
  -25.2190   28.7590   82.1660 N   0  0  0  0  0  0  0  0  0  0  0  0
  -24.2510   29.7340   81.7550 C   0  0  2  0  0  0  0  0  0  0  0  0
  -23.5840   29.3260   80.4430 C   0  0  0  0  0  0  0  0  0  0  0  0
  -23.3360   30.1870   79.6120 O   0  0  0  0  0  0  0  0  0  0  0  0
  -23.1630   29.9420   82.8420 C   0  0  0  0  0  0  0  0  0  0  0  0
  -22.0740   30.8670   82.3140 C   0  0  0  0  0  0  0  0  0  0  0  0
  -23.7750   30.5120   84.1220 C   0  0  0  0  0  0  0  0  0  0  0  0
  -23.3050   28.0350   80.2660 N   0  0  0  0  0  0  0  0  0  0  0  0
  -22.7500   27.5330   79.0000 C   0  0  2  0  0  0  0  0  0  0  0  0
  -23.6690   27.9360   77.8500 C   0  0  0  0  0  0  0  0  0  0  0  0
  -23.2040   28.3300   76.7700 O   0  0  0  0  0  0  0  0  0  0  0  0
  -22.5760   26.0020   79.0480 C   0  0  0  0  0  0  0  0  0  0  0  0
  -21.3970   25.4690   79.8480 C   0  0  0  0  0  0  0  0  0  0  0  0
  -21.6790   24.0210   80.3020 C   0  0  0  0  0  0  0  0  0  0  0  0
  -20.0900   25.5870   79.0400 C   0  0  0  0  0  0  0  0  0  0  0  0
  -24.9870   27.9170   78.0960 N   0  0  0  0  0  0  0  0  0  0  0  0
  -25.9260   28.2650   77.0400 C   0  0  0  0  0  0  0  0  0  0  0  0
  -22.2289   26.7085   84.6535 H   0  0  0  0  0  0  0  0  0  0  0  0
  -22.4631   25.0659   85.2013 H   0  0  0  0  0  0  0  0  0  0  0  0
  -23.6882   26.2729   85.5100 H   0  0  0  0  0  0  0  0  0  0  0  0
  -24.7840   24.1692   84.3185 H   0  0  0  0  0  0  0  0  0  0  0  0
  -24.5444   23.9355   81.5264 H   0  0  0  0  0  0  0  0  0  0  0  0
  -26.7706   22.9525   81.5413 H   0  0  0  0  0  0  0  0  0  0  0  0
  -26.9695   23.5283   83.2135 H   0  0  0  0  0  0  0  0  0  0  0  0
  -24.9991   22.1613   83.7827 H   0  0  0  0  0  0  0  0  0  0  0  0
  -25.2030   21.4212   82.1779 H   0  0  0  0  0  0  0  0  0  0  0  0
  -26.6321   26.0935   83.4393 H   0  0  0  0  0  0  0  0  0  0  0  0
  -27.9108   27.2538   81.1788 H   0  0  0  0  0  0  0  0  0  0  0  0
  -28.5435   29.0510   82.8224 H   0  0  0  0  0  0  0  0  0  0  0  0
  -27.5322   28.2244   84.0006 H   0  0  0  0  0  0  0  0  0  0  0  0
  -28.9120   26.1770   83.5899 H   0  0  0  0  0  0  0  0  0  0  0  0
  -30.0120   27.2336   82.6792 H   0  0  0  0  0  0  0  0  0  0  0  0
  -25.0611   28.2240   82.9773 H   0  0  0  0  0  0  0  0  0  0  0  0
  -24.7754   30.6553   81.6100 H   0  0  0  0  0  0  0  0  0  0  0  0
  -22.7294   28.9926   83.0775 H   0  0  0  0  0  0  0  0  0  0  0  0
  -22.4996   31.8194   82.0759 H   0  0  0  0  0  0  0  0  0  0  0  0
  -21.6394   30.4405   81.4342 H   0  0  0  0  0  0  0  0  0  0  0  0
  -21.3181   30.9909   83.0611 H   0  0  0  0  0  0  0  0  0  0  0  0
  -24.2165   31.4640   83.9130 H   0  0  0  0  0  0  0  0  0  0  0  0
  -23.0107   30.6280   84.8618 H   0  0  0  0  0  0  0  0  0  0  0  0
  -24.5260   29.8429   84.4869 H   0  0  0  0  0  0  0  0  0  0  0  0
  -23.4745   27.4019   81.0006 H   0  0  0  0  0  0  0  0  0  0  0  0
  -21.7835   27.9654   78.8455 H   0  0  0  0  0  0  0  0  0  0  0  0
  -22.4659   25.6573   78.0411 H   0  0  0  0  0  0  0  0  0  0  0  0
  -23.4451   25.6378   79.5550 H   0  0  0  0  0  0  0  0  0  0  0  0
  -21.2694   26.0641   80.7281 H   0  0  0  0  0  0  0  0  0  0  0  0
  -21.8121   23.3973   79.4428 H   0  0  0  0  0  0  0  0  0  0  0  0
  -22.5671   24.0008   80.8984 H   0  0  0  0  0  0  0  0  0  0  0  0
  -20.8533   23.6611   80.8795 H   0  0  0  0  0  0  0  0  0  0  0  0
  -20.1700   25.0054   78.1454 H   0  0  0  0  0  0  0  0  0  0  0  0
  -19.2729   25.2255   79.6287 H   0  0  0  0  0  0  0  0  0  0  0  0
  -19.9197   26.6121   78.7849 H   0  0  0  0  0  0  0  0  0  0  0  0
  -25.3187   27.6682   78.9889 H   0  0  0  0  0  0  0  0  0  0  0  0
  -25.3864   28.5052   76.1478 H   0  0  0  0  0  0  0  0  0  0  0  0
  -26.5072   29.1105   77.3439 H   0  0  0  0  0  0  0  0  0  0  0  0
  -26.5748   27.4352   76.8519 H   0  0  0  0  0  0  0  0  0  0  0  0
  1 39  1  0  0  0  0
  1 40  1  0  0  0  0
  1 41  1  0  0  0  0
  2  4  1  0  0  0  0
  2  1  1  0  0  0  0
  3  2  2  0  0  0  0
  4 42  1  0  0  0  0
  5  8  1  0  0  0  0
  5  4  1  0  0  0  0
  5 43  1  6  0  0  0
  6  5  1  0  0  0  0
  6 13  1  0  0  0  0
  7  6  2  0  0  0  0
  8  9  1  0  0  0  0
  8 44  1  0  0  0  0
  8 45  1  0  0  0  0
  9 10  1  0  0  0  0
  9 46  1  0  0  0  0
  9 47  1  0  0  0  0
 10 12  1  0  0  0  0
 11 10  2  0  0  0  0
 13 48  1  0  0  0  0
 14 13  1  0  0  0  0
 14 17  1  0  0  0  0
 14 49  1  6  0  0  0
 15 14  1  0  0  0  0
 15 22  1  0  0  0  0
 16 15  2  0  0  0  0
 17 18  1  0  0  0  0
 17 50  1  0  0  0  0
 17 51  1  0  0  0  0
 18 19  1  0  0  0  0
 18 52  1  0  0  0  0
 18 53  1  0  0  0  0
 19 20  1  0  0  0  0
 21 19  2  0  0  0  0
 22 54  1  0  0  0  0
 23 22  1  0  0  0  0
 23 26  1  0  0  0  0
 23 55  1  6  0  0  0
 24 23  1  0  0  0  0
 25 24  2  0  0  0  0
 26 28  1  0  0  0  0
 26 56  1  0  0  0  0
 27 26  1  0  0  0  0
 27 57  1  0  0  0  0
 27 58  1  0  0  0  0
 27 59  1  0  0  0  0
 28 60  1  0  0  0  0
 28 61  1  0  0  0  0
 28 62  1  0  0  0  0
 29 24  1  0  0  0  0
 29 63  1  0  0  0  0
 30 33  1  0  0  0  0
 30 29  1  0  0  0  0
 30 64  1  6  0  0  0
 31 37  1  0  0  0  0
 31 30  1  0  0  0  0
 32 31  2  0  0  0  0
 33 34  1  0  0  0  0
 33 65  1  0  0  0  0
 33 66  1  0  0  0  0
 34 35  1  0  0  0  0
 34 67  1  0  0  0  0
 35 68  1  0  0  0  0
 35 69  1  0  0  0  0
 35 70  1  0  0  0  0
 36 34  1  0  0  0  0
 36 71  1  0  0  0  0
 36 72  1  0  0  0  0
 36 73  1  0  0  0  0
 37 74  1  0  0  0  0
 38 37  1  0  0  0  0
 38 75  1  0  0  0  0
 38 76  1  0  0  0  0
 38 77  1  0  0  0  0
M  CHG  1  12  -1
M  CHG  1  20  -1
M  END
>  <MODEL>
       0

$$$$
selected_4mers/EEVL/416_noH.pdb
 OpenBabel03042517593D

 77 76  0  0  1  0  0  0  0  0999 V2000
    3.2580   -3.0600   28.0190 C   0  0  0  0  0  0  0  0  0  0  0  0
    3.1380   -4.5240   28.4030 C   0  0  0  0  0  0  0  0  0  0  0  0
    3.0720   -4.8440   29.5790 O   0  0  0  0  0  0  0  0  0  0  0  0
    3.0910   -5.4060   27.4100 N   0  0  0  0  0  0  0  0  0  0  0  0
    2.9090   -6.8330   27.6820 C   0  0  2  0  0  0  0  0  0  0  0  0
    4.1020   -7.4140   28.4440 C   0  0  0  0  0  0  0  0  0  0  0  0
    3.9260   -8.2530   29.3300 O   0  0  0  0  0  0  0  0  0  0  0  0
    2.6640   -7.6130   26.3830 C   0  0  0  0  0  0  0  0  0  0  0  0
    1.1940   -7.7250   26.0070 C   0  0  0  0  0  0  0  0  0  0  0  0
    0.5510   -6.3940   25.6670 C   0  0  0  0  0  0  0  0  0  0  0  0
    1.1580   -5.5940   24.9120 O   0  0  0  0  0  0  0  0  0  0  0  0
   -0.5810   -6.1540   26.1480 O   0  0  0  0  0  0  0  0  0  0  0  0
    5.3030   -6.9550   28.1020 N   0  0  0  0  0  0  0  0  0  0  0  0
    6.5220   -7.3680   28.7980 C   0  0  2  0  0  0  0  0  0  0  0  0
    6.5940   -6.8020   30.2100 C   0  0  0  0  0  0  0  0  0  0  0  0
    7.1250   -7.4390   31.1010 O   0  0  0  0  0  0  0  0  0  0  0  0
    7.7590   -6.9300   28.0230 C   0  0  0  0  0  0  0  0  0  0  0  0
    7.9030   -7.6100   26.6720 C   0  0  0  0  0  0  0  0  0  0  0  0
    9.0670   -7.0610   25.8800 C   0  0  0  0  0  0  0  0  0  0  0  0
   10.1340   -6.8140   26.4860 O   0  0  0  0  0  0  0  0  0  0  0  0
    8.9200   -6.8810   24.6550 O   0  0  0  0  0  0  0  0  0  0  0  0
    6.0730   -5.5940   30.4040 N   0  0  0  0  0  0  0  0  0  0  0  0
    6.0180   -4.9840   31.7260 C   0  0  2  0  0  0  0  0  0  0  0  0
    5.1050   -5.8080   32.6320 C   0  0  0  0  0  0  0  0  0  0  0  0
    5.4470   -6.0970   33.7740 O   0  0  0  0  0  0  0  0  0  0  0  0
    5.5120   -3.5130   31.6270 C   0  0  0  0  0  0  0  0  0  0  0  0
    4.8700   -3.0550   32.9270 C   0  0  0  0  0  0  0  0  0  0  0  0
    6.6570   -2.6140   31.2350 C   0  0  0  0  0  0  0  0  0  0  0  0
    3.9450   -6.1810   32.1010 N   0  0  0  0  0  0  0  0  0  0  0  0
    2.9850   -6.9980   32.8260 C   0  0  2  0  0  0  0  0  0  0  0  0
    3.5580   -8.3910   33.0710 C   0  0  0  0  0  0  0  0  0  0  0  0
    3.3630   -8.9560   34.1410 O   0  0  0  0  0  0  0  0  0  0  0  0
    1.6740   -7.1170   32.0610 C   0  0  0  0  0  0  0  0  0  0  0  0
    0.7940   -5.8650   31.9590 C   0  0  0  0  0  0  0  0  0  0  0  0
   -0.5640   -6.2390   31.3880 C   0  0  0  0  0  0  0  0  0  0  0  0
    0.6440   -5.1800   33.3100 C   0  0  0  0  0  0  0  0  0  0  0  0
    4.2920   -8.9110   32.0880 N   0  0  0  0  0  0  0  0  0  0  0  0
    4.8820  -10.2490   32.1920 C   0  0  0  0  0  0  0  0  0  0  0  0
    3.3031   -2.9733   26.9535 H   0  0  0  0  0  0  0  0  0  0  0  0
    4.1485   -2.6505   28.4482 H   0  0  0  0  0  0  0  0  0  0  0  0
    2.4069   -2.5244   28.3847 H   0  0  0  0  0  0  0  0  0  0  0  0
    3.1797   -5.0959   26.4798 H   0  0  0  0  0  0  0  0  0  0  0  0
    2.0435   -6.9339   28.3030 H   0  0  0  0  0  0  0  0  0  0  0  0
    3.1795   -7.1161   25.5879 H   0  0  0  0  0  0  0  0  0  0  0  0
    3.0235   -8.6081   26.5423 H   0  0  0  0  0  0  0  0  0  0  0  0
    1.1106   -8.3682   25.1559 H   0  0  0  0  0  0  0  0  0  0  0  0
    0.6801   -8.1124   26.8618 H   0  0  0  0  0  0  0  0  0  0  0  0
    5.3739   -6.3164   27.3561 H   0  0  0  0  0  0  0  0  0  0  0  0
    6.4927   -8.4356   28.8627 H   0  0  0  0  0  0  0  0  0  0  0  0
    7.7028   -5.8732   27.8654 H   0  0  0  0  0  0  0  0  0  0  0  0
    8.6106   -7.2097   28.6073 H   0  0  0  0  0  0  0  0  0  0  0  0
    8.0552   -8.6576   26.8276 H   0  0  0  0  0  0  0  0  0  0  0  0
    7.0089   -7.4261   26.1138 H   0  0  0  0  0  0  0  0  0  0  0  0
    5.7144   -5.0980   29.6328 H   0  0  0  0  0  0  0  0  0  0  0  0
    7.0019   -4.9680   32.1462 H   0  0  0  0  0  0  0  0  0  0  0  0
    4.7544   -3.4601   30.8733 H   0  0  0  0  0  0  0  0  0  0  0  0
    5.5937   -3.0912   33.7143 H   0  0  0  0  0  0  0  0  0  0  0  0
    4.0501   -3.6995   33.1663 H   0  0  0  0  0  0  0  0  0  0  0  0
    4.5144   -2.0520   32.8152 H   0  0  0  0  0  0  0  0  0  0  0  0
    7.4198   -2.6608   31.9839 H   0  0  0  0  0  0  0  0  0  0  0  0
    6.3057   -1.6072   31.1462 H   0  0  0  0  0  0  0  0  0  0  0  0
    7.0581   -2.9359   30.2967 H   0  0  0  0  0  0  0  0  0  0  0  0
    3.7281   -5.8941   31.1846 H   0  0  0  0  0  0  0  0  0  0  0  0
    2.7904   -6.5195   33.7631 H   0  0  0  0  0  0  0  0  0  0  0  0
    1.9122   -7.4227   31.0637 H   0  0  0  0  0  0  0  0  0  0  0  0
    1.0913   -7.8126   32.6280 H   0  0  0  0  0  0  0  0  0  0  0  0
    1.2699   -5.1683   31.3009 H   0  0  0  0  0  0  0  0  0  0  0  0
   -1.0459   -6.9360   32.0413 H   0  0  0  0  0  0  0  0  0  0  0  0
   -0.4350   -6.6845   30.4237 H   0  0  0  0  0  0  0  0  0  0  0  0
   -1.1670   -5.3598   31.2969 H   0  0  0  0  0  0  0  0  0  0  0  0
    0.1699   -5.8484   33.9981 H   0  0  0  0  0  0  0  0  0  0  0  0
    0.0464   -4.2994   33.1990 H   0  0  0  0  0  0  0  0  0  0  0  0
    1.6102   -4.9107   33.6826 H   0  0  0  0  0  0  0  0  0  0  0  0
    4.4420   -8.3830   31.2707 H   0  0  0  0  0  0  0  0  0  0  0  0
    4.6231  -10.6805   33.1363 H   0  0  0  0  0  0  0  0  0  0  0  0
    5.9466  -10.1765   32.1128 H   0  0  0  0  0  0  0  0  0  0  0  0
    4.5069  -10.8665   31.4028 H   0  0  0  0  0  0  0  0  0  0  0  0
  1  2  1  0  0  0  0
  1 39  1  0  0  0  0
  1 40  1  0  0  0  0
  1 41  1  0  0  0  0
  2  3  2  0  0  0  0
  4  5  1  0  0  0  0
  4  2  1  0  0  0  0
  4 42  1  0  0  0  0
  5  6  1  0  0  0  0
  5 43  1  1  0  0  0
  6  7  2  0  0  0  0
  8  5  1  0  0  0  0
  8 44  1  0  0  0  0
  8 45  1  0  0  0  0
  9  8  1  0  0  0  0
  9 46  1  0  0  0  0
  9 47  1  0  0  0  0
 10  9  1  0  0  0  0
 10 12  1  0  0  0  0
 11 10  2  0  0  0  0
 13  6  1  0  0  0  0
 13 14  1  0  0  0  0
 13 48  1  0  0  0  0
 14 15  1  0  0  0  0
 14 49  1  1  0  0  0
 15 22  1  0  0  0  0
 15 16  2  0  0  0  0
 17 14  1  0  0  0  0
 17 50  1  0  0  0  0
 17 51  1  0  0  0  0
 18 17  1  0  0  0  0
 18 52  1  0  0  0  0
 18 53  1  0  0  0  0
 19 20  1  0  0  0  0
 19 18  1  0  0  0  0
 21 19  2  0  0  0  0
 22 23  1  0  0  0  0
 22 54  1  0  0  0  0
 23 24  1  0  0  0  0
 23 55  1  1  0  0  0
 24 25  2  0  0  0  0
 26 23  1  0  0  0  0
 26 27  1  0  0  0  0
 26 56  1  0  0  0  0
 27 57  1  0  0  0  0
 27 58  1  0  0  0  0
 27 59  1  0  0  0  0
 28 26  1  0  0  0  0
 28 60  1  0  0  0  0
 28 61  1  0  0  0  0
 28 62  1  0  0  0  0
 29 24  1  0  0  0  0
 29 30  1  0  0  0  0
 29 63  1  0  0  0  0
 30 31  1  0  0  0  0
 30 64  1  1  0  0  0
 31 32  2  0  0  0  0
 33 30  1  0  0  0  0
 33 65  1  0  0  0  0
 33 66  1  0  0  0  0
 34 33  1  0  0  0  0
 34 36  1  0  0  0  0
 34 67  1  0  0  0  0
 35 34  1  0  0  0  0
 35 68  1  0  0  0  0
 35 69  1  0  0  0  0
 35 70  1  0  0  0  0
 36 71  1  0  0  0  0
 36 72  1  0  0  0  0
 36 73  1  0  0  0  0
 37 38  1  0  0  0  0
 37 31  1  0  0  0  0
 37 74  1  0  0  0  0
 38 75  1  0  0  0  0
 38 76  1  0  0  0  0
 38 77  1  0  0  0  0
M  CHG  1  12  -1
M  CHG  1  20  -1
M  END
>  <MODEL>
       0

$$$$
selected_4mers/EEVL/417_noH.pdb
 OpenBabel03042517593D

 77 76  0  0  1  0  0  0  0  0999 V2000
    1.3080    4.3920   36.4800 C   0  0  0  0  0  0  0  0  0  0  0  0
    1.7020    5.5390   35.5360 C   0  0  0  0  0  0  0  0  0  0  0  0
    2.8040    5.5560   34.9850 O   0  0  0  0  0  0  0  0  0  0  0  0
    0.7920    6.4990   35.3730 N   0  0  0  0  0  0  0  0  0  0  0  0
    0.9940    7.6630   34.5030 C   0  0  2  0  0  0  0  0  0  0  0  0
    2.2880    8.4260   34.7960 C   0  0  0  0  0  0  0  0  0  0  0  0
    2.8210    9.1100   33.9240 O   0  0  0  0  0  0  0  0  0  0  0  0
   -0.1680    8.6370   34.6680 C   0  0  0  0  0  0  0  0  0  0  0  0
   -0.1930    9.2810   36.0560 C   0  0  0  0  0  0  0  0  0  0  0  0
   -1.5760    9.7420   36.4720 C   0  0  0  0  0  0  0  0  0  0  0  0
   -2.5200    8.9380   36.3320 O   0  0  0  0  0  0  0  0  0  0  0  0
   -1.7140   10.8960   36.9460 O   0  0  0  0  0  0  0  0  0  0  0  0
    2.7720    8.3210   36.0290 N   0  0  0  0  0  0  0  0  0  0  0  0
    3.9810    9.0210   36.4380 C   0  0  2  0  0  0  0  0  0  0  0  0
    5.2580    8.2800   36.0890 C   0  0  0  0  0  0  0  0  0  0  0  0
    6.3540    8.8210   36.2400 O   0  0  0  0  0  0  0  0  0  0  0  0
    3.9450    9.2930   37.9470 C   0  0  0  0  0  0  0  0  0  0  0  0
    3.0490   10.4520   38.3410 C   0  0  0  0  0  0  0  0  0  0  0  0
    2.9430   10.6310   39.8440 C   0  0  0  0  0  0  0  0  0  0  0  0
    3.9490   10.4100   40.5510 O   0  0  0  0  0  0  0  0  0  0  0  0
    1.8530   11.0060   40.3170 O   0  0  0  0  0  0  0  0  0  0  0  0
    5.1250    7.0430   35.6220 N   0  0  0  0  0  0  0  0  0  0  0  0
    6.3000    6.2570   35.2750 C   0  0  2  0  0  0  0  0  0  0  0  0
    6.7700    6.4990   33.8500 C   0  0  0  0  0  0  0  0  0  0  0  0
    6.0150    6.3300   32.8940 O   0  0  0  0  0  0  0  0  0  0  0  0
    6.0420    4.7480   35.4440 C   0  0  0  0  0  0  0  0  0  0  0  0
    7.2860    3.9600   35.0540 C   0  0  0  0  0  0  0  0  0  0  0  0
    5.6570    4.4470   36.8810 C   0  0  0  0  0  0  0  0  0  0  0  0
    8.0310    6.9000   33.7230 N   0  0  0  0  0  0  0  0  0  0  0  0
    8.6340    7.1340   32.4220 C   0  0  2  0  0  0  0  0  0  0  0  0
    8.9660    5.7590   31.8580 C   0  0  0  0  0  0  0  0  0  0  0  0
    9.5930    4.9420   32.5290 O   0  0  0  0  0  0  0  0  0  0  0  0
    9.9360    7.9320   32.5790 C   0  0  0  0  0  0  0  0  0  0  0  0
   10.7220    8.4810   31.3750 C   0  0  0  0  0  0  0  0  0  0  0  0
   12.2020    8.3430   31.6960 C   0  0  0  0  0  0  0  0  0  0  0  0
   10.4070    7.7460   30.0840 C   0  0  0  0  0  0  0  0  0  0  0  0
    8.5260    5.4860   30.6380 N   0  0  0  0  0  0  0  0  0  0  0  0
    8.8440    4.2100   30.0240 C   0  0  0  0  0  0  0  0  0  0  0  0
    2.1085    3.6841   36.5347 H   0  0  0  0  0  0  0  0  0  0  0  0
    0.4294    3.9087   36.1067 H   0  0  0  0  0  0  0  0  0  0  0  0
    1.1118    4.7846   37.4558 H   0  0  0  0  0  0  0  0  0  0  0  0
   -0.0594    6.4232   35.8614 H   0  0  0  0  0  0  0  0  0  0  0  0
    1.0544    7.2790   33.5061 H   0  0  0  0  0  0  0  0  0  0  0  0
   -1.0853    8.1070   34.5180 H   0  0  0  0  0  0  0  0  0  0  0  0
   -0.0456    9.4179   33.9468 H   0  0  0  0  0  0  0  0  0  0  0  0
    0.4611   10.1278   36.0505 H   0  0  0  0  0  0  0  0  0  0  0  0
    0.1207    8.5376   36.7587 H   0  0  0  0  0  0  0  0  0  0  0  0
    2.3009    7.7553   36.6827 H   0  0  0  0  0  0  0  0  0  0  0  0
    3.9953    9.9396   35.8895 H   0  0  0  0  0  0  0  0  0  0  0  0
    4.9404    9.5102   38.2741 H   0  0  0  0  0  0  0  0  0  0  0  0
    3.5423    8.4171   38.4112 H   0  0  0  0  0  0  0  0  0  0  0  0
    2.0695   10.2754   37.9482 H   0  0  0  0  0  0  0  0  0  0  0  0
    3.4832   11.3444   37.9409 H   0  0  0  0  0  0  0  0  0  0  0  0
    4.2267    6.6560   35.5101 H   0  0  0  0  0  0  0  0  0  0  0  0
    7.0639    6.5790   35.9516 H   0  0  0  0  0  0  0  0  0  0  0  0
    5.2362    4.4566   34.8031 H   0  0  0  0  0  0  0  0  0  0  0  0
    8.1003    4.2423   35.6881 H   0  0  0  0  0  0  0  0  0  0  0  0
    7.5372    4.1711   34.0356 H   0  0  0  0  0  0  0  0  0  0  0  0
    7.0942    2.9131   35.1644 H   0  0  0  0  0  0  0  0  0  0  0  0
    6.4560    4.7345   37.5320 H   0  0  0  0  0  0  0  0  0  0  0  0
    5.4693    3.3990   36.9879 H   0  0  0  0  0  0  0  0  0  0  0  0
    4.7743    4.9953   37.1361 H   0  0  0  0  0  0  0  0  0  0  0  0
    8.5716    7.0424   34.5334 H   0  0  0  0  0  0  0  0  0  0  0  0
    7.9738    7.6858   31.7859 H   0  0  0  0  0  0  0  0  0  0  0  0
    9.6935    8.7790   33.1862 H   0  0  0  0  0  0  0  0  0  0  0  0
   10.6051    7.1865   32.9551 H   0  0  0  0  0  0  0  0  0  0  0  0
   10.4424    9.5018   31.2180 H   0  0  0  0  0  0  0  0  0  0  0  0
   12.4398    7.3105   31.8454 H   0  0  0  0  0  0  0  0  0  0  0  0
   12.4268    8.8932   32.5858 H   0  0  0  0  0  0  0  0  0  0  0  0
   12.7808    8.7282   30.8827 H   0  0  0  0  0  0  0  0  0  0  0  0
   10.6696    6.7139   30.1880 H   0  0  0  0  0  0  0  0  0  0  0  0
   10.9682    8.1777   29.2817 H   0  0  0  0  0  0  0  0  0  0  0  0
    9.3613    7.8285   29.8726 H   0  0  0  0  0  0  0  0  0  0  0  0
    7.9846    6.1473   30.1493 H   0  0  0  0  0  0  0  0  0  0  0  0
    9.4352    3.6269   30.6989 H   0  0  0  0  0  0  0  0  0  0  0  0
    9.3931    4.3758   29.1207 H   0  0  0  0  0  0  0  0  0  0  0  0
    7.9382    3.6865   29.7997 H   0  0  0  0  0  0  0  0  0  0  0  0
  1 39  1  0  0  0  0
  1 40  1  0  0  0  0
  1 41  1  0  0  0  0
  2  1  1  0  0  0  0
  3  2  2  0  0  0  0
  4  2  1  0  0  0  0
  4 42  1  0  0  0  0
  5  8  1  0  0  0  0
  5  6  1  0  0  0  0
  5  4  1  0  0  0  0
  5 43  1  6  0  0  0
  6 13  1  0  0  0  0
  7  6  2  0  0  0  0
  8  9  1  0  0  0  0
  8 44  1  0  0  0  0
  8 45  1  0  0  0  0
  9 10  1  0  0  0  0
  9 46  1  0  0  0  0
  9 47  1  0  0  0  0
 10 12  1  0  0  0  0
 11 10  2  0  0  0  0
 13 14  1  0  0  0  0
 13 48  1  0  0  0  0
 14 17  1  0  0  0  0
 14 49  1  6  0  0  0
 15 16  2  0  0  0  0
 15 14  1  0  0  0  0
 17 18  1  0  0  0  0
 17 50  1  0  0  0  0
 17 51  1  0  0  0  0
 18 19  1  0  0  0  0
 18 52  1  0  0  0  0
 18 53  1  0  0  0  0
 19 21  2  0  0  0  0
 19 20  1  0  0  0  0
 22 15  1  0  0  0  0
 22 54  1  0  0  0  0
 23 26  1  0  0  0  0
 23 22  1  0  0  0  0
 23 55  1  1  0  0  0
 24 23  1  0  0  0  0
 25 24  2  0  0  0  0
 26 28  1  0  0  0  0
 26 56  1  0  0  0  0
 27 26  1  0  0  0  0
 27 57  1  0  0  0  0
 27 58  1  0  0  0  0
 27 59  1  0  0  0  0
 28 60  1  0  0  0  0
 28 61  1  0  0  0  0
 28 62  1  0  0  0  0
 29 24  1  0  0  0  0
 29 63  1  0  0  0  0
 30 33  1  0  0  0  0
 30 29  1  0  0  0  0
 30 64  1  6  0  0  0
 31 30  1  0  0  0  0
 31 32  2  0  0  0  0
 33 65  1  0  0  0  0
 33 66  1  0  0  0  0
 34 35  1  0  0  0  0
 34 33  1  0  0  0  0
 34 67  1  0  0  0  0
 35 68  1  0  0  0  0
 35 69  1  0  0  0  0
 35 70  1  0  0  0  0
 36 34  1  0  0  0  0
 36 71  1  0  0  0  0
 36 72  1  0  0  0  0
 36 73  1  0  0  0  0
 37 31  1  0  0  0  0
 37 74  1  0  0  0  0
 38 37  1  0  0  0  0
 38 75  1  0  0  0  0
 38 76  1  0  0  0  0
 38 77  1  0  0  0  0
M  CHG  1  12  -1
M  CHG  1  20  -1
M  END
>  <MODEL>
       0

$$$$
selected_4mers/EEVL/418_noH.pdb
 OpenBabel03042517593D

 77 76  0  0  1  0  0  0  0  0999 V2000
   37.5490   11.3410   22.9280 C   0  0  0  0  0  0  0  0  0  0  0  0
   37.0950   12.3930   23.9130 C   0  0  0  0  0  0  0  0  0  0  0  0
   36.8000   13.5280   23.5320 O   0  0  0  0  0  0  0  0  0  0  0  0
   36.9860   11.9970   25.1720 N   0  0  0  0  0  0  0  0  0  0  0  0
   36.6260   12.9290   26.2210 C   0  0  2  0  0  0  0  0  0  0  0  0
   38.0020   13.4360   26.6260 C   0  0  0  0  0  0  0  0  0  0  0  0
   38.7910   12.7120   27.2310 O   0  0  0  0  0  0  0  0  0  0  0  0
   35.9360   12.2070   27.3770 C   0  0  0  0  0  0  0  0  0  0  0  0
   35.7530   13.0750   28.6110 C   0  0  0  0  0  0  0  0  0  0  0  0
   34.6160   12.6070   29.4940 C   0  0  0  0  0  0  0  0  0  0  0  0
   34.4870   11.3840   29.7030 O   0  0  0  0  0  0  0  0  0  0  0  0
   33.8530   13.4680   29.9870 O   0  0  0  0  0  0  0  0  0  0  0  0
   38.2960   14.6690   26.2400 N   0  0  0  0  0  0  0  0  0  0  0  0
   39.5920   15.2700   26.5050 C   0  0  2  0  0  0  0  0  0  0  0  0
   39.5290   16.2920   27.6240 C   0  0  0  0  0  0  0  0  0  0  0  0
   38.9490   17.3670   27.4670 O   0  0  0  0  0  0  0  0  0  0  0  0
   40.1070   15.9120   25.2210 C   0  0  0  0  0  0  0  0  0  0  0  0
   40.1040   14.9430   24.0520 C   0  0  0  0  0  0  0  0  0  0  0  0
   40.3730   15.6140   22.7280 C   0  0  0  0  0  0  0  0  0  0  0  0
   39.5270   16.4170   22.2820 O   0  0  0  0  0  0  0  0  0  0  0  0
   41.4320   15.3370   22.1340 O   0  0  0  0  0  0  0  0  0  0  0  0
   40.1350   15.9440   28.7540 N   0  0  0  0  0  0  0  0  0  0  0  0
   40.1490   16.8150   29.9190 C   0  0  2  0  0  0  0  0  0  0  0  0
   41.4680   17.5730   30.0190 C   0  0  0  0  0  0  0  0  0  0  0  0
   42.5430   16.9790   30.1410 O   0  0  0  0  0  0  0  0  0  0  0  0
   39.9110   16.0030   31.2140 C   0  0  0  0  0  0  0  0  0  0  0  0
   39.9060   16.9240   32.4200 C   0  0  0  0  0  0  0  0  0  0  0  0
   38.5830   15.2580   31.1170 C   0  0  0  0  0  0  0  0  0  0  0  0
   41.3720   18.8960   29.9580 N   0  0  0  0  0  0  0  0  0  0  0  0
   42.5420   19.7550   30.0330 C   0  0  2  0  0  0  0  0  0  0  0  0
   42.8850   20.0680   31.4820 C   0  0  0  0  0  0  0  0  0  0  0  0
   42.1480   20.7780   32.1650 O   0  0  0  0  0  0  0  0  0  0  0  0
   42.2800   21.0550   29.2700 C   0  0  0  0  0  0  0  0  0  0  0  0
   43.4130   22.0820   29.1970 C   0  0  0  0  0  0  0  0  0  0  0  0
   44.6250   21.4690   28.5110 C   0  0  0  0  0  0  0  0  0  0  0  0
   42.9300   23.3100   28.4360 C   0  0  0  0  0  0  0  0  0  0  0  0
   44.0020   19.5160   31.9460 N   0  0  0  0  0  0  0  0  0  0  0  0
   44.4780   19.7320   33.3070 C   0  0  0  0  0  0  0  0  0  0  0  0
   37.6015   11.7685   21.9485 H   0  0  0  0  0  0  0  0  0  0  0  0
   36.8516   10.5295   22.9261 H   0  0  0  0  0  0  0  0  0  0  0  0
   38.5154   10.9800   23.2119 H   0  0  0  0  0  0  0  0  0  0  0  0
   37.1524   11.0535   25.3988 H   0  0  0  0  0  0  0  0  0  0  0  0
   35.9392   13.6955   25.9284 H   0  0  0  0  0  0  0  0  0  0  0  0
   36.5267   11.3563   27.6459 H   0  0  0  0  0  0  0  0  0  0  0  0
   34.9591   11.9319   27.0380 H   0  0  0  0  0  0  0  0  0  0  0  0
   35.5514   14.0778   28.2968 H   0  0  0  0  0  0  0  0  0  0  0  0
   36.6537   13.0125   29.1853 H   0  0  0  0  0  0  0  0  0  0  0  0
   37.6158   15.1937   25.7591 H   0  0  0  0  0  0  0  0  0  0  0  0
   40.2637   14.5022   26.8280 H   0  0  0  0  0  0  0  0  0  0  0  0
   39.4821   16.7460   24.9784 H   0  0  0  0  0  0  0  0  0  0  0  0
   41.1182   16.2182   25.3903 H   0  0  0  0  0  0  0  0  0  0  0  0
   40.8600   14.2045   24.2196 H   0  0  0  0  0  0  0  0  0  0  0  0
   39.1269   14.5102   23.9982 H   0  0  0  0  0  0  0  0  0  0  0  0
   40.5878   15.0712   28.8043 H   0  0  0  0  0  0  0  0  0  0  0  0
   39.3555   17.5235   29.8038 H   0  0  0  0  0  0  0  0  0  0  0  0
   40.7039   15.2941   31.3307 H   0  0  0  0  0  0  0  0  0  0  0  0
   39.1175   17.6401   32.3186 H   0  0  0  0  0  0  0  0  0  0  0  0
   40.8447   17.4336   32.4835 H   0  0  0  0  0  0  0  0  0  0  0  0
   39.7523   16.3476   33.3083 H   0  0  0  0  0  0  0  0  0  0  0  0
   37.7864   15.9627   31.0001 H   0  0  0  0  0  0  0  0  0  0  0  0
   38.4274   14.6887   32.0095 H   0  0  0  0  0  0  0  0  0  0  0  0
   38.6039   14.6002   30.2734 H   0  0  0  0  0  0  0  0  0  0  0  0
   40.4828   19.3068   29.8591 H   0  0  0  0  0  0  0  0  0  0  0  0
   43.3702   19.2428   29.5896 H   0  0  0  0  0  0  0  0  0  0  0  0
   42.0252   20.7893   28.2653 H   0  0  0  0  0  0  0  0  0  0  0  0
   41.5094   21.5440   29.8285 H   0  0  0  0  0  0  0  0  0  0  0  0
   43.6985   22.3750   30.1857 H   0  0  0  0  0  0  0  0  0  0  0  0
   44.3594   21.1689   27.5189 H   0  0  0  0  0  0  0  0  0  0  0  0
   44.9549   20.6155   29.0655 H   0  0  0  0  0  0  0  0  0  0  0  0
   45.4129   22.1916   28.4662 H   0  0  0  0  0  0  0  0  0  0  0  0
   42.6424   23.0254   27.4454 H   0  0  0  0  0  0  0  0  0  0  0  0
   43.7188   24.0311   28.3851 H   0  0  0  0  0  0  0  0  0  0  0  0
   42.0895   23.7360   28.9429 H   0  0  0  0  0  0  0  0  0  0  0  0
   44.5284   18.9387   31.3470 H   0  0  0  0  0  0  0  0  0  0  0  0
   43.7991   20.3775   33.8241 H   0  0  0  0  0  0  0  0  0  0  0  0
   45.4476   20.1836   33.2783 H   0  0  0  0  0  0  0  0  0  0  0  0
   44.5366   18.7935   33.8175 H   0  0  0  0  0  0  0  0  0  0  0  0
  1  2  1  0  0  0  0
  1 39  1  0  0  0  0
  1 40  1  0  0  0  0
  1 41  1  0  0  0  0
  2  4  1  0  0  0  0
  3  2  2  0  0  0  0
  4  5  1  0  0  0  0
  4 42  1  0  0  0  0
  5  6  1  0  0  0  0
  5  8  1  0  0  0  0
  5 43  1  6  0  0  0
  6  7  2  0  0  0  0
  8  9  1  0  0  0  0
  8 44  1  0  0  0  0
  8 45  1  0  0  0  0
  9 10  1  0  0  0  0
  9 46  1  0  0  0  0
  9 47  1  0  0  0  0
 10 11  2  0  0  0  0
 10 12  1  0  0  0  0
 13 14  1  0  0  0  0
 13  6  1  0  0  0  0
 13 48  1  0  0  0  0
 14 15  1  0  0  0  0
 14 49  1  1  0  0  0
 15 22  1  0  0  0  0
 16 15  2  0  0  0  0
 17 14  1  0  0  0  0
 17 50  1  0  0  0  0
 17 51  1  0  0  0  0
 18 17  1  0  0  0  0
 18 52  1  0  0  0  0
 18 53  1  0  0  0  0
 19 18  1  0  0  0  0
 20 19  1  0  0  0  0
 21 19  2  0  0  0  0
 22 23  1  0  0  0  0
 22 54  1  0  0  0  0
 23 24  1  0  0  0  0
 23 26  1  0  0  0  0
 23 55  1  6  0  0  0
 24 25  2  0  0  0  0
 26 27  1  0  0  0  0
 26 56  1  0  0  0  0
 27 57  1  0  0  0  0
 27 58  1  0  0  0  0
 27 59  1  0  0  0  0
 28 26  1  0  0  0  0
 28 60  1  0  0  0  0
 28 61  1  0  0  0  0
 28 62  1  0  0  0  0
 29 24  1  0  0  0  0
 29 30  1  0  0  0  0
 29 63  1  0  0  0  0
 30 31  1  0  0  0  0
 30 64  1  6  0  0  0
 31 37  1  0  0  0  0
 31 32  2  0  0  0  0
 33 30  1  0  0  0  0
 33 65  1  0  0  0  0
 33 66  1  0  0  0  0
 34 33  1  0  0  0  0
 34 67  1  0  0  0  0
 35 34  1  0  0  0  0
 35 68  1  0  0  0  0
 35 69  1  0  0  0  0
 35 70  1  0  0  0  0
 36 34  1  0  0  0  0
 36 71  1  0  0  0  0
 36 72  1  0  0  0  0
 36 73  1  0  0  0  0
 37 38  1  0  0  0  0
 37 74  1  0  0  0  0
 38 75  1  0  0  0  0
 38 76  1  0  0  0  0
 38 77  1  0  0  0  0
M  CHG  1  12  -1
M  CHG  1  20  -1
M  END
>  <MODEL>
       0

$$$$
selected_4mers/EEVL/419_noH.pdb
 OpenBabel03042517593D

 77 76  0  0  1  0  0  0  0  0999 V2000
   52.7710   50.4560   33.3390 C   0  0  0  0  0  0  0  0  0  0  0  0
   51.3050   50.0920   33.1260 C   0  0  0  0  0  0  0  0  0  0  0  0
   50.8940   49.7920   32.0060 O   0  0  0  0  0  0  0  0  0  0  0  0
   50.5180   50.1170   34.1980 N   0  0  0  0  0  0  0  0  0  0  0  0
   49.1010   49.7790   34.0900 C   0  0  2  0  0  0  0  0  0  0  0  0
   48.4010   50.7650   33.1610 C   0  0  0  0  0  0  0  0  0  0  0  0
   47.6880   50.3750   32.2400 O   0  0  0  0  0  0  0  0  0  0  0  0
   48.4300   49.8160   35.4650 C   0  0  0  0  0  0  0  0  0  0  0  0
   49.0750   48.9350   36.5270 C   0  0  0  0  0  0  0  0  0  0  0  0
   50.2220   49.6170   37.2630 C   0  0  0  0  0  0  0  0  0  0  0  0
   50.5780   49.1400   38.3600 O   0  0  0  0  0  0  0  0  0  0  0  0
   50.7720   50.6200   36.7530 O   0  0  0  0  0  0  0  0  0  0  0  0
   48.6190   52.0510   33.4110 N   0  0  0  0  0  0  0  0  0  0  0  0
   48.0150   53.1040   32.6070 C   0  0  2  0  0  0  0  0  0  0  0  0
   48.4550   53.0040   31.1500 C   0  0  0  0  0  0  0  0  0  0  0  0
   47.6570   53.2090   30.2400 O   0  0  0  0  0  0  0  0  0  0  0  0
   48.3970   54.4770   33.1720 C   0  0  0  0  0  0  0  0  0  0  0  0
   47.8130   54.7800   34.5520 C   0  0  0  0  0  0  0  0  0  0  0  0
   48.1090   53.7020   35.5820 C   0  0  0  0  0  0  0  0  0  0  0  0
   49.3000   53.3640   35.7850 O   0  0  0  0  0  0  0  0  0  0  0  0
   47.1430   53.1930   36.1930 O   0  0  0  0  0  0  0  0  0  0  0  0
   49.7290   52.6890   30.9320 N   0  0  0  0  0  0  0  0  0  0  0  0
   50.2530   52.5650   29.5780 C   0  0  2  0  0  0  0  0  0  0  0  0
   49.5140   51.4570   28.8320 C   0  0  0  0  0  0  0  0  0  0  0  0
   49.1090   51.6280   27.6810 O   0  0  0  0  0  0  0  0  0  0  0  0
   51.7650   52.2550   29.5950 C   0  0  0  0  0  0  0  0  0  0  0  0
   52.2780   52.0620   28.1770 C   0  0  0  0  0  0  0  0  0  0  0  0
   52.5150   53.3890   30.2870 C   0  0  0  0  0  0  0  0  0  0  0  0
   49.3240   50.3210   29.4940 N   0  0  0  0  0  0  0  0  0  0  0  0
   48.6170   49.2100   28.8720 C   0  0  2  0  0  0  0  0  0  0  0  0
   47.1770   49.5850   28.5330 C   0  0  0  0  0  0  0  0  0  0  0  0
   46.6820   49.2660   27.4550 O   0  0  0  0  0  0  0  0  0  0  0  0
   48.6360   47.9890   29.7970 C   0  0  0  0  0  0  0  0  0  0  0  0
   49.9680   47.2340   29.8470 C   0  0  0  0  0  0  0  0  0  0  0  0
   49.9300   46.1800   30.9460 C   0  0  0  0  0  0  0  0  0  0  0  0
   50.2320   46.5900   28.4930 C   0  0  0  0  0  0  0  0  0  0  0  0
   46.5020   50.2620   29.4540 N   0  0  0  0  0  0  0  0  0  0  0  0
   45.1270   50.6660   29.2040 C   0  0  0  0  0  0  0  0  0  0  0  0
   53.2920   50.3980   32.4062 H   0  0  0  0  0  0  0  0  0  0  0  0
   53.2104   49.7733   34.0360 H   0  0  0  0  0  0  0  0  0  0  0  0
   52.8389   51.4520   33.7241 H   0  0  0  0  0  0  0  0  0  0  0  0
   50.8943   50.3658   35.0731 H   0  0  0  0  0  0  0  0  0  0  0  0
   49.0214   48.7891   33.6916 H   0  0  0  0  0  0  0  0  0  0  0  0
   47.4144   49.5008   35.3460 H   0  0  0  0  0  0  0  0  0  0  0  0
   48.5278   50.8222   35.8154 H   0  0  0  0  0  0  0  0  0  0  0  0
   49.4527   48.0533   36.0528 H   0  0  0  0  0  0  0  0  0  0  0  0
   48.3215   48.7120   37.2532 H   0  0  0  0  0  0  0  0  0  0  0  0
   49.2058   52.2994   34.1615 H   0  0  0  0  0  0  0  0  0  0  0  0
   46.9524   52.9848   32.6455 H   0  0  0  0  0  0  0  0  0  0  0  0
   48.0513   55.2265   32.4910 H   0  0  0  0  0  0  0  0  0  0  0  0
   49.4609   54.4736   33.2861 H   0  0  0  0  0  0  0  0  0  0  0  0
   46.7516   54.8767   34.4575 H   0  0  0  0  0  0  0  0  0  0  0  0
   48.2717   55.6826   34.8982 H   0  0  0  0  0  0  0  0  0  0  0  0
   50.3279   52.5371   31.6985 H   0  0  0  0  0  0  0  0  0  0  0  0
   50.1023   53.4985   29.0772 H   0  0  0  0  0  0  0  0  0  0  0  0
   51.9319   51.3486   30.1386 H   0  0  0  0  0  0  0  0  0  0  0  0
   52.1202   52.9590   27.6154 H   0  0  0  0  0  0  0  0  0  0  0  0
   51.7511   51.2540   27.7140 H   0  0  0  0  0  0  0  0  0  0  0  0
   53.3238   51.8372   28.2036 H   0  0  0  0  0  0  0  0  0  0  0  0
   52.3551   54.3014   29.7514 H   0  0  0  0  0  0  0  0  0  0  0  0
   53.5612   53.1653   30.3061 H   0  0  0  0  0  0  0  0  0  0  0  0
   52.1548   53.4957   31.2889 H   0  0  0  0  0  0  0  0  0  0  0  0
   49.6642   50.2293   30.4133 H   0  0  0  0  0  0  0  0  0  0  0  0
   49.1204   48.9711   27.9585 H   0  0  0  0  0  0  0  0  0  0  0  0
   47.8811   47.3081   29.4632 H   0  0  0  0  0  0  0  0  0  0  0  0
   48.4663   48.3609   30.7858 H   0  0  0  0  0  0  0  0  0  0  0  0
   50.7607   47.9180   30.0675 H   0  0  0  0  0  0  0  0  0  0  0  0
   49.1426   45.4838   30.7454 H   0  0  0  0  0  0  0  0  0  0  0  0
   49.7551   46.6542   31.8891 H   0  0  0  0  0  0  0  0  0  0  0  0
   50.8656   45.6616   30.9755 H   0  0  0  0  0  0  0  0  0  0  0  0
   49.4433   45.9039   28.2645 H   0  0  0  0  0  0  0  0  0  0  0  0
   51.1638   46.0650   28.5234 H   0  0  0  0  0  0  0  0  0  0  0  0
   50.2744   47.3485   27.7395 H   0  0  0  0  0  0  0  0  0  0  0  0
   46.9332   50.4914   30.3088 H   0  0  0  0  0  0  0  0  0  0  0  0
   44.8285   50.3328   28.2320 H   0  0  0  0  0  0  0  0  0  0  0  0
   45.0539   51.7324   29.2535 H   0  0  0  0  0  0  0  0  0  0  0  0
   44.4872   50.2300   29.9426 H   0  0  0  0  0  0  0  0  0  0  0  0
  1 39  1  0  0  0  0
  1 40  1  0  0  0  0
  1 41  1  0  0  0  0
  2  1  1  0  0  0  0
  2  4  1  0  0  0  0
  3  2  2  0  0  0  0
  4 42  1  0  0  0  0
  5  4  1  0  0  0  0
  5  8  1  0  0  0  0
  5 43  1  6  0  0  0
  6 13  1  0  0  0  0
  6  5  1  0  0  0  0
  7  6  2  0  0  0  0
  8  9  1  0  0  0  0
  8 44  1  0  0  0  0
  8 45  1  0  0  0  0
  9 10  1  0  0  0  0
  9 46  1  0  0  0  0
  9 47  1  0  0  0  0
 10 11  1  0  0  0  0
 12 10  2  0  0  0  0
 13 48  1  0  0  0  0
 14 17  1  0  0  0  0
 14 13  1  0  0  0  0
 14 49  1  1  0  0  0
 15 14  1  0  0  0  0
 16 15  2  0  0  0  0
 17 18  1  0  0  0  0
 17 50  1  0  0  0  0
 17 51  1  0  0  0  0
 18 19  1  0  0  0  0
 18 52  1  0  0  0  0
 18 53  1  0  0  0  0
 19 20  2  0  0  0  0
 19 21  1  0  0  0  0
 22 15  1  0  0  0  0
 22 54  1  0  0  0  0
 23 26  1  0  0  0  0
 23 22  1  0  0  0  0
 23 55  1  6  0  0  0
 24 29  1  0  0  0  0
 24 23  1  0  0  0  0
 25 24  2  0  0  0  0
 26 28  1  0  0  0  0
 26 56  1  0  0  0  0
 27 26  1  0  0  0  0
 27 57  1  0  0  0  0
 27 58  1  0  0  0  0
 27 59  1  0  0  0  0
 28 60  1  0  0  0  0
 28 61  1  0  0  0  0
 28 62  1  0  0  0  0
 29 63  1  0  0  0  0
 30 29  1  0  0  0  0
 30 33  1  0  0  0  0
 30 64  1  6  0  0  0
 31 30  1  0  0  0  0
 31 37  1  0  0  0  0
 32 31  2  0  0  0  0
 33 34  1  0  0  0  0
 33 65  1  0  0  0  0
 33 66  1  0  0  0  0
 34 35  1  0  0  0  0
 34 67  1  0  0  0  0
 35 68  1  0  0  0  0
 35 69  1  0  0  0  0
 35 70  1  0  0  0  0
 36 34  1  0  0  0  0
 36 71  1  0  0  0  0
 36 72  1  0  0  0  0
 36 73  1  0  0  0  0
 37 74  1  0  0  0  0
 38 37  1  0  0  0  0
 38 75  1  0  0  0  0
 38 76  1  0  0  0  0
 38 77  1  0  0  0  0
M  CHG  1  11  -1
M  CHG  1  21  -1
M  END
>  <MODEL>
       0

$$$$
