selected_4mers/ELAK/40_noH.pdb
 OpenBabel03042517493D

 77 76  0  0  1  0  0  0  0  0999 V2000
   32.0430   52.8360   12.0120 C   0  0  0  0  0  0  0  0  0  0  0  0
   30.9960   52.0470   11.2490 C   0  0  0  0  0  0  0  0  0  0  0  0
   29.8080   52.2320   11.5040 O   0  0  0  0  0  0  0  0  0  0  0  0
   31.4100   51.1630   10.3450 N   0  0  0  0  0  0  0  0  0  0  0  0
   30.4880   50.2980    9.6350 C   0  0  2  0  0  0  0  0  0  0  0  0
   30.4850   48.9140   10.2890 C   0  0  0  0  0  0  0  0  0  0  0  0
   31.5300   48.2850   10.4270 O   0  0  0  0  0  0  0  0  0  0  0  0
   30.8660   50.2360    8.1860 C   0  0  0  0  0  0  0  0  0  0  0  0
   30.7730   51.5780    7.5370 C   0  0  0  0  0  0  0  0  0  0  0  0
   31.2520   51.5840    6.0750 C   0  0  0  0  0  0  0  0  0  0  0  0
   31.9710   50.6630    5.6280 O   0  0  0  0  0  0  0  0  0  0  0  0
   30.8690   52.5080    5.3600 O   0  0  0  0  0  0  0  0  0  0  0  0
   29.3270   48.5010   10.7950 N   0  0  0  0  0  0  0  0  0  0  0  0
   29.1540   47.1560   11.3430 C   0  0  2  0  0  0  0  0  0  0  0  0
   28.1760   46.4520   10.4380 C   0  0  0  0  0  0  0  0  0  0  0  0
   27.5240   47.0900    9.6190 O   0  0  0  0  0  0  0  0  0  0  0  0
   28.6150   47.2500   12.7510 C   0  0  0  0  0  0  0  0  0  0  0  0
   29.5140   47.9330   13.8000 C   0  0  0  0  0  0  0  0  0  0  0  0
   28.7980   47.7200   15.0820 C   0  0  0  0  0  0  0  0  0  0  0  0
   30.9200   47.3380   13.8080 C   0  0  0  0  0  0  0  0  0  0  0  0
   28.0640   45.1390   10.5400 N   0  0  0  0  0  0  0  0  0  0  0  0
   27.0280   44.4820    9.8100 C   0  0  2  0  0  0  0  0  0  0  0  0
   25.6600   44.9750   10.2790 C   0  0  0  0  0  0  0  0  0  0  0  0
   25.4670   45.2860   11.4420 O   0  0  0  0  0  0  0  0  0  0  0  0
   27.1150   42.9000   10.0240 C   0  0  0  0  0  0  0  0  0  0  0  0
   24.6940   44.9480    9.3920 N   0  0  0  0  0  0  0  0  0  0  0  0
   23.3180   45.3480    9.6970 C   0  0  2  0  0  0  0  0  0  0  0  0
   22.6860   44.5830   10.8590 C   0  0  0  0  0  0  0  0  0  0  0  0
   22.0320   45.1640   11.7200 O   0  0  0  0  0  0  0  0  0  0  0  0
   22.5150   45.1940    8.4170 C   0  0  0  0  0  0  0  0  0  0  0  0
   21.0150   45.4360    8.4950 C   0  0  0  0  0  0  0  0  0  0  0  0
   20.6650   46.7770    9.0330 C   0  0  0  0  0  0  0  0  0  0  0  0
   19.1630   47.1620    8.7680 C   0  0  0  0  0  0  0  0  0  0  0  0
   18.6220   46.9870    7.3860 N   0  0  0  0  0  0  0  0  0  0  0  0
   22.8660   43.2710   10.8950 N   0  0  0  0  0  0  0  0  0  0  0  0
   22.3690   42.4790   12.0490 C   0  0  0  0  0  0  0  0  0  0  0  0
   33.0182   52.5573   11.6711 H   0  0  0  0  0  0  0  0  0  0  0  0
   31.9568   52.6250   13.0575 H   0  0  0  0  0  0  0  0  0  0  0  0
   31.8925   53.8822   11.8457 H   0  0  0  0  0  0  0  0  0  0  0  0
   32.3729   51.0940   10.1520 H   0  0  0  0  0  0  0  0  0  0  0  0
   29.4938   50.6895    9.6910 H   0  0  0  0  0  0  0  0  0  0  0  0
   31.8715   49.8794    8.1041 H   0  0  0  0  0  0  0  0  0  0  0  0
   30.1855   49.5758    7.6900 H   0  0  0  0  0  0  0  0  0  0  0  0
   29.7517   51.8962    7.5606 H   0  0  0  0  0  0  0  0  0  0  0  0
   31.4148   52.2379    8.0825 H   0  0  0  0  0  0  0  0  0  0  0  0
   28.5616   49.1202   10.8010 H   0  0  0  0  0  0  0  0  0  0  0  0
   30.0788   46.6197   11.3879 H   0  0  0  0  0  0  0  0  0  0  0  0
   28.4228   46.2536   13.0903 H   0  0  0  0  0  0  0  0  0  0  0  0
   27.7502   47.8757   12.6764 H   0  0  0  0  0  0  0  0  0  0  0  0
   29.6684   48.9726   13.5992 H   0  0  0  0  0  0  0  0  0  0  0  0
   28.6638   46.6711   15.2456 H   0  0  0  0  0  0  0  0  0  0  0  0
   27.8424   48.1997   15.0408 H   0  0  0  0  0  0  0  0  0  0  0  0
   29.3714   48.1356   15.8841 H   0  0  0  0  0  0  0  0  0  0  0  0
   30.8617   46.2877   14.0039 H   0  0  0  0  0  0  0  0  0  0  0  0
   31.5032   47.8111   14.5702 H   0  0  0  0  0  0  0  0  0  0  0  0
   31.3805   47.4982   12.8555 H   0  0  0  0  0  0  0  0  0  0  0  0
   28.6823   44.6247   11.1078 H   0  0  0  0  0  0  0  0  0  0  0  0
   27.1536   44.7073    8.7716 H   0  0  0  0  0  0  0  0  0  0  0  0
   26.9895   42.6731   11.0621 H   0  0  0  0  0  0  0  0  0  0  0  0
   28.0701   42.5475    9.6948 H   0  0  0  0  0  0  0  0  0  0  0  0
   26.3436   42.4206    9.4583 H   0  0  0  0  0  0  0  0  0  0  0  0
   24.9033   44.6449    8.4790 H   0  0  0  0  0  0  0  0  0  0  0  0
   23.3216   46.3635   10.0341 H   0  0  0  0  0  0  0  0  0  0  0  0
   22.9142   45.8841    7.7033 H   0  0  0  0  0  0  0  0  0  0  0  0
   22.6111   44.1603    8.1578 H   0  0  0  0  0  0  0  0  0  0  0  0
   20.5830   44.6914    9.1305 H   0  0  0  0  0  0  0  0  0  0  0  0
   20.6324   45.3841    7.4971 H   0  0  0  0  0  0  0  0  0  0  0  0
   21.2932   47.5076    8.5677 H   0  0  0  0  0  0  0  0  0  0  0  0
   20.8102   46.7490   10.0927 H   0  0  0  0  0  0  0  0  0  0  0  0
   18.5624   46.5647    9.4217 H   0  0  0  0  0  0  0  0  0  0  0  0
   19.1268   48.2183    8.9349 H   0  0  0  0  0  0  0  0  0  0  0  0
   18.6214   45.9961    7.1441 H   0  0  0  0  0  0  0  0  0  0  0  0
   19.2067   47.4981    6.7247 H   0  0  0  0  0  0  0  0  0  0  0  0
   23.3309   42.8193   10.1540 H   0  0  0  0  0  0  0  0  0  0  0  0
   21.8941   43.1317   12.7515 H   0  0  0  0  0  0  0  0  0  0  0  0
   23.1910   41.9834   12.5219 H   0  0  0  0  0  0  0  0  0  0  0  0
   21.6639   41.7514   11.7050 H   0  0  0  0  0  0  0  0  0  0  0  0
  1 37  1  0  0  0  0
  1 38  1  0  0  0  0
  1 39  1  0  0  0  0
  2  3  2  0  0  0  0
  2  1  1  0  0  0  0
  4  2  1  0  0  0  0
  4 40  1  0  0  0  0
  5  6  1  0  0  0  0
  5  4  1  0  0  0  0
  5 41  1  1  0  0  0
  6  7  2  0  0  0  0
  6 13  1  0  0  0  0
  8  5  1  0  0  0  0
  8 42  1  0  0  0  0
  8 43  1  0  0  0  0
  9  8  1  0  0  0  0
  9 44  1  0  0  0  0
  9 45  1  0  0  0  0
 10  9  1  0  0  0  0
 11 10  1  0  0  0  0
 12 10  2  0  0  0  0
 13 14  1  0  0  0  0
 13 46  1  0  0  0  0
 14 17  1  0  0  0  0
 14 47  1  1  0  0  0
 15 21  1  0  0  0  0
 15 14  1  0  0  0  0
 16 15  2  0  0  0  0
 17 18  1  0  0  0  0
 17 48  1  0  0  0  0
 17 49  1  0  0  0  0
 18 20  1  0  0  0  0
 18 19  1  0  0  0  0
 18 50  1  0  0  0  0
 19 51  1  0  0  0  0
 19 52  1  0  0  0  0
 19 53  1  0  0  0  0
 20 54  1  0  0  0  0
 20 55  1  0  0  0  0
 20 56  1  0  0  0  0
 21 57  1  0  0  0  0
 22 25  1  0  0  0  0
 22 23  1  0  0  0  0
 22 21  1  0  0  0  0
 22 58  1  6  0  0  0
 23 24  2  0  0  0  0
 25 59  1  0  0  0  0
 25 60  1  0  0  0  0
 25 61  1  0  0  0  0
 26 27  1  0  0  0  0
 26 23  1  0  0  0  0
 26 62  1  0  0  0  0
 27 28  1  0  0  0  0
 27 63  1  1  0  0  0
 28 35  1  0  0  0  0
 28 29  2  0  0  0  0
 30 31  1  0  0  0  0
 30 27  1  0  0  0  0
 30 64  1  0  0  0  0
 30 65  1  0  0  0  0
 31 32  1  0  0  0  0
 31 66  1  0  0  0  0
 31 67  1  0  0  0  0
 32 68  1  0  0  0  0
 32 69  1  0  0  0  0
 33 32  1  0  0  0  0
 33 70  1  0  0  0  0
 33 71  1  0  0  0  0
 34 33  1  0  0  0  0
 34 72  1  0  0  0  0
 34 73  1  0  0  0  0
 35 36  1  0  0  0  0
 35 74  1  0  0  0  0
 36 75  1  0  0  0  0
 36 76  1  0  0  0  0
 36 77  1  0  0  0  0
M  CHG  1  11  -1
M  END
>  <MODEL>
       0

$$$$
selected_4mers/ELAK/41_noH.pdb
 OpenBabel03042517493D

 77 76  0  0  1  0  0  0  0  0999 V2000
   47.5020   53.2570   92.1280 C   0  0  0  0  0  0  0  0  0  0  0  0
   46.1320   52.6570   92.4290 C   0  0  0  0  0  0  0  0  0  0  0  0
   45.7460   51.6480   91.8380 O   0  0  0  0  0  0  0  0  0  0  0  0
   45.4060   53.2800   93.3520 N   0  0  0  0  0  0  0  0  0  0  0  0
   44.0820   52.8090   93.7410 C   0  0  2  0  0  0  0  0  0  0  0  0
   43.1220   52.7880   92.5570 C   0  0  0  0  0  0  0  0  0  0  0  0
   42.3360   51.8530   92.3980 O   0  0  0  0  0  0  0  0  0  0  0  0
   43.5100   53.7030   94.8430 C   0  0  0  0  0  0  0  0  0  0  0  0
   42.0700   53.3930   95.2080 C   0  0  0  0  0  0  0  0  0  0  0  0
   41.4650   54.4410   96.1210 C   0  0  0  0  0  0  0  0  0  0  0  0
   41.9320   54.5730   97.2740 O   0  0  0  0  0  0  0  0  0  0  0  0
   40.5250   55.1390   95.6820 O   0  0  0  0  0  0  0  0  0  0  0  0
   43.1910   53.8220   91.7290 N   0  0  0  0  0  0  0  0  0  0  0  0
   42.3230   53.9250   90.5620 C   0  0  2  0  0  0  0  0  0  0  0  0
   42.6580   52.8230   89.5630 C   0  0  0  0  0  0  0  0  0  0  0  0
   41.7700   52.1250   89.0690 O   0  0  0  0  0  0  0  0  0  0  0  0
   42.4970   55.2910   89.8950 C   0  0  0  0  0  0  0  0  0  0  0  0
   41.2530   55.9780   89.3250 C   0  0  0  0  0  0  0  0  0  0  0  0
   41.6870   57.1470   88.4560 C   0  0  0  0  0  0  0  0  0  0  0  0
   40.4190   55.0000   88.5190 C   0  0  0  0  0  0  0  0  0  0  0  0
   43.9460   52.6760   89.2660 N   0  0  0  0  0  0  0  0  0  0  0  0
   44.4010   51.6610   88.3270 C   0  0  2  0  0  0  0  0  0  0  0  0
   43.9600   50.2710   88.7680 C   0  0  0  0  0  0  0  0  0  0  0  0
   43.6100   49.4340   87.9390 O   0  0  0  0  0  0  0  0  0  0  0  0
   45.9200   51.7130   88.1950 C   0  0  0  0  0  0  0  0  0  0  0  0
   43.9810   50.0210   90.0740 N   0  0  0  0  0  0  0  0  0  0  0  0
   43.5700   48.7190   90.5890 C   0  0  2  0  0  0  0  0  0  0  0  0
   42.0940   48.4810   90.2810 C   0  0  0  0  0  0  0  0  0  0  0  0
   41.7040   47.3900   89.8760 O   0  0  0  0  0  0  0  0  0  0  0  0
   43.8000   48.6350   92.1020 C   0  0  0  0  0  0  0  0  0  0  0  0
   43.4730   47.2640   92.6850 C   0  0  0  0  0  0  0  0  0  0  0  0
   43.8280   47.1630   94.1640 C   0  0  0  0  0  0  0  0  0  0  0  0
   43.4680   45.7840   94.7100 C   0  0  0  0  0  0  0  0  0  0  0  0
   43.8460   45.6030   96.1410 N   0  0  0  0  0  0  0  0  0  0  0  0
   41.2800   49.5110   90.4740 N   0  0  0  0  0  0  0  0  0  0  0  0
   39.8480   49.4170   90.2140 C   0  0  0  0  0  0  0  0  0  0  0  0
   47.9891   52.6738   91.3747 H   0  0  0  0  0  0  0  0  0  0  0  0
   48.0951   53.2564   93.0186 H   0  0  0  0  0  0  0  0  0  0  0  0
   47.3827   54.2616   91.7797 H   0  0  0  0  0  0  0  0  0  0  0  0
   45.7734   54.0837   93.7860 H   0  0  0  0  0  0  0  0  0  0  0  0
   44.1891   51.8078   94.1031 H   0  0  0  0  0  0  0  0  0  0  0  0
   43.5613   54.7191   94.5117 H   0  0  0  0  0  0  0  0  0  0  0  0
   44.0958   53.5240   95.7203 H   0  0  0  0  0  0  0  0  0  0  0  0
   42.0380   52.4456   95.7043 H   0  0  0  0  0  0  0  0  0  0  0  0
   41.4999   53.3818   94.3026 H   0  0  0  0  0  0  0  0  0  0  0  0
   43.8440   54.5370   91.9067 H   0  0  0  0  0  0  0  0  0  0  0  0
   41.3072   53.8163   90.8800 H   0  0  0  0  0  0  0  0  0  0  0  0
   42.9176   55.9501   90.6254 H   0  0  0  0  0  0  0  0  0  0  0  0
   43.1083   55.0938   89.0392 H   0  0  0  0  0  0  0  0  0  0  0  0
   40.6478   56.3358   90.1316 H   0  0  0  0  0  0  0  0  0  0  0  0
   42.2920   56.7871   87.6502 H   0  0  0  0  0  0  0  0  0  0  0  0
   42.2523   57.8387   89.0450 H   0  0  0  0  0  0  0  0  0  0  0  0
   40.8223   57.6382   88.0611 H   0  0  0  0  0  0  0  0  0  0  0  0
   40.9998   54.6242   87.7027 H   0  0  0  0  0  0  0  0  0  0  0  0
   39.5517   55.4989   88.1398 H   0  0  0  0  0  0  0  0  0  0  0  0
   40.1173   54.1872   89.1461 H   0  0  0  0  0  0  0  0  0  0  0  0
   44.6077   53.2679   89.6915 H   0  0  0  0  0  0  0  0  0  0  0  0
   43.9587   51.8644   87.3742 H   0  0  0  0  0  0  0  0  0  0  0  0
   46.3677   51.5102   89.1454 H   0  0  0  0  0  0  0  0  0  0  0  0
   46.2159   52.6857   87.8616 H   0  0  0  0  0  0  0  0  0  0  0  0
   46.2417   50.9796   87.4854 H   0  0  0  0  0  0  0  0  0  0  0  0
   44.2768   50.7213   90.6996 H   0  0  0  0  0  0  0  0  0  0  0  0
   44.1613   47.9660   90.1112 H   0  0  0  0  0  0  0  0  0  0  0  0
   43.1809   49.3645   92.5810 H   0  0  0  0  0  0  0  0  0  0  0  0
   44.8405   48.8140   92.2756 H   0  0  0  0  0  0  0  0  0  0  0  0
   44.0247   46.5213   92.1475 H   0  0  0  0  0  0  0  0  0  0  0  0
   42.4180   47.1122   92.5911 H   0  0  0  0  0  0  0  0  0  0  0  0
   43.2862   47.9087   94.7074 H   0  0  0  0  0  0  0  0  0  0  0  0
   44.8812   47.3146   94.2771 H   0  0  0  0  0  0  0  0  0  0  0  0
   43.9762   45.0441   94.1276 H   0  0  0  0  0  0  0  0  0  0  0  0
   42.4046   45.6840   94.6464 H   0  0  0  0  0  0  0  0  0  0  0  0
   44.8573   45.6923   96.2394 H   0  0  0  0  0  0  0  0  0  0  0  0
   43.5542   44.6776   96.4553 H   0  0  0  0  0  0  0  0  0  0  0  0
   41.6527   50.3614   90.8015 H   0  0  0  0  0  0  0  0  0  0  0  0
   39.6124   48.4328   89.8665 H   0  0  0  0  0  0  0  0  0  0  0  0
   39.5730   50.1337   89.4686 H   0  0  0  0  0  0  0  0  0  0  0  0
   39.3079   49.6155   91.1161 H   0  0  0  0  0  0  0  0  0  0  0  0
  1  2  1  0  0  0  0
  1 37  1  0  0  0  0
  1 38  1  0  0  0  0
  1 39  1  0  0  0  0
  2  4  1  0  0  0  0
  3  2  2  0  0  0  0
  4  5  1  0  0  0  0
  4 40  1  0  0  0  0
  5  8  1  0  0  0  0
  5 41  1  1  0  0  0
  6  5  1  0  0  0  0
  7  6  2  0  0  0  0
  8  9  1  0  0  0  0
  8 42  1  0  0  0  0
  8 43  1  0  0  0  0
  9 10  1  0  0  0  0
  9 44  1  0  0  0  0
  9 45  1  0  0  0  0
 10 11  1  0  0  0  0
 12 10  2  0  0  0  0
 13  6  1  0  0  0  0
 13 46  1  0  0  0  0
 14 13  1  0  0  0  0
 14 47  1  1  0  0  0
 15 14  1  0  0  0  0
 16 15  2  0  0  0  0
 17 14  1  0  0  0  0
 17 48  1  0  0  0  0
 17 49  1  0  0  0  0
 18 17  1  0  0  0  0
 18 50  1  0  0  0  0
 19 18  1  0  0  0  0
 19 51  1  0  0  0  0
 19 52  1  0  0  0  0
 19 53  1  0  0  0  0
 20 18  1  0  0  0  0
 20 54  1  0  0  0  0
 20 55  1  0  0  0  0
 20 56  1  0  0  0  0
 21 15  1  0  0  0  0
 21 57  1  0  0  0  0
 22 23  1  0  0  0  0
 22 21  1  0  0  0  0
 22 58  1  6  0  0  0
 23 26  1  0  0  0  0
 24 23  2  0  0  0  0
 25 22  1  0  0  0  0
 25 59  1  0  0  0  0
 25 60  1  0  0  0  0
 25 61  1  0  0  0  0
 26 27  1  0  0  0  0
 26 62  1  0  0  0  0
 27 30  1  0  0  0  0
 27 63  1  6  0  0  0
 28 35  1  0  0  0  0
 28 27  1  0  0  0  0
 29 28  2  0  0  0  0
 30 31  1  0  0  0  0
 30 64  1  0  0  0  0
 30 65  1  0  0  0  0
 31 32  1  0  0  0  0
 31 66  1  0  0  0  0
 31 67  1  0  0  0  0
 32 33  1  0  0  0  0
 32 68  1  0  0  0  0
 32 69  1  0  0  0  0
 33 34  1  0  0  0  0
 33 70  1  0  0  0  0
 33 71  1  0  0  0  0
 34 72  1  0  0  0  0
 34 73  1  0  0  0  0
 35 74  1  0  0  0  0
 36 35  1  0  0  0  0
 36 75  1  0  0  0  0
 36 76  1  0  0  0  0
 36 77  1  0  0  0  0
M  CHG  1  11  -1
M  END
>  <MODEL>
       0

$$$$
selected_4mers/ELAK/42_noH.pdb
 OpenBabel03042517493D

 77 76  0  0  1  0  0  0  0  0999 V2000
    1.9820    7.8240   20.7660 C   0  0  0  0  0  0  0  0  0  0  0  0
    0.8100    7.5710   21.7020 C   0  0  0  0  0  0  0  0  0  0  0  0
    0.2930    8.5220   22.2730 O   0  0  0  0  0  0  0  0  0  0  0  0
    0.3800    6.3160   21.8770 N   0  0  0  0  0  0  0  0  0  0  0  0
   -0.7870    6.0790   22.7150 C   0  0  2  0  0  0  0  0  0  0  0  0
   -0.4730    6.3630   24.1830 C   0  0  0  0  0  0  0  0  0  0  0  0
   -1.4060    6.4020   24.9930 O   0  0  0  0  0  0  0  0  0  0  0  0
   -1.3020    4.6510   22.5590 C   0  0  0  0  0  0  0  0  0  0  0  0
   -0.4030    3.5790   23.1170 C   0  0  0  0  0  0  0  0  0  0  0  0
   -0.8440    2.1720   22.7990 C   0  0  0  0  0  0  0  0  0  0  0  0
   -1.9770    1.9580   22.3630 O   0  0  0  0  0  0  0  0  0  0  0  0
   -0.0680    1.2250   23.0030 O   0  0  0  0  0  0  0  0  0  0  0  0
    0.7720    6.5590   24.5630 N   0  0  0  0  0  0  0  0  0  0  0  0
    1.1670    6.8800   25.9130 C   0  0  2  0  0  0  0  0  0  0  0  0
    1.2060    8.3670   26.1930 C   0  0  0  0  0  0  0  0  0  0  0  0
    1.5220    8.7590   27.3200 O   0  0  0  0  0  0  0  0  0  0  0  0
    2.5360    6.2690   26.2160 C   0  0  0  0  0  0  0  0  0  0  0  0
    2.6400    4.7530   26.0840 C   0  0  0  0  0  0  0  0  0  0  0  0
    4.1090    4.3230   26.1960 C   0  0  0  0  0  0  0  0  0  0  0  0
    1.7760    4.0190   27.1110 C   0  0  0  0  0  0  0  0  0  0  0  0
    0.8580    9.2030   25.2260 N   0  0  0  0  0  0  0  0  0  0  0  0
    1.1420   10.6020   25.2990 C   0  0  2  0  0  0  0  0  0  0  0  0
    0.5070   11.2970   26.5020 C   0  0  0  0  0  0  0  0  0  0  0  0
    1.0720   12.3190   26.9770 O   0  0  0  0  0  0  0  0  0  0  0  0
    0.7150   11.2980   23.9990 C   0  0  0  0  0  0  0  0  0  0  0  0
   -0.6530   10.8600   27.0000 N   0  0  0  0  0  0  0  0  0  0  0  0
   -1.3180   11.5000   28.1180 C   0  0  2  0  0  0  0  0  0  0  0  0
   -1.1630   10.6890   29.4040 C   0  0  0  0  0  0  0  0  0  0  0  0
   -1.8390   10.9720   30.4010 O   0  0  0  0  0  0  0  0  0  0  0  0
   -2.7740   11.7650   27.6890 C   0  0  0  0  0  0  0  0  0  0  0  0
   -2.7540   12.8230   26.5530 C   0  0  0  0  0  0  0  0  0  0  0  0
   -4.0910   13.1470   25.9880 C   0  0  0  0  0  0  0  0  0  0  0  0
   -3.9890   14.1520   24.8050 C   0  0  0  0  0  0  0  0  0  0  0  0
   -5.2650   14.2120   24.0530 N   0  0  0  0  0  0  0  0  0  0  0  0
   -0.2310    9.7140   29.4050 N   0  0  0  0  0  0  0  0  0  0  0  0
   -0.0360    8.7850   30.5420 C   0  0  0  0  0  0  0  0  0  0  0  0
    2.3145    6.8952   20.3516 H   0  0  0  0  0  0  0  0  0  0  0  0
    2.7826    8.2780   21.3116 H   0  0  0  0  0  0  0  0  0  0  0  0
    1.6733    8.4767   19.9763 H   0  0  0  0  0  0  0  0  0  0  0  0
    0.8459    5.5637   21.4454 H   0  0  0  0  0  0  0  0  0  0  0  0
   -1.5537    6.7513   22.3908 H   0  0  0  0  0  0  0  0  0  0  0  0
   -1.4359    4.4599   21.5147 H   0  0  0  0  0  0  0  0  0  0  0  0
   -2.2096    4.6000   23.1234 H   0  0  0  0  0  0  0  0  0  0  0  0
   -0.3718    3.6881   24.1810 H   0  0  0  0  0  0  0  0  0  0  0  0
    0.5541    3.7116   22.6573 H   0  0  0  0  0  0  0  0  0  0  0  0
    1.4790    6.4816   23.8823 H   0  0  0  0  0  0  0  0  0  0  0  0
    0.4178    6.4627   26.5529 H   0  0  0  0  0  0  0  0  0  0  0  0
    2.7938    6.5277   27.2217 H   0  0  0  0  0  0  0  0  0  0  0  0
    3.1980    6.6674   25.4757 H   0  0  0  0  0  0  0  0  0  0  0  0
    2.2638    4.4816   25.1198 H   0  0  0  0  0  0  0  0  0  0  0  0
    4.4873    4.5935   27.1596 H   0  0  0  0  0  0  0  0  0  0  0  0
    4.6828    4.8127   25.4372 H   0  0  0  0  0  0  0  0  0  0  0  0
    4.1810    3.2630   26.0692 H   0  0  0  0  0  0  0  0  0  0  0  0
    2.1138    4.2586   28.0976 H   0  0  0  0  0  0  0  0  0  0  0  0
    1.8542    2.9635   26.9537 H   0  0  0  0  0  0  0  0  0  0  0  0
    0.7557    4.3215   27.0000 H   0  0  0  0  0  0  0  0  0  0  0  0
    0.3904    8.8506   24.4345 H   0  0  0  0  0  0  0  0  0  0  0  0
    2.2007   10.6855   25.4299 H   0  0  0  0  0  0  0  0  0  0  0  0
   -0.3444   11.2086   23.8779 H   0  0  0  0  0  0  0  0  0  0  0  0
    1.2089   10.8375   23.1690 H   0  0  0  0  0  0  0  0  0  0  0  0
    0.9828   12.3330   24.0439 H   0  0  0  0  0  0  0  0  0  0  0  0
   -1.0741   10.0699   26.5905 H   0  0  0  0  0  0  0  0  0  0  0  0
   -0.8665   12.4388   28.3622 H   0  0  0  0  0  0  0  0  0  0  0  0
   -3.2186   10.8589   27.3336 H   0  0  0  0  0  0  0  0  0  0  0  0
   -3.3472   12.1215   28.5192 H   0  0  0  0  0  0  0  0  0  0  0  0
   -2.3288   13.7241   26.9430 H   0  0  0  0  0  0  0  0  0  0  0  0
   -2.1804   12.4010   25.7544 H   0  0  0  0  0  0  0  0  0  0  0  0
   -4.5471   12.2447   25.6378 H   0  0  0  0  0  0  0  0  0  0  0  0
   -4.6779   13.5996   26.7598 H   0  0  0  0  0  0  0  0  0  0  0  0
   -3.7625   15.1245   25.1895 H   0  0  0  0  0  0  0  0  0  0  0  0
   -3.2157   13.8239   24.1422 H   0  0  0  0  0  0  0  0  0  0  0  0
   -6.0114   14.5239   24.6742 H   0  0  0  0  0  0  0  0  0  0  0  0
   -5.4896   13.2856   23.6900 H   0  0  0  0  0  0  0  0  0  0  0  0
    0.3462    9.6153   28.6136 H   0  0  0  0  0  0  0  0  0  0  0  0
   -0.7341    9.0198   31.3182 H   0  0  0  0  0  0  0  0  0  0  0  0
    0.9612    8.8846   30.9170 H   0  0  0  0  0  0  0  0  0  0  0  0
   -0.1942    7.7795   30.2122 H   0  0  0  0  0  0  0  0  0  0  0  0
  1  2  1  0  0  0  0
  1 37  1  0  0  0  0
  1 38  1  0  0  0  0
  1 39  1  0  0  0  0
  2  4  1  0  0  0  0
  2  3  2  0  0  0  0
  4  5  1  0  0  0  0
  4 40  1  0  0  0  0
  5  6  1  0  0  0  0
  5 41  1  6  0  0  0
  6 13  1  0  0  0  0
  6  7  2  0  0  0  0
  8  5  1  0  0  0  0
  8  9  1  0  0  0  0
  8 42  1  0  0  0  0
  8 43  1  0  0  0  0
  9 44  1  0  0  0  0
  9 45  1  0  0  0  0
 10 12  1  0  0  0  0
 10  9  1  0  0  0  0
 11 10  2  0  0  0  0
 13 14  1  0  0  0  0
 13 46  1  0  0  0  0
 14 15  1  0  0  0  0
 14 17  1  0  0  0  0
 14 47  1  1  0  0  0
 15 16  2  0  0  0  0
 17 48  1  0  0  0  0
 17 49  1  0  0  0  0
 18 19  1  0  0  0  0
 18 17  1  0  0  0  0
 18 20  1  0  0  0  0
 18 50  1  0  0  0  0
 19 51  1  0  0  0  0
 19 52  1  0  0  0  0
 19 53  1  0  0  0  0
 20 54  1  0  0  0  0
 20 55  1  0  0  0  0
 20 56  1  0  0  0  0
 21 22  1  0  0  0  0
 21 15  1  0  0  0  0
 21 57  1  0  0  0  0
 22 23  1  0  0  0  0
 22 58  1  1  0  0  0
 23 24  2  0  0  0  0
 23 26  1  0  0  0  0
 25 22  1  0  0  0  0
 25 59  1  0  0  0  0
 25 60  1  0  0  0  0
 25 61  1  0  0  0  0
 26 27  1  0  0  0  0
 26 62  1  0  0  0  0
 27 28  1  0  0  0  0
 27 63  1  1  0  0  0
 28 35  1  0  0  0  0
 28 29  2  0  0  0  0
 30 27  1  0  0  0  0
 30 64  1  0  0  0  0
 30 65  1  0  0  0  0
 31 30  1  0  0  0  0
 31 66  1  0  0  0  0
 31 67  1  0  0  0  0
 32 31  1  0  0  0  0
 32 68  1  0  0  0  0
 32 69  1  0  0  0  0
 33 32  1  0  0  0  0
 33 70  1  0  0  0  0
 33 71  1  0  0  0  0
 34 33  1  0  0  0  0
 34 72  1  0  0  0  0
 34 73  1  0  0  0  0
 35 36  1  0  0  0  0
 35 74  1  0  0  0  0
 36 75  1  0  0  0  0
 36 76  1  0  0  0  0
 36 77  1  0  0  0  0
M  CHG  1  12  -1
M  END
>  <MODEL>
       0

$$$$
selected_4mers/ELAK/43_noH.pdb
 OpenBabel03042517493D

 77 76  0  0  1  0  0  0  0  0999 V2000
   -4.5880    6.3990   -9.7810 C   0  0  0  0  0  0  0  0  0  0  0  0
   -4.6960    4.8950   -9.5410 C   0  0  0  0  0  0  0  0  0  0  0  0
   -4.1050    4.3680   -8.6000 O   0  0  0  0  0  0  0  0  0  0  0  0
   -5.3680    4.1940  -10.4460 N   0  0  0  0  0  0  0  0  0  0  0  0
   -5.5010    2.7290  -10.3410 C   0  0  2  0  0  0  0  0  0  0  0  0
   -4.1630    2.0000  -10.4710 C   0  0  0  0  0  0  0  0  0  0  0  0
   -3.8910    1.0420   -9.7570 O   0  0  0  0  0  0  0  0  0  0  0  0
   -6.5290    2.2100  -11.3450 C   0  0  0  0  0  0  0  0  0  0  0  0
   -7.9680    2.6270  -11.0490 C   0  0  0  0  0  0  0  0  0  0  0  0
   -8.5160    2.0400   -9.7540 C   0  0  0  0  0  0  0  0  0  0  0  0
   -8.0810    0.9610   -9.3110 O   0  0  0  0  0  0  0  0  0  0  0  0
   -9.4250    2.6710   -9.1690 O   0  0  0  0  0  0  0  0  0  0  0  0
   -3.3070    2.4590  -11.3700 N   0  0  0  0  0  0  0  0  0  0  0  0
   -1.9700    1.8880  -11.4810 C   0  0  2  0  0  0  0  0  0  0  0  0
   -1.1460    2.1250  -10.2440 C   0  0  0  0  0  0  0  0  0  0  0  0
   -0.4410    1.2120   -9.7950 O   0  0  0  0  0  0  0  0  0  0  0  0
   -1.2670    2.4060  -12.7210 C   0  0  0  0  0  0  0  0  0  0  0  0
   -1.9340    1.9060  -13.9820 C   0  0  0  0  0  0  0  0  0  0  0  0
   -1.4990    2.7640  -15.1210 C   0  0  0  0  0  0  0  0  0  0  0  0
   -1.5550    0.4570  -14.2280 C   0  0  0  0  0  0  0  0  0  0  0  0
   -1.2200    3.2920   -9.6410 N   0  0  0  0  0  0  0  0  0  0  0  0
   -0.5280    3.5480   -8.3940 C   0  0  2  0  0  0  0  0  0  0  0  0
   -1.0600    2.6600   -7.2810 C   0  0  0  0  0  0  0  0  0  0  0  0
   -0.2700    2.1700   -6.4700 O   0  0  0  0  0  0  0  0  0  0  0  0
   -0.6610    5.0030   -8.0160 C   0  0  0  0  0  0  0  0  0  0  0  0
   -2.3770    2.4490   -7.2440 N   0  0  0  0  0  0  0  0  0  0  0  0
   -3.0080    1.5490   -6.2720 C   0  0  2  0  0  0  0  0  0  0  0  0
   -2.5090    0.1210   -6.4260 C   0  0  0  0  0  0  0  0  0  0  0  0
   -2.3120   -0.5800   -5.4290 O   0  0  0  0  0  0  0  0  0  0  0  0
   -4.5190    1.5280   -6.4840 C   0  0  0  0  0  0  0  0  0  0  0  0
   -5.3480    2.4720   -5.6640 C   0  0  0  0  0  0  0  0  0  0  0  0
   -6.8280    2.1010   -5.7760 C   0  0  0  0  0  0  0  0  0  0  0  0
   -7.7040    3.3370   -5.8780 C   0  0  0  0  0  0  0  0  0  0  0  0
   -9.1550    3.0130   -6.0880 N   0  0  0  0  0  0  0  0  0  0  0  0
   -2.3430   -0.3230   -7.6740 N   0  0  0  0  0  0  0  0  0  0  0  0
   -1.9120   -1.6900   -7.9700 C   0  0  0  0  0  0  0  0  0  0  0  0
   -5.1679    6.6657  -10.6398 H   0  0  0  0  0  0  0  0  0  0  0  0
   -3.5639    6.6611   -9.9467 H   0  0  0  0  0  0  0  0  0  0  0  0
   -4.9565    6.9242   -8.9247 H   0  0  0  0  0  0  0  0  0  0  0  0
   -5.7868    4.6624  -11.2039 H   0  0  0  0  0  0  0  0  0  0  0  0
   -5.8555    2.5144   -9.3545 H   0  0  0  0  0  0  0  0  0  0  0  0
   -6.2663    2.5798  -12.3141 H   0  0  0  0  0  0  0  0  0  0  0  0
   -6.5024    1.1421  -11.2840 H   0  0  0  0  0  0  0  0  0  0  0  0
   -8.5883    2.3014  -11.8578 H   0  0  0  0  0  0  0  0  0  0  0  0
   -7.9712    3.6913  -10.9386 H   0  0  0  0  0  0  0  0  0  0  0  0
   -3.5754    3.1926  -11.9692 H   0  0  0  0  0  0  0  0  0  0  0  0
   -2.0819    0.8282  -11.5767 H   0  0  0  0  0  0  0  0  0  0  0  0
   -1.2922    3.4757  -12.7144 H   0  0  0  0  0  0  0  0  0  0  0  0
   -0.2580    2.0502  -12.7097 H   0  0  0  0  0  0  0  0  0  0  0  0
   -2.9981    1.9584  -13.8825 H   0  0  0  0  0  0  0  0  0  0  0  0
   -0.4349    2.7118  -15.2208 H   0  0  0  0  0  0  0  0  0  0  0  0
   -1.7907    3.7768  -14.9363 H   0  0  0  0  0  0  0  0  0  0  0  0
   -1.9592    2.4192  -16.0234 H   0  0  0  0  0  0  0  0  0  0  0  0
   -0.4929    0.3787  -14.3311 H   0  0  0  0  0  0  0  0  0  0  0  0
   -2.0267    0.1122  -15.1244 H   0  0  0  0  0  0  0  0  0  0  0  0
   -1.8782   -0.1414  -13.4020 H   0  0  0  0  0  0  0  0  0  0  0  0
   -1.7588    4.0090  -10.0471 H   0  0  0  0  0  0  0  0  0  0  0  0
    0.5079    3.3181   -8.5321 H   0  0  0  0  0  0  0  0  0  0  0  0
   -1.6945    5.2420   -7.8758 H   0  0  0  0  0  0  0  0  0  0  0  0
   -0.2566    5.6127   -8.7968 H   0  0  0  0  0  0  0  0  0  0  0  0
   -0.1262    5.1858   -7.1075 H   0  0  0  0  0  0  0  0  0  0  0  0
   -2.9486    2.9162   -7.8954 H   0  0  0  0  0  0  0  0  0  0  0  0
   -2.7578    1.9153   -5.2983 H   0  0  0  0  0  0  0  0  0  0  0  0
   -4.8585    0.5359   -6.2710 H   0  0  0  0  0  0  0  0  0  0  0  0
   -4.6564    1.8526   -7.4943 H   0  0  0  0  0  0  0  0  0  0  0  0
   -5.2050    3.4706   -6.0207 H   0  0  0  0  0  0  0  0  0  0  0  0
   -5.0458    2.4059   -4.6397 H   0  0  0  0  0  0  0  0  0  0  0  0
   -6.9709    1.5002   -6.6498 H   0  0  0  0  0  0  0  0  0  0  0  0
   -7.1074    1.5627   -4.8945 H   0  0  0  0  0  0  0  0  0  0  0  0
   -7.6078    3.8986   -4.9723 H   0  0  0  0  0  0  0  0  0  0  0  0
   -7.3740    3.8933   -6.7304 H   0  0  0  0  0  0  0  0  0  0  0  0
   -9.5034    2.4807   -5.2907 H   0  0  0  0  0  0  0  0  0  0  0  0
   -9.2602    2.4596   -6.9384 H   0  0  0  0  0  0  0  0  0  0  0  0
   -2.5169    0.2919   -8.4230 H   0  0  0  0  0  0  0  0  0  0  0  0
   -1.7668   -2.2243   -7.0544 H   0  0  0  0  0  0  0  0  0  0  0  0
   -0.9929   -1.6636   -8.5172 H   0  0  0  0  0  0  0  0  0  0  0  0
   -2.6612   -2.1815   -8.5548 H   0  0  0  0  0  0  0  0  0  0  0  0
  1  2  1  0  0  0  0
  1 37  1  0  0  0  0
  1 38  1  0  0  0  0
  1 39  1  0  0  0  0
  2  3  2  0  0  0  0
  4  5  1  0  0  0  0
  4  2  1  0  0  0  0
  4 40  1  0  0  0  0
  5 41  1  1  0  0  0
  6  5  1  0  0  0  0
  6  7  2  0  0  0  0
  8  9  1  0  0  0  0
  8  5  1  0  0  0  0
  8 42  1  0  0  0  0
  8 43  1  0  0  0  0
  9 10  1  0  0  0  0
  9 44  1  0  0  0  0
  9 45  1  0  0  0  0
 10 11  2  0  0  0  0
 10 12  1  0  0  0  0
 13  6  1  0  0  0  0
 13 46  1  0  0  0  0
 14 13  1  0  0  0  0
 14 15  1  0  0  0  0
 14 47  1  6  0  0  0
 15 16  2  0  0  0  0
 15 21  1  0  0  0  0
 17 14  1  0  0  0  0
 17 48  1  0  0  0  0
 17 49  1  0  0  0  0
 18 17  1  0  0  0  0
 18 50  1  0  0  0  0
 19 18  1  0  0  0  0
 19 51  1  0  0  0  0
 19 52  1  0  0  0  0
 19 53  1  0  0  0  0
 20 18  1  0  0  0  0
 20 54  1  0  0  0  0
 20 55  1  0  0  0  0
 20 56  1  0  0  0  0
 21 22  1  0  0  0  0
 21 57  1  0  0  0  0
 22 25  1  0  0  0  0
 22 23  1  0  0  0  0
 22 58  1  6  0  0  0
 23 26  1  0  0  0  0
 23 24  2  0  0  0  0
 25 59  1  0  0  0  0
 25 60  1  0  0  0  0
 25 61  1  0  0  0  0
 26 27  1  0  0  0  0
 26 62  1  0  0  0  0
 27 63  1  1  0  0  0
 28 27  1  0  0  0  0
 28 29  2  0  0  0  0
 30 27  1  0  0  0  0
 30 31  1  0  0  0  0
 30 64  1  0  0  0  0
 30 65  1  0  0  0  0
 31 66  1  0  0  0  0
 31 67  1  0  0  0  0
 32 31  1  0  0  0  0
 32 68  1  0  0  0  0
 32 69  1  0  0  0  0
 33 32  1  0  0  0  0
 33 70  1  0  0  0  0
 33 71  1  0  0  0  0
 34 33  1  0  0  0  0
 34 72  1  0  0  0  0
 34 73  1  0  0  0  0
 35 28  1  0  0  0  0
 35 74  1  0  0  0  0
 36 35  1  0  0  0  0
 36 75  1  0  0  0  0
 36 76  1  0  0  0  0
 36 77  1  0  0  0  0
M  CHG  1  12  -1
M  END
>  <MODEL>
       0

$$$$
selected_4mers/ELAK/44_noH.pdb
 OpenBabel03042517493D

 77 76  0  0  1  0  0  0  0  0999 V2000
   57.7680   20.9060   17.9120 C   0  0  0  0  0  0  0  0  0  0  0  0
   58.4750   21.0300   19.2570 C   0  0  0  0  0  0  0  0  0  0  0  0
   58.6440   22.1380   19.7730 O   0  0  0  0  0  0  0  0  0  0  0  0
   58.8950   19.8990   19.8140 N   0  0  0  0  0  0  0  0  0  0  0  0
   59.5900   19.8790   21.0980 C   0  0  2  0  0  0  0  0  0  0  0  0
   61.0850   20.1930   20.9590 C   0  0  0  0  0  0  0  0  0  0  0  0
   61.9030   19.2870   20.8170 O   0  0  0  0  0  0  0  0  0  0  0  0
   59.4220   18.5060   21.7570 C   0  0  0  0  0  0  0  0  0  0  0  0
   57.9920   18.1760   22.1640 C   0  0  0  0  0  0  0  0  0  0  0  0
   57.8670   16.7820   22.7510 C   0  0  0  0  0  0  0  0  0  0  0  0
   58.6520   16.4540   23.6650 O   0  0  0  0  0  0  0  0  0  0  0  0
   56.9830   16.0180   22.3010 O   0  0  0  0  0  0  0  0  0  0  0  0
   61.4350   21.4750   21.0150 N   0  0  0  0  0  0  0  0  0  0  0  0
   62.8290   21.8990   20.8930 C   0  0  2  0  0  0  0  0  0  0  0  0
   63.6480   21.5770   22.1390 C   0  0  0  0  0  0  0  0  0  0  0  0
   64.8760   21.4980   22.0820 O   0  0  0  0  0  0  0  0  0  0  0  0
   62.9000   23.4040   20.6210 C   0  0  0  0  0  0  0  0  0  0  0  0
   62.3480   23.8740   19.2720 C   0  0  0  0  0  0  0  0  0  0  0  0
   62.3320   25.3980   19.2150 C   0  0  0  0  0  0  0  0  0  0  0  0
   63.2050   23.2960   18.1510 C   0  0  0  0  0  0  0  0  0  0  0  0
   62.9580   21.3980   23.2600 N   0  0  0  0  0  0  0  0  0  0  0  0
   63.6000   21.0980   24.5340 C   0  0  2  0  0  0  0  0  0  0  0  0
   64.4080   19.8030   24.5260 C   0  0  0  0  0  0  0  0  0  0  0  0
   65.3080   19.6340   25.3470 O   0  0  0  0  0  0  0  0  0  0  0  0
   62.5490   21.0510   25.6430 C   0  0  0  0  0  0  0  0  0  0  0  0
   64.0980   18.8850   23.6140 N   0  0  0  0  0  0  0  0  0  0  0  0
   64.8460   17.6340   23.5610 C   0  0  2  0  0  0  0  0  0  0  0  0
   66.1470   17.7690   22.7710 C   0  0  0  0  0  0  0  0  0  0  0  0
   66.8450   16.7830   22.5320 O   0  0  0  0  0  0  0  0  0  0  0  0
   63.9800   16.4960   23.0020 C   0  0  0  0  0  0  0  0  0  0  0  0
   63.2480   16.7920   21.7050 C   0  0  0  0  0  0  0  0  0  0  0  0
   62.3160   15.6370   21.3230 C   0  0  0  0  0  0  0  0  0  0  0  0
   63.0870   14.3340   21.1090 C   0  0  0  0  0  0  0  0  0  0  0  0
   62.2040   13.1740   20.7660 N   0  0  0  0  0  0  0  0  0  0  0  0
   66.4620   19.0020   22.3800 N   0  0  0  0  0  0  0  0  0  0  0  0
   67.6900   19.3240   21.6490 C   0  0  0  0  0  0  0  0  0  0  0  0
   57.4800   21.8779   17.5695 H   0  0  0  0  0  0  0  0  0  0  0  0
   56.8972   20.2940   18.0219 H   0  0  0  0  0  0  0  0  0  0  0  0
   58.4306   20.4590   17.2006 H   0  0  0  0  0  0  0  0  0  0  0  0
   58.7325   19.0480   19.3464 H   0  0  0  0  0  0  0  0  0  0  0  0
   59.1518   20.6425   21.7062 H   0  0  0  0  0  0  0  0  0  0  0  0
   60.0347   18.4781   22.6338 H   0  0  0  0  0  0  0  0  0  0  0  0
   59.7078   17.7787   21.0261 H   0  0  0  0  0  0  0  0  0  0  0  0
   57.3642   18.2431   21.3001 H   0  0  0  0  0  0  0  0  0  0  0  0
   57.6964   18.8760   22.9174 H   0  0  0  0  0  0  0  0  0  0  0  0
   60.7364   22.1570   21.1421 H   0  0  0  0  0  0  0  0  0  0  0  0
   63.2485   21.3528   20.0741 H   0  0  0  0  0  0  0  0  0  0  0  0
   62.3478   23.9013   21.3908 H   0  0  0  0  0  0  0  0  0  0  0  0
   63.9428   23.6428   20.6026 H   0  0  0  0  0  0  0  0  0  0  0  0
   61.3424   23.5285   19.1525 H   0  0  0  0  0  0  0  0  0  0  0  0
   63.3285   25.7698   19.3323 H   0  0  0  0  0  0  0  0  0  0  0  0
   61.7146   25.7779   20.0020 H   0  0  0  0  0  0  0  0  0  0  0  0
   61.9417   25.7155   18.2707 H   0  0  0  0  0  0  0  0  0  0  0  0
   64.2135   23.6359   18.2616 H   0  0  0  0  0  0  0  0  0  0  0  0
   62.8213   23.6192   17.2059 H   0  0  0  0  0  0  0  0  0  0  0  0
   63.1815   22.2273   18.1989 H   0  0  0  0  0  0  0  0  0  0  0  0
   61.9767   21.4706   23.2293 H   0  0  0  0  0  0  0  0  0  0  0  0
   64.3008   21.8863   24.7139 H   0  0  0  0  0  0  0  0  0  0  0  0
   61.8582   20.2579   25.4463 H   0  0  0  0  0  0  0  0  0  0  0  0
   62.0231   21.9823   25.6757 H   0  0  0  0  0  0  0  0  0  0  0  0
   63.0301   20.8799   26.5833 H   0  0  0  0  0  0  0  0  0  0  0  0
   63.3658   19.0497   22.9768 H   0  0  0  0  0  0  0  0  0  0  0  0
   65.1146   17.3899   24.5675 H   0  0  0  0  0  0  0  0  0  0  0  0
   64.6166   15.6526   22.8335 H   0  0  0  0  0  0  0  0  0  0  0  0
   63.2163   16.3291   23.7326 H   0  0  0  0  0  0  0  0  0  0  0  0
   62.6687   17.6834   21.8260 H   0  0  0  0  0  0  0  0  0  0  0  0
   63.9715   16.9172   20.9267 H   0  0  0  0  0  0  0  0  0  0  0  0
   61.6030   15.4929   22.1077 H   0  0  0  0  0  0  0  0  0  0  0  0
   61.8298   15.8911   20.4044 H   0  0  0  0  0  0  0  0  0  0  0  0
   63.7837   14.4787   20.3099 H   0  0  0  0  0  0  0  0  0  0  0  0
   63.5756   14.0991   22.0315 H   0  0  0  0  0  0  0  0  0  0  0  0
   61.7199   13.3631   19.8884 H   0  0  0  0  0  0  0  0  0  0  0  0
   61.5192   13.0365   21.5093 H   0  0  0  0  0  0  0  0  0  0  0  0
   65.8387   19.7338   22.5927 H   0  0  0  0  0  0  0  0  0  0  0  0
   68.2582   18.4305   21.4952 H   0  0  0  0  0  0  0  0  0  0  0  0
   68.2698   20.0222   22.2158 H   0  0  0  0  0  0  0  0  0  0  0  0
   67.4390   19.7545   20.7021 H   0  0  0  0  0  0  0  0  0  0  0  0
  1  2  1  0  0  0  0
  1 37  1  0  0  0  0
  1 38  1  0  0  0  0
  1 39  1  0  0  0  0
  2  3  2  0  0  0  0
  2  4  1  0  0  0  0
  4  5  1  0  0  0  0
  4 40  1  0  0  0  0
  5  8  1  0  0  0  0
  5 41  1  1  0  0  0
  6 13  1  0  0  0  0
  6  5  1  0  0  0  0
  7  6  2  0  0  0  0
  8  9  1  0  0  0  0
  8 42  1  0  0  0  0
  8 43  1  0  0  0  0
  9 10  1  0  0  0  0
  9 44  1  0  0  0  0
  9 45  1  0  0  0  0
 10 11  1  0  0  0  0
 12 10  2  0  0  0  0
 13 46  1  0  0  0  0
 14 13  1  0  0  0  0
 14 15  1  0  0  0  0
 14 47  1  6  0  0  0
 15 21  1  0  0  0  0
 16 15  2  0  0  0  0
 17 14  1  0  0  0  0
 17 48  1  0  0  0  0
 17 49  1  0  0  0  0
 18 17  1  0  0  0  0
 18 50  1  0  0  0  0
 19 18  1  0  0  0  0
 19 51  1  0  0  0  0
 19 52  1  0  0  0  0
 19 53  1  0  0  0  0
 20 18  1  0  0  0  0
 20 54  1  0  0  0  0
 20 55  1  0  0  0  0
 20 56  1  0  0  0  0
 21 22  1  0  0  0  0
 21 57  1  0  0  0  0
 22 25  1  0  0  0  0
 22 58  1  1  0  0  0
 23 22  1  0  0  0  0
 23 24  2  0  0  0  0
 25 59  1  0  0  0  0
 25 60  1  0  0  0  0
 25 61  1  0  0  0  0
 26 23  1  0  0  0  0
 26 62  1  0  0  0  0
 27 26  1  0  0  0  0
 27 63  1  1  0  0  0
 28 27  1  0  0  0  0
 29 28  2  0  0  0  0
 30 27  1  0  0  0  0
 30 64  1  0  0  0  0
 30 65  1  0  0  0  0
 31 30  1  0  0  0  0
 31 66  1  0  0  0  0
 31 67  1  0  0  0  0
 32 31  1  0  0  0  0
 32 68  1  0  0  0  0
 32 69  1  0  0  0  0
 33 32  1  0  0  0  0
 33 70  1  0  0  0  0
 33 71  1  0  0  0  0
 34 33  1  0  0  0  0
 34 72  1  0  0  0  0
 34 73  1  0  0  0  0
 35 28  1  0  0  0  0
 35 74  1  0  0  0  0
 36 35  1  0  0  0  0
 36 75  1  0  0  0  0
 36 76  1  0  0  0  0
 36 77  1  0  0  0  0
M  CHG  1  11  -1
M  END
>  <MODEL>
       0

$$$$
