selected_4mers/ELAR/220_noH.pdb
 OpenBabel03042517503D

 80 79  0  0  1  0  0  0  0  0999 V2000
   34.6000   29.8320   25.1800 C   0  0  0  0  0  0  0  0  0  0  0  0
   35.1580   30.6820   24.0630 C   0  0  0  0  0  0  0  0  0  0  0  0
   36.2100   31.2570   24.2060 O   0  0  0  0  0  0  0  0  0  0  0  0
   34.4370   30.7540   22.9520 N   0  0  0  0  0  0  0  0  0  0  0  0
   34.8770   31.5750   21.8330 C   0  0  2  0  0  0  0  0  0  0  0  0
   34.8560   33.0730   22.1940 C   0  0  0  0  0  0  0  0  0  0  0  0
   35.8340   33.7870   21.9930 O   0  0  0  0  0  0  0  0  0  0  0  0
   33.9840   31.3120   20.6060 C   0  0  0  0  0  0  0  0  0  0  0  0
   34.3460   30.0210   19.9150 C   0  0  0  0  0  0  0  0  0  0  0  0
   33.3860   29.6370   18.8060 C   0  0  0  0  0  0  0  0  0  0  0  0
   32.1370   29.7340   18.9560 O   0  0  0  0  0  0  0  0  0  0  0  0
   33.8980   29.1990   17.7640 O   0  0  0  0  0  0  0  0  0  0  0  0
   33.7340   33.5270   22.7370 N   0  0  0  0  0  0  0  0  0  0  0  0
   33.5530   34.9340   23.0910 C   0  0  2  0  0  0  0  0  0  0  0  0
   34.4920   35.4380   24.1730 C   0  0  0  0  0  0  0  0  0  0  0  0
   34.8430   36.6060   24.1900 O   0  0  0  0  0  0  0  0  0  0  0  0
   32.1070   35.2020   23.4800 C   0  0  0  0  0  0  0  0  0  0  0  0
   31.1610   35.1280   22.2900 C   0  0  0  0  0  0  0  0  0  0  0  0
   29.7600   35.2270   22.8180 C   0  0  0  0  0  0  0  0  0  0  0  0
   31.4260   36.2160   21.2430 C   0  0  0  0  0  0  0  0  0  0  0  0
   34.9360   34.5450   25.0500 N   0  0  0  0  0  0  0  0  0  0  0  0
   35.7270   34.9170   26.1850 C   0  0  2  0  0  0  0  0  0  0  0  0
   37.1400   35.3970   25.7810 C   0  0  0  0  0  0  0  0  0  0  0  0
   37.7810   36.1690   26.5000 O   0  0  0  0  0  0  0  0  0  0  0  0
   35.8010   33.7310   27.1560 C   0  0  0  0  0  0  0  0  0  0  0  0
   37.6190   34.9420   24.6310 N   0  0  0  0  0  0  0  0  0  0  0  0
   38.9230   35.3460   24.1240 C   0  0  2  0  0  0  0  0  0  0  0  0
   38.9840   36.8230   23.7030 C   0  0  0  0  0  0  0  0  0  0  0  0
   40.0750   37.3600   23.4970 O   0  0  0  0  0  0  0  0  0  0  0  0
   39.3250   34.4710   22.9360 C   0  0  0  0  0  0  0  0  0  0  0  0
   39.3530   32.9990   23.2630 C   0  0  0  0  0  0  0  0  0  0  0  0
   39.7600   32.1500   22.0740 C   0  0  0  0  0  0  0  0  0  0  0  0
   39.4250   30.7370   22.3350 N   0  0  0  0  0  0  0  0  0  0  0  0
   38.8300   29.9030   21.4770 C   0  0  0  0  0  0  0  0  0  0  0  0
   38.5150   30.2820   20.2320 N   0  0  0  0  0  0  0  0  0  0  0  0
   38.5550   28.6650   21.8730 N   0  0  0  0  0  0  0  0  0  0  0  0
   37.8190   37.4610   23.5690 N   0  0  0  0  0  0  0  0  0  0  0  0
   37.7240   38.8610   23.1990 C   0  0  0  0  0  0  0  0  0  0  0  0
   33.6682   29.4055   24.8722 H   0  0  0  0  0  0  0  0  0  0  0  0
   34.4451   30.4394   26.0472 H   0  0  0  0  0  0  0  0  0  0  0  0
   35.2914   29.0490   25.4119 H   0  0  0  0  0  0  0  0  0  0  0  0
   33.5958   30.2471   22.8833 H   0  0  0  0  0  0  0  0  0  0  0  0
   35.8866   31.3074   21.6006 H   0  0  0  0  0  0  0  0  0  0  0  0
   32.9640   31.2597   20.9250 H   0  0  0  0  0  0  0  0  0  0  0  0
   34.1296   32.1128   19.9114 H   0  0  0  0  0  0  0  0  0  0  0  0
   35.3245   30.1250   19.4947 H   0  0  0  0  0  0  0  0  0  0  0  0
   34.3003   29.2467   20.6521 H   0  0  0  0  0  0  0  0  0  0  0  0
   32.9984   32.8952   22.9074 H   0  0  0  0  0  0  0  0  0  0  0  0
   33.8061   35.4854   22.2097 H   0  0  0  0  0  0  0  0  0  0  0  0
   31.8057   34.4740   24.2039 H   0  0  0  0  0  0  0  0  0  0  0  0
   32.0550   36.1947   23.8759 H   0  0  0  0  0  0  0  0  0  0  0  0
   31.3179   34.1994   21.7822 H   0  0  0  0  0  0  0  0  0  0  0  0
   29.6332   36.1637   23.3195 H   0  0  0  0  0  0  0  0  0  0  0  0
   29.5807   34.4271   23.5057 H   0  0  0  0  0  0  0  0  0  0  0  0
   29.0671   35.1608   22.0054 H   0  0  0  0  0  0  0  0  0  0  0  0
   31.2859   37.1796   21.6866 H   0  0  0  0  0  0  0  0  0  0  0  0
   30.7459   36.0975   20.4255 H   0  0  0  0  0  0  0  0  0  0  0  0
   32.4311   36.1303   20.8861 H   0  0  0  0  0  0  0  0  0  0  0  0
   34.7141   33.5953   24.9156 H   0  0  0  0  0  0  0  0  0  0  0  0
   35.2557   35.7469   26.6687 H   0  0  0  0  0  0  0  0  0  0  0  0
   36.2725   32.9019   26.6710 H   0  0  0  0  0  0  0  0  0  0  0  0
   34.8121   33.4535   27.4561 H   0  0  0  0  0  0  0  0  0  0  0  0
   36.3700   34.0107   28.0179 H   0  0  0  0  0  0  0  0  0  0  0  0
   37.0764   34.3119   24.1040 H   0  0  0  0  0  0  0  0  0  0  0  0
   39.6080   35.2174   24.9358 H   0  0  0  0  0  0  0  0  0  0  0  0
   38.6232   34.6299   22.1441 H   0  0  0  0  0  0  0  0  0  0  0  0
   40.3185   34.7529   22.6561 H   0  0  0  0  0  0  0  0  0  0  0  0
   40.0521   32.8366   24.0565 H   0  0  0  0  0  0  0  0  0  0  0  0
   38.3630   32.7091   23.5471 H   0  0  0  0  0  0  0  0  0  0  0  0
   39.2372   32.4845   21.2024 H   0  0  0  0  0  0  0  0  0  0  0  0
   40.8145   32.2414   21.9173 H   0  0  0  0  0  0  0  0  0  0  0  0
   39.6670   30.3670   23.2430 H   0  0  0  0  0  0  0  0  0  0  0  0
   38.0769   29.6472   19.6202 H   0  0  0  0  0  0  0  0  0  0  0  0
   38.7215   31.1955   19.9284 H   0  0  0  0  0  0  0  0  0  0  0  0
   38.1169   28.0363   21.2549 H   0  0  0  0  0  0  0  0  0  0  0  0
   38.7893   28.3763   22.7846 H   0  0  0  0  0  0  0  0  0  0  0  0
   36.9871   36.9593   23.7283 H   0  0  0  0  0  0  0  0  0  0  0  0
   38.7068   39.2612   23.0621 H   0  0  0  0  0  0  0  0  0  0  0  0
   37.2236   39.4018   23.9749 H   0  0  0  0  0  0  0  0  0  0  0  0
   37.1715   38.9522   22.2872 H   0  0  0  0  0  0  0  0  0  0  0  0
  1 39  1  0  0  0  0
  1 40  1  0  0  0  0
  1 41  1  0  0  0  0
  2  3  2  0  0  0  0
  2  1  1  0  0  0  0
  4  2  1  0  0  0  0
  4 42  1  0  0  0  0
  5  6  1  0  0  0  0
  5  4  1  0  0  0  0
  5 43  1  6  0  0  0
  6 13  1  0  0  0  0
  7  6  2  0  0  0  0
  8  5  1  0  0  0  0
  8 44  1  0  0  0  0
  8 45  1  0  0  0  0
  9  8  1  0  0  0  0
  9 46  1  0  0  0  0
  9 47  1  0  0  0  0
 10 11  1  0  0  0  0
 10  9  1  0  0  0  0
 12 10  2  0  0  0  0
 13 14  1  0  0  0  0
 13 48  1  0  0  0  0
 14 17  1  0  0  0  0
 14 15  1  0  0  0  0
 14 49  1  6  0  0  0
 15 16  2  0  0  0  0
 15 21  1  0  0  0  0
 17 50  1  0  0  0  0
 17 51  1  0  0  0  0
 18 19  1  0  0  0  0
 18 17  1  0  0  0  0
 18 52  1  0  0  0  0
 19 53  1  0  0  0  0
 19 54  1  0  0  0  0
 19 55  1  0  0  0  0
 20 18  1  0  0  0  0
 20 56  1  0  0  0  0
 20 57  1  0  0  0  0
 20 58  1  0  0  0  0
 21 22  1  0  0  0  0
 21 59  1  0  0  0  0
 22 25  1  0  0  0  0
 22 60  1  1  0  0  0
 23 22  1  0  0  0  0
 23 24  2  0  0  0  0
 25 61  1  0  0  0  0
 25 62  1  0  0  0  0
 25 63  1  0  0  0  0
 26 23  1  0  0  0  0
 26 64  1  0  0  0  0
 27 26  1  0  0  0  0
 27 65  1  1  0  0  0
 28 27  1  0  0  0  0
 29 28  2  0  0  0  0
 30 31  1  0  0  0  0
 30 27  1  0  0  0  0
 30 66  1  0  0  0  0
 30 67  1  0  0  0  0
 31 68  1  0  0  0  0
 31 69  1  0  0  0  0
 32 33  1  0  0  0  0
 32 31  1  0  0  0  0
 32 70  1  0  0  0  0
 32 71  1  0  0  0  0
 34 36  1  0  0  0  0
 34 33  1  0  0  0  0
 33 72  1  0  0  0  0
 35 34  2  0  0  0  0
 35 73  1  0  0  0  0
 35 74  1  0  0  0  0
 36 75  1  0  0  0  0
 36 76  1  0  0  0  0
 37 28  1  0  0  0  0
 37 77  1  0  0  0  0
 38 37  1  0  0  0  0
 38 78  1  0  0  0  0
 38 79  1  0  0  0  0
 38 80  1  0  0  0  0
M  CHG  1  11  -1
M  CHG  1  35  1
M  END
>  <MODEL>
       0

$$$$
selected_4mers/ELAR/221_noH.pdb
 OpenBabel03042517503D

 80 79  0  0  1  0  0  0  0  0999 V2000
    7.3830   15.1780   42.4530 C   0  0  0  0  0  0  0  0  0  0  0  0
    8.7230   15.8930   42.5080 C   0  0  0  0  0  0  0  0  0  0  0  0
    8.7880   17.1260   42.4760 O   0  0  0  0  0  0  0  0  0  0  0  0
    9.7940   15.1120   42.5850 N   0  0  0  0  0  0  0  0  0  0  0  0
   11.1400   15.6610   42.6570 C   0  0  2  0  0  0  0  0  0  0  0  0
   12.0720   15.0750   41.6120 C   0  0  0  0  0  0  0  0  0  0  0  0
   12.0540   13.8700   41.3500 O   0  0  0  0  0  0  0  0  0  0  0  0
   11.7430   15.3980   44.0400 C   0  0  0  0  0  0  0  0  0  0  0  0
   11.3670   16.4040   45.1050 C   0  0  0  0  0  0  0  0  0  0  0  0
   11.9200   17.7830   44.8100 C   0  0  0  0  0  0  0  0  0  0  0  0
   13.1400   17.9000   44.5560 O   0  0  0  0  0  0  0  0  0  0  0  0
   11.1380   18.7550   44.8330 O   0  0  0  0  0  0  0  0  0  0  0  0
   12.8830   15.9390   41.0140 N   0  0  0  0  0  0  0  0  0  0  0  0
   13.8760   15.5160   40.0340 C   0  0  2  0  0  0  0  0  0  0  0  0
   15.2030   15.9490   40.6510 C   0  0  0  0  0  0  0  0  0  0  0  0
   15.3790   17.1230   40.9930 O   0  0  0  0  0  0  0  0  0  0  0  0
   13.6580   16.2210   38.6830 C   0  0  0  0  0  0  0  0  0  0  0  0
   14.7670   16.0200   37.6410 C   0  0  0  0  0  0  0  0  0  0  0  0
   14.9180   14.5390   37.3010 C   0  0  0  0  0  0  0  0  0  0  0  0
   14.4410   16.8110   36.3950 C   0  0  0  0  0  0  0  0  0  0  0  0
   16.1200   15.0030   40.8230 N   0  0  0  0  0  0  0  0  0  0  0  0
   17.4150   15.3030   41.4180 C   0  0  2  0  0  0  0  0  0  0  0  0
   18.5390   14.6450   40.6370 C   0  0  0  0  0  0  0  0  0  0  0  0
   18.3460   13.6030   40.0030 O   0  0  0  0  0  0  0  0  0  0  0  0
   17.4440   14.8330   42.8720 C   0  0  0  0  0  0  0  0  0  0  0  0
   19.7190   15.2550   40.6890 N   0  0  0  0  0  0  0  0  0  0  0  0
   20.8690   14.7140   39.9800 C   0  0  2  0  0  0  0  0  0  0  0  0
   21.5770   13.6540   40.8110 C   0  0  0  0  0  0  0  0  0  0  0  0
   21.5250   13.6680   42.0390 O   0  0  0  0  0  0  0  0  0  0  0  0
   21.8640   15.8270   39.6370 C   0  0  0  0  0  0  0  0  0  0  0  0
   21.2540   17.0170   38.9190 C   0  0  0  0  0  0  0  0  0  0  0  0
   20.4420   16.5740   37.7220 C   0  0  0  0  0  0  0  0  0  0  0  0
   19.7300   17.6840   37.0980 N   0  0  0  0  0  0  0  0  0  0  0  0
   18.6820   17.5310   36.2960 C   0  0  0  0  0  0  0  0  0  0  0  0
   18.2320   16.3130   36.0290 N   0  0  0  0  0  0  0  0  0  0  0  0
   18.0900   18.5920   35.7610 N   0  0  0  0  0  0  0  0  0  0  0  0
   22.2450   12.7060   40.1450 N   0  0  0  0  0  0  0  0  0  0  0  0
   22.9500   11.6630   40.8910 C   0  0  0  0  0  0  0  0  0  0  0  0
    6.5957   15.9001   42.3928 H   0  0  0  0  0  0  0  0  0  0  0  0
    7.2578   14.5866   43.3359 H   0  0  0  0  0  0  0  0  0  0  0  0
    7.3521   14.5440   41.5916 H   0  0  0  0  0  0  0  0  0  0  0  0
    9.6744   14.1348   42.5936 H   0  0  0  0  0  0  0  0  0  0  0  0
   11.0469   16.7107   42.4716 H   0  0  0  0  0  0  0  0  0  0  0  0
   12.8086   15.4004   43.9430 H   0  0  0  0  0  0  0  0  0  0  0  0
   11.3471   14.4583   44.3642 H   0  0  0  0  0  0  0  0  0  0  0  0
   11.7542   16.0713   46.0454 H   0  0  0  0  0  0  0  0  0  0  0  0
   10.2996   16.4758   45.1269 H   0  0  0  0  0  0  0  0  0  0  0  0
   12.8118   16.8948   41.2391 H   0  0  0  0  0  0  0  0  0  0  0  0
   13.8284   14.4664   39.8317 H   0  0  0  0  0  0  0  0  0  0  0  0
   12.7437   15.8549   38.2648 H   0  0  0  0  0  0  0  0  0  0  0  0
   13.6472   17.2689   38.8991 H   0  0  0  0  0  0  0  0  0  0  0  0
   15.6935   16.3684   38.0474 H   0  0  0  0  0  0  0  0  0  0  0  0
   13.9999   14.1715   36.8924 H   0  0  0  0  0  0  0  0  0  0  0  0
   15.1576   13.9919   38.1888 H   0  0  0  0  0  0  0  0  0  0  0  0
   15.7023   14.4159   36.5836 H   0  0  0  0  0  0  0  0  0  0  0  0
   13.5148   16.4655   35.9854 H   0  0  0  0  0  0  0  0  0  0  0  0
   15.2210   16.6790   35.6745 H   0  0  0  0  0  0  0  0  0  0  0  0
   14.3564   17.8484   36.6431 H   0  0  0  0  0  0  0  0  0  0  0  0
   15.9200   14.0807   40.5426 H   0  0  0  0  0  0  0  0  0  0  0  0
   17.5606   16.3626   41.3861 H   0  0  0  0  0  0  0  0  0  0  0  0
   17.2987   13.7735   42.9073 H   0  0  0  0  0  0  0  0  0  0  0  0
   16.6633   15.3186   43.4194 H   0  0  0  0  0  0  0  0  0  0  0  0
   18.3903   15.0779   43.3072 H   0  0  0  0  0  0  0  0  0  0  0  0
   19.8161   16.0826   41.2134 H   0  0  0  0  0  0  0  0  0  0  0  0
   20.5072   14.2663   39.0780 H   0  0  0  0  0  0  0  0  0  0  0  0
   22.3028   16.1756   40.5485 H   0  0  0  0  0  0  0  0  0  0  0  0
   22.5789   15.3998   38.9652 H   0  0  0  0  0  0  0  0  0  0  0  0
   20.6169   17.5452   39.5972 H   0  0  0  0  0  0  0  0  0  0  0  0
   22.0461   17.6496   38.5767 H   0  0  0  0  0  0  0  0  0  0  0  0
   21.1012   16.1383   37.0005 H   0  0  0  0  0  0  0  0  0  0  0  0
   19.7146   15.8667   38.0619 H   0  0  0  0  0  0  0  0  0  0  0  0
   20.0520   18.6220   37.2870 H   0  0  0  0  0  0  0  0  0  0  0  0
   17.4557   16.1942   35.4353 H   0  0  0  0  0  0  0  0  0  0  0  0
   18.6741   15.5272   36.4244 H   0  0  0  0  0  0  0  0  0  0  0  0
   17.3136   18.4752   35.1671 H   0  0  0  0  0  0  0  0  0  0  0  0
   18.4274   19.4956   35.9582 H   0  0  0  0  0  0  0  0  0  0  0  0
   22.2623   12.7098   39.1607 H   0  0  0  0  0  0  0  0  0  0  0  0
   22.8177   11.8238   41.9405 H   0  0  0  0  0  0  0  0  0  0  0  0
   23.9927   11.6976   40.6535 H   0  0  0  0  0  0  0  0  0  0  0  0
   22.5551   10.7050   40.6244 H   0  0  0  0  0  0  0  0  0  0  0  0
  1 39  1  0  0  0  0
  1 40  1  0  0  0  0
  1 41  1  0  0  0  0
  2  3  2  0  0  0  0
  2  1  1  0  0  0  0
  4  2  1  0  0  0  0
  4 42  1  0  0  0  0
  5  6  1  0  0  0  0
  5  4  1  0  0  0  0
  5 43  1  6  0  0  0
  6 13  1  0  0  0  0
  7  6  2  0  0  0  0
  8  5  1  0  0  0  0
  8 44  1  0  0  0  0
  8 45  1  0  0  0  0
  9  8  1  0  0  0  0
  9 46  1  0  0  0  0
  9 47  1  0  0  0  0
 10 11  1  0  0  0  0
 10  9  1  0  0  0  0
 12 10  2  0  0  0  0
 13 14  1  0  0  0  0
 13 48  1  0  0  0  0
 14 17  1  0  0  0  0
 14 15  1  0  0  0  0
 14 49  1  6  0  0  0
 15 16  2  0  0  0  0
 15 21  1  0  0  0  0
 17 50  1  0  0  0  0
 17 51  1  0  0  0  0
 18 19  1  0  0  0  0
 18 17  1  0  0  0  0
 18 52  1  0  0  0  0
 19 53  1  0  0  0  0
 19 54  1  0  0  0  0
 19 55  1  0  0  0  0
 20 18  1  0  0  0  0
 20 56  1  0  0  0  0
 20 57  1  0  0  0  0
 20 58  1  0  0  0  0
 21 22  1  0  0  0  0
 21 59  1  0  0  0  0
 22 25  1  0  0  0  0
 22 60  1  1  0  0  0
 23 22  1  0  0  0  0
 23 24  2  0  0  0  0
 25 61  1  0  0  0  0
 25 62  1  0  0  0  0
 25 63  1  0  0  0  0
 26 23  1  0  0  0  0
 26 64  1  0  0  0  0
 27 26  1  0  0  0  0
 27 65  1  1  0  0  0
 28 27  1  0  0  0  0
 29 28  2  0  0  0  0
 30 31  1  0  0  0  0
 30 27  1  0  0  0  0
 30 66  1  0  0  0  0
 30 67  1  0  0  0  0
 31 68  1  0  0  0  0
 31 69  1  0  0  0  0
 32 33  1  0  0  0  0
 32 31  1  0  0  0  0
 32 70  1  0  0  0  0
 32 71  1  0  0  0  0
 34 36  1  0  0  0  0
 34 33  1  0  0  0  0
 33 72  1  0  0  0  0
 35 34  2  0  0  0  0
 35 73  1  0  0  0  0
 35 74  1  0  0  0  0
 36 75  1  0  0  0  0
 36 76  1  0  0  0  0
 37 28  1  0  0  0  0
 37 77  1  0  0  0  0
 38 37  1  0  0  0  0
 38 78  1  0  0  0  0
 38 79  1  0  0  0  0
 38 80  1  0  0  0  0
M  CHG  1  11  -1
M  CHG  1  35  1
M  END
>  <MODEL>
       0

$$$$
selected_4mers/ELAR/222_noH.pdb
 OpenBabel03042517503D

 80 79  0  0  1  0  0  0  0  0999 V2000
   31.8410  119.0810   19.7760 C   0  0  0  0  0  0  0  0  0  0  0  0
   30.7770  120.1670   19.6760 C   0  0  0  0  0  0  0  0  0  0  0  0
   30.2650  120.6440   20.6850 O   0  0  0  0  0  0  0  0  0  0  0  0
   30.4500  120.5550   18.4470 N   0  0  0  0  0  0  0  0  0  0  0  0
   29.4470  121.5860   18.2180 C   0  0  2  0  0  0  0  0  0  0  0  0
   28.0720  121.1060   18.6670 C   0  0  0  0  0  0  0  0  0  0  0  0
   27.3040  121.8650   19.2570 O   0  0  0  0  0  0  0  0  0  0  0  0
   29.4180  121.9700   16.7380 C   0  0  0  0  0  0  0  0  0  0  0  0
   30.7130  122.5980   16.2430 C   0  0  0  0  0  0  0  0  0  0  0  0
   30.8430  124.0580   16.6310 C   0  0  0  0  0  0  0  0  0  0  0  0
   30.4730  124.4150   17.7710 O   0  0  0  0  0  0  0  0  0  0  0  0
   31.3310  124.8520   15.7990 O   0  0  0  0  0  0  0  0  0  0  0  0
   27.7570  119.8450   18.3930 N   0  0  0  0  0  0  0  0  0  0  0  0
   26.4640  119.3080   18.7960 C   0  0  2  0  0  0  0  0  0  0  0  0
   26.3380  119.2890   20.3160 C   0  0  0  0  0  0  0  0  0  0  0  0
   25.2740  119.5860   20.8570 O   0  0  0  0  0  0  0  0  0  0  0  0
   26.2660  117.8980   18.2310 C   0  0  0  0  0  0  0  0  0  0  0  0
   25.9860  117.8250   16.7270 C   0  0  0  0  0  0  0  0  0  0  0  0
   25.9990  116.3750   16.2780 C   0  0  0  0  0  0  0  0  0  0  0  0
   24.6400  118.4690   16.4150 C   0  0  0  0  0  0  0  0  0  0  0  0
   27.4270  118.9480   21.0030 N   0  0  0  0  0  0  0  0  0  0  0  0
   27.4160  118.9070   22.4630 C   0  0  2  0  0  0  0  0  0  0  0  0
   27.1330  120.2980   23.0270 C   0  0  0  0  0  0  0  0  0  0  0  0
   26.3820  120.4520   23.9890 O   0  0  0  0  0  0  0  0  0  0  0  0
   28.7540  118.3900   22.9870 C   0  0  0  0  0  0  0  0  0  0  0  0
   27.7420  121.3110   22.4240 N   0  0  0  0  0  0  0  0  0  0  0  0
   27.5400  122.6830   22.8660 C   0  0  2  0  0  0  0  0  0  0  0  0
   26.0970  123.0970   22.6090 C   0  0  0  0  0  0  0  0  0  0  0  0
   25.4970  123.8210   23.4010 O   0  0  0  0  0  0  0  0  0  0  0  0
   28.4940  123.6190   22.1240 C   0  0  0  0  0  0  0  0  0  0  0  0
   29.9570  123.3320   22.4050 C   0  0  0  0  0  0  0  0  0  0  0  0
   30.8420  123.9400   21.3370 C   0  0  0  0  0  0  0  0  0  0  0  0
   32.2370  123.5470   21.5000 N   0  0  0  0  0  0  0  0  0  0  0  0
   33.1210  123.5260   20.5090 C   0  0  0  0  0  0  0  0  0  0  0  0
   32.7490  123.8740   19.2840 N   0  0  0  0  0  0  0  0  0  0  0  0
   34.3740  123.1590   20.7400 N   0  0  0  0  0  0  0  0  0  0  0  0
   25.5430  122.6250   21.4960 N   0  0  0  0  0  0  0  0  0  0  0  0
   24.1690  122.9460   21.1350 C   0  0  0  0  0  0  0  0  0  0  0  0
   32.1582  118.8009   18.7932 H   0  0  0  0  0  0  0  0  0  0  0  0
   31.4334  118.2274   20.2761 H   0  0  0  0  0  0  0  0  0  0  0  0
   32.6785  119.4521   20.3289 H   0  0  0  0  0  0  0  0  0  0  0  0
   30.8954  120.1364   17.6752 H   0  0  0  0  0  0  0  0  0  0  0  0
   29.7070  122.4489   18.7949 H   0  0  0  0  0  0  0  0  0  0  0  0
   29.2297  121.0871   16.1636 H   0  0  0  0  0  0  0  0  0  0  0  0
   28.6494  122.7051   16.6209 H   0  0  0  0  0  0  0  0  0  0  0  0
   31.5367  122.0583   16.6615 H   0  0  0  0  0  0  0  0  0  0  0  0
   30.7079  122.5476   15.1742 H   0  0  0  0  0  0  0  0  0  0  0  0
   28.3994  119.2714   17.9160 H   0  0  0  0  0  0  0  0  0  0  0  0
   25.7012  119.9451   18.3997 H   0  0  0  0  0  0  0  0  0  0  0  0
   27.1545  117.3356   18.4288 H   0  0  0  0  0  0  0  0  0  0  0  0
   25.3934  117.5080   18.7121 H   0  0  0  0  0  0  0  0  0  0  0  0
   26.7470  118.3588   16.1971 H   0  0  0  0  0  0  0  0  0  0  0  0
   25.2407  115.8323   16.8027 H   0  0  0  0  0  0  0  0  0  0  0  0
   26.9558  115.9449   16.4887 H   0  0  0  0  0  0  0  0  0  0  0  0
   25.8096  116.3257   15.2260 H   0  0  0  0  0  0  0  0  0  0  0  0
   23.8654  117.9473   16.9373 H   0  0  0  0  0  0  0  0  0  0  0  0
   24.4563  118.4192   15.3621 H   0  0  0  0  0  0  0  0  0  0  0  0
   24.6535  119.4925   16.7266 H   0  0  0  0  0  0  0  0  0  0  0  0
   28.2531  118.7198   20.5186 H   0  0  0  0  0  0  0  0  0  0  0  0
   26.6413  118.2412   22.7816 H   0  0  0  0  0  0  0  0  0  0  0  0
   29.5377  119.0481   22.6746 H   0  0  0  0  0  0  0  0  0  0  0  0
   28.9349  117.4099   22.5976 H   0  0  0  0  0  0  0  0  0  0  0  0
   28.7269  118.3497   24.0559 H   0  0  0  0  0  0  0  0  0  0  0  0
   28.3413  121.1313   21.6639 H   0  0  0  0  0  0  0  0  0  0  0  0
   27.7421  122.7470   23.9148 H   0  0  0  0  0  0  0  0  0  0  0  0
   28.3233  123.5142   21.0729 H   0  0  0  0  0  0  0  0  0  0  0  0
   28.2945  124.6123   22.4682 H   0  0  0  0  0  0  0  0  0  0  0  0
   30.2192  123.7475   23.3555 H   0  0  0  0  0  0  0  0  0  0  0  0
   30.1031  122.2720   22.4073 H   0  0  0  0  0  0  0  0  0  0  0  0
   30.5003  123.6135   20.3770 H   0  0  0  0  0  0  0  0  0  0  0  0
   30.7845  125.0049   21.4245 H   0  0  0  0  0  0  0  0  0  0  0  0
   32.5490  123.2750   22.4210 H   0  0  0  0  0  0  0  0  0  0  0  0
   33.4028  123.8591   18.5481 H   0  0  0  0  0  0  0  0  0  0  0  0
   31.8191  124.1472   19.1109 H   0  0  0  0  0  0  0  0  0  0  0  0
   35.0266  123.1446   20.0030 H   0  0  0  0  0  0  0  0  0  0  0  0
   34.6518  122.9009   21.6485 H   0  0  0  0  0  0  0  0  0  0  0  0
   26.0736  122.0456   20.9027 H   0  0  0  0  0  0  0  0  0  0  0  0
   23.7425  123.5806   21.8835 H   0  0  0  0  0  0  0  0  0  0  0  0
   23.5984  122.0435   21.0652 H   0  0  0  0  0  0  0  0  0  0  0  0
   24.1566  123.4497   20.1910 H   0  0  0  0  0  0  0  0  0  0  0  0
  1 39  1  0  0  0  0
  1 40  1  0  0  0  0
  1 41  1  0  0  0  0
  2  3  2  0  0  0  0
  2  1  1  0  0  0  0
  4  2  1  0  0  0  0
  4 42  1  0  0  0  0
  5  6  1  0  0  0  0
  5  4  1  0  0  0  0
  5 43  1  6  0  0  0
  6 13  1  0  0  0  0
  7  6  2  0  0  0  0
  8  5  1  0  0  0  0
  8 44  1  0  0  0  0
  8 45  1  0  0  0  0
  9  8  1  0  0  0  0
  9 46  1  0  0  0  0
  9 47  1  0  0  0  0
 10 11  1  0  0  0  0
 10  9  1  0  0  0  0
 12 10  2  0  0  0  0
 13 14  1  0  0  0  0
 13 48  1  0  0  0  0
 14 17  1  0  0  0  0
 14 15  1  0  0  0  0
 14 49  1  6  0  0  0
 15 16  2  0  0  0  0
 15 21  1  0  0  0  0
 17 50  1  0  0  0  0
 17 51  1  0  0  0  0
 18 19  1  0  0  0  0
 18 17  1  0  0  0  0
 18 52  1  0  0  0  0
 19 53  1  0  0  0  0
 19 54  1  0  0  0  0
 19 55  1  0  0  0  0
 20 18  1  0  0  0  0
 20 56  1  0  0  0  0
 20 57  1  0  0  0  0
 20 58  1  0  0  0  0
 21 22  1  0  0  0  0
 21 59  1  0  0  0  0
 22 25  1  0  0  0  0
 22 60  1  1  0  0  0
 23 22  1  0  0  0  0
 23 24  2  0  0  0  0
 25 61  1  0  0  0  0
 25 62  1  0  0  0  0
 25 63  1  0  0  0  0
 26 23  1  0  0  0  0
 26 64  1  0  0  0  0
 27 26  1  0  0  0  0
 27 65  1  1  0  0  0
 28 27  1  0  0  0  0
 29 28  2  0  0  0  0
 30 31  1  0  0  0  0
 30 27  1  0  0  0  0
 30 66  1  0  0  0  0
 30 67  1  0  0  0  0
 31 68  1  0  0  0  0
 31 69  1  0  0  0  0
 32 33  1  0  0  0  0
 32 31  1  0  0  0  0
 32 70  1  0  0  0  0
 32 71  1  0  0  0  0
 34 36  1  0  0  0  0
 34 33  1  0  0  0  0
 33 72  1  0  0  0  0
 35 34  2  0  0  0  0
 35 73  1  0  0  0  0
 35 74  1  0  0  0  0
 36 75  1  0  0  0  0
 36 76  1  0  0  0  0
 37 28  1  0  0  0  0
 37 77  1  0  0  0  0
 38 37  1  0  0  0  0
 38 78  1  0  0  0  0
 38 79  1  0  0  0  0
 38 80  1  0  0  0  0
M  CHG  1  11  -1
M  CHG  1  35  1
M  END
>  <MODEL>
       0

$$$$
selected_4mers/ELAR/223_noH.pdb
 OpenBabel03042517503D

 80 79  0  0  1  0  0  0  0  0999 V2000
   13.9130  -11.3190   -2.2960 C   0  0  0  0  0  0  0  0  0  0  0  0
   12.8070  -11.5180   -3.3140 C   0  0  0  0  0  0  0  0  0  0  0  0
   11.9620  -10.6240   -3.5570 O   0  0  0  0  0  0  0  0  0  0  0  0
   12.8630  -12.7060   -3.9110 N   0  0  0  0  0  0  0  0  0  0  0  0
   12.0060  -13.1470   -4.9960 C   0  0  2  0  0  0  0  0  0  0  0  0
   10.5130  -12.9190   -4.7200 C   0  0  0  0  0  0  0  0  0  0  0  0
    9.7740  -12.4400   -5.5860 O   0  0  0  0  0  0  0  0  0  0  0  0
   12.2640  -14.6470   -5.2090 C   0  0  0  0  0  0  0  0  0  0  0  0
   12.4300  -15.0600   -6.6590 C   0  0  0  0  0  0  0  0  0  0  0  0
   13.7510  -14.5990   -7.2610 C   0  0  0  0  0  0  0  0  0  0  0  0
   14.2210  -15.2490   -8.2280 O   0  0  0  0  0  0  0  0  0  0  0  0
   14.3110  -13.5890   -6.7720 O   0  0  0  0  0  0  0  0  0  0  0  0
   10.0770  -13.2680   -3.5160 N   0  0  0  0  0  0  0  0  0  0  0  0
    8.6520  -13.2660   -3.1930 C   0  0  2  0  0  0  0  0  0  0  0  0
    8.1850  -12.0230   -2.4350 C   0  0  0  0  0  0  0  0  0  0  0  0
    6.9960  -11.8850   -2.1700 O   0  0  0  0  0  0  0  0  0  0  0  0
    8.3100  -14.4960   -2.3580 C   0  0  0  0  0  0  0  0  0  0  0  0
    8.1860  -15.8180   -3.1040 C   0  0  0  0  0  0  0  0  0  0  0  0
    7.9970  -16.9070   -2.0660 C   0  0  0  0  0  0  0  0  0  0  0  0
    7.0360  -15.7690   -4.0760 C   0  0  0  0  0  0  0  0  0  0  0  0
    9.1020  -11.1270   -2.0710 N   0  0  0  0  0  0  0  0  0  0  0  0
    8.7130   -9.9300   -1.3140 C   0  0  2  0  0  0  0  0  0  0  0  0
    8.0060   -8.8880   -2.1850 C   0  0  0  0  0  0  0  0  0  0  0  0
    8.5420   -7.8030   -2.4710 O   0  0  0  0  0  0  0  0  0  0  0  0
    9.9370   -9.3240   -0.6170 C   0  0  0  0  0  0  0  0  0  0  0  0
    6.7890   -9.2200   -2.6050 N   0  0  0  0  0  0  0  0  0  0  0  0
    6.0240   -8.3550   -3.4760 C   0  0  2  0  0  0  0  0  0  0  0  0
    5.6340   -7.1050   -2.7240 C   0  0  0  0  0  0  0  0  0  0  0  0
    5.6950   -7.0650   -1.5110 O   0  0  0  0  0  0  0  0  0  0  0  0
    4.7550   -9.0790   -3.9100 C   0  0  0  0  0  0  0  0  0  0  0  0
    3.9570   -9.6180   -2.7370 C   0  0  0  0  0  0  0  0  0  0  0  0
    2.5030   -9.8550   -3.1060 C   0  0  0  0  0  0  0  0  0  0  0  0
    1.8100   -8.5750   -3.2790 N   0  0  0  0  0  0  0  0  0  0  0  0
    0.5800   -8.4420   -3.7740 C   0  0  0  0  0  0  0  0  0  0  0  0
   -0.0870   -9.5140   -4.1730 N   0  0  0  0  0  0  0  0  0  0  0  0
    0.0350   -7.2290   -3.8820 N   0  0  0  0  0  0  0  0  0  0  0  0
    5.2020   -6.0850   -3.4440 N   0  0  0  0  0  0  0  0  0  0  0  0
    4.6840   -4.9070   -2.7850 C   0  0  0  0  0  0  0  0  0  0  0  0
   14.5161  -12.2015   -2.2475 H   0  0  0  0  0  0  0  0  0  0  0  0
   13.4831  -11.1276   -1.3351 H   0  0  0  0  0  0  0  0  0  0  0  0
   14.5203  -10.4875   -2.5871 H   0  0  0  0  0  0  0  0  0  0  0  0
   13.5440  -13.3399   -3.5891 H   0  0  0  0  0  0  0  0  0  0  0  0
   12.2419  -12.5698   -5.8655 H   0  0  0  0  0  0  0  0  0  0  0  0
   13.1578  -14.9098   -4.6828 H   0  0  0  0  0  0  0  0  0  0  0  0
   11.3971  -15.1582   -4.8457 H   0  0  0  0  0  0  0  0  0  0  0  0
   12.3827  -16.1274   -6.7172 H   0  0  0  0  0  0  0  0  0  0  0  0
   11.6442  -14.5947   -7.2166 H   0  0  0  0  0  0  0  0  0  0  0  0
   10.7272  -13.5337   -2.8262 H   0  0  0  0  0  0  0  0  0  0  0  0
    8.1421  -13.2721   -4.1337 H   0  0  0  0  0  0  0  0  0  0  0  0
    7.3747  -14.3086   -1.8732 H   0  0  0  0  0  0  0  0  0  0  0  0
    9.1400  -14.6247   -1.6951 H   0  0  0  0  0  0  0  0  0  0  0  0
    9.0651  -16.0167   -3.6808 H   0  0  0  0  0  0  0  0  0  0  0  0
    7.1171  -16.7039   -1.4921 H   0  0  0  0  0  0  0  0  0  0  0  0
    8.8477  -16.9331   -1.4175 H   0  0  0  0  0  0  0  0  0  0  0  0
    7.8929  -17.8525   -2.5559 H   0  0  0  0  0  0  0  0  0  0  0  0
    6.1283  -15.5717   -3.5449 H   0  0  0  0  0  0  0  0  0  0  0  0
    6.9563  -16.7085   -4.5818 H   0  0  0  0  0  0  0  0  0  0  0  0
    7.2067  -14.9920   -4.7916 H   0  0  0  0  0  0  0  0  0  0  0  0
   10.0462  -11.2684   -2.3111 H   0  0  0  0  0  0  0  0  0  0  0  0
    8.0051  -10.2370   -0.5727 H   0  0  0  0  0  0  0  0  0  0  0  0
   10.6496   -9.0146   -1.3528 H   0  0  0  0  0  0  0  0  0  0  0  0
   10.3814  -10.0564    0.0241 H   0  0  0  0  0  0  0  0  0  0  0  0
    9.6341   -8.4781   -0.0359 H   0  0  0  0  0  0  0  0  0  0  0  0
    6.3987  -10.0763   -2.3158 H   0  0  0  0  0  0  0  0  0  0  0  0
    6.6134   -8.0978   -4.3312 H   0  0  0  0  0  0  0  0  0  0  0  0
    5.0275   -9.8973   -4.5433 H   0  0  0  0  0  0  0  0  0  0  0  0
    4.1380   -8.3703   -4.4219 H   0  0  0  0  0  0  0  0  0  0  0  0
    4.0001   -8.9113   -1.9347 H   0  0  0  0  0  0  0  0  0  0  0  0
    4.3837  -10.5553   -2.4468 H   0  0  0  0  0  0  0  0  0  0  0  0
    2.4561  -10.4088   -4.0203 H   0  0  0  0  0  0  0  0  0  0  0  0
    2.0286  -10.4057   -2.3208 H   0  0  0  0  0  0  0  0  0  0  0  0
    2.2990   -7.7350   -3.0040 H   0  0  0  0  0  0  0  0  0  0  0  0
   -0.9960   -9.4201   -4.5393 H   0  0  0  0  0  0  0  0  0  0  0  0
    0.3261  -10.4049   -4.1034 H   0  0  0  0  0  0  0  0  0  0  0  0
   -0.8736   -7.1283   -4.2474 H   0  0  0  0  0  0  0  0  0  0  0  0
    0.5415   -6.4346   -3.5963 H   0  0  0  0  0  0  0  0  0  0  0  0
    5.2327   -6.1270   -4.4271 H   0  0  0  0  0  0  0  0  0  0  0  0
    4.7291   -5.0426   -1.7246 H   0  0  0  0  0  0  0  0  0  0  0  0
    3.6680   -4.7501   -3.0816 H   0  0  0  0  0  0  0  0  0  0  0  0
    5.2716   -4.0564   -3.0611 H   0  0  0  0  0  0  0  0  0  0  0  0
  1 39  1  0  0  0  0
  1 40  1  0  0  0  0
  1 41  1  0  0  0  0
  2  3  2  0  0  0  0
  2  1  1  0  0  0  0
  4  2  1  0  0  0  0
  4 42  1  0  0  0  0
  5  6  1  0  0  0  0
  5  4  1  0  0  0  0
  5 43  1  6  0  0  0
  6 13  1  0  0  0  0
  7  6  2  0  0  0  0
  8  5  1  0  0  0  0
  8 44  1  0  0  0  0
  8 45  1  0  0  0  0
  9  8  1  0  0  0  0
  9 46  1  0  0  0  0
  9 47  1  0  0  0  0
 10 11  1  0  0  0  0
 10  9  1  0  0  0  0
 12 10  2  0  0  0  0
 13 14  1  0  0  0  0
 13 48  1  0  0  0  0
 14 17  1  0  0  0  0
 14 15  1  0  0  0  0
 14 49  1  6  0  0  0
 15 16  2  0  0  0  0
 15 21  1  0  0  0  0
 17 50  1  0  0  0  0
 17 51  1  0  0  0  0
 18 19  1  0  0  0  0
 18 17  1  0  0  0  0
 18 52  1  0  0  0  0
 19 53  1  0  0  0  0
 19 54  1  0  0  0  0
 19 55  1  0  0  0  0
 20 18  1  0  0  0  0
 20 56  1  0  0  0  0
 20 57  1  0  0  0  0
 20 58  1  0  0  0  0
 21 22  1  0  0  0  0
 21 59  1  0  0  0  0
 22 25  1  0  0  0  0
 22 60  1  1  0  0  0
 23 22  1  0  0  0  0
 23 24  2  0  0  0  0
 25 61  1  0  0  0  0
 25 62  1  0  0  0  0
 25 63  1  0  0  0  0
 26 23  1  0  0  0  0
 26 64  1  0  0  0  0
 27 26  1  0  0  0  0
 27 65  1  1  0  0  0
 28 27  1  0  0  0  0
 29 28  2  0  0  0  0
 30 31  1  0  0  0  0
 30 27  1  0  0  0  0
 30 66  1  0  0  0  0
 30 67  1  0  0  0  0
 31 68  1  0  0  0  0
 31 69  1  0  0  0  0
 32 33  1  0  0  0  0
 32 31  1  0  0  0  0
 32 70  1  0  0  0  0
 32 71  1  0  0  0  0
 34 36  1  0  0  0  0
 34 33  1  0  0  0  0
 33 72  1  0  0  0  0
 35 34  2  0  0  0  0
 35 73  1  0  0  0  0
 35 74  1  0  0  0  0
 36 75  1  0  0  0  0
 36 76  1  0  0  0  0
 37 28  1  0  0  0  0
 37 77  1  0  0  0  0
 38 37  1  0  0  0  0
 38 78  1  0  0  0  0
 38 79  1  0  0  0  0
 38 80  1  0  0  0  0
M  CHG  1  11  -1
M  CHG  1  35  1
M  END
>  <MODEL>
       0

$$$$
selected_4mers/ELAR/224_noH.pdb
 OpenBabel03042517503D

 80 79  0  0  1  0  0  0  0  0999 V2000
   10.1440   43.1220   15.8000 C   0  0  0  0  0  0  0  0  0  0  0  0
    9.1890   44.0430   16.5900 C   0  0  0  0  0  0  0  0  0  0  0  0
    8.4550   44.8540   16.0030 O   0  0  0  0  0  0  0  0  0  0  0  0
    9.2360   43.9540   17.9220 N   0  0  0  0  0  0  0  0  0  0  0  0
    8.3500   44.7340   18.7530 C   0  0  2  0  0  0  0  0  0  0  0  0
    8.8060   46.1890   18.8250 C   0  0  0  0  0  0  0  0  0  0  0  0
    7.9830   47.1070   18.7770 O   0  0  0  0  0  0  0  0  0  0  0  0
    8.2190   44.1150   20.1640 C   0  0  0  0  0  0  0  0  0  0  0  0
    7.2740   44.9090   21.0970 C   0  0  0  0  0  0  0  0  0  0  0  0
    5.8020   44.8900   20.6730 C   0  0  0  0  0  0  0  0  0  0  0  0
    5.4280   44.2930   19.6310 O   0  0  0  0  0  0  0  0  0  0  0  0
    5.0200   45.5110   21.4230 O   0  0  0  0  0  0  0  0  0  0  0  0
   10.1240   46.4150   18.9050 N   0  0  0  0  0  0  0  0  0  0  0  0
   10.6040   47.7830   18.8250 C   0  0  2  0  0  0  0  0  0  0  0  0
   10.2380   48.3950   17.4660 C   0  0  0  0  0  0  0  0  0  0  0  0
    9.8210   49.5570   17.4040 O   0  0  0  0  0  0  0  0  0  0  0  0
   12.1130   47.8940   19.0470 C   0  0  0  0  0  0  0  0  0  0  0  0
   12.6710   49.3100   19.0330 C   0  0  0  0  0  0  0  0  0  0  0  0
   11.9660   50.2110   20.0820 C   0  0  0  0  0  0  0  0  0  0  0  0
   14.1630   49.2070   19.3600 C   0  0  0  0  0  0  0  0  0  0  0  0
   10.3760   47.6170   16.3880 N   0  0  0  0  0  0  0  0  0  0  0  0
    9.9620   48.0740   15.0680 C   0  0  2  0  0  0  0  0  0  0  0  0
    8.4820   48.4580   15.0300 C   0  0  0  0  0  0  0  0  0  0  0  0
    8.1190   49.5050   14.4710 O   0  0  0  0  0  0  0  0  0  0  0  0
   10.3050   46.9860   14.0030 C   0  0  0  0  0  0  0  0  0  0  0  0
    7.6310   47.6250   15.6470 N   0  0  0  0  0  0  0  0  0  0  0  0
    6.1810   47.8880   15.6330 C   0  0  2  0  0  0  0  0  0  0  0  0
    5.8620   49.1620   16.4430 C   0  0  0  0  0  0  0  0  0  0  0  0
    5.1020   50.0250   15.9720 O   0  0  0  0  0  0  0  0  0  0  0  0
    5.4430   46.6720   16.2240 C   0  0  0  0  0  0  0  0  0  0  0  0
    3.9340   46.7670   16.0630 C   0  0  0  0  0  0  0  0  0  0  0  0
    3.2140   45.6490   16.7980 C   0  0  0  0  0  0  0  0  0  0  0  0
    3.3140   45.7820   18.2460 N   0  0  0  0  0  0  0  0  0  0  0  0
    2.5460   46.5810   18.9850 C   0  0  0  0  0  0  0  0  0  0  0  0
    1.6070   47.3270   18.4160 N   0  0  0  0  0  0  0  0  0  0  0  0
    2.7050   46.6190   20.3030 N   0  0  0  0  0  0  0  0  0  0  0  0
    6.4670   49.3010   17.6420 N   0  0  0  0  0  0  0  0  0  0  0  0
    6.2550   50.5140   18.4600 C   0  0  0  0  0  0  0  0  0  0  0  0
   10.0117   43.2865   14.7510 H   0  0  0  0  0  0  0  0  0  0  0  0
    9.9263   42.1002   16.0310 H   0  0  0  0  0  0  0  0  0  0  0  0
   11.1558   43.3411   16.0705 H   0  0  0  0  0  0  0  0  0  0  0  0
    9.8856   43.3464   18.3440 H   0  0  0  0  0  0  0  0  0  0  0  0
    7.3794   44.7193   18.3028 H   0  0  0  0  0  0  0  0  0  0  0  0
    9.1901   44.0831   20.6121 H   0  0  0  0  0  0  0  0  0  0  0  0
    7.7975   43.1389   20.0433 H   0  0  0  0  0  0  0  0  0  0  0  0
    7.6028   45.9270   21.1184 H   0  0  0  0  0  0  0  0  0  0  0  0
    7.3217   44.4346   22.0549 H   0  0  0  0  0  0  0  0  0  0  0  0
   10.7552   45.6677   19.0159 H   0  0  0  0  0  0  0  0  0  0  0  0
   10.1237   48.3244   19.6130 H   0  0  0  0  0  0  0  0  0  0  0  0
   12.6023   47.3384   18.2745 H   0  0  0  0  0  0  0  0  0  0  0  0
   12.2957   47.5141   20.0305 H   0  0  0  0  0  0  0  0  0  0  0  0
   12.5069   49.7552   18.0739 H   0  0  0  0  0  0  0  0  0  0  0  0
   12.1072   49.7983   21.0591 H   0  0  0  0  0  0  0  0  0  0  0  0
   10.9197   50.2609   19.8637 H   0  0  0  0  0  0  0  0  0  0  0  0
   12.3851   51.1948   20.0464 H   0  0  0  0  0  0  0  0  0  0  0  0
   14.2868   48.7584   20.3235 H   0  0  0  0  0  0  0  0  0  0  0  0
   14.5956   50.1856   19.3640 H   0  0  0  0  0  0  0  0  0  0  0  0
   14.6494   48.6050   18.6211 H   0  0  0  0  0  0  0  0  0  0  0  0
   10.7648   46.7180   16.4878 H   0  0  0  0  0  0  0  0  0  0  0  0
   10.5060   48.9654   14.8348 H   0  0  0  0  0  0  0  0  0  0  0  0
    9.7670   46.0880   14.2245 H   0  0  0  0  0  0  0  0  0  0  0  0
   11.3560   46.7862   14.0229 H   0  0  0  0  0  0  0  0  0  0  0  0
   10.0272   47.3378   13.0314 H   0  0  0  0  0  0  0  0  0  0  0  0
    7.9781   46.8306   16.1135 H   0  0  0  0  0  0  0  0  0  0  0  0
    5.8542   48.0440   14.6262 H   0  0  0  0  0  0  0  0  0  0  0  0
    5.6726   46.6058   17.2670 H   0  0  0  0  0  0  0  0  0  0  0  0
    5.7711   45.8041   15.6911 H   0  0  0  0  0  0  0  0  0  0  0  0
    3.6928   46.7081   15.0222 H   0  0  0  0  0  0  0  0  0  0  0  0
    3.6140   47.6985   16.4812 H   0  0  0  0  0  0  0  0  0  0  0  0
    3.6453   44.7136   16.5082 H   0  0  0  0  0  0  0  0  0  0  0  0
    2.1778   45.7006   16.5362 H   0  0  0  0  0  0  0  0  0  0  0  0
    4.0140   45.2300   18.7220 H   0  0  0  0  0  0  0  0  0  0  0  0
    1.4841   47.3033   17.4395 H   0  0  0  0  0  0  0  0  0  0  0  0
    1.0335   47.9040   18.9705 H   0  0  0  0  0  0  0  0  0  0  0  0
    3.3996   46.0681   20.7311 H   0  0  0  0  0  0  0  0  0  0  0  0
    2.1282   47.1980   20.8519 H   0  0  0  0  0  0  0  0  0  0  0  0
    7.0562   48.5862   17.9754 H   0  0  0  0  0  0  0  0  0  0  0  0
    5.5916   51.1786   17.9471 H   0  0  0  0  0  0  0  0  0  0  0  0
    7.1929   51.0023   18.6236 H   0  0  0  0  0  0  0  0  0  0  0  0
    5.8270   50.2391   19.4013 H   0  0  0  0  0  0  0  0  0  0  0  0
  1 39  1  0  0  0  0
  1 40  1  0  0  0  0
  1 41  1  0  0  0  0
  2  3  2  0  0  0  0
  2  1  1  0  0  0  0
  4  2  1  0  0  0  0
  4 42  1  0  0  0  0
  5  6  1  0  0  0  0
  5  4  1  0  0  0  0
  5 43  1  6  0  0  0
  6 13  1  0  0  0  0
  7  6  2  0  0  0  0
  8  5  1  0  0  0  0
  8 44  1  0  0  0  0
  8 45  1  0  0  0  0
  9  8  1  0  0  0  0
  9 46  1  0  0  0  0
  9 47  1  0  0  0  0
 10 11  1  0  0  0  0
 10  9  1  0  0  0  0
 12 10  2  0  0  0  0
 13 14  1  0  0  0  0
 13 48  1  0  0  0  0
 14 17  1  0  0  0  0
 14 15  1  0  0  0  0
 14 49  1  6  0  0  0
 15 16  2  0  0  0  0
 15 21  1  0  0  0  0
 17 50  1  0  0  0  0
 17 51  1  0  0  0  0
 18 19  1  0  0  0  0
 18 17  1  0  0  0  0
 18 52  1  0  0  0  0
 19 53  1  0  0  0  0
 19 54  1  0  0  0  0
 19 55  1  0  0  0  0
 20 18  1  0  0  0  0
 20 56  1  0  0  0  0
 20 57  1  0  0  0  0
 20 58  1  0  0  0  0
 21 22  1  0  0  0  0
 21 59  1  0  0  0  0
 22 25  1  0  0  0  0
 22 60  1  1  0  0  0
 23 22  1  0  0  0  0
 23 24  2  0  0  0  0
 25 61  1  0  0  0  0
 25 62  1  0  0  0  0
 25 63  1  0  0  0  0
 26 23  1  0  0  0  0
 26 64  1  0  0  0  0
 27 26  1  0  0  0  0
 27 65  1  1  0  0  0
 28 27  1  0  0  0  0
 29 28  2  0  0  0  0
 30 31  1  0  0  0  0
 30 27  1  0  0  0  0
 30 66  1  0  0  0  0
 30 67  1  0  0  0  0
 31 68  1  0  0  0  0
 31 69  1  0  0  0  0
 32 33  1  0  0  0  0
 32 31  1  0  0  0  0
 32 70  1  0  0  0  0
 32 71  1  0  0  0  0
 34 36  1  0  0  0  0
 34 33  1  0  0  0  0
 33 72  1  0  0  0  0
 35 34  2  0  0  0  0
 35 73  1  0  0  0  0
 35 74  1  0  0  0  0
 36 75  1  0  0  0  0
 36 76  1  0  0  0  0
 37 28  1  0  0  0  0
 37 77  1  0  0  0  0
 38 37  1  0  0  0  0
 38 78  1  0  0  0  0
 38 79  1  0  0  0  0
 38 80  1  0  0  0  0
M  CHG  1  11  -1
M  CHG  1  35  1
M  END
>  <MODEL>
       0

$$$$
