selected_4mers/ELVE/405_noH.pdb
 OpenBabel03042517593D

 77 76  0  0  1  0  0  0  0  0999 V2000
  -20.5360   19.2160   -2.0720 C   0  0  0  0  0  0  0  0  0  0  0  0
  -20.3210   17.9510   -1.2440 C   0  0  0  0  0  0  0  0  0  0  0  0
  -20.9340   17.8100   -0.1820 O   0  0  0  0  0  0  0  0  0  0  0  0
  -19.5110   17.0300   -1.7300 N   0  0  0  0  0  0  0  0  0  0  0  0
  -19.1640   15.8620   -0.9970 C   0  0  2  0  0  0  0  0  0  0  0  0
  -18.3120   16.0970    0.2730 C   0  0  0  0  0  0  0  0  0  0  0  0
  -18.4640   15.4270    1.2790 O   0  0  0  0  0  0  0  0  0  0  0  0
  -18.4870   14.8570   -1.9150 C   0  0  0  0  0  0  0  0  0  0  0  0
  -17.6110   13.8840   -1.1970 C   0  0  0  0  0  0  0  0  0  0  0  0
  -17.6610   12.5180   -1.8020 C   0  0  0  0  0  0  0  0  0  0  0  0
  -18.2920   11.6270   -1.2010 O   0  0  0  0  0  0  0  0  0  0  0  0
  -17.0580   12.3360   -2.8760 O   0  0  0  0  0  0  0  0  0  0  0  0
  -17.4140   17.0660    0.1810 N   0  0  0  0  0  0  0  0  0  0  0  0
  -16.6140   17.4490    1.3420 C   0  0  2  0  0  0  0  0  0  0  0  0
  -17.5190   17.9470    2.4530 C   0  0  0  0  0  0  0  0  0  0  0  0
  -17.3580   17.5400    3.6020 O   0  0  0  0  0  0  0  0  0  0  0  0
  -15.5550   18.5110    0.9970 C   0  0  0  0  0  0  0  0  0  0  0  0
  -14.6010   18.9550    2.1250 C   0  0  0  0  0  0  0  0  0  0  0  0
  -13.1710   19.0990    1.6310 C   0  0  0  0  0  0  0  0  0  0  0  0
  -15.0620   20.2520    2.7880 C   0  0  0  0  0  0  0  0  0  0  0  0
  -18.4540   18.8270    2.1050 N   0  0  0  0  0  0  0  0  0  0  0  0
  -19.4280   19.3620    3.0640 C   0  0  2  0  0  0  0  0  0  0  0  0
  -20.3050   18.2500    3.6920 C   0  0  0  0  0  0  0  0  0  0  0  0
  -20.5230   18.2580    4.9130 O   0  0  0  0  0  0  0  0  0  0  0  0
  -20.2670   20.5360    2.4390 C   0  0  0  0  0  0  0  0  0  0  0  0
  -21.5600   20.8130    3.2120 C   0  0  0  0  0  0  0  0  0  0  0  0
  -19.4240   21.8020    2.3600 C   0  0  0  0  0  0  0  0  0  0  0  0
  -20.7530   17.2910    2.8700 N   0  0  0  0  0  0  0  0  0  0  0  0
  -21.5040   16.1050    3.3470 C   0  0  2  0  0  0  0  0  0  0  0  0
  -20.7300   15.2310    4.3290 C   0  0  0  0  0  0  0  0  0  0  0  0
  -21.2960   14.7540    5.3200 O   0  0  0  0  0  0  0  0  0  0  0  0
  -21.9870   15.2220    2.1790 C   0  0  0  0  0  0  0  0  0  0  0  0
  -23.4930   15.2280    1.9490 C   0  0  0  0  0  0  0  0  0  0  0  0
  -23.9560   16.3700    1.0570 C   0  0  0  0  0  0  0  0  0  0  0  0
  -23.8310   17.5500    1.4660 O   0  0  0  0  0  0  0  0  0  0  0  0
  -24.4610   16.0830   -0.0540 O   0  0  0  0  0  0  0  0  0  0  0  0
  -19.4480   15.0090    4.0420 N   0  0  0  0  0  0  0  0  0  0  0  0
  -18.6090   14.1570    4.8860 C   0  0  0  0  0  0  0  0  0  0  0  0
  -19.9309   19.1725   -2.9534 H   0  0  0  0  0  0  0  0  0  0  0  0
  -20.2611   20.0725   -1.4926 H   0  0  0  0  0  0  0  0  0  0  0  0
  -21.5666   19.2894   -2.3501 H   0  0  0  0  0  0  0  0  0  0  0  0
  -19.1340   17.1557   -2.6307 H   0  0  0  0  0  0  0  0  0  0  0  0
  -20.0918   15.4768   -0.6286 H   0  0  0  0  0  0  0  0  0  0  0  0
  -19.2455   14.3094   -2.4344 H   0  0  0  0  0  0  0  0  0  0  0  0
  -17.8585   15.4133   -2.5787 H   0  0  0  0  0  0  0  0  0  0  0  0
  -17.9311   13.8204   -0.1780 H   0  0  0  0  0  0  0  0  0  0  0  0
  -16.6034   14.2365   -1.2702 H   0  0  0  0  0  0  0  0  0  0  0  0
  -17.2845   17.5320   -0.6765 H   0  0  0  0  0  0  0  0  0  0  0  0
  -16.0884   16.5774    1.6722 H   0  0  0  0  0  0  0  0  0  0  0  0
  -16.0736   19.3818    0.6540 H   0  0  0  0  0  0  0  0  0  0  0  0
  -14.9226   18.0415    0.2728 H   0  0  0  0  0  0  0  0  0  0  0  0
  -14.6256   18.1790    2.8613 H   0  0  0  0  0  0  0  0  0  0  0  0
  -13.1249   19.8717    0.8923 H   0  0  0  0  0  0  0  0  0  0  0  0
  -12.8475   18.1744    1.2005 H   0  0  0  0  0  0  0  0  0  0  0  0
  -12.5337   19.3523    2.4523 H   0  0  0  0  0  0  0  0  0  0  0  0
  -15.0460   21.0450    2.0698 H   0  0  0  0  0  0  0  0  0  0  0  0
  -14.4054   20.4913    3.5983 H   0  0  0  0  0  0  0  0  0  0  0  0
  -16.0575   20.1280    3.1603 H   0  0  0  0  0  0  0  0  0  0  0  0
  -18.4942   19.1307    1.1694 H   0  0  0  0  0  0  0  0  0  0  0  0
  -18.8779   19.7855    3.8782 H   0  0  0  0  0  0  0  0  0  0  0  0
  -20.5485   20.2283    1.4536 H   0  0  0  0  0  0  0  0  0  0  0  0
  -21.3207   21.1248    4.2072 H   0  0  0  0  0  0  0  0  0  0  0  0
  -22.1508   19.9217    3.2498 H   0  0  0  0  0  0  0  0  0  0  0  0
  -22.1117   21.5860    2.7190 H   0  0  0  0  0  0  0  0  0  0  0  0
  -19.1445   22.1066    3.3469 H   0  0  0  0  0  0  0  0  0  0  0  0
  -19.9918   22.5801    1.8940 H   0  0  0  0  0  0  0  0  0  0  0  0
  -18.5435   21.6088    1.7836 H   0  0  0  0  0  0  0  0  0  0  0  0
  -20.5753   17.3780    1.9056 H   0  0  0  0  0  0  0  0  0  0  0  0
  -22.3421   16.5185    3.8680 H   0  0  0  0  0  0  0  0  0  0  0  0
  -21.5129   15.5667    1.2839 H   0  0  0  0  0  0  0  0  0  0  0  0
  -21.7272   14.2164    2.4363 H   0  0  0  0  0  0  0  0  0  0  0  0
  -23.7709   14.3026    1.4893 H   0  0  0  0  0  0  0  0  0  0  0  0
  -23.9608   15.3581    2.9025 H   0  0  0  0  0  0  0  0  0  0  0  0
  -19.0554   15.4284    3.2425 H   0  0  0  0  0  0  0  0  0  0  0  0
  -19.1884   13.7852    5.7051 H   0  0  0  0  0  0  0  0  0  0  0  0
  -17.7854   14.7275    5.2617 H   0  0  0  0  0  0  0  0  0  0  0  0
  -18.2399   13.3355    4.3083 H   0  0  0  0  0  0  0  0  0  0  0  0
  1  2  1  0  0  0  0
  1 39  1  0  0  0  0
  1 40  1  0  0  0  0
  1 41  1  0  0  0  0
  2  3  2  0  0  0  0
  4  2  1  0  0  0  0
  4  5  1  0  0  0  0
  4 42  1  0  0  0  0
  5  6  1  0  0  0  0
  5 43  1  1  0  0  0
  6  7  2  0  0  0  0
  8  9  1  0  0  0  0
  8  5  1  0  0  0  0
  8 44  1  0  0  0  0
  8 45  1  0  0  0  0
  9 46  1  0  0  0  0
  9 47  1  0  0  0  0
 10 11  1  0  0  0  0
 10  9  1  0  0  0  0
 12 10  2  0  0  0  0
 13  6  1  0  0  0  0
 13 14  1  0  0  0  0
 13 48  1  0  0  0  0
 14 15  1  0  0  0  0
 14 49  1  1  0  0  0
 15 16  2  0  0  0  0
 17 14  1  0  0  0  0
 17 18  1  0  0  0  0
 17 50  1  0  0  0  0
 17 51  1  0  0  0  0
 18 20  1  0  0  0  0
 18 52  1  0  0  0  0
 19 18  1  0  0  0  0
 19 53  1  0  0  0  0
 19 54  1  0  0  0  0
 19 55  1  0  0  0  0
 20 56  1  0  0  0  0
 20 57  1  0  0  0  0
 20 58  1  0  0  0  0
 21 15  1  0  0  0  0
 21 22  1  0  0  0  0
 21 59  1  0  0  0  0
 22 23  1  0  0  0  0
 22 60  1  1  0  0  0
 23 24  2  0  0  0  0
 25 22  1  0  0  0  0
 25 26  1  0  0  0  0
 25 61  1  0  0  0  0
 26 62  1  0  0  0  0
 26 63  1  0  0  0  0
 26 64  1  0  0  0  0
 27 25  1  0  0  0  0
 27 65  1  0  0  0  0
 27 66  1  0  0  0  0
 27 67  1  0  0  0  0
 28 29  1  0  0  0  0
 28 23  1  0  0  0  0
 28 68  1  0  0  0  0
 29 30  1  0  0  0  0
 29 69  1  1  0  0  0
 30 31  2  0  0  0  0
 32 29  1  0  0  0  0
 32 70  1  0  0  0  0
 32 71  1  0  0  0  0
 33 32  1  0  0  0  0
 33 72  1  0  0  0  0
 33 73  1  0  0  0  0
 34 35  1  0  0  0  0
 34 33  1  0  0  0  0
 36 34  2  0  0  0  0
 37 30  1  0  0  0  0
 37 38  1  0  0  0  0
 37 74  1  0  0  0  0
 38 75  1  0  0  0  0
 38 76  1  0  0  0  0
 38 77  1  0  0  0  0
M  CHG  1  11  -1
M  CHG  1  35  -1
M  END
>  <MODEL>
       0

$$$$
selected_4mers/ELVE/406_noH.pdb
 OpenBabel03042517593D

 77 76  0  0  1  0  0  0  0  0999 V2000
   19.2500   38.9420   34.8720 C   0  0  0  0  0  0  0  0  0  0  0  0
   19.3450   37.4590   34.5200 C   0  0  0  0  0  0  0  0  0  0  0  0
   20.3460   37.0080   33.9610 O   0  0  0  0  0  0  0  0  0  0  0  0
   18.3060   36.6990   34.8430 N   0  0  0  0  0  0  0  0  0  0  0  0
   18.3190   35.2760   34.5440 C   0  0  2  0  0  0  0  0  0  0  0  0
   18.2990   35.0150   33.0400 C   0  0  0  0  0  0  0  0  0  0  0  0
   18.8920   34.0470   32.5670 O   0  0  0  0  0  0  0  0  0  0  0  0
   17.1350   34.5750   35.2020 C   0  0  0  0  0  0  0  0  0  0  0  0
   17.2360   33.0650   35.1300 C   0  0  0  0  0  0  0  0  0  0  0  0
   16.2530   32.3760   36.0400 C   0  0  0  0  0  0  0  0  0  0  0  0
   16.1460   32.7960   37.2120 O   0  0  0  0  0  0  0  0  0  0  0  0
   15.5980   31.4120   35.5920 O   0  0  0  0  0  0  0  0  0  0  0  0
   17.6190   35.8780   32.2920 N   0  0  0  0  0  0  0  0  0  0  0  0
   17.5450   35.7250   30.8460 C   0  0  2  0  0  0  0  0  0  0  0  0
   18.9500   35.8380   30.2500 C   0  0  0  0  0  0  0  0  0  0  0  0
   19.3490   35.0240   29.4220 O   0  0  0  0  0  0  0  0  0  0  0  0
   16.6220   36.7950   30.2450 C   0  0  0  0  0  0  0  0  0  0  0  0
   16.4320   36.7780   28.7240 C   0  0  0  0  0  0  0  0  0  0  0  0
   15.8890   35.4270   28.2900 C   0  0  0  0  0  0  0  0  0  0  0  0
   15.4780   37.8920   28.3060 C   0  0  0  0  0  0  0  0  0  0  0  0
   19.7020   36.8460   30.6840 N   0  0  0  0  0  0  0  0  0  0  0  0
   21.0610   37.0480   30.1980 C   0  0  2  0  0  0  0  0  0  0  0  0
   21.9390   35.8270   30.4830 C   0  0  0  0  0  0  0  0  0  0  0  0
   22.7230   35.4090   29.6320 O   0  0  0  0  0  0  0  0  0  0  0  0
   21.7020   38.2920   30.8540 C   0  0  0  0  0  0  0  0  0  0  0  0
   23.1490   38.4340   30.4210 C   0  0  0  0  0  0  0  0  0  0  0  0
   20.9210   39.5280   30.4700 C   0  0  0  0  0  0  0  0  0  0  0  0
   21.8160   35.2630   31.6820 N   0  0  0  0  0  0  0  0  0  0  0  0
   22.6030   34.0880   32.0540 C   0  0  2  0  0  0  0  0  0  0  0  0
   22.2490   32.8960   31.1670 C   0  0  0  0  0  0  0  0  0  0  0  0
   23.1090   32.0970   30.8010 O   0  0  0  0  0  0  0  0  0  0  0  0
   22.3590   33.7270   33.5200 C   0  0  0  0  0  0  0  0  0  0  0  0
   22.8800   34.7670   34.4910 C   0  0  0  0  0  0  0  0  0  0  0  0
   24.3690   35.0000   34.3410 C   0  0  0  0  0  0  0  0  0  0  0  0
   24.7860   36.1770   34.3780 O   0  0  0  0  0  0  0  0  0  0  0  0
   25.1220   34.0100   34.1930 O   0  0  0  0  0  0  0  0  0  0  0  0
   20.9710   32.7840   30.8310 N   0  0  0  0  0  0  0  0  0  0  0  0
   20.4880   31.7050   29.9820 C   0  0  0  0  0  0  0  0  0  0  0  0
   20.1445   39.4403   34.5615 H   0  0  0  0  0  0  0  0  0  0  0  0
   19.1300   39.0506   35.9297 H   0  0  0  0  0  0  0  0  0  0  0  0
   18.4089   39.3742   34.3714 H   0  0  0  0  0  0  0  0  0  0  0  0
   17.5239   37.1000   35.2865 H   0  0  0  0  0  0  0  0  0  0  0  0
   19.2298   34.8790   34.9412 H   0  0  0  0  0  0  0  0  0  0  0  0
   16.2373   34.8820   34.7073 H   0  0  0  0  0  0  0  0  0  0  0  0
   17.1306   34.8497   36.2361 H   0  0  0  0  0  0  0  0  0  0  0  0
   18.2263   32.7737   35.4116 H   0  0  0  0  0  0  0  0  0  0  0  0
   17.0096   32.7720   34.1261 H   0  0  0  0  0  0  0  0  0  0  0  0
   17.1576   36.6334   32.7230 H   0  0  0  0  0  0  0  0  0  0  0  0
   17.1406   34.7623   30.6126 H   0  0  0  0  0  0  0  0  0  0  0  0
   15.6570   36.6763   30.6918 H   0  0  0  0  0  0  0  0  0  0  0  0
   17.1052   37.7266   30.4535 H   0  0  0  0  0  0  0  0  0  0  0  0
   17.3766   36.9404   28.2484 H   0  0  0  0  0  0  0  0  0  0  0  0
   14.9436   35.2547   28.7605 H   0  0  0  0  0  0  0  0  0  0  0  0
   16.5755   34.6579   28.5766 H   0  0  0  0  0  0  0  0  0  0  0  0
   15.7656   35.4169   27.2272 H   0  0  0  0  0  0  0  0  0  0  0  0
   14.5278   37.7424   28.7747 H   0  0  0  0  0  0  0  0  0  0  0  0
   15.3574   37.8781   27.2429 H   0  0  0  0  0  0  0  0  0  0  0  0
   15.8794   38.8370   28.6071 H   0  0  0  0  0  0  0  0  0  0  0  0
   19.3317   37.4702   31.3492 H   0  0  0  0  0  0  0  0  0  0  0  0
   20.9984   37.1953   29.1400 H   0  0  0  0  0  0  0  0  0  0  0  0
   21.6773   38.1747   31.9173 H   0  0  0  0  0  0  0  0  0  0  0  0
   23.1934   38.5525   29.3585 H   0  0  0  0  0  0  0  0  0  0  0  0
   23.6939   37.5581   30.7052 H   0  0  0  0  0  0  0  0  0  0  0  0
   23.5803   39.2915   30.8939 H   0  0  0  0  0  0  0  0  0  0  0  0
   20.9437   39.6483   29.4070 H   0  0  0  0  0  0  0  0  0  0  0  0
   21.3594   40.3859   30.9355 H   0  0  0  0  0  0  0  0  0  0  0  0
   19.9070   39.4247   30.7956 H   0  0  0  0  0  0  0  0  0  0  0  0
   21.1823   35.6445   32.3317 H   0  0  0  0  0  0  0  0  0  0  0  0
   23.6374   34.3250   31.9166 H   0  0  0  0  0  0  0  0  0  0  0  0
   22.8461   32.7968   33.7258 H   0  0  0  0  0  0  0  0  0  0  0  0
   21.2996   33.6684   33.6586 H   0  0  0  0  0  0  0  0  0  0  0  0
   22.6826   34.4352   35.4889 H   0  0  0  0  0  0  0  0  0  0  0  0
   22.3818   35.6901   34.2798 H   0  0  0  0  0  0  0  0  0  0  0  0
   20.3293   33.4512   31.1661 H   0  0  0  0  0  0  0  0  0  0  0  0
   21.3069   31.0734   29.7074 H   0  0  0  0  0  0  0  0  0  0  0  0
   20.0438   32.1168   29.0999 H   0  0  0  0  0  0  0  0  0  0  0  0
   19.7582   31.1316   30.5145 H   0  0  0  0  0  0  0  0  0  0  0  0
  1 39  1  0  0  0  0
  1 40  1  0  0  0  0
  1 41  1  0  0  0  0
  2  4  1  0  0  0  0
  2  1  1  0  0  0  0
  3  2  2  0  0  0  0
  4 42  1  0  0  0  0
  5  4  1  0  0  0  0
  5  8  1  0  0  0  0
  5 43  1  1  0  0  0
  6  5  1  0  0  0  0
  7  6  2  0  0  0  0
  8 44  1  0  0  0  0
  8 45  1  0  0  0  0
  9  8  1  0  0  0  0
  9 10  1  0  0  0  0
  9 46  1  0  0  0  0
  9 47  1  0  0  0  0
 10 11  1  0  0  0  0
 12 10  2  0  0  0  0
 13  6  1  0  0  0  0
 13 48  1  0  0  0  0
 14 13  1  0  0  0  0
 14 49  1  6  0  0  0
 15 21  1  0  0  0  0
 15 14  1  0  0  0  0
 16 15  2  0  0  0  0
 17 14  1  0  0  0  0
 17 50  1  0  0  0  0
 17 51  1  0  0  0  0
 18 17  1  0  0  0  0
 18 52  1  0  0  0  0
 19 18  1  0  0  0  0
 19 53  1  0  0  0  0
 19 54  1  0  0  0  0
 19 55  1  0  0  0  0
 20 18  1  0  0  0  0
 20 56  1  0  0  0  0
 20 57  1  0  0  0  0
 20 58  1  0  0  0  0
 21 59  1  0  0  0  0
 22 23  1  0  0  0  0
 22 21  1  0  0  0  0
 22 25  1  0  0  0  0
 22 60  1  6  0  0  0
 23 28  1  0  0  0  0
 24 23  2  0  0  0  0
 25 61  1  0  0  0  0
 26 25  1  0  0  0  0
 26 62  1  0  0  0  0
 26 63  1  0  0  0  0
 26 64  1  0  0  0  0
 27 25  1  0  0  0  0
 27 65  1  0  0  0  0
 27 66  1  0  0  0  0
 27 67  1  0  0  0  0
 28 29  1  0  0  0  0
 28 68  1  0  0  0  0
 29 32  1  0  0  0  0
 29 69  1  6  0  0  0
 30 29  1  0  0  0  0
 31 30  2  0  0  0  0
 32 33  1  0  0  0  0
 32 70  1  0  0  0  0
 32 71  1  0  0  0  0
 33 72  1  0  0  0  0
 33 73  1  0  0  0  0
 34 35  1  0  0  0  0
 34 33  1  0  0  0  0
 36 34  2  0  0  0  0
 37 30  1  0  0  0  0
 37 74  1  0  0  0  0
 38 37  1  0  0  0  0
 38 75  1  0  0  0  0
 38 76  1  0  0  0  0
 38 77  1  0  0  0  0
M  CHG  1  11  -1
M  CHG  1  35  -1
M  END
>  <MODEL>
       0

$$$$
selected_4mers/ELVE/407_noH.pdb
 OpenBabel03042517593D

 77 76  0  0  1  0  0  0  0  0999 V2000
   31.2210  -36.8660   -3.6170 C   0  0  0  0  0  0  0  0  0  0  0  0
   30.3550  -37.9890   -3.0510 C   0  0  0  0  0  0  0  0  0  0  0  0
   29.1240  -37.9710   -3.2550 O   0  0  0  0  0  0  0  0  0  0  0  0
   30.9820  -38.9750   -2.3940 N   0  0  0  0  0  0  0  0  0  0  0  0
   30.2230  -39.9510   -1.5980 C   0  0  2  0  0  0  0  0  0  0  0  0
   30.2070  -39.4250   -0.1740 C   0  0  0  0  0  0  0  0  0  0  0  0
   31.2450  -39.2980    0.4520 O   0  0  0  0  0  0  0  0  0  0  0  0
   30.8430  -41.3430   -1.6670 C   0  0  0  0  0  0  0  0  0  0  0  0
   30.1480  -42.3400   -0.7470 C   0  0  0  0  0  0  0  0  0  0  0  0
   30.7700  -43.7150   -0.7750 C   0  0  0  0  0  0  0  0  0  0  0  0
   31.9310  -43.8260   -1.2110 O   0  0  0  0  0  0  0  0  0  0  0  0
   30.0840  -44.6580   -0.3150 O   0  0  0  0  0  0  0  0  0  0  0  0
   29.0170  -39.1210    0.3200 N   0  0  0  0  0  0  0  0  0  0  0  0
   28.8690  -38.5650    1.6390 C   0  0  2  0  0  0  0  0  0  0  0  0
   28.0660  -39.5440    2.4720 C   0  0  0  0  0  0  0  0  0  0  0  0
   26.9160  -39.8350    2.1480 O   0  0  0  0  0  0  0  0  0  0  0  0
   28.1300  -37.2290    1.5050 C   0  0  0  0  0  0  0  0  0  0  0  0
   27.9470  -36.3680    2.7350 C   0  0  0  0  0  0  0  0  0  0  0  0
   29.2870  -35.7430    3.0840 C   0  0  0  0  0  0  0  0  0  0  0  0
   26.9110  -35.2770    2.4010 C   0  0  0  0  0  0  0  0  0  0  0  0
   28.6700  -40.0540    3.5410 N   0  0  0  0  0  0  0  0  0  0  0  0
   27.9040  -41.0230    4.3230 C   0  0  2  0  0  0  0  0  0  0  0  0
   27.0430  -40.3050    5.3340 C   0  0  0  0  0  0  0  0  0  0  0  0
   27.3060  -39.1620    5.6810 O   0  0  0  0  0  0  0  0  0  0  0  0
   28.8030  -42.0760    5.0360 C   0  0  0  0  0  0  0  0  0  0  0  0
   29.5580  -42.8660    3.9660 C   0  0  0  0  0  0  0  0  0  0  0  0
   29.7040  -41.4730    6.0770 C   0  0  0  0  0  0  0  0  0  0  0  0
   26.0280  -41.0160    5.8220 N   0  0  0  0  0  0  0  0  0  0  0  0
   25.1470  -40.4730    6.8480 C   0  0  2  0  0  0  0  0  0  0  0  0
   25.9410  -40.2720    8.1360 C   0  0  0  0  0  0  0  0  0  0  0  0
   26.7900  -41.1170    8.5100 O   0  0  0  0  0  0  0  0  0  0  0  0
   24.0410  -41.4700    7.0990 C   0  0  0  0  0  0  0  0  0  0  0  0
   23.0110  -41.0780    8.1590 C   0  0  0  0  0  0  0  0  0  0  0  0
   21.8920  -40.1180    7.6470 C   0  0  0  0  0  0  0  0  0  0  0  0
   21.9630  -39.5830    6.4840 O   0  0  0  0  0  0  0  0  0  0  0  0
   20.9500  -39.8950    8.4580 O   0  0  0  0  0  0  0  0  0  0  0  0
   25.7070  -39.1330    8.8040 N   0  0  0  0  0  0  0  0  0  0  0  0
   26.3450  -38.8950   10.1260 C   0  0  0  0  0  0  0  0  0  0  0  0
   30.5984  -36.1509   -4.1129 H   0  0  0  0  0  0  0  0  0  0  0  0
   31.9220  -37.2735   -4.3152 H   0  0  0  0  0  0  0  0  0  0  0  0
   31.7495  -36.3867   -2.8196 H   0  0  0  0  0  0  0  0  0  0  0  0
   31.9626  -39.0466   -2.4450 H   0  0  0  0  0  0  0  0  0  0  0  0
   29.2295  -40.0574   -1.9808 H   0  0  0  0  0  0  0  0  0  0  0  0
   31.8723  -41.2743   -1.3829 H   0  0  0  0  0  0  0  0  0  0  0  0
   30.7337  -41.6973   -2.6707 H   0  0  0  0  0  0  0  0  0  0  0  0
   29.1250  -42.4242   -1.0490 H   0  0  0  0  0  0  0  0  0  0  0  0
   30.2453  -41.9693    0.2520 H   0  0  0  0  0  0  0  0  0  0  0  0
   28.2144  -39.2790   -0.2279 H   0  0  0  0  0  0  0  0  0  0  0  0
   29.8144  -38.3980    2.1115 H   0  0  0  0  0  0  0  0  0  0  0  0
   27.1533  -37.4471    1.1263 H   0  0  0  0  0  0  0  0  0  0  0  0
   28.7667  -36.6447    0.8740 H   0  0  0  0  0  0  0  0  0  0  0  0
   27.6020  -36.9417    3.5697 H   0  0  0  0  0  0  0  0  0  0  0  0
   29.6390  -35.1671    2.2537 H   0  0  0  0  0  0  0  0  0  0  0  0
   29.9933  -36.5151    3.3076 H   0  0  0  0  0  0  0  0  0  0  0  0
   29.1725  -35.1066    3.9365 H   0  0  0  0  0  0  0  0  0  0  0  0
   27.2547  -34.7023    1.5664 H   0  0  0  0  0  0  0  0  0  0  0  0
   26.7833  -34.6352    3.2476 H   0  0  0  0  0  0  0  0  0  0  0  0
   25.9757  -35.7360    2.1571 H   0  0  0  0  0  0  0  0  0  0  0  0
   29.5852  -39.7928    3.7928 H   0  0  0  0  0  0  0  0  0  0  0  0
   27.2867  -41.5606    3.6339 H   0  0  0  0  0  0  0  0  0  0  0  0
   28.1846  -42.7483    5.5933 H   0  0  0  0  0  0  0  0  0  0  0  0
   30.1794  -42.2008    3.4036 H   0  0  0  0  0  0  0  0  0  0  0  0
   28.8568  -43.3389    3.3106 H   0  0  0  0  0  0  0  0  0  0  0  0
   30.1660  -43.6110    4.4353 H   0  0  0  0  0  0  0  0  0  0  0  0
   30.3700  -40.7765    5.6121 H   0  0  0  0  0  0  0  0  0  0  0  0
   30.2710  -42.2475    6.5498 H   0  0  0  0  0  0  0  0  0  0  0  0
   29.1124  -40.9658    6.8102 H   0  0  0  0  0  0  0  0  0  0  0  0
   25.8697  -41.9266    5.4828 H   0  0  0  0  0  0  0  0  0  0  0  0
   24.7392  -39.5363    6.5299 H   0  0  0  0  0  0  0  0  0  0  0  0
   24.4932  -42.3896    7.4067 H   0  0  0  0  0  0  0  0  0  0  0  0
   23.4975  -41.5345    6.1796 H   0  0  0  0  0  0  0  0  0  0  0  0
   23.5255  -40.5937    8.9625 H   0  0  0  0  0  0  0  0  0  0  0  0
   22.5237  -41.9818    8.4601 H   0  0  0  0  0  0  0  0  0  0  0  0
   25.1105  -38.4517    8.4177 H   0  0  0  0  0  0  0  0  0  0  0  0
   26.9543  -39.7357   10.3845 H   0  0  0  0  0  0  0  0  0  0  0  0
   25.5868  -38.7621   10.8692 H   0  0  0  0  0  0  0  0  0  0  0  0
   26.9530  -38.0159   10.0755 H   0  0  0  0  0  0  0  0  0  0  0  0
  1  2  1  0  0  0  0
  1 39  1  0  0  0  0
  1 40  1  0  0  0  0
  1 41  1  0  0  0  0
  2  4  1  0  0  0  0
  3  2  2  0  0  0  0
  4  5  1  0  0  0  0
  4 42  1  0  0  0  0
  5  6  1  0  0  0  0
  5 43  1  6  0  0  0
  6 13  1  0  0  0  0
  6  7  2  0  0  0  0
  8  5  1  0  0  0  0
  8  9  1  0  0  0  0
  8 44  1  0  0  0  0
  8 45  1  0  0  0  0
  9 46  1  0  0  0  0
  9 47  1  0  0  0  0
 10  9  1  0  0  0  0
 10 12  1  0  0  0  0
 11 10  2  0  0  0  0
 13 14  1  0  0  0  0
 13 48  1  0  0  0  0
 14 15  1  0  0  0  0
 14 49  1  1  0  0  0
 15 21  1  0  0  0  0
 16 15  2  0  0  0  0
 17 14  1  0  0  0  0
 17 18  1  0  0  0  0
 17 50  1  0  0  0  0
 17 51  1  0  0  0  0
 18 19  1  0  0  0  0
 18 52  1  0  0  0  0
 19 53  1  0  0  0  0
 19 54  1  0  0  0  0
 19 55  1  0  0  0  0
 20 18  1  0  0  0  0
 20 56  1  0  0  0  0
 20 57  1  0  0  0  0
 20 58  1  0  0  0  0
 21 22  1  0  0  0  0
 21 59  1  0  0  0  0
 22 25  1  0  0  0  0
 22 23  1  0  0  0  0
 22 60  1  6  0  0  0
 23 24  2  0  0  0  0
 23 28  1  0  0  0  0
 25 27  1  0  0  0  0
 25 61  1  0  0  0  0
 26 25  1  0  0  0  0
 26 62  1  0  0  0  0
 26 63  1  0  0  0  0
 26 64  1  0  0  0  0
 27 65  1  0  0  0  0
 27 66  1  0  0  0  0
 27 67  1  0  0  0  0
 28 29  1  0  0  0  0
 28 68  1  0  0  0  0
 29 32  1  0  0  0  0
 29 30  1  0  0  0  0
 29 69  1  6  0  0  0
 30 31  2  0  0  0  0
 30 37  1  0  0  0  0
 32 33  1  0  0  0  0
 32 70  1  0  0  0  0
 32 71  1  0  0  0  0
 33 72  1  0  0  0  0
 33 73  1  0  0  0  0
 34 33  1  0  0  0  0
 34 36  1  0  0  0  0
 35 34  2  0  0  0  0
 37 38  1  0  0  0  0
 37 74  1  0  0  0  0
 38 75  1  0  0  0  0
 38 76  1  0  0  0  0
 38 77  1  0  0  0  0
M  CHG  1  12  -1
M  CHG  1  36  -1
M  END
>  <MODEL>
       0

$$$$
selected_4mers/ELVE/408_noH.pdb
 OpenBabel03042517593D

 77 76  0  0  1  0  0  0  0  0999 V2000
  -10.9350   24.2590   -1.1730 C   0  0  0  0  0  0  0  0  0  0  0  0
  -11.7790   24.1600   -2.4330 C   0  0  0  0  0  0  0  0  0  0  0  0
  -12.9570   23.8790   -2.3530 O   0  0  0  0  0  0  0  0  0  0  0  0
  -11.1800   24.4030   -3.5940 N   0  0  0  0  0  0  0  0  0  0  0  0
  -11.9240   24.3910   -4.8410 C   0  0  2  0  0  0  0  0  0  0  0  0
  -12.0910   22.9790   -5.4200 C   0  0  0  0  0  0  0  0  0  0  0  0
  -13.0420   22.7310   -6.1740 O   0  0  0  0  0  0  0  0  0  0  0  0
  -11.2760   25.3430   -5.8430 C   0  0  0  0  0  0  0  0  0  0  0  0
  -11.5050   26.8000   -5.4790 C   0  0  0  0  0  0  0  0  0  0  0  0
  -10.6610   27.7870   -6.2670 C   0  0  0  0  0  0  0  0  0  0  0  0
   -9.8550   27.3510   -7.1020 O   0  0  0  0  0  0  0  0  0  0  0  0
  -10.8070   29.0110   -6.0300 O   0  0  0  0  0  0  0  0  0  0  0  0
  -11.2010   22.0640   -5.0370 N   0  0  0  0  0  0  0  0  0  0  0  0
  -11.1510   20.7100   -5.6000 C   0  0  2  0  0  0  0  0  0  0  0  0
  -11.7350   19.6090   -4.6920 C   0  0  0  0  0  0  0  0  0  0  0  0
  -12.1650   18.5660   -5.1870 O   0  0  0  0  0  0  0  0  0  0  0  0
   -9.7100   20.3380   -5.9530 C   0  0  0  0  0  0  0  0  0  0  0  0
   -8.9640   21.1070   -7.0480 C   0  0  0  0  0  0  0  0  0  0  0  0
   -7.4960   20.6780   -7.0960 C   0  0  0  0  0  0  0  0  0  0  0  0
   -9.6140   20.9230   -8.4060 C   0  0  0  0  0  0  0  0  0  0  0  0
  -11.7290   19.8240   -3.3790 N   0  0  0  0  0  0  0  0  0  0  0  0
  -12.2760   18.8550   -2.4230 C   0  0  2  0  0  0  0  0  0  0  0  0
  -13.6890   19.2820   -2.0590 C   0  0  0  0  0  0  0  0  0  0  0  0
  -13.9340   20.4570   -1.8080 O   0  0  0  0  0  0  0  0  0  0  0  0
  -11.4030   18.7770   -1.1470 C   0  0  0  0  0  0  0  0  0  0  0  0
  -11.9490   17.7340   -0.1590 C   0  0  0  0  0  0  0  0  0  0  0  0
   -9.9560   18.4500   -1.5030 C   0  0  0  0  0  0  0  0  0  0  0  0
  -14.6260   18.3340   -2.0380 N   0  0  0  0  0  0  0  0  0  0  0  0
  -16.0190   18.6500   -1.7030 C   0  0  2  0  0  0  0  0  0  0  0  0
  -16.1070   19.2100   -0.2920 C   0  0  0  0  0  0  0  0  0  0  0  0
  -15.4270   18.7130    0.6010 O   0  0  0  0  0  0  0  0  0  0  0  0
  -16.9280   17.4240   -1.8120 C   0  0  0  0  0  0  0  0  0  0  0  0
  -17.6820   17.3180   -3.1260 C   0  0  0  0  0  0  0  0  0  0  0  0
  -19.1110   16.8590   -2.9310 C   0  0  0  0  0  0  0  0  0  0  0  0
  -19.3880   16.1680   -1.9240 O   0  0  0  0  0  0  0  0  0  0  0  0
  -19.9600   17.2010   -3.7830 O   0  0  0  0  0  0  0  0  0  0  0  0
  -16.9530   20.2370   -0.0850 N   0  0  0  0  0  0  0  0  0  0  0  0
  -17.0230   20.8820    1.2330 C   0  0  0  0  0  0  0  0  0  0  0  0
   -9.9297   24.5139   -1.4362 H   0  0  0  0  0  0  0  0  0  0  0  0
  -10.9426   23.3180   -0.6637 H   0  0  0  0  0  0  0  0  0  0  0  0
  -11.3384   25.0148   -0.5319 H   0  0  0  0  0  0  0  0  0  0  0  0
  -10.2144   24.5946   -3.6090 H   0  0  0  0  0  0  0  0  0  0  0  0
  -12.9152   24.7355   -4.6318 H   0  0  0  0  0  0  0  0  0  0  0  0
  -10.2229   25.1548   -5.8661 H   0  0  0  0  0  0  0  0  0  0  0  0
  -11.7232   25.1685   -6.7993 H   0  0  0  0  0  0  0  0  0  0  0  0
  -12.5358   27.0294   -5.6516 H   0  0  0  0  0  0  0  0  0  0  0  0
  -11.2185   26.9058   -4.4535 H   0  0  0  0  0  0  0  0  0  0  0  0
  -10.5462   22.3081   -4.3436 H   0  0  0  0  0  0  0  0  0  0  0  0
  -11.7721   20.7504   -6.4704 H   0  0  0  0  0  0  0  0  0  0  0  0
   -9.1358   20.4435   -5.0563 H   0  0  0  0  0  0  0  0  0  0  0  0
   -9.8049   19.3552   -6.3654 H   0  0  0  0  0  0  0  0  0  0  0  0
   -9.0145   22.1476   -6.8040 H   0  0  0  0  0  0  0  0  0  0  0  0
   -7.4362   19.6378   -7.3396 H   0  0  0  0  0  0  0  0  0  0  0  0
   -7.0435   20.8473   -6.1413 H   0  0  0  0  0  0  0  0  0  0  0  0
   -6.9817   21.2489   -7.8407 H   0  0  0  0  0  0  0  0  0  0  0  0
   -9.5799   19.8894   -8.6806 H   0  0  0  0  0  0  0  0  0  0  0  0
   -9.0877   21.5032   -9.1349 H   0  0  0  0  0  0  0  0  0  0  0  0
  -10.6329   21.2466   -8.3605 H   0  0  0  0  0  0  0  0  0  0  0  0
  -11.3439   20.6630   -3.0369 H   0  0  0  0  0  0  0  0  0  0  0  0
  -12.2841   17.8838   -2.8721 H   0  0  0  0  0  0  0  0  0  0  0  0
  -11.4363   19.7365   -0.6747 H   0  0  0  0  0  0  0  0  0  0  0  0
  -11.9242   16.7654   -0.6130 H   0  0  0  0  0  0  0  0  0  0  0  0
  -12.9575   17.9811    0.0993 H   0  0  0  0  0  0  0  0  0  0  0  0
  -11.3454   17.7294    0.7245 H   0  0  0  0  0  0  0  0  0  0  0  0
   -9.9130   17.4913   -1.9762 H   0  0  0  0  0  0  0  0  0  0  0  0
   -9.3642   18.4346   -0.6117 H   0  0  0  0  0  0  0  0  0  0  0  0
   -9.5759   19.1947   -2.1707 H   0  0  0  0  0  0  0  0  0  0  0  0
  -14.3788   17.4052   -2.2511 H   0  0  0  0  0  0  0  0  0  0  0  0
  -16.3539   19.3798   -2.4102 H   0  0  0  0  0  0  0  0  0  0  0  0
  -16.3235   16.5481   -1.7012 H   0  0  0  0  0  0  0  0  0  0  0  0
  -17.6658   17.5211   -1.0431 H   0  0  0  0  0  0  0  0  0  0  0  0
  -17.6901   18.2788   -3.5969 H   0  0  0  0  0  0  0  0  0  0  0  0
  -17.1837   16.5907   -3.7324 H   0  0  0  0  0  0  0  0  0  0  0  0
  -17.5262   20.5565   -0.8189 H   0  0  0  0  0  0  0  0  0  0  0  0
  -16.3348   20.4062    1.9000 H   0  0  0  0  0  0  0  0  0  0  0  0
  -18.0159   20.7926    1.6216 H   0  0  0  0  0  0  0  0  0  0  0  0
  -16.7693   21.9171    1.1375 H   0  0  0  0  0  0  0  0  0  0  0  0
  1 39  1  0  0  0  0
  1 40  1  0  0  0  0
  1 41  1  0  0  0  0
  2  3  2  0  0  0  0
  2  1  1  0  0  0  0
  4  2  1  0  0  0  0
  4 42  1  0  0  0  0
  5  4  1  0  0  0  0
  5 43  1  1  0  0  0
  6 13  1  0  0  0  0
  6  5  1  0  0  0  0
  7  6  2  0  0  0  0
  8  9  1  0  0  0  0
  8  5  1  0  0  0  0
  8 44  1  0  0  0  0
  8 45  1  0  0  0  0
  9 46  1  0  0  0  0
  9 47  1  0  0  0  0
 10 12  1  0  0  0  0
 10  9  1  0  0  0  0
 11 10  2  0  0  0  0
 13 48  1  0  0  0  0
 14 13  1  0  0  0  0
 14 15  1  0  0  0  0
 14 49  1  6  0  0  0
 15 21  1  0  0  0  0
 16 15  2  0  0  0  0
 17 14  1  0  0  0  0
 17 50  1  0  0  0  0
 17 51  1  0  0  0  0
 18 17  1  0  0  0  0
 18 52  1  0  0  0  0
 19 18  1  0  0  0  0
 19 53  1  0  0  0  0
 19 54  1  0  0  0  0
 19 55  1  0  0  0  0
 20 18  1  0  0  0  0
 20 56  1  0  0  0  0
 20 57  1  0  0  0  0
 20 58  1  0  0  0  0
 21 22  1  0  0  0  0
 21 59  1  0  0  0  0
 22 23  1  0  0  0  0
 22 25  1  0  0  0  0
 22 60  1  6  0  0  0
 23 28  1  0  0  0  0
 23 24  2  0  0  0  0
 25 26  1  0  0  0  0
 25 61  1  0  0  0  0
 26 62  1  0  0  0  0
 26 63  1  0  0  0  0
 26 64  1  0  0  0  0
 27 25  1  0  0  0  0
 27 65  1  0  0  0  0
 27 66  1  0  0  0  0
 27 67  1  0  0  0  0
 28 29  1  0  0  0  0
 28 68  1  0  0  0  0
 29 30  1  0  0  0  0
 29 69  1  6  0  0  0
 30 37  1  0  0  0  0
 30 31  2  0  0  0  0
 32 29  1  0  0  0  0
 32 70  1  0  0  0  0
 32 71  1  0  0  0  0
 33 34  1  0  0  0  0
 33 32  1  0  0  0  0
 33 72  1  0  0  0  0
 33 73  1  0  0  0  0
 34 35  1  0  0  0  0
 36 34  2  0  0  0  0
 37 38  1  0  0  0  0
 37 74  1  0  0  0  0
 38 75  1  0  0  0  0
 38 76  1  0  0  0  0
 38 77  1  0  0  0  0
M  CHG  1  12  -1
M  CHG  1  35  -1
M  END
>  <MODEL>
       0

$$$$
selected_4mers/ELVE/409_noH.pdb
 OpenBabel03042517593D

 77 76  0  0  1  0  0  0  0  0999 V2000
   31.0730   49.9890   40.9610 C   0  0  0  0  0  0  0  0  0  0  0  0
   32.3200   49.5240   41.7080 C   0  0  0  0  0  0  0  0  0  0  0  0
   32.2670   49.2420   42.9070 O   0  0  0  0  0  0  0  0  0  0  0  0
   33.4420   49.4470   40.9970 N   0  0  0  0  0  0  0  0  0  0  0  0
   34.7020   49.0190   41.5970 C   0  0  2  0  0  0  0  0  0  0  0  0
   35.2610   50.0830   42.5350 C   0  0  0  0  0  0  0  0  0  0  0  0
   36.0700   49.7900   43.4140 O   0  0  0  0  0  0  0  0  0  0  0  0
   35.7260   48.7080   40.5020 C   0  0  0  0  0  0  0  0  0  0  0  0
   35.4200   47.4470   39.7130 C   0  0  0  0  0  0  0  0  0  0  0  0
   36.2990   47.2960   38.4870 C   0  0  0  0  0  0  0  0  0  0  0  0
   36.2420   46.2260   37.8430 O   0  0  0  0  0  0  0  0  0  0  0  0
   37.0380   48.2480   38.1630 O   0  0  0  0  0  0  0  0  0  0  0  0
   34.8240   51.3220   42.3430 N   0  0  0  0  0  0  0  0  0  0  0  0
   35.2830   52.4220   43.1750 C   0  0  2  0  0  0  0  0  0  0  0  0
   34.6640   52.3460   44.5630 C   0  0  0  0  0  0  0  0  0  0  0  0
   33.5800   51.7910   44.7400 O   0  0  0  0  0  0  0  0  0  0  0  0
   34.9140   53.7620   42.5360 C   0  0  0  0  0  0  0  0  0  0  0  0
   35.6090   54.1430   41.2290 C   0  0  0  0  0  0  0  0  0  0  0  0
   35.0160   55.4430   40.7010 C   0  0  0  0  0  0  0  0  0  0  0  0
   37.1070   54.2870   41.4670 C   0  0  0  0  0  0  0  0  0  0  0  0
   35.3690   52.9020   45.5420 N   0  0  0  0  0  0  0  0  0  0  0  0
   34.8910   52.9320   46.9180 C   0  0  2  0  0  0  0  0  0  0  0  0
   34.3380   54.3310   47.1440 C   0  0  0  0  0  0  0  0  0  0  0  0
   35.0240   55.2030   47.6800 O   0  0  0  0  0  0  0  0  0  0  0  0
   36.0330   52.6750   47.9200 C   0  0  0  0  0  0  0  0  0  0  0  0
   35.4890   52.6820   49.3430 C   0  0  0  0  0  0  0  0  0  0  0  0
   36.7000   51.3480   47.6140 C   0  0  0  0  0  0  0  0  0  0  0  0
   33.0940   54.5360   46.7230 N   0  0  0  0  0  0  0  0  0  0  0  0
   32.4380   55.8310   46.8450 C   0  0  2  0  0  0  0  0  0  0  0  0
   33.1610   56.8780   46.0020 C   0  0  0  0  0  0  0  0  0  0  0  0
   33.4840   57.9670   46.4820 O   0  0  0  0  0  0  0  0  0  0  0  0
   32.3890   56.2790   48.3080 C   0  0  0  0  0  0  0  0  0  0  0  0
   31.4230   55.4820   49.1660 C   0  0  0  0  0  0  0  0  0  0  0  0
   31.2410   56.0830   50.5480 C   0  0  0  0  0  0  0  0  0  0  0  0
   32.2400   56.1780   51.2930 O   0  0  0  0  0  0  0  0  0  0  0  0
   30.0980   56.4600   50.8870 O   0  0  0  0  0  0  0  0  0  0  0  0
   33.4160   56.5300   44.7440 N   0  0  0  0  0  0  0  0  0  0  0  0
   34.0810   57.4440   43.8330 C   0  0  0  0  0  0  0  0  0  0  0  0
   31.3215   50.1835   39.9386 H   0  0  0  0  0  0  0  0  0  0  0  0
   30.6989   50.8835   41.4136 H   0  0  0  0  0  0  0  0  0  0  0  0
   30.3243   49.2260   41.0071 H   0  0  0  0  0  0  0  0  0  0  0  0
   33.4219   49.6848   40.0419 H   0  0  0  0  0  0  0  0  0  0  0  0
   34.5090   48.1360   42.1696 H   0  0  0  0  0  0  0  0  0  0  0  0
   35.7523   49.5331   39.8213 H   0  0  0  0  0  0  0  0  0  0  0  0
   36.6643   48.5483   40.9908 H   0  0  0  0  0  0  0  0  0  0  0  0
   35.5714   46.6000   40.3491 H   0  0  0  0  0  0  0  0  0  0  0  0
   34.4062   47.5138   39.3775 H   0  0  0  0  0  0  0  0  0  0  0  0
   34.1764   51.4991   41.6230 H   0  0  0  0  0  0  0  0  0  0  0  0
   36.3468   52.3455   43.2610 H   0  0  0  0  0  0  0  0  0  0  0  0
   33.8614   53.7454   42.3448 H   0  0  0  0  0  0  0  0  0  0  0  0
   35.2433   54.4967   43.2407 H   0  0  0  0  0  0  0  0  0  0  0  0
   35.4561   53.3757   40.4991 H   0  0  0  0  0  0  0  0  0  0  0  0
   35.1619   56.2202   41.4218 H   0  0  0  0  0  0  0  0  0  0  0  0
   33.9688   55.3118   40.5250 H   0  0  0  0  0  0  0  0  0  0  0  0
   35.5008   55.7102   39.7853 H   0  0  0  0  0  0  0  0  0  0  0  0
   37.2806   55.0512   42.1955 H   0  0  0  0  0  0  0  0  0  0  0  0
   37.5900   54.5523   40.5498 H   0  0  0  0  0  0  0  0  0  0  0  0
   37.5025   53.3586   41.8228 H   0  0  0  0  0  0  0  0  0  0  0  0
   36.2415   53.3063   45.3312 H   0  0  0  0  0  0  0  0  0  0  0  0
   34.1560   52.1693   47.0696 H   0  0  0  0  0  0  0  0  0  0  0  0
   36.7614   53.4535   47.8293 H   0  0  0  0  0  0  0  0  0  0  0  0
   34.7583   51.9076   49.4493 H   0  0  0  0  0  0  0  0  0  0  0  0
   35.0365   53.6299   49.5472 H   0  0  0  0  0  0  0  0  0  0  0  0
   36.2901   52.5134   50.0319 H   0  0  0  0  0  0  0  0  0  0  0  0
   35.9820   50.5595   47.7011 H   0  0  0  0  0  0  0  0  0  0  0  0
   37.4981   51.1818   48.3070 H   0  0  0  0  0  0  0  0  0  0  0  0
   37.0905   51.3664   46.6180 H   0  0  0  0  0  0  0  0  0  0  0  0
   32.5999   53.7883   46.3155 H   0  0  0  0  0  0  0  0  0  0  0  0
   31.4352   55.7302   46.4857 H   0  0  0  0  0  0  0  0  0  0  0  0
   32.0937   57.3071   48.3353 H   0  0  0  0  0  0  0  0  0  0  0  0
   33.3664   56.1200   48.7132 H   0  0  0  0  0  0  0  0  0  0  0  0
   31.7995   54.4860   49.2718 H   0  0  0  0  0  0  0  0  0  0  0  0
   30.4704   55.4928   48.6788 H   0  0  0  0  0  0  0  0  0  0  0  0
   33.1493   55.6375   44.4252 H   0  0  0  0  0  0  0  0  0  0  0  0
   34.2973   58.3601   44.3417 H   0  0  0  0  0  0  0  0  0  0  0  0
   33.4427   57.6421   42.9974 H   0  0  0  0  0  0  0  0  0  0  0  0
   34.9932   57.0034   43.4884 H   0  0  0  0  0  0  0  0  0  0  0  0
  1  2  1  0  0  0  0
  1 39  1  0  0  0  0
  1 40  1  0  0  0  0
  1 41  1  0  0  0  0
  2  3  2  0  0  0  0
  4  5  1  0  0  0  0
  4  2  1  0  0  0  0
  4 42  1  0  0  0  0
  5  6  1  0  0  0  0
  5 43  1  1  0  0  0
  6  7  2  0  0  0  0
  8  5  1  0  0  0  0
  8 44  1  0  0  0  0
  8 45  1  0  0  0  0
  9  8  1  0  0  0  0
  9 46  1  0  0  0  0
  9 47  1  0  0  0  0
 10  9  1  0  0  0  0
 11 10  2  0  0  0  0
 12 10  1  0  0  0  0
 13  6  1  0  0  0  0
 13 14  1  0  0  0  0
 13 48  1  0  0  0  0
 14 15  1  0  0  0  0
 14 49  1  1  0  0  0
 15 16  2  0  0  0  0
 15 21  1  0  0  0  0
 17 14  1  0  0  0  0
 17 50  1  0  0  0  0
 17 51  1  0  0  0  0
 18 20  1  0  0  0  0
 18 17  1  0  0  0  0
 18 52  1  0  0  0  0
 19 18  1  0  0  0  0
 19 53  1  0  0  0  0
 19 54  1  0  0  0  0
 19 55  1  0  0  0  0
 20 56  1  0  0  0  0
 20 57  1  0  0  0  0
 20 58  1  0  0  0  0
 21 22  1  0  0  0  0
 21 59  1  0  0  0  0
 22 23  1  0  0  0  0
 22 25  1  0  0  0  0
 22 60  1  1  0  0  0
 23 24  2  0  0  0  0
 25 26  1  0  0  0  0
 25 61  1  0  0  0  0
 26 62  1  0  0  0  0
 26 63  1  0  0  0  0
 26 64  1  0  0  0  0
 27 25  1  0  0  0  0
 27 65  1  0  0  0  0
 27 66  1  0  0  0  0
 27 67  1  0  0  0  0
 28 29  1  0  0  0  0
 28 23  1  0  0  0  0
 28 68  1  0  0  0  0
 29 32  1  0  0  0  0
 29 69  1  6  0  0  0
 30 31  2  0  0  0  0
 30 29  1  0  0  0  0
 32 33  1  0  0  0  0
 32 70  1  0  0  0  0
 32 71  1  0  0  0  0
 33 34  1  0  0  0  0
 33 72  1  0  0  0  0
 33 73  1  0  0  0  0
 34 36  2  0  0  0  0
 34 35  1  0  0  0  0
 37 30  1  0  0  0  0
 37 74  1  0  0  0  0
 38 37  1  0  0  0  0
 38 75  1  0  0  0  0
 38 76  1  0  0  0  0
 38 77  1  0  0  0  0
M  CHG  1  12  -1
M  CHG  1  35  -1
M  END
>  <MODEL>
       0

$$$$
