selected_4mers/EVLA/585_noH.pdb
 OpenBabel03042518233D

 72 71  0  0  1  0  0  0  0  0999 V2000
  -13.8950   55.7600   31.8120 C   0  0  0  0  0  0  0  0  0  0  0  0
  -12.8940   54.6580   32.0970 C   0  0  0  0  0  0  0  0  0  0  0  0
  -12.4690   54.4760   33.2480 O   0  0  0  0  0  0  0  0  0  0  0  0
  -12.4250   53.9300   31.0820 N   0  0  0  0  0  0  0  0  0  0  0  0
  -11.4010   52.8910   31.3000 C   0  0  2  0  0  0  0  0  0  0  0  0
  -10.1070   53.5490   31.7680 C   0  0  0  0  0  0  0  0  0  0  0  0
   -9.3950   53.0450   32.6680 O   0  0  0  0  0  0  0  0  0  0  0  0
  -11.2260   52.0630   30.0110 C   0  0  0  0  0  0  0  0  0  0  0  0
  -10.0940   51.0490   30.0580 C   0  0  0  0  0  0  0  0  0  0  0  0
  -10.3180   49.8860   31.0100 C   0  0  0  0  0  0  0  0  0  0  0  0
  -11.3330   49.8270   31.7380 O   0  0  0  0  0  0  0  0  0  0  0  0
   -9.4320   48.9930   31.0800 O   0  0  0  0  0  0  0  0  0  0  0  0
   -9.7430   54.7290   31.2450 N   0  0  0  0  0  0  0  0  0  0  0  0
   -8.5510   55.4410   31.7100 C   0  0  2  0  0  0  0  0  0  0  0  0
   -8.7220   55.8560   33.1720 C   0  0  0  0  0  0  0  0  0  0  0  0
   -7.8130   55.6740   33.9980 O   0  0  0  0  0  0  0  0  0  0  0  0
   -8.2270   56.6720   30.8390 C   0  0  0  0  0  0  0  0  0  0  0  0
   -7.1190   57.5240   31.4500 C   0  0  0  0  0  0  0  0  0  0  0  0
   -7.7930   56.1710   29.4590 C   0  0  0  0  0  0  0  0  0  0  0  0
   -9.8940   56.3910   33.5080 N   0  0  0  0  0  0  0  0  0  0  0  0
  -10.1480   56.7820   34.9040 C   0  0  2  0  0  0  0  0  0  0  0  0
  -10.0890   55.6010   35.8600 C   0  0  0  0  0  0  0  0  0  0  0  0
   -9.5720   55.7070   36.9740 O   0  0  0  0  0  0  0  0  0  0  0  0
  -11.5360   57.4270   35.0160 C   0  0  0  0  0  0  0  0  0  0  0  0
  -11.6280   58.8640   34.5140 C   0  0  0  0  0  0  0  0  0  0  0  0
  -13.0850   59.2110   34.2380 C   0  0  0  0  0  0  0  0  0  0  0  0
  -11.0060   59.8670   35.4790 C   0  0  0  0  0  0  0  0  0  0  0  0
  -10.6130   54.4390   35.4360 N   0  0  0  0  0  0  0  0  0  0  0  0
  -10.5710   53.2280   36.2490 C   0  0  2  0  0  0  0  0  0  0  0  0
   -9.1370   52.7530   36.4580 C   0  0  0  0  0  0  0  0  0  0  0  0
   -8.7370   52.3530   37.5450 O   0  0  0  0  0  0  0  0  0  0  0  0
  -11.3820   52.1100   35.6000 C   0  0  0  0  0  0  0  0  0  0  0  0
   -8.3100   52.8270   35.4100 N   0  0  0  0  0  0  0  0  0  0  0  0
   -6.9050   52.4530   35.5400 C   0  0  0  0  0  0  0  0  0  0  0  0
  -14.1394   55.7592   30.7703 H   0  0  0  0  0  0  0  0  0  0  0  0
  -13.4701   56.7053   32.0780 H   0  0  0  0  0  0  0  0  0  0  0  0
  -14.7821   55.5934   32.3866 H   0  0  0  0  0  0  0  0  0  0  0  0
  -12.7679   54.0889   30.1729 H   0  0  0  0  0  0  0  0  0  0  0  0
  -11.7048   52.2112   32.0684 H   0  0  0  0  0  0  0  0  0  0  0  0
  -12.1387   51.5358   29.8267 H   0  0  0  0  0  0  0  0  0  0  0  0
  -10.9783   52.7578   29.2359 H   0  0  0  0  0  0  0  0  0  0  0  0
   -9.2030   51.5589   30.3596 H   0  0  0  0  0  0  0  0  0  0  0  0
  -10.0279   50.6264   29.0772 H   0  0  0  0  0  0  0  0  0  0  0  0
  -10.2911   55.1266   30.5303 H   0  0  0  0  0  0  0  0  0  0  0  0
   -7.7241   54.7673   31.6249 H   0  0  0  0  0  0  0  0  0  0  0  0
   -9.0981   57.2894   30.7695 H   0  0  0  0  0  0  0  0  0  0  0  0
   -6.2267   56.9399   31.5367 H   0  0  0  0  0  0  0  0  0  0  0  0
   -7.4211   57.8598   32.4200 H   0  0  0  0  0  0  0  0  0  0  0  0
   -6.9320   58.3699   30.8219 H   0  0  0  0  0  0  0  0  0  0  0  0
   -6.9219   55.5579   29.5599 H   0  0  0  0  0  0  0  0  0  0  0  0
   -7.5697   57.0073   28.8300 H   0  0  0  0  0  0  0  0  0  0  0  0
   -8.5841   55.5977   29.0227 H   0  0  0  0  0  0  0  0  0  0  0  0
  -10.5893   56.5248   32.8240 H   0  0  0  0  0  0  0  0  0  0  0  0
   -9.3783   57.4728   35.1781 H   0  0  0  0  0  0  0  0  0  0  0  0
  -12.2230   56.8340   34.4492 H   0  0  0  0  0  0  0  0  0  0  0  0
  -11.7626   57.4631   36.0611 H   0  0  0  0  0  0  0  0  0  0  0  0
  -11.0618   58.9296   33.6085 H   0  0  0  0  0  0  0  0  0  0  0  0
  -13.6460   59.1437   35.1467 H   0  0  0  0  0  0  0  0  0  0  0  0
  -13.4851   58.5256   33.5203 H   0  0  0  0  0  0  0  0  0  0  0  0
  -13.1476   60.2074   33.8531 H   0  0  0  0  0  0  0  0  0  0  0  0
  -11.5363   59.8441   36.4081 H   0  0  0  0  0  0  0  0  0  0  0  0
  -11.0645   60.8494   35.0591 H   0  0  0  0  0  0  0  0  0  0  0  0
   -9.9807   59.6115   35.6472 H   0  0  0  0  0  0  0  0  0  0  0  0
  -11.0387   54.4033   34.5490 H   0  0  0  0  0  0  0  0  0  0  0  0
  -10.9985   53.4689   37.1998 H   0  0  0  0  0  0  0  0  0  0  0  0
  -10.9567   51.8669   34.6487 H   0  0  0  0  0  0  0  0  0  0  0  0
  -12.3930   52.4341   35.4664 H   0  0  0  0  0  0  0  0  0  0  0  0
  -11.3649   51.2452   36.2298 H   0  0  0  0  0  0  0  0  0  0  0  0
   -8.6526   53.1373   34.5407 H   0  0  0  0  0  0  0  0  0  0  0  0
   -6.7100   52.1429   36.5453 H   0  0  0  0  0  0  0  0  0  0  0  0
   -6.2884   53.2940   35.3002 H   0  0  0  0  0  0  0  0  0  0  0  0
   -6.6867   51.6480   34.8697 H   0  0  0  0  0  0  0  0  0  0  0  0
  1  2  1  0  0  0  0
  1 35  1  0  0  0  0
  1 36  1  0  0  0  0
  1 37  1  0  0  0  0
  2  3  2  0  0  0  0
  4  5  1  0  0  0  0
  4  2  1  0  0  0  0
  4 38  1  0  0  0  0
  5  6  1  0  0  0  0
  5 39  1  1  0  0  0
  6  7  2  0  0  0  0
  8  9  1  0  0  0  0
  8  5  1  0  0  0  0
  8 40  1  0  0  0  0
  8 41  1  0  0  0  0
  9 10  1  0  0  0  0
  9 42  1  0  0  0  0
  9 43  1  0  0  0  0
 10 12  2  0  0  0  0
 10 11  1  0  0  0  0
 13 14  1  0  0  0  0
 13  6  1  0  0  0  0
 13 44  1  0  0  0  0
 14 15  1  0  0  0  0
 14 45  1  6  0  0  0
 15 20  1  0  0  0  0
 15 16  2  0  0  0  0
 17 18  1  0  0  0  0
 17 14  1  0  0  0  0
 17 46  1  0  0  0  0
 18 47  1  0  0  0  0
 18 48  1  0  0  0  0
 18 49  1  0  0  0  0
 19 17  1  0  0  0  0
 19 50  1  0  0  0  0
 19 51  1  0  0  0  0
 19 52  1  0  0  0  0
 20 21  1  0  0  0  0
 20 53  1  0  0  0  0
 21 24  1  0  0  0  0
 21 22  1  0  0  0  0
 21 54  1  1  0  0  0
 22 23  2  0  0  0  0
 24 55  1  0  0  0  0
 24 56  1  0  0  0  0
 25 24  1  0  0  0  0
 25 27  1  0  0  0  0
 25 57  1  0  0  0  0
 26 25  1  0  0  0  0
 26 58  1  0  0  0  0
 26 59  1  0  0  0  0
 26 60  1  0  0  0  0
 27 61  1  0  0  0  0
 27 62  1  0  0  0  0
 27 63  1  0  0  0  0
 28 22  1  0  0  0  0
 28 29  1  0  0  0  0
 28 64  1  0  0  0  0
 29 30  1  0  0  0  0
 29 65  1  1  0  0  0
 30 31  2  0  0  0  0
 32 29  1  0  0  0  0
 32 66  1  0  0  0  0
 32 67  1  0  0  0  0
 32 68  1  0  0  0  0
 33 34  1  0  0  0  0
 33 30  1  0  0  0  0
 33 69  1  0  0  0  0
 34 70  1  0  0  0  0
 34 71  1  0  0  0  0
 34 72  1  0  0  0  0
M  CHG  1  11  -1
M  END
>  <MODEL>
       0

$$$$
selected_4mers/EVLA/586_noH.pdb
 OpenBabel03042518233D

 72 71  0  0  1  0  0  0  0  0999 V2000
   18.3540   68.7180   42.7520 C   0  0  0  0  0  0  0  0  0  0  0  0
   19.4460   67.6740   42.7650 C   0  0  0  0  0  0  0  0  0  0  0  0
   20.4490   67.8120   42.0620 O   0  0  0  0  0  0  0  0  0  0  0  0
   19.2660   66.6520   43.5940 N   0  0  0  0  0  0  0  0  0  0  0  0
   20.2200   65.5730   43.6720 C   0  0  2  0  0  0  0  0  0  0  0  0
   19.7440   64.3560   42.8760 C   0  0  0  0  0  0  0  0  0  0  0  0
   18.7080   63.7620   43.1780 O   0  0  0  0  0  0  0  0  0  0  0  0
   20.5010   65.1790   45.1310 C   0  0  0  0  0  0  0  0  0  0  0  0
   21.6290   64.1580   45.2450 C   0  0  0  0  0  0  0  0  0  0  0  0
   21.8310   63.6770   46.6560 C   0  0  0  0  0  0  0  0  0  0  0  0
   20.8230   63.4800   47.3710 O   0  0  0  0  0  0  0  0  0  0  0  0
   22.9990   63.4860   47.0470 O   0  0  0  0  0  0  0  0  0  0  0  0
   20.5220   63.9830   41.8710 N   0  0  0  0  0  0  0  0  0  0  0  0
   20.2100   62.8060   41.0830 C   0  0  2  0  0  0  0  0  0  0  0  0
   20.6960   61.5570   41.8030 C   0  0  0  0  0  0  0  0  0  0  0  0
   21.8420   61.4880   42.2510 O   0  0  0  0  0  0  0  0  0  0  0  0
   20.8310   62.8830   39.6850 C   0  0  0  0  0  0  0  0  0  0  0  0
   20.7890   61.5300   38.9910 C   0  0  0  0  0  0  0  0  0  0  0  0
   20.1230   63.9660   38.8500 C   0  0  0  0  0  0  0  0  0  0  0  0
   19.8010   60.5850   41.9280 N   0  0  0  0  0  0  0  0  0  0  0  0
   20.1530   59.2500   42.3890 C   0  0  2  0  0  0  0  0  0  0  0  0
   19.9570   58.3120   41.1940 C   0  0  0  0  0  0  0  0  0  0  0  0
   18.8380   57.9930   40.8040 O   0  0  0  0  0  0  0  0  0  0  0  0
   19.2610   58.8230   43.5520 C   0  0  0  0  0  0  0  0  0  0  0  0
   19.0890   59.7900   44.7330 C   0  0  0  0  0  0  0  0  0  0  0  0
   18.0740   59.2510   45.7470 C   0  0  0  0  0  0  0  0  0  0  0  0
   20.4120   60.0830   45.4100 C   0  0  0  0  0  0  0  0  0  0  0  0
   21.0550   57.8950   40.5950 N   0  0  0  0  0  0  0  0  0  0  0  0
   20.9770   57.1360   39.3630 C   0  0  2  0  0  0  0  0  0  0  0  0
   20.9260   55.6630   39.7420 C   0  0  0  0  0  0  0  0  0  0  0  0
   21.7630   55.1860   40.5110 O   0  0  0  0  0  0  0  0  0  0  0  0
   22.1750   57.4530   38.4880 C   0  0  0  0  0  0  0  0  0  0  0  0
   19.9270   54.9560   39.2170 N   0  0  0  0  0  0  0  0  0  0  0  0
   19.6880   53.5590   39.5780 C   0  0  0  0  0  0  0  0  0  0  0  0
   18.6048   69.4877   42.0523 H   0  0  0  0  0  0  0  0  0  0  0  0
   18.2549   69.1427   43.7291 H   0  0  0  0  0  0  0  0  0  0  0  0
   17.4290   68.2630   42.4653 H   0  0  0  0  0  0  0  0  0  0  0  0
   18.4655   66.6305   44.1666 H   0  0  0  0  0  0  0  0  0  0  0  0
   21.1331   65.9241   43.2386 H   0  0  0  0  0  0  0  0  0  0  0  0
   19.6117   64.7584   45.5518 H   0  0  0  0  0  0  0  0  0  0  0  0
   20.8015   66.0608   45.6574 H   0  0  0  0  0  0  0  0  0  0  0  0
   22.5367   64.6101   44.9034 H   0  0  0  0  0  0  0  0  0  0  0  0
   21.3621   63.3110   44.6481 H   0  0  0  0  0  0  0  0  0  0  0  0
   21.3237   64.5124   41.6558 H   0  0  0  0  0  0  0  0  0  0  0  0
   19.1475   62.7599   40.9656 H   0  0  0  0  0  0  0  0  0  0  0  0
   21.8609   63.1557   39.7839 H   0  0  0  0  0  0  0  0  0  0  0  0
   19.7714   61.2211   38.8730 H   0  0  0  0  0  0  0  0  0  0  0  0
   21.3142   60.8094   39.5824 H   0  0  0  0  0  0  0  0  0  0  0  0
   21.2519   61.6078   38.0294 H   0  0  0  0  0  0  0  0  0  0  0  0
   19.0896   63.7119   38.7390 H   0  0  0  0  0  0  0  0  0  0  0  0
   20.5807   64.0282   37.8848 H   0  0  0  0  0  0  0  0  0  0  0  0
   20.2068   64.9104   39.3460 H   0  0  0  0  0  0  0  0  0  0  0  0
   18.8622   60.7744   41.7000 H   0  0  0  0  0  0  0  0  0  0  0  0
   21.1622   59.2234   42.7434 H   0  0  0  0  0  0  0  0  0  0  0  0
   19.6659   57.9135   43.9441 H   0  0  0  0  0  0  0  0  0  0  0  0
   18.2832   58.7549   43.1228 H   0  0  0  0  0  0  0  0  0  0  0  0
   18.7119   60.7095   44.3365 H   0  0  0  0  0  0  0  0  0  0  0  0
   18.4332   58.3298   46.1560 H   0  0  0  0  0  0  0  0  0  0  0  0
   17.1368   59.0831   45.2587 H   0  0  0  0  0  0  0  0  0  0  0  0
   17.9433   59.9638   46.5342 H   0  0  0  0  0  0  0  0  0  0  0  0
   20.8127   59.1780   45.8166 H   0  0  0  0  0  0  0  0  0  0  0  0
   20.2605   60.7915   46.1974 H   0  0  0  0  0  0  0  0  0  0  0  0
   21.0973   60.4865   44.6942 H   0  0  0  0  0  0  0  0  0  0  0  0
   21.9341   58.1007   40.9875 H   0  0  0  0  0  0  0  0  0  0  0  0
   20.1034   57.3896   38.7996 H   0  0  0  0  0  0  0  0  0  0  0  0
   23.0749   57.2133   39.0149 H   0  0  0  0  0  0  0  0  0  0  0  0
   22.1719   58.4945   38.2428 H   0  0  0  0  0  0  0  0  0  0  0  0
   22.1232   56.8748   37.5892 H   0  0  0  0  0  0  0  0  0  0  0  0
   19.3297   55.3879   38.5644 H   0  0  0  0  0  0  0  0  0  0  0  0
   20.4200   53.2450   40.2924 H   0  0  0  0  0  0  0  0  0  0  0  0
   19.7584   52.9474   38.7029 H   0  0  0  0  0  0  0  0  0  0  0  0
   18.7107   53.4626   40.0028 H   0  0  0  0  0  0  0  0  0  0  0  0
  1  2  1  0  0  0  0
  1 35  1  0  0  0  0
  1 36  1  0  0  0  0
  1 37  1  0  0  0  0
  2  4  1  0  0  0  0
  3  2  2  0  0  0  0
  4  5  1  0  0  0  0
  4 38  1  0  0  0  0
  5  8  1  0  0  0  0
  5 39  1  6  0  0  0
  6  7  2  0  0  0  0
  6  5  1  0  0  0  0
  8  9  1  0  0  0  0
  8 40  1  0  0  0  0
  8 41  1  0  0  0  0
  9 10  1  0  0  0  0
  9 42  1  0  0  0  0
  9 43  1  0  0  0  0
 10 12  2  0  0  0  0
 10 11  1  0  0  0  0
 13  6  1  0  0  0  0
 13 44  1  0  0  0  0
 14 15  1  0  0  0  0
 14 13  1  0  0  0  0
 14 45  1  6  0  0  0
 15 20  1  0  0  0  0
 15 16  2  0  0  0  0
 17 14  1  0  0  0  0
 17 46  1  0  0  0  0
 18 17  1  0  0  0  0
 18 47  1  0  0  0  0
 18 48  1  0  0  0  0
 18 49  1  0  0  0  0
 19 17  1  0  0  0  0
 19 50  1  0  0  0  0
 19 51  1  0  0  0  0
 19 52  1  0  0  0  0
 20 21  1  0  0  0  0
 20 53  1  0  0  0  0
 21 24  1  0  0  0  0
 21 54  1  1  0  0  0
 22 21  1  0  0  0  0
 23 22  2  0  0  0  0
 24 25  1  0  0  0  0
 24 55  1  0  0  0  0
 24 56  1  0  0  0  0
 25 27  1  0  0  0  0
 25 26  1  0  0  0  0
 25 57  1  0  0  0  0
 26 58  1  0  0  0  0
 26 59  1  0  0  0  0
 26 60  1  0  0  0  0
 27 61  1  0  0  0  0
 27 62  1  0  0  0  0
 27 63  1  0  0  0  0
 28 22  1  0  0  0  0
 28 64  1  0  0  0  0
 29 30  1  0  0  0  0
 29 28  1  0  0  0  0
 29 65  1  6  0  0  0
 30 31  2  0  0  0  0
 32 29  1  0  0  0  0
 32 66  1  0  0  0  0
 32 67  1  0  0  0  0
 32 68  1  0  0  0  0
 33 34  1  0  0  0  0
 33 30  1  0  0  0  0
 33 69  1  0  0  0  0
 34 70  1  0  0  0  0
 34 71  1  0  0  0  0
 34 72  1  0  0  0  0
M  CHG  1  11  -1
M  END
>  <MODEL>
       0

$$$$
selected_4mers/EVLA/587_noH.pdb
 OpenBabel03042518233D

 72 71  0  0  1  0  0  0  0  0999 V2000
   14.6840   11.7720   -5.3320 C   0  0  0  0  0  0  0  0  0  0  0  0
   14.7070   12.7700   -4.1750 C   0  0  0  0  0  0  0  0  0  0  0  0
   13.9630   13.7480   -4.1790 O   0  0  0  0  0  0  0  0  0  0  0  0
   15.5780   12.5270   -3.1990 N   0  0  0  0  0  0  0  0  0  0  0  0
   15.7080   13.4000   -2.0360 C   0  0  2  0  0  0  0  0  0  0  0  0
   16.2450   14.7750   -2.4320 C   0  0  0  0  0  0  0  0  0  0  0  0
   15.7960   15.8010   -1.9190 O   0  0  0  0  0  0  0  0  0  0  0  0
   16.6390   12.7600   -1.0040 C   0  0  0  0  0  0  0  0  0  0  0  0
   16.7810   13.5510    0.2930 C   0  0  0  0  0  0  0  0  0  0  0  0
   17.7950   12.9460    1.2590 C   0  0  0  0  0  0  0  0  0  0  0  0
   18.1550   11.7560    1.1000 O   0  0  0  0  0  0  0  0  0  0  0  0
   18.2340   13.6690    2.1820 O   0  0  0  0  0  0  0  0  0  0  0  0
   17.1940   14.7790   -3.3640 N   0  0  0  0  0  0  0  0  0  0  0  0
   17.8160   16.0050   -3.8500 C   0  0  2  0  0  0  0  0  0  0  0  0
   16.8340   16.9360   -4.5620 C   0  0  0  0  0  0  0  0  0  0  0  0
   16.8210   18.1400   -4.3030 O   0  0  0  0  0  0  0  0  0  0  0  0
   19.0040   15.6770   -4.7930 C   0  0  0  0  0  0  0  0  0  0  0  0
   19.5860   16.9460   -5.3900 C   0  0  0  0  0  0  0  0  0  0  0  0
   20.0790   14.9160   -4.0280 C   0  0  0  0  0  0  0  0  0  0  0  0
   16.0160   16.3820   -5.4530 N   0  0  0  0  0  0  0  0  0  0  0  0
   15.0440   17.1810   -6.1990 C   0  0  2  0  0  0  0  0  0  0  0  0
   13.5920   16.9700   -5.7650 C   0  0  0  0  0  0  0  0  0  0  0  0
   12.6650   17.2250   -6.5370 O   0  0  0  0  0  0  0  0  0  0  0  0
   15.1730   16.9130   -7.7010 C   0  0  0  0  0  0  0  0  0  0  0  0
   16.4610   17.3280   -8.4150 C   0  0  0  0  0  0  0  0  0  0  0  0
   16.3320   16.9840   -9.8920 C   0  0  0  0  0  0  0  0  0  0  0  0
   16.7170   18.8190   -8.2320 C   0  0  0  0  0  0  0  0  0  0  0  0
   13.3980   16.5270   -4.5250 N   0  0  0  0  0  0  0  0  0  0  0  0
   12.0610   16.2850   -3.9850 C   0  0  2  0  0  0  0  0  0  0  0  0
   11.1790   17.5250   -4.0890 C   0  0  0  0  0  0  0  0  0  0  0  0
   11.5900   18.6210   -3.7070 O   0  0  0  0  0  0  0  0  0  0  0  0
   12.1580   15.8290   -2.5320 C   0  0  0  0  0  0  0  0  0  0  0  0
    9.9800   17.3430   -4.6370 N   0  0  0  0  0  0  0  0  0  0  0  0
    9.0390   18.4420   -4.7890 C   0  0  0  0  0  0  0  0  0  0  0  0
   13.9484   12.0732   -6.0482 H   0  0  0  0  0  0  0  0  0  0  0  0
   14.4412   10.7990   -4.9589 H   0  0  0  0  0  0  0  0  0  0  0  0
   15.6464   11.7450   -5.7989 H   0  0  0  0  0  0  0  0  0  0  0  0
   16.1544   11.7315   -3.2632 H   0  0  0  0  0  0  0  0  0  0  0  0
   14.7351   13.5302   -1.6100 H   0  0  0  0  0  0  0  0  0  0  0  0
   17.6094   12.6619   -1.4441 H   0  0  0  0  0  0  0  0  0  0  0  0
   16.2029   11.8188   -0.7415 H   0  0  0  0  0  0  0  0  0  0  0  0
   15.8275   13.5835    0.7774 H   0  0  0  0  0  0  0  0  0  0  0  0
   17.1336   14.5271    0.0327 H   0  0  0  0  0  0  0  0  0  0  0  0
   17.4886   13.9187   -3.7413 H   0  0  0  0  0  0  0  0  0  0  0  0
   18.1709   16.5237   -2.9840 H   0  0  0  0  0  0  0  0  0  0  0  0
   18.6427   15.0656   -5.5934 H   0  0  0  0  0  0  0  0  0  0  0  0
   19.9540   17.5732   -4.6051 H   0  0  0  0  0  0  0  0  0  0  0  0
   18.8254   17.4653   -5.9347 H   0  0  0  0  0  0  0  0  0  0  0  0
   20.3888   16.6937   -6.0509 H   0  0  0  0  0  0  0  0  0  0  0  0
   20.4437   15.5234   -3.2262 H   0  0  0  0  0  0  0  0  0  0  0  0
   20.8854   14.6765   -4.6893 H   0  0  0  0  0  0  0  0  0  0  0  0
   19.6631   14.0135   -3.6312 H   0  0  0  0  0  0  0  0  0  0  0  0
   16.0660   15.4120   -5.6140 H   0  0  0  0  0  0  0  0  0  0  0  0
   15.2816   18.2004   -5.9768 H   0  0  0  0  0  0  0  0  0  0  0  0
   15.0601   15.8585   -7.8433 H   0  0  0  0  0  0  0  0  0  0  0  0
   14.4212   17.5347   -8.1406 H   0  0  0  0  0  0  0  0  0  0  0  0
   17.2919   16.8009   -7.9947 H   0  0  0  0  0  0  0  0  0  0  0  0
   15.5006   17.5122  -10.3099 H   0  0  0  0  0  0  0  0  0  0  0  0
   16.1767   15.9309  -10.0007 H   0  0  0  0  0  0  0  0  0  0  0  0
   17.2281   17.2671  -10.4037 H   0  0  0  0  0  0  0  0  0  0  0  0
   15.9003   19.3743   -8.6438 H   0  0  0  0  0  0  0  0  0  0  0  0
   17.6219   19.0898   -8.7346 H   0  0  0  0  0  0  0  0  0  0  0  0
   16.8085   19.0398   -7.1890 H   0  0  0  0  0  0  0  0  0  0  0  0
   14.1806   16.3566   -3.9525 H   0  0  0  0  0  0  0  0  0  0  0  0
   11.6068   15.5126   -4.5698 H   0  0  0  0  0  0  0  0  0  0  0  0
   12.6121   16.6003   -1.9457 H   0  0  0  0  0  0  0  0  0  0  0  0
   12.7527   14.9413   -2.4757 H   0  0  0  0  0  0  0  0  0  0  0  0
   11.1772   15.6256   -2.1558 H   0  0  0  0  0  0  0  0  0  0  0  0
    9.7240   16.4442   -4.9466 H   0  0  0  0  0  0  0  0  0  0  0  0
    9.4744   19.3402   -4.4037 H   0  0  0  0  0  0  0  0  0  0  0  0
    8.1419   18.2206   -4.2495 H   0  0  0  0  0  0  0  0  0  0  0  0
    8.8086   18.5735   -5.8256 H   0  0  0  0  0  0  0  0  0  0  0  0
  1  2  1  0  0  0  0
  1 35  1  0  0  0  0
  1 36  1  0  0  0  0
  1 37  1  0  0  0  0
  2  4  1  0  0  0  0
  3  2  2  0  0  0  0
  4  5  1  0  0  0  0
  4 38  1  0  0  0  0
  5  8  1  0  0  0  0
  5 39  1  1  0  0  0
  6  5  1  0  0  0  0
  6  7  2  0  0  0  0
  8  9  1  0  0  0  0
  8 40  1  0  0  0  0
  8 41  1  0  0  0  0
  9 10  1  0  0  0  0
  9 42  1  0  0  0  0
  9 43  1  0  0  0  0
 10 12  1  0  0  0  0
 11 10  2  0  0  0  0
 13  6  1  0  0  0  0
 13 44  1  0  0  0  0
 14 13  1  0  0  0  0
 14 45  1  1  0  0  0
 15 16  2  0  0  0  0
 15 14  1  0  0  0  0
 17 19  1  0  0  0  0
 17 14  1  0  0  0  0
 17 46  1  0  0  0  0
 18 17  1  0  0  0  0
 18 47  1  0  0  0  0
 18 48  1  0  0  0  0
 18 49  1  0  0  0  0
 19 50  1  0  0  0  0
 19 51  1  0  0  0  0
 19 52  1  0  0  0  0
 20 15  1  0  0  0  0
 20 53  1  0  0  0  0
 21 22  1  0  0  0  0
 21 20  1  0  0  0  0
 21 54  1  1  0  0  0
 22 28  1  0  0  0  0
 23 22  2  0  0  0  0
 24 21  1  0  0  0  0
 24 55  1  0  0  0  0
 24 56  1  0  0  0  0
 25 27  1  0  0  0  0
 25 24  1  0  0  0  0
 25 57  1  0  0  0  0
 26 25  1  0  0  0  0
 26 58  1  0  0  0  0
 26 59  1  0  0  0  0
 26 60  1  0  0  0  0
 27 61  1  0  0  0  0
 27 62  1  0  0  0  0
 27 63  1  0  0  0  0
 28 29  1  0  0  0  0
 28 64  1  0  0  0  0
 29 32  1  0  0  0  0
 29 65  1  6  0  0  0
 30 29  1  0  0  0  0
 30 31  2  0  0  0  0
 32 66  1  0  0  0  0
 32 67  1  0  0  0  0
 32 68  1  0  0  0  0
 33 30  1  0  0  0  0
 33 69  1  0  0  0  0
 34 33  1  0  0  0  0
 34 70  1  0  0  0  0
 34 71  1  0  0  0  0
 34 72  1  0  0  0  0
M  CHG  1  12  -1
M  END
>  <MODEL>
       0

$$$$
selected_4mers/EVLA/588_noH.pdb
 OpenBabel03042518233D

 72 71  0  0  1  0  0  0  0  0999 V2000
   24.3300  -13.9470   20.0620 C   0  0  0  0  0  0  0  0  0  0  0  0
   23.4490  -12.6870   20.0490 C   0  0  0  0  0  0  0  0  0  0  0  0
   23.9520  -11.5590   20.1830 O   0  0  0  0  0  0  0  0  0  0  0  0
   22.1410  -12.8770   19.9070 N   0  0  0  0  0  0  0  0  0  0  0  0
   21.2050  -11.7640   19.9550 C   0  0  2  0  0  0  0  0  0  0  0  0
   21.2810  -11.0670   21.3280 C   0  0  0  0  0  0  0  0  0  0  0  0
   21.2670   -9.8390   21.4260 O   0  0  0  0  0  0  0  0  0  0  0  0
   19.7920  -12.2660   19.6720 C   0  0  0  0  0  0  0  0  0  0  0  0
   18.7360  -11.1880   19.6450 C   0  0  0  0  0  0  0  0  0  0  0  0
   17.3620  -11.6820   19.2470 C   0  0  0  0  0  0  0  0  0  0  0  0
   17.2540  -12.6890   18.5250 O   0  0  0  0  0  0  0  0  0  0  0  0
   16.3710  -11.0190   19.6250 O   0  0  0  0  0  0  0  0  0  0  0  0
   21.3770  -11.8510   22.3870 N   0  0  0  0  0  0  0  0  0  0  0  0
   21.4970  -11.2890   23.7300 C   0  0  2  0  0  0  0  0  0  0  0  0
   22.8280  -10.5440   23.8930 C   0  0  0  0  0  0  0  0  0  0  0  0
   22.8720   -9.4200   24.4010 O   0  0  0  0  0  0  0  0  0  0  0  0
   21.3760  -12.4000   24.7880 C   0  0  0  0  0  0  0  0  0  0  0  0
   21.6640  -11.8580   26.2020 C   0  0  0  0  0  0  0  0  0  0  0  0
   19.9810  -13.0210   24.7390 C   0  0  0  0  0  0  0  0  0  0  0  0
   23.9110  -11.1620   23.4340 N   0  0  0  0  0  0  0  0  0  0  0  0
   25.2310  -10.5330   23.5360 C   0  0  2  0  0  0  0  0  0  0  0  0
   25.3740   -9.2610   22.7150 C   0  0  0  0  0  0  0  0  0  0  0  0
   26.1640   -8.3890   23.0800 O   0  0  0  0  0  0  0  0  0  0  0  0
   26.3550  -11.5050   23.2110 C   0  0  0  0  0  0  0  0  0  0  0  0
   26.6220  -12.5910   24.2420 C   0  0  0  0  0  0  0  0  0  0  0  0
   27.6630  -13.5400   23.6850 C   0  0  0  0  0  0  0  0  0  0  0  0
   27.0670  -11.9770   25.5830 C   0  0  0  0  0  0  0  0  0  0  0  0
   24.5810   -9.1350   21.6580 N   0  0  0  0  0  0  0  0  0  0  0  0
   24.6090   -7.9520   20.7890 C   0  0  2  0  0  0  0  0  0  0  0  0
   24.1610   -6.6760   21.5090 C   0  0  0  0  0  0  0  0  0  0  0  0
   24.4150   -5.5660   21.0430 O   0  0  0  0  0  0  0  0  0  0  0  0
   23.7860   -8.1990   19.5290 C   0  0  0  0  0  0  0  0  0  0  0  0
   23.4790   -6.8110   22.6390 N   0  0  0  0  0  0  0  0  0  0  0  0
   23.0570   -5.6530   23.4340 C   0  0  0  0  0  0  0  0  0  0  0  0
   23.7153  -14.8133   19.9333 H   0  0  0  0  0  0  0  0  0  0  0  0
   24.8462  -14.0116   20.9970 H   0  0  0  0  0  0  0  0  0  0  0  0
   25.0416  -13.8929   19.2647 H   0  0  0  0  0  0  0  0  0  0  0  0
   21.7987  -13.7893   19.7665 H   0  0  0  0  0  0  0  0  0  0  0  0
   21.4656  -11.0473   19.2044 H   0  0  0  0  0  0  0  0  0  0  0  0
   19.7956  -12.7537   18.7196 H   0  0  0  0  0  0  0  0  0  0  0  0
   19.5358  -12.9214   20.4781 H   0  0  0  0  0  0  0  0  0  0  0  0
   18.6689  -10.7582   20.6226 H   0  0  0  0  0  0  0  0  0  0  0  0
   19.0369  -10.4785   18.9027 H   0  0  0  0  0  0  0  0  0  0  0  0
   21.3675  -12.8284   22.2693 H   0  0  0  0  0  0  0  0  0  0  0  0
   20.7002  -10.5890   23.8716 H   0  0  0  0  0  0  0  0  0  0  0  0
   22.1050  -13.1509   24.5654 H   0  0  0  0  0  0  0  0  0  0  0  0
   20.9461  -11.1037   26.4479 H   0  0  0  0  0  0  0  0  0  0  0  0
   22.6473  -11.4370   26.2292 H   0  0  0  0  0  0  0  0  0  0  0  0
   21.5985  -12.6572   26.9105 H   0  0  0  0  0  0  0  0  0  0  0  0
   19.2494  -12.2725   24.9612 H   0  0  0  0  0  0  0  0  0  0  0  0
   19.9157  -13.8088   25.4602 H   0  0  0  0  0  0  0  0  0  0  0  0
   19.8009  -13.4167   23.7613 H   0  0  0  0  0  0  0  0  0  0  0  0
   23.8259  -12.0517   23.0211 H   0  0  0  0  0  0  0  0  0  0  0  0
   25.3153  -10.2440   24.5628 H   0  0  0  0  0  0  0  0  0  0  0  0
   27.2543  -10.9371   23.0945 H   0  0  0  0  0  0  0  0  0  0  0  0
   26.0419  -12.0199   22.3268 H   0  0  0  0  0  0  0  0  0  0  0  0
   25.7229  -13.1368   24.4386 H   0  0  0  0  0  0  0  0  0  0  0  0
   28.5660  -13.0017   23.4855 H   0  0  0  0  0  0  0  0  0  0  0  0
   27.2995  -13.9755   22.7777 H   0  0  0  0  0  0  0  0  0  0  0  0
   27.8589  -14.3131   24.3983 H   0  0  0  0  0  0  0  0  0  0  0  0
   27.9676  -11.4178   25.4378 H   0  0  0  0  0  0  0  0  0  0  0  0
   27.2429  -12.7586   26.2923 H   0  0  0  0  0  0  0  0  0  0  0  0
   26.2996  -11.3281   25.9503 H   0  0  0  0  0  0  0  0  0  0  0  0
   23.9507   -9.8618   21.4490 H   0  0  0  0  0  0  0  0  0  0  0  0
   25.6284   -7.7904   20.5067 H   0  0  0  0  0  0  0  0  0  0  0  0
   22.7632   -8.3623   19.7974 H   0  0  0  0  0  0  0  0  0  0  0  0
   24.1632   -9.0613   19.0200 H   0  0  0  0  0  0  0  0  0  0  0  0
   23.8543   -7.3468   18.8856 H   0  0  0  0  0  0  0  0  0  0  0  0
   23.2494   -7.7153   22.9532 H   0  0  0  0  0  0  0  0  0  0  0  0
   23.3845   -4.7536   22.9558 H   0  0  0  0  0  0  0  0  0  0  0  0
   23.4885   -5.7149   24.4112 H   0  0  0  0  0  0  0  0  0  0  0  0
   21.9901   -5.6457   23.5151 H   0  0  0  0  0  0  0  0  0  0  0  0
  1 35  1  0  0  0  0
  1 36  1  0  0  0  0
  1 37  1  0  0  0  0
  2  1  1  0  0  0  0
  2  3  2  0  0  0  0
  4  5  1  0  0  0  0
  4  2  1  0  0  0  0
  4 38  1  0  0  0  0
  5  6  1  0  0  0  0
  5 39  1  6  0  0  0
  6  7  2  0  0  0  0
  6 13  1  0  0  0  0
  8  5  1  0  0  0  0
  8 40  1  0  0  0  0
  8 41  1  0  0  0  0
  9  8  1  0  0  0  0
  9 42  1  0  0  0  0
  9 43  1  0  0  0  0
 10 12  1  0  0  0  0
 10  9  1  0  0  0  0
 11 10  2  0  0  0  0
 13 14  1  0  0  0  0
 13 44  1  0  0  0  0
 14 15  1  0  0  0  0
 14 17  1  0  0  0  0
 14 45  1  1  0  0  0
 15 16  2  0  0  0  0
 17 18  1  0  0  0  0
 17 46  1  0  0  0  0
 18 47  1  0  0  0  0
 18 48  1  0  0  0  0
 18 49  1  0  0  0  0
 19 17  1  0  0  0  0
 19 50  1  0  0  0  0
 19 51  1  0  0  0  0
 19 52  1  0  0  0  0
 20 21  1  0  0  0  0
 20 15  1  0  0  0  0
 20 53  1  0  0  0  0
 21 54  1  1  0  0  0
 22 23  2  0  0  0  0
 22 21  1  0  0  0  0
 24 21  1  0  0  0  0
 24 25  1  0  0  0  0
 24 55  1  0  0  0  0
 24 56  1  0  0  0  0
 25 27  1  0  0  0  0
 25 57  1  0  0  0  0
 26 25  1  0  0  0  0
 26 58  1  0  0  0  0
 26 59  1  0  0  0  0
 26 60  1  0  0  0  0
 27 61  1  0  0  0  0
 27 62  1  0  0  0  0
 27 63  1  0  0  0  0
 28 22  1  0  0  0  0
 28 64  1  0  0  0  0
 29 30  1  0  0  0  0
 29 28  1  0  0  0  0
 29 65  1  6  0  0  0
 30 33  1  0  0  0  0
 31 30  2  0  0  0  0
 32 29  1  0  0  0  0
 32 66  1  0  0  0  0
 32 67  1  0  0  0  0
 32 68  1  0  0  0  0
 33 34  1  0  0  0  0
 33 69  1  0  0  0  0
 34 70  1  0  0  0  0
 34 71  1  0  0  0  0
 34 72  1  0  0  0  0
M  CHG  1  12  -1
M  END
>  <MODEL>
       0

$$$$
selected_4mers/EVLA/589_noH.pdb
 OpenBabel03042518233D

 72 71  0  0  1  0  0  0  0  0999 V2000
   13.2800   36.7300   20.7650 C   0  0  0  0  0  0  0  0  0  0  0  0
   14.2150   37.7650   20.1970 C   0  0  0  0  0  0  0  0  0  0  0  0
   15.2440   38.0940   20.8070 O   0  0  0  0  0  0  0  0  0  0  0  0
   13.8510   38.2090   18.9860 N   0  0  0  0  0  0  0  0  0  0  0  0
   14.6110   39.1830   18.2040 C   0  0  2  0  0  0  0  0  0  0  0  0
   15.8790   38.6080   17.5630 C   0  0  0  0  0  0  0  0  0  0  0  0
   16.7150   39.3290   17.0330 O   0  0  0  0  0  0  0  0  0  0  0  0
   14.9390   40.4400   19.0200 C   0  0  0  0  0  0  0  0  0  0  0  0
   13.6770   41.2080   19.4810 C   0  0  0  0  0  0  0  0  0  0  0  0
   13.9350   42.6690   19.8020 C   0  0  0  0  0  0  0  0  0  0  0  0
   14.4040   43.4360   18.9180 O   0  0  0  0  0  0  0  0  0  0  0  0
   13.6300   43.0410   20.9530 O   0  0  0  0  0  0  0  0  0  0  0  0
   16.0270   37.3060   17.6510 N   0  0  0  0  0  0  0  0  0  0  0  0
   17.1720   36.6080   17.0850 C   0  0  2  0  0  0  0  0  0  0  0  0
   16.7130   35.5010   16.1660 C   0  0  0  0  0  0  0  0  0  0  0  0
   16.9440   35.5070   14.9270 O   0  0  0  0  0  0  0  0  0  0  0  0
   18.1180   36.0660   18.1880 C   0  0  0  0  0  0  0  0  0  0  0  0
   19.2460   35.1640   17.5240 C   0  0  0  0  0  0  0  0  0  0  0  0
   18.6250   37.2990   19.0970 C   0  0  0  0  0  0  0  0  0  0  0  0
   16.0010   34.5150   16.7150 N   0  0  0  0  0  0  0  0  0  0  0  0
   15.3260   33.5030   15.8880 C   0  0  2  0  0  0  0  0  0  0  0  0
   13.9200   33.9010   15.4640 C   0  0  0  0  0  0  0  0  0  0  0  0
   13.4680   33.5720   14.3960 O   0  0  0  0  0  0  0  0  0  0  0  0
   15.2480   32.1500   16.6040 C   0  0  0  0  0  0  0  0  0  0  0  0
   16.5960   31.4710   16.8240 C   0  0  0  0  0  0  0  0  0  0  0  0
   16.4070   30.2860   17.7480 C   0  0  0  0  0  0  0  0  0  0  0  0
   17.2100   31.0550   15.4570 C   0  0  0  0  0  0  0  0  0  0  0  0
   13.1640   34.5080   16.3760 N   0  0  0  0  0  0  0  0  0  0  0  0
   11.7670   34.8950   16.1800 C   0  0  2  0  0  0  0  0  0  0  0  0
   11.6340   36.4050   16.1010 C   0  0  0  0  0  0  0  0  0  0  0  0
   12.2500   37.1710   16.8940 O   0  0  0  0  0  0  0  0  0  0  0  0
   10.9720   34.4020   17.3090 C   0  0  0  0  0  0  0  0  0  0  0  0
   10.7380   36.8530   15.2050 N   0  0  0  0  0  0  0  0  0  0  0  0
   10.5170   38.3030   14.9880 C   0  0  0  0  0  0  0  0  0  0  0  0
   12.4577   36.5865   20.0955 H   0  0  0  0  0  0  0  0  0  0  0  0
   12.9137   37.0626   21.7137 H   0  0  0  0  0  0  0  0  0  0  0  0
   13.8043   35.8056   20.8893 H   0  0  0  0  0  0  0  0  0  0  0  0
   13.0178   37.8564   18.5978 H   0  0  0  0  0  0  0  0  0  0  0  0
   13.9633   39.4587   17.3982 H   0  0  0  0  0  0  0  0  0  0  0  0
   15.5339   41.0929   18.4161 H   0  0  0  0  0  0  0  0  0  0  0  0
   15.4603   40.1238   19.8993 H   0  0  0  0  0  0  0  0  0  0  0  0
   13.2938   40.7318   20.3592 H   0  0  0  0  0  0  0  0  0  0  0  0
   12.9822   41.1846   18.6676 H   0  0  0  0  0  0  0  0  0  0  0  0
   15.3367   36.7818   18.1179 H   0  0  0  0  0  0  0  0  0  0  0  0
   17.7344   37.3135   16.5098 H   0  0  0  0  0  0  0  0  0  0  0  0
   17.6196   35.4082   18.8691 H   0  0  0  0  0  0  0  0  0  0  0  0
   19.8011   35.7480   16.8199 H   0  0  0  0  0  0  0  0  0  0  0  0
   18.7908   34.3366   17.0209 H   0  0  0  0  0  0  0  0  0  0  0  0
   19.9053   34.8003   18.2842 H   0  0  0  0  0  0  0  0  0  0  0  0
   19.1389   38.0079   18.4819 H   0  0  0  0  0  0  0  0  0  0  0  0
   19.2890   36.9353   19.8531 H   0  0  0  0  0  0  0  0  0  0  0  0
   17.7833   37.7714   19.5588 H   0  0  0  0  0  0  0  0  0  0  0  0
   15.9258   34.4637   17.6953 H   0  0  0  0  0  0  0  0  0  0  0  0
   15.9305   33.4247   15.0086 H   0  0  0  0  0  0  0  0  0  0  0  0
   14.6366   31.4965   16.0175 H   0  0  0  0  0  0  0  0  0  0  0  0
   14.8429   32.3431   17.5753 H   0  0  0  0  0  0  0  0  0  0  0  0
   17.2833   32.1482   17.2866 H   0  0  0  0  0  0  0  0  0  0  0  0
   15.7219   29.5939   17.3048 H   0  0  0  0  0  0  0  0  0  0  0  0
   16.0168   30.6234   18.6855 H   0  0  0  0  0  0  0  0  0  0  0  0
   17.3488   29.8036   17.9066 H   0  0  0  0  0  0  0  0  0  0  0  0
   16.5492   30.3748   14.9614 H   0  0  0  0  0  0  0  0  0  0  0  0
   18.1546   30.5796   15.6202 H   0  0  0  0  0  0  0  0  0  0  0  0
   17.3486   31.9244   14.8489 H   0  0  0  0  0  0  0  0  0  0  0  0
   13.5755   34.7116   17.2469 H   0  0  0  0  0  0  0  0  0  0  0  0
   11.4167   34.4706   15.2623 H   0  0  0  0  0  0  0  0  0  0  0  0
   11.3351   34.8357   18.2173 H   0  0  0  0  0  0  0  0  0  0  0  0
   11.0540   33.3366   17.3647 H   0  0  0  0  0  0  0  0  0  0  0  0
    9.9467   34.6739   17.1689 H   0  0  0  0  0  0  0  0  0  0  0  0
   10.2163   36.2033   14.6806 H   0  0  0  0  0  0  0  0  0  0  0  0
   11.1606   38.8625   15.6342 H   0  0  0  0  0  0  0  0  0  0  0  0
    9.4972   38.5446   15.2039 H   0  0  0  0  0  0  0  0  0  0  0  0
   10.7337   38.5483   13.9693 H   0  0  0  0  0  0  0  0  0  0  0  0
  1 35  1  0  0  0  0
  1 36  1  0  0  0  0
  1 37  1  0  0  0  0
  2  1  1  0  0  0  0
  2  3  2  0  0  0  0
  4  2  1  0  0  0  0
  4 38  1  0  0  0  0
  5  4  1  0  0  0  0
  5  8  1  0  0  0  0
  5 39  1  6  0  0  0
  6 13  1  0  0  0  0
  6  5  1  0  0  0  0
  7  6  2  0  0  0  0
  8  9  1  0  0  0  0
  8 40  1  0  0  0  0
  8 41  1  0  0  0  0
  9 10  1  0  0  0  0
  9 42  1  0  0  0  0
  9 43  1  0  0  0  0
 10 12  1  0  0  0  0
 11 10  2  0  0  0  0
 13 44  1  0  0  0  0
 14 13  1  0  0  0  0
 14 17  1  0  0  0  0
 14 45  1  6  0  0  0
 15 20  1  0  0  0  0
 15 14  1  0  0  0  0
 16 15  2  0  0  0  0
 17 19  1  0  0  0  0
 17 46  1  0  0  0  0
 18 17  1  0  0  0  0
 18 47  1  0  0  0  0
 18 48  1  0  0  0  0
 18 49  1  0  0  0  0
 19 50  1  0  0  0  0
 19 51  1  0  0  0  0
 19 52  1  0  0  0  0
 20 53  1  0  0  0  0
 21 24  1  0  0  0  0
 21 20  1  0  0  0  0
 21 54  1  6  0  0  0
 22 21  1  0  0  0  0
 22 28  1  0  0  0  0
 23 22  2  0  0  0  0
 24 25  1  0  0  0  0
 24 55  1  0  0  0  0
 24 56  1  0  0  0  0
 25 26  1  0  0  0  0
 25 57  1  0  0  0  0
 26 58  1  0  0  0  0
 26 59  1  0  0  0  0
 26 60  1  0  0  0  0
 27 25  1  0  0  0  0
 27 61  1  0  0  0  0
 27 62  1  0  0  0  0
 27 63  1  0  0  0  0
 28 64  1  0  0  0  0
 29 28  1  0  0  0  0
 29 32  1  0  0  0  0
 29 65  1  6  0  0  0
 30 29  1  0  0  0  0
 30 31  2  0  0  0  0
 32 66  1  0  0  0  0
 32 67  1  0  0  0  0
 32 68  1  0  0  0  0
 33 30  1  0  0  0  0
 33 69  1  0  0  0  0
 34 33  1  0  0  0  0
 34 70  1  0  0  0  0
 34 71  1  0  0  0  0
 34 72  1  0  0  0  0
M  CHG  1  12  -1
M  END
>  <MODEL>
       0

$$$$
