selected_4mers/EVLE/575_noH.pdb
 OpenBabel03042518233D

 77 76  0  0  1  0  0  0  0  0999 V2000
    1.7420   88.0150   70.6720 C   0  0  0  0  0  0  0  0  0  0  0  0
    0.8370   86.8060   70.4050 C   0  0  0  0  0  0  0  0  0  0  0  0
    0.3510   86.1770   71.3470 O   0  0  0  0  0  0  0  0  0  0  0  0
    0.5180   86.5450   69.1350 N   0  0  0  0  0  0  0  0  0  0  0  0
   -0.4650   85.4830   68.8300 C   0  0  2  0  0  0  0  0  0  0  0  0
   -0.0180   84.1030   69.2990 C   0  0  0  0  0  0  0  0  0  0  0  0
   -0.8250   83.3360   69.8420 O   0  0  0  0  0  0  0  0  0  0  0  0
   -0.9360   85.4400   67.3580 C   0  0  0  0  0  0  0  0  0  0  0  0
   -2.1800   86.3390   67.1840 C   0  0  0  0  0  0  0  0  0  0  0  0
   -2.8970   86.1510   65.8640 C   0  0  0  0  0  0  0  0  0  0  0  0
   -3.4980   87.1320   65.4010 O   0  0  0  0  0  0  0  0  0  0  0  0
   -2.8740   85.0540   65.2850 O   0  0  0  0  0  0  0  0  0  0  0  0
    1.2650   83.7990   69.1320 N   0  0  0  0  0  0  0  0  0  0  0  0
    1.7250   82.4710   69.5570 C   0  0  2  0  0  0  0  0  0  0  0  0
    1.5930   82.3390   71.0810 C   0  0  0  0  0  0  0  0  0  0  0  0
    1.0800   81.3560   71.5760 O   0  0  0  0  0  0  0  0  0  0  0  0
    3.1690   82.1680   69.0670 C   0  0  0  0  0  0  0  0  0  0  0  0
    3.6790   80.8830   69.7240 C   0  0  0  0  0  0  0  0  0  0  0  0
    3.1600   82.0210   67.5200 C   0  0  0  0  0  0  0  0  0  0  0  0
    2.0230   83.3580   71.8060 N   0  0  0  0  0  0  0  0  0  0  0  0
    1.9630   83.3250   73.2750 C   0  0  2  0  0  0  0  0  0  0  0  0
    0.5350   83.3290   73.8280 C   0  0  0  0  0  0  0  0  0  0  0  0
    0.2680   82.6560   74.8430 O   0  0  0  0  0  0  0  0  0  0  0  0
    2.7740   84.4770   73.8740 C   0  0  0  0  0  0  0  0  0  0  0  0
    4.2860   84.4420   73.6040 C   0  0  0  0  0  0  0  0  0  0  0  0
    4.9060   85.5580   74.3350 C   0  0  0  0  0  0  0  0  0  0  0  0
    4.8620   83.1270   74.1010 C   0  0  0  0  0  0  0  0  0  0  0  0
   -0.3780   84.0370   73.1480 N   0  0  0  0  0  0  0  0  0  0  0  0
   -1.7880   84.0070   73.5690 C   0  0  2  0  0  0  0  0  0  0  0  0
   -2.3390   82.5820   73.4470 C   0  0  0  0  0  0  0  0  0  0  0  0
   -3.0730   82.1150   74.3460 O   0  0  0  0  0  0  0  0  0  0  0  0
   -2.6220   85.0190   72.8020 C   0  0  0  0  0  0  0  0  0  0  0  0
   -2.1770   86.4370   73.1140 C   0  0  0  0  0  0  0  0  0  0  0  0
   -3.0930   87.4650   72.5680 C   0  0  0  0  0  0  0  0  0  0  0  0
   -3.9070   87.1240   71.7000 O   0  0  0  0  0  0  0  0  0  0  0  0
   -2.9710   88.6380   72.9760 O   0  0  0  0  0  0  0  0  0  0  0  0
   -1.9430   81.8700   72.3800 N   0  0  0  0  0  0  0  0  0  0  0  0
   -2.3720   80.4830   72.2010 C   0  0  0  0  0  0  0  0  0  0  0  0
    2.0669   88.4299   69.7408 H   0  0  0  0  0  0  0  0  0  0  0  0
    2.5936   87.7044   71.2406 H   0  0  0  0  0  0  0  0  0  0  0  0
    1.1969   88.7542   71.2210 H   0  0  0  0  0  0  0  0  0  0  0  0
    0.9352   87.0571   68.4050 H   0  0  0  0  0  0  0  0  0  0  0  0
   -1.3222   85.7650   69.4050 H   0  0  0  0  0  0  0  0  0  0  0  0
   -0.1505   85.7925   66.7226 H   0  0  0  0  0  0  0  0  0  0  0  0
   -1.1861   84.4335   67.0948 H   0  0  0  0  0  0  0  0  0  0  0  0
   -2.8671   86.1190   67.9742 H   0  0  0  0  0  0  0  0  0  0  0  0
   -1.8353   87.3517   67.2071 H   0  0  0  0  0  0  0  0  0  0  0  0
    1.8903   84.4470   68.7340 H   0  0  0  0  0  0  0  0  0  0  0  0
    1.0992   81.7340   69.0985 H   0  0  0  0  0  0  0  0  0  0  0  0
    3.8220   82.9706   69.3396 H   0  0  0  0  0  0  0  0  0  0  0  0
    3.0364   80.0688   69.4613 H   0  0  0  0  0  0  0  0  0  0  0  0
    3.6850   81.0041   70.7871 H   0  0  0  0  0  0  0  0  0  0  0  0
    4.6722   80.6779   69.3828 H   0  0  0  0  0  0  0  0  0  0  0  0
    2.5082   81.2194   67.2417 H   0  0  0  0  0  0  0  0  0  0  0  0
    4.1511   81.8107   67.1759 H   0  0  0  0  0  0  0  0  0  0  0  0
    2.8145   82.9317   67.0772 H   0  0  0  0  0  0  0  0  0  0  0  0
    2.3896   84.1524   71.3545 H   0  0  0  0  0  0  0  0  0  0  0  0
    2.3970   82.3927   73.5706 H   0  0  0  0  0  0  0  0  0  0  0  0
    2.6295   84.4637   74.9341 H   0  0  0  0  0  0  0  0  0  0  0  0
    2.4142   85.3644   73.3966 H   0  0  0  0  0  0  0  0  0  0  0  0
    4.4786   84.5303   72.5552 H   0  0  0  0  0  0  0  0  0  0  0  0
    4.7045   85.4551   75.3808 H   0  0  0  0  0  0  0  0  0  0  0  0
    4.5009   86.4837   73.9831 H   0  0  0  0  0  0  0  0  0  0  0  0
    5.9636   85.5469   74.1728 H   0  0  0  0  0  0  0  0  0  0  0  0
    4.6744   83.0292   75.1499 H   0  0  0  0  0  0  0  0  0  0  0  0
    5.9172   83.1104   73.9244 H   0  0  0  0  0  0  0  0  0  0  0  0
    4.4001   82.3153   73.5788 H   0  0  0  0  0  0  0  0  0  0  0  0
   -0.1063   84.5752   72.3697 H   0  0  0  0  0  0  0  0  0  0  0  0
   -1.8465   84.2945   74.5980 H   0  0  0  0  0  0  0  0  0  0  0  0
   -2.5118   84.8403   71.7528 H   0  0  0  0  0  0  0  0  0  0  0  0
   -3.6454   84.9101   73.0947 H   0  0  0  0  0  0  0  0  0  0  0  0
   -2.1289   86.5531   74.1766 H   0  0  0  0  0  0  0  0  0  0  0  0
   -1.2225   86.5815   72.6525 H   0  0  0  0  0  0  0  0  0  0  0  0
   -1.3558   82.2870   71.7088 H   0  0  0  0  0  0  0  0  0  0  0  0
   -3.0005   80.1958   73.0179 H   0  0  0  0  0  0  0  0  0  0  0  0
   -1.5134   79.8452   72.1702 H   0  0  0  0  0  0  0  0  0  0  0  0
   -2.9159   80.3934   71.2839 H   0  0  0  0  0  0  0  0  0  0  0  0
  1 39  1  0  0  0  0
  1 40  1  0  0  0  0
  1 41  1  0  0  0  0
  2  1  1  0  0  0  0
  2  3  2  0  0  0  0
  4  2  1  0  0  0  0
  4 42  1  0  0  0  0
  5  4  1  0  0  0  0
  5  6  1  0  0  0  0
  5 43  1  1  0  0  0
  6  7  2  0  0  0  0
  8  5  1  0  0  0  0
  8 44  1  0  0  0  0
  8 45  1  0  0  0  0
  9  8  1  0  0  0  0
  9 46  1  0  0  0  0
  9 47  1  0  0  0  0
 10  9  1  0  0  0  0
 11 10  1  0  0  0  0
 12 10  2  0  0  0  0
 13  6  1  0  0  0  0
 13 14  1  0  0  0  0
 13 48  1  0  0  0  0
 14 15  1  0  0  0  0
 14 49  1  6  0  0  0
 15 16  2  0  0  0  0
 15 20  1  0  0  0  0
 17 14  1  0  0  0  0
 17 18  1  0  0  0  0
 17 50  1  0  0  0  0
 18 51  1  0  0  0  0
 18 52  1  0  0  0  0
 18 53  1  0  0  0  0
 19 17  1  0  0  0  0
 19 54  1  0  0  0  0
 19 55  1  0  0  0  0
 19 56  1  0  0  0  0
 20 21  1  0  0  0  0
 20 57  1  0  0  0  0
 21 22  1  0  0  0  0
 21 24  1  0  0  0  0
 21 58  1  1  0  0  0
 22 23  2  0  0  0  0
 24 59  1  0  0  0  0
 24 60  1  0  0  0  0
 25 24  1  0  0  0  0
 25 27  1  0  0  0  0
 25 26  1  0  0  0  0
 25 61  1  0  0  0  0
 26 62  1  0  0  0  0
 26 63  1  0  0  0  0
 26 64  1  0  0  0  0
 27 65  1  0  0  0  0
 27 66  1  0  0  0  0
 27 67  1  0  0  0  0
 28 29  1  0  0  0  0
 28 22  1  0  0  0  0
 28 68  1  0  0  0  0
 29 69  1  1  0  0  0
 30 29  1  0  0  0  0
 30 31  2  0  0  0  0
 32 33  1  0  0  0  0
 32 29  1  0  0  0  0
 32 70  1  0  0  0  0
 32 71  1  0  0  0  0
 33 72  1  0  0  0  0
 33 73  1  0  0  0  0
 34 36  1  0  0  0  0
 34 33  1  0  0  0  0
 35 34  2  0  0  0  0
 37 30  1  0  0  0  0
 37 74  1  0  0  0  0
 38 37  1  0  0  0  0
 38 75  1  0  0  0  0
 38 76  1  0  0  0  0
 38 77  1  0  0  0  0
M  CHG  1  11  -1
M  CHG  1  36  -1
M  END
>  <MODEL>
       0

$$$$
selected_4mers/EVLE/576_noH.pdb
 OpenBabel03042518233D

 77 76  0  0  1  0  0  0  0  0999 V2000
   34.4980   17.0420    4.6010 C   0  0  0  0  0  0  0  0  0  0  0  0
   34.1920   18.2610    5.4690 C   0  0  0  0  0  0  0  0  0  0  0  0
   33.3370   19.0790    5.1330 O   0  0  0  0  0  0  0  0  0  0  0  0
   34.8620   18.3420    6.6110 N   0  0  0  0  0  0  0  0  0  0  0  0
   34.6380   19.4300    7.5390 C   0  0  2  0  0  0  0  0  0  0  0  0
   35.5220   20.6220    7.2360 C   0  0  0  0  0  0  0  0  0  0  0  0
   36.7010   20.4700    6.9880 O   0  0  0  0  0  0  0  0  0  0  0  0
   34.9550   18.9650    8.9560 C   0  0  0  0  0  0  0  0  0  0  0  0
   34.6420   19.9740   10.0610 C   0  0  0  0  0  0  0  0  0  0  0  0
   34.8560   19.3890   11.4410 C   0  0  0  0  0  0  0  0  0  0  0  0
   33.9700   18.6410   11.9230 O   0  0  0  0  0  0  0  0  0  0  0  0
   35.9200   19.6550   12.0240 O   0  0  0  0  0  0  0  0  0  0  0  0
   34.9300   21.8040    7.3070 N   0  0  0  0  0  0  0  0  0  0  0  0
   35.6700   23.0510    7.3130 C   0  0  2  0  0  0  0  0  0  0  0  0
   35.4200   23.6740    8.6780 C   0  0  0  0  0  0  0  0  0  0  0  0
   34.2860   24.0190    9.0050 O   0  0  0  0  0  0  0  0  0  0  0  0
   35.1800   23.9930    6.1950 C   0  0  0  0  0  0  0  0  0  0  0  0
   35.9270   25.3200    6.2560 C   0  0  0  0  0  0  0  0  0  0  0  0
   35.3050   23.3330    4.8070 C   0  0  0  0  0  0  0  0  0  0  0  0
   36.4730   23.7760    9.4750 N   0  0  0  0  0  0  0  0  0  0  0  0
   36.3860   24.1630   10.8680 C   0  0  2  0  0  0  0  0  0  0  0  0
   37.0220   25.5420   11.0110 C   0  0  0  0  0  0  0  0  0  0  0  0
   38.1790   25.7130   10.6670 O   0  0  0  0  0  0  0  0  0  0  0  0
   37.1460   23.1210   11.7090 C   0  0  0  0  0  0  0  0  0  0  0  0
   37.5400   23.4790   13.1420 C   0  0  0  0  0  0  0  0  0  0  0  0
   36.4140   24.0420   13.9700 C   0  0  0  0  0  0  0  0  0  0  0  0
   38.1420   22.2630   13.8280 C   0  0  0  0  0  0  0  0  0  0  0  0
   36.2590   26.5110   11.5000 N   0  0  0  0  0  0  0  0  0  0  0  0
   36.7910   27.8410   11.8190 C   0  0  2  0  0  0  0  0  0  0  0  0
   36.8180   28.0540   13.3300 C   0  0  0  0  0  0  0  0  0  0  0  0
   35.7690   28.0670   13.9690 O   0  0  0  0  0  0  0  0  0  0  0  0
   35.9490   28.9550   11.1610 C   0  0  0  0  0  0  0  0  0  0  0  0
   36.4820   30.3580   11.4340 C   0  0  0  0  0  0  0  0  0  0  0  0
   35.4810   31.4690   11.2230 C   0  0  0  0  0  0  0  0  0  0  0  0
   34.2680   31.2010   11.1390 O   0  0  0  0  0  0  0  0  0  0  0  0
   35.9600   32.6360   11.1870 O   0  0  0  0  0  0  0  0  0  0  0  0
   38.0100   28.2970   13.8690 N   0  0  0  0  0  0  0  0  0  0  0  0
   38.1550   28.8630   15.2170 C   0  0  0  0  0  0  0  0  0  0  0  0
   33.9049   17.0798    3.7112 H   0  0  0  0  0  0  0  0  0  0  0  0
   34.2682   16.1499    5.1452 H   0  0  0  0  0  0  0  0  0  0  0  0
   35.5353   17.0424    4.3385 H   0  0  0  0  0  0  0  0  0  0  0  0
   35.5248   17.6483    6.8318 H   0  0  0  0  0  0  0  0  0  0  0  0
   33.6131   19.7221    7.4435 H   0  0  0  0  0  0  0  0  0  0  0  0
   35.9993   18.7369    9.0030 H   0  0  0  0  0  0  0  0  0  0  0  0
   34.3228   18.1213    9.1385 H   0  0  0  0  0  0  0  0  0  0  0  0
   33.6207   20.2800    9.9701 H   0  0  0  0  0  0  0  0  0  0  0  0
   35.3067   20.8048    9.9477 H   0  0  0  0  0  0  0  0  0  0  0  0
   33.9474   21.8377    7.3578 H   0  0  0  0  0  0  0  0  0  0  0  0
   36.7118   22.8825    7.1365 H   0  0  0  0  0  0  0  0  0  0  0  0
   34.1402   24.1898    6.3529 H   0  0  0  0  0  0  0  0  0  0  0  0
   36.9717   25.1487    6.1005 H   0  0  0  0  0  0  0  0  0  0  0  0
   35.7782   25.7693    7.2157 H   0  0  0  0  0  0  0  0  0  0  0  0
   35.5556   25.9737    5.4947 H   0  0  0  0  0  0  0  0  0  0  0  0
   36.3336   23.1175    4.6059 H   0  0  0  0  0  0  0  0  0  0  0  0
   34.9275   23.9995    4.0599 H   0  0  0  0  0  0  0  0  0  0  0  0
   34.7406   22.4241    4.7921 H   0  0  0  0  0  0  0  0  0  0  0  0
   37.3619   23.5783    9.1007 H   0  0  0  0  0  0  0  0  0  0  0  0
   35.3711   24.2047   11.2045 H   0  0  0  0  0  0  0  0  0  0  0  0
   38.0485   22.8895   11.1829 H   0  0  0  0  0  0  0  0  0  0  0  0
   36.4457   22.3204   11.8248 H   0  0  0  0  0  0  0  0  0  0  0  0
   38.2637   24.2636   13.0668 H   0  0  0  0  0  0  0  0  0  0  0  0
   35.6503   23.3013   14.0841 H   0  0  0  0  0  0  0  0  0  0  0  0
   36.0066   24.9018   13.4804 H   0  0  0  0  0  0  0  0  0  0  0  0
   36.7855   24.3227   14.9334 H   0  0  0  0  0  0  0  0  0  0  0  0
   37.4053   21.4898   13.8944 H   0  0  0  0  0  0  0  0  0  0  0  0
   38.4660   22.5323   14.8116 H   0  0  0  0  0  0  0  0  0  0  0  0
   38.9783   21.9111   13.2608 H   0  0  0  0  0  0  0  0  0  0  0  0
   35.3033   26.3317   11.6541 H   0  0  0  0  0  0  0  0  0  0  0  0
   37.7871   27.8914   11.4314 H   0  0  0  0  0  0  0  0  0  0  0  0
   35.9417   28.7947   10.1031 H   0  0  0  0  0  0  0  0  0  0  0  0
   34.9679   28.9016   11.5847 H   0  0  0  0  0  0  0  0  0  0  0  0
   37.3130   30.5308   10.7825 H   0  0  0  0  0  0  0  0  0  0  0  0
   36.7453   30.3833   12.4708 H   0  0  0  0  0  0  0  0  0  0  0  0
   38.8198   28.0912   13.3484 H   0  0  0  0  0  0  0  0  0  0  0  0
   37.1864   29.0263   15.6414 H   0  0  0  0  0  0  0  0  0  0  0  0
   38.6802   29.7934   15.1586 H   0  0  0  0  0  0  0  0  0  0  0  0
   38.7040   28.1816   15.8328 H   0  0  0  0  0  0  0  0  0  0  0  0
  1  2  1  0  0  0  0
  1 39  1  0  0  0  0
  1 40  1  0  0  0  0
  1 41  1  0  0  0  0
  2  4  1  0  0  0  0
  3  2  2  0  0  0  0
  4  5  1  0  0  0  0
  4 42  1  0  0  0  0
  5  8  1  0  0  0  0
  5 43  1  6  0  0  0
  6 13  1  0  0  0  0
  6  5  1  0  0  0  0
  7  6  2  0  0  0  0
  8  9  1  0  0  0  0
  8 44  1  0  0  0  0
  8 45  1  0  0  0  0
  9 10  1  0  0  0  0
  9 46  1  0  0  0  0
  9 47  1  0  0  0  0
 10 11  2  0  0  0  0
 10 12  1  0  0  0  0
 13 14  1  0  0  0  0
 13 48  1  0  0  0  0
 14 15  1  0  0  0  0
 14 49  1  6  0  0  0
 15 16  2  0  0  0  0
 15 20  1  0  0  0  0
 17 18  1  0  0  0  0
 17 14  1  0  0  0  0
 17 50  1  0  0  0  0
 18 51  1  0  0  0  0
 18 52  1  0  0  0  0
 18 53  1  0  0  0  0
 19 17  1  0  0  0  0
 19 54  1  0  0  0  0
 19 55  1  0  0  0  0
 19 56  1  0  0  0  0
 20 21  1  0  0  0  0
 20 57  1  0  0  0  0
 21 22  1  0  0  0  0
 21 24  1  0  0  0  0
 21 58  1  1  0  0  0
 22 28  1  0  0  0  0
 23 22  2  0  0  0  0
 24 25  1  0  0  0  0
 24 59  1  0  0  0  0
 24 60  1  0  0  0  0
 25 27  1  0  0  0  0
 25 26  1  0  0  0  0
 25 61  1  0  0  0  0
 26 62  1  0  0  0  0
 26 63  1  0  0  0  0
 26 64  1  0  0  0  0
 27 65  1  0  0  0  0
 27 66  1  0  0  0  0
 27 67  1  0  0  0  0
 28 29  1  0  0  0  0
 28 68  1  0  0  0  0
 29 30  1  0  0  0  0
 29 69  1  6  0  0  0
 30 37  1  0  0  0  0
 30 31  2  0  0  0  0
 32 33  1  0  0  0  0
 32 29  1  0  0  0  0
 32 70  1  0  0  0  0
 32 71  1  0  0  0  0
 33 72  1  0  0  0  0
 33 73  1  0  0  0  0
 34 33  1  0  0  0  0
 35 34  2  0  0  0  0
 36 34  1  0  0  0  0
 37 38  1  0  0  0  0
 37 74  1  0  0  0  0
 38 75  1  0  0  0  0
 38 76  1  0  0  0  0
 38 77  1  0  0  0  0
M  CHG  1  12  -1
M  CHG  1  36  -1
M  END
>  <MODEL>
       0

$$$$
selected_4mers/EVLE/577_noH.pdb
 OpenBabel03042518233D

 77 76  0  0  1  0  0  0  0  0999 V2000
   19.8720   20.4430  -10.8670 C   0  0  0  0  0  0  0  0  0  0  0  0
   20.4580   19.1010  -11.3450 C   0  0  0  0  0  0  0  0  0  0  0  0
   21.0560   19.0290  -12.4220 O   0  0  0  0  0  0  0  0  0  0  0  0
   20.2610   18.0420  -10.5720 N   0  0  0  0  0  0  0  0  0  0  0  0
   20.7770   16.7210  -10.9680 C   0  0  2  0  0  0  0  0  0  0  0  0
   20.0490   16.1370  -12.1870 C   0  0  0  0  0  0  0  0  0  0  0  0
   20.6700   15.5330  -13.0650 O   0  0  0  0  0  0  0  0  0  0  0  0
   20.6760   15.7320   -9.7980 C   0  0  0  0  0  0  0  0  0  0  0  0
   21.3600   14.3940  -10.1100 C   0  0  0  0  0  0  0  0  0  0  0  0
   21.5520   13.5420   -8.8630 C   0  0  0  0  0  0  0  0  0  0  0  0
   21.9040   14.1080   -7.8000 O   0  0  0  0  0  0  0  0  0  0  0  0
   21.3580   12.3060   -8.9670 O   0  0  0  0  0  0  0  0  0  0  0  0
   18.7350   16.3280  -12.2630 N   0  0  0  0  0  0  0  0  0  0  0  0
   17.9590   15.8260  -13.3940 C   0  0  2  0  0  0  0  0  0  0  0  0
   18.4010   16.5380  -14.6840 C   0  0  0  0  0  0  0  0  0  0  0  0
   18.4600   15.9210  -15.7560 O   0  0  0  0  0  0  0  0  0  0  0  0
   16.4460   16.0770  -13.1600 C   0  0  0  0  0  0  0  0  0  0  0  0
   15.6590   15.8290  -14.4210 C   0  0  0  0  0  0  0  0  0  0  0  0
   15.9560   15.1960  -12.0540 C   0  0  0  0  0  0  0  0  0  0  0  0
   18.7160   17.8230  -14.5710 N   0  0  0  0  0  0  0  0  0  0  0  0
   19.1550   18.6090  -15.7230 C   0  0  2  0  0  0  0  0  0  0  0  0
   20.6640   18.5100  -16.0000 C   0  0  0  0  0  0  0  0  0  0  0  0
   21.1210   18.9120  -17.0780 O   0  0  0  0  0  0  0  0  0  0  0  0
   18.8400   20.0940  -15.4850 C   0  0  0  0  0  0  0  0  0  0  0  0
   17.3680   20.4730  -15.3470 C   0  0  0  0  0  0  0  0  0  0  0  0
   17.2580   22.0060  -15.1160 C   0  0  0  0  0  0  0  0  0  0  0  0
   16.6330   20.0830  -16.6230 C   0  0  0  0  0  0  0  0  0  0  0  0
   21.4180   17.9710  -15.0460 N   0  0  0  0  0  0  0  0  0  0  0  0
   22.8870   17.9580  -15.1370 C   0  0  2  0  0  0  0  0  0  0  0  0
   23.3360   19.3830  -15.4780 C   0  0  0  0  0  0  0  0  0  0  0  0
   24.1260   19.6040  -16.3900 O   0  0  0  0  0  0  0  0  0  0  0  0
   23.3780   16.9640  -16.2030 C   0  0  0  0  0  0  0  0  0  0  0  0
   23.1090   15.5410  -15.8210 C   0  0  0  0  0  0  0  0  0  0  0  0
   23.5690   14.5660  -16.9050 C   0  0  0  0  0  0  0  0  0  0  0  0
   24.7580   14.1700  -16.9260 O   0  0  0  0  0  0  0  0  0  0  0  0
   22.7340   14.2220  -17.7590 O   0  0  0  0  0  0  0  0  0  0  0  0
   22.8290   20.3530  -14.7270 N   0  0  0  0  0  0  0  0  0  0  0  0
   23.1570   21.7500  -14.9730 C   0  0  0  0  0  0  0  0  0  0  0  0
   20.1029   21.2070  -11.5796 H   0  0  0  0  0  0  0  0  0  0  0  0
   20.2960   20.6998   -9.9187 H   0  0  0  0  0  0  0  0  0  0  0  0
   18.8100   20.3544  -10.7706 H   0  0  0  0  0  0  0  0  0  0  0  0
   19.7659   18.1396   -9.7267 H   0  0  0  0  0  0  0  0  0  0  0  0
   21.8013   16.8676  -11.2406 H   0  0  0  0  0  0  0  0  0  0  0  0
   19.6426   15.5502   -9.5885 H   0  0  0  0  0  0  0  0  0  0  0  0
   21.1730   16.1669   -8.9561 H   0  0  0  0  0  0  0  0  0  0  0  0
   22.3180   14.5898  -10.5445 H   0  0  0  0  0  0  0  0  0  0  0  0
   20.7301   13.8523  -10.7843 H   0  0  0  0  0  0  0  0  0  0  0  0
   18.2762   16.8175  -11.5425 H   0  0  0  0  0  0  0  0  0  0  0  0
   18.1292   14.7738  -13.4881 H   0  0  0  0  0  0  0  0  0  0  0  0
   16.3055   17.1007  -12.8820 H   0  0  0  0  0  0  0  0  0  0  0  0
   15.7814   14.8099  -14.7232 H   0  0  0  0  0  0  0  0  0  0  0  0
   16.0139   16.4759  -15.1959 H   0  0  0  0  0  0  0  0  0  0  0  0
   14.6230   16.0252  -14.2392 H   0  0  0  0  0  0  0  0  0  0  0  0
   16.0942   14.1707  -12.3269 H   0  0  0  0  0  0  0  0  0  0  0  0
   14.9163   15.3827  -11.8833 H   0  0  0  0  0  0  0  0  0  0  0  0
   16.5071   15.4047  -11.1609 H   0  0  0  0  0  0  0  0  0  0  0  0
   18.6524   18.2572  -13.6897 H   0  0  0  0  0  0  0  0  0  0  0  0
   18.6297   18.2071  -16.5641 H   0  0  0  0  0  0  0  0  0  0  0  0
   19.2401   20.6458  -16.3098 H   0  0  0  0  0  0  0  0  0  0  0  0
   19.2779   20.3239  -14.5362 H   0  0  0  0  0  0  0  0  0  0  0  0
   16.9300   19.9595  -14.5167 H   0  0  0  0  0  0  0  0  0  0  0  0
   17.6949   22.5237  -15.9442 H   0  0  0  0  0  0  0  0  0  0  0  0
   17.7758   22.2693  -14.2174 H   0  0  0  0  0  0  0  0  0  0  0  0
   16.2276   22.2803  -15.0274 H   0  0  0  0  0  0  0  0  0  0  0  0
   17.0683   20.5946  -17.4559 H   0  0  0  0  0  0  0  0  0  0  0  0
   15.6014   20.3540  -16.5374 H   0  0  0  0  0  0  0  0  0  0  0  0
   16.7130   19.0264  -16.7720 H   0  0  0  0  0  0  0  0  0  0  0  0
   20.9825   17.5706  -14.2591 H   0  0  0  0  0  0  0  0  0  0  0  0
   23.3076   17.6392  -14.2062 H   0  0  0  0  0  0  0  0  0  0  0  0
   22.8771   17.1732  -17.1251 H   0  0  0  0  0  0  0  0  0  0  0  0
   24.4372   17.0826  -16.2976 H   0  0  0  0  0  0  0  0  0  0  0  0
   23.6312   15.3213  -14.9133 H   0  0  0  0  0  0  0  0  0  0  0  0
   22.0529   15.4242  -15.6948 H   0  0  0  0  0  0  0  0  0  0  0  0
   22.2191   20.1232  -13.9891 H   0  0  0  0  0  0  0  0  0  0  0  0
   23.8265   21.8180  -15.8049 H   0  0  0  0  0  0  0  0  0  0  0  0
   23.6241   22.1650  -14.1044 H   0  0  0  0  0  0  0  0  0  0  0  0
   22.2615   22.2937  -15.1905 H   0  0  0  0  0  0  0  0  0  0  0  0
  1 39  1  0  0  0  0
  1 40  1  0  0  0  0
  1 41  1  0  0  0  0
  2  1  1  0  0  0  0
  2  4  1  0  0  0  0
  3  2  2  0  0  0  0
  4 42  1  0  0  0  0
  5  4  1  0  0  0  0
  5  8  1  0  0  0  0
  5 43  1  6  0  0  0
  6  5  1  0  0  0  0
  7  6  2  0  0  0  0
  8 44  1  0  0  0  0
  8 45  1  0  0  0  0
  9  8  1  0  0  0  0
  9 10  1  0  0  0  0
  9 46  1  0  0  0  0
  9 47  1  0  0  0  0
 10 11  1  0  0  0  0
 12 10  2  0  0  0  0
 13  6  1  0  0  0  0
 13 48  1  0  0  0  0
 14 17  1  0  0  0  0
 14 13  1  0  0  0  0
 14 49  1  6  0  0  0
 15 20  1  0  0  0  0
 15 14  1  0  0  0  0
 16 15  2  0  0  0  0
 17 19  1  0  0  0  0
 17 50  1  0  0  0  0
 18 17  1  0  0  0  0
 18 51  1  0  0  0  0
 18 52  1  0  0  0  0
 18 53  1  0  0  0  0
 19 54  1  0  0  0  0
 19 55  1  0  0  0  0
 19 56  1  0  0  0  0
 20 57  1  0  0  0  0
 21 24  1  0  0  0  0
 21 20  1  0  0  0  0
 21 58  1  6  0  0  0
 22 21  1  0  0  0  0
 22 28  1  0  0  0  0
 23 22  2  0  0  0  0
 24 25  1  0  0  0  0
 24 59  1  0  0  0  0
 24 60  1  0  0  0  0
 25 26  1  0  0  0  0
 25 61  1  0  0  0  0
 26 62  1  0  0  0  0
 26 63  1  0  0  0  0
 26 64  1  0  0  0  0
 27 25  1  0  0  0  0
 27 65  1  0  0  0  0
 27 66  1  0  0  0  0
 27 67  1  0  0  0  0
 28 68  1  0  0  0  0
 29 28  1  0  0  0  0
 29 69  1  1  0  0  0
 30 29  1  0  0  0  0
 30 37  1  0  0  0  0
 31 30  2  0  0  0  0
 32 33  1  0  0  0  0
 32 29  1  0  0  0  0
 32 70  1  0  0  0  0
 32 71  1  0  0  0  0
 33 72  1  0  0  0  0
 33 73  1  0  0  0  0
 34 33  1  0  0  0  0
 35 34  1  0  0  0  0
 36 34  2  0  0  0  0
 37 74  1  0  0  0  0
 38 37  1  0  0  0  0
 38 75  1  0  0  0  0
 38 76  1  0  0  0  0
 38 77  1  0  0  0  0
M  CHG  1  11  -1
M  CHG  1  35  -1
M  END
>  <MODEL>
       0

$$$$
selected_4mers/EVLE/578_noH.pdb
 OpenBabel03042518233D

 77 76  0  0  1  0  0  0  0  0999 V2000
  -14.8460   33.2470   26.5230 C   0  0  0  0  0  0  0  0  0  0  0  0
  -14.4640   34.4680   25.6960 C   0  0  0  0  0  0  0  0  0  0  0  0
  -14.8630   34.5810   24.5430 O   0  0  0  0  0  0  0  0  0  0  0  0
  -13.6990   35.3730   26.2910 N   0  0  0  0  0  0  0  0  0  0  0  0
  -13.2980   36.5910   25.5900 C   0  0  2  0  0  0  0  0  0  0  0  0
  -11.8760   36.5260   25.0520 C   0  0  0  0  0  0  0  0  0  0  0  0
  -11.4290   37.4590   24.3770 O   0  0  0  0  0  0  0  0  0  0  0  0
  -13.4030   37.7930   26.5330 C   0  0  0  0  0  0  0  0  0  0  0  0
  -14.7970   38.0540   27.0640 C   0  0  0  0  0  0  0  0  0  0  0  0
  -15.7840   38.3380   25.9580 C   0  0  0  0  0  0  0  0  0  0  0  0
  -15.5690   39.3130   25.2070 O   0  0  0  0  0  0  0  0  0  0  0  0
  -16.7710   37.5830   25.8350 O   0  0  0  0  0  0  0  0  0  0  0  0
  -11.1670   35.4350   25.3390 N   0  0  0  0  0  0  0  0  0  0  0  0
   -9.7730   35.2980   24.9170 C   0  0  2  0  0  0  0  0  0  0  0  0
   -9.3740   33.9560   24.3030 C   0  0  0  0  0  0  0  0  0  0  0  0
   -8.1980   33.6100   24.3140 O   0  0  0  0  0  0  0  0  0  0  0  0
   -8.8160   35.5380   26.1070 C   0  0  0  0  0  0  0  0  0  0  0  0
   -8.8120   37.0160   26.4980 C   0  0  0  0  0  0  0  0  0  0  0  0
   -9.2410   34.6730   27.2950 C   0  0  0  0  0  0  0  0  0  0  0  0
  -10.3230   33.2050   23.7650 N   0  0  0  0  0  0  0  0  0  0  0  0
   -9.9680   31.9140   23.1890 C   0  0  2  0  0  0  0  0  0  0  0  0
   -9.0880   32.0560   21.9520 C   0  0  0  0  0  0  0  0  0  0  0  0
   -8.3890   31.1160   21.5660 O   0  0  0  0  0  0  0  0  0  0  0  0
  -11.2220   31.1130   22.8700 C   0  0  0  0  0  0  0  0  0  0  0  0
  -11.8380   30.4480   24.1070 C   0  0  0  0  0  0  0  0  0  0  0  0
  -13.2170   29.9290   23.7780 C   0  0  0  0  0  0  0  0  0  0  0  0
  -10.9350   29.3170   24.5760 C   0  0  0  0  0  0  0  0  0  0  0  0
   -9.1290   33.2270   21.3190 N   0  0  0  0  0  0  0  0  0  0  0  0
   -8.2830   33.4620   20.1570 C   0  0  2  0  0  0  0  0  0  0  0  0
   -7.4060   34.6720   20.3770 C   0  0  0  0  0  0  0  0  0  0  0  0
   -7.0130   35.3410   19.4230 O   0  0  0  0  0  0  0  0  0  0  0  0
   -9.1120   33.6500   18.8840 C   0  0  0  0  0  0  0  0  0  0  0  0
   -9.8250   32.3900   18.4640 C   0  0  0  0  0  0  0  0  0  0  0  0
  -10.1980   32.3850   17.0080 C   0  0  0  0  0  0  0  0  0  0  0  0
  -10.9170   33.3060   16.5690 O   0  0  0  0  0  0  0  0  0  0  0  0
   -9.7740   31.4510   16.3000 O   0  0  0  0  0  0  0  0  0  0  0  0
   -7.0810   34.9500   21.6350 N   0  0  0  0  0  0  0  0  0  0  0  0
   -6.2310   36.0850   21.9370 C   0  0  0  0  0  0  0  0  0  0  0  0
  -15.4597   32.5963   25.9358 H   0  0  0  0  0  0  0  0  0  0  0  0
  -15.3869   33.5596   27.3917 H   0  0  0  0  0  0  0  0  0  0  0  0
  -13.9598   32.7275   26.8224 H   0  0  0  0  0  0  0  0  0  0  0  0
  -13.3976   35.2226   27.2161 H   0  0  0  0  0  0  0  0  0  0  0  0
  -13.9619   36.6934   24.7572 H   0  0  0  0  0  0  0  0  0  0  0  0
  -13.0790   38.6637   26.0021 H   0  0  0  0  0  0  0  0  0  0  0  0
  -12.7909   37.5688   27.3815 H   0  0  0  0  0  0  0  0  0  0  0  0
  -15.1260   37.1925   27.6067 H   0  0  0  0  0  0  0  0  0  0  0  0
  -14.7523   38.9175   27.6943 H   0  0  0  0  0  0  0  0  0  0  0  0
  -11.5905   34.7051   25.8461 H   0  0  0  0  0  0  0  0  0  0  0  0
   -9.6876   36.0357   24.1467 H   0  0  0  0  0  0  0  0  0  0  0  0
   -7.8233   35.2649   25.8156 H   0  0  0  0  0  0  0  0  0  0  0  0
   -9.7977   37.3095   26.7933 H   0  0  0  0  0  0  0  0  0  0  0  0
   -8.5000   37.6054   25.6613 H   0  0  0  0  0  0  0  0  0  0  0  0
   -8.1356   37.1675   27.3131 H   0  0  0  0  0  0  0  0  0  0  0  0
  -10.2334   34.9396   27.5933 H   0  0  0  0  0  0  0  0  0  0  0  0
   -8.5681   34.8329   28.1114 H   0  0  0  0  0  0  0  0  0  0  0  0
   -9.2188   33.6416   27.0112 H   0  0  0  0  0  0  0  0  0  0  0  0
  -11.2573   33.5151   23.7543 H   0  0  0  0  0  0  0  0  0  0  0  0
   -9.3944   31.3847   23.9209 H   0  0  0  0  0  0  0  0  0  0  0  0
  -10.9692   30.3506   22.1631 H   0  0  0  0  0  0  0  0  0  0  0  0
  -11.9472   31.7954   22.4785 H   0  0  0  0  0  0  0  0  0  0  0  0
  -11.9280   31.1667   24.8946 H   0  0  0  0  0  0  0  0  0  0  0  0
  -13.1481   29.2075   22.9909 H   0  0  0  0  0  0  0  0  0  0  0  0
  -13.8383   30.7415   23.4637 H   0  0  0  0  0  0  0  0  0  0  0  0
  -13.6419   29.4702   24.6462 H   0  0  0  0  0  0  0  0  0  0  0  0
  -10.8376   28.5914   23.7956 H   0  0  0  0  0  0  0  0  0  0  0  0
  -11.3623   28.8549   25.4413 H   0  0  0  0  0  0  0  0  0  0  0  0
   -9.9701   29.7092   24.8209 H   0  0  0  0  0  0  0  0  0  0  0  0
   -9.7331   33.9361   21.6376 H   0  0  0  0  0  0  0  0  0  0  0  0
   -7.6676   32.5960   20.0300 H   0  0  0  0  0  0  0  0  0  0  0  0
   -9.8407   34.4136   19.0595 H   0  0  0  0  0  0  0  0  0  0  0  0
   -8.4394   33.9191   18.0965 H   0  0  0  0  0  0  0  0  0  0  0  0
   -9.1834   31.5552   18.6547 H   0  0  0  0  0  0  0  0  0  0  0  0
  -10.7327   32.3324   19.0276 H   0  0  0  0  0  0  0  0  0  0  0  0
   -7.4189   34.3827   22.3653 H   0  0  0  0  0  0  0  0  0  0  0  0
   -5.9621   36.5811   21.0279 H   0  0  0  0  0  0  0  0  0  0  0  0
   -5.3459   35.7457   22.4334 H   0  0  0  0  0  0  0  0  0  0  0  0
   -6.7576   36.7658   22.5726 H   0  0  0  0  0  0  0  0  0  0  0  0
  1 39  1  0  0  0  0
  1 40  1  0  0  0  0
  1 41  1  0  0  0  0
  2  4  1  0  0  0  0
  2  1  1  0  0  0  0
  3  2  2  0  0  0  0
  4 42  1  0  0  0  0
  5  4  1  0  0  0  0
  5  8  1  0  0  0  0
  5 43  1  6  0  0  0
  6 13  1  0  0  0  0
  6  5  1  0  0  0  0
  7  6  2  0  0  0  0
  8  9  1  0  0  0  0
  8 44  1  0  0  0  0
  8 45  1  0  0  0  0
  9 46  1  0  0  0  0
  9 47  1  0  0  0  0
 10  9  1  0  0  0  0
 11 10  2  0  0  0  0
 12 10  1  0  0  0  0
 13 48  1  0  0  0  0
 14 13  1  0  0  0  0
 14 17  1  0  0  0  0
 14 49  1  6  0  0  0
 15 16  2  0  0  0  0
 15 14  1  0  0  0  0
 17 18  1  0  0  0  0
 17 19  1  0  0  0  0
 17 50  1  0  0  0  0
 18 51  1  0  0  0  0
 18 52  1  0  0  0  0
 18 53  1  0  0  0  0
 19 54  1  0  0  0  0
 19 55  1  0  0  0  0
 19 56  1  0  0  0  0
 20 15  1  0  0  0  0
 20 57  1  0  0  0  0
 21 20  1  0  0  0  0
 21 58  1  1  0  0  0
 22 21  1  0  0  0  0
 23 22  2  0  0  0  0
 24 21  1  0  0  0  0
 24 25  1  0  0  0  0
 24 59  1  0  0  0  0
 24 60  1  0  0  0  0
 25 27  1  0  0  0  0
 25 61  1  0  0  0  0
 26 25  1  0  0  0  0
 26 62  1  0  0  0  0
 26 63  1  0  0  0  0
 26 64  1  0  0  0  0
 27 65  1  0  0  0  0
 27 66  1  0  0  0  0
 27 67  1  0  0  0  0
 28 22  1  0  0  0  0
 28 68  1  0  0  0  0
 29 30  1  0  0  0  0
 29 28  1  0  0  0  0
 29 69  1  6  0  0  0
 30 37  1  0  0  0  0
 31 30  2  0  0  0  0
 32 29  1  0  0  0  0
 32 70  1  0  0  0  0
 32 71  1  0  0  0  0
 33 32  1  0  0  0  0
 33 72  1  0  0  0  0
 33 73  1  0  0  0  0
 34 33  1  0  0  0  0
 35 34  1  0  0  0  0
 36 34  2  0  0  0  0
 37 38  1  0  0  0  0
 37 74  1  0  0  0  0
 38 75  1  0  0  0  0
 38 76  1  0  0  0  0
 38 77  1  0  0  0  0
M  CHG  1  12  -1
M  CHG  1  35  -1
M  END
>  <MODEL>
       0

$$$$
selected_4mers/EVLE/579_noH.pdb
 OpenBabel03042518233D

 77 76  0  0  1  0  0  0  0  0999 V2000
   19.6370   21.1200   38.4150 C   0  0  0  0  0  0  0  0  0  0  0  0
   18.5290   21.7540   39.2480 C   0  0  0  0  0  0  0  0  0  0  0  0
   18.6120   21.7790   40.4770 O   0  0  0  0  0  0  0  0  0  0  0  0
   17.5130   22.3040   38.5840 N   0  0  0  0  0  0  0  0  0  0  0  0
   16.3380   22.7970   39.2970 C   0  0  2  0  0  0  0  0  0  0  0  0
   15.0800   22.1710   38.7260 C   0  0  0  0  0  0  0  0  0  0  0  0
   14.9500   22.0310   37.5150 O   0  0  0  0  0  0  0  0  0  0  0  0
   16.2140   24.3110   39.2380 C   0  0  0  0  0  0  0  0  0  0  0  0
   14.9200   24.7950   39.9070 C   0  0  0  0  0  0  0  0  0  0  0  0
   14.7410   26.2970   39.9530 C   0  0  0  0  0  0  0  0  0  0  0  0
   15.2100   27.0010   39.0460 O   0  0  0  0  0  0  0  0  0  0  0  0
   14.0880   26.7630   40.9070 O   0  0  0  0  0  0  0  0  0  0  0  0
   14.1530   21.8280   39.6160 N   0  0  0  0  0  0  0  0  0  0  0  0
   12.8860   21.2240   39.2140 C   0  0  2  0  0  0  0  0  0  0  0  0
   11.8140   22.3000   39.3170 C   0  0  0  0  0  0  0  0  0  0  0  0
   11.6620   22.9240   40.3770 O   0  0  0  0  0  0  0  0  0  0  0  0
   12.4930   20.0430   40.1340 C   0  0  0  0  0  0  0  0  0  0  0  0
   11.1590   19.4880   39.7140 C   0  0  0  0  0  0  0  0  0  0  0  0
   13.5650   18.9350   40.1100 C   0  0  0  0  0  0  0  0  0  0  0  0
   11.0960   22.5330   38.2160 N   0  0  0  0  0  0  0  0  0  0  0  0
    9.9730   23.4750   38.1760 C   0  0  2  0  0  0  0  0  0  0  0  0
    8.6820   22.7660   37.8210 C   0  0  0  0  0  0  0  0  0  0  0  0
    8.6720   21.9240   36.9300 O   0  0  0  0  0  0  0  0  0  0  0  0
   10.2290   24.5420   37.1260 C   0  0  0  0  0  0  0  0  0  0  0  0
   11.3940   25.5130   37.4220 C   0  0  0  0  0  0  0  0  0  0  0  0
   11.5130   26.5840   36.3310 C   0  0  0  0  0  0  0  0  0  0  0  0
   11.2720   26.1330   38.8460 C   0  0  0  0  0  0  0  0  0  0  0  0
    7.5990   23.1470   38.4940 N   0  0  0  0  0  0  0  0  0  0  0  0
    6.2610   22.6560   38.1790 C   0  0  2  0  0  0  0  0  0  0  0  0
    5.6710   23.5720   37.0990 C   0  0  0  0  0  0  0  0  0  0  0  0
    5.5110   24.7770   37.3220 O   0  0  0  0  0  0  0  0  0  0  0  0
    5.3860   22.6760   39.4530 C   0  0  0  0  0  0  0  0  0  0  0  0
    5.8410   21.6930   40.5210 C   0  0  0  0  0  0  0  0  0  0  0  0
    5.2170   21.9340   41.8970 C   0  0  0  0  0  0  0  0  0  0  0  0
    3.9950   22.1670   41.9730 O   0  0  0  0  0  0  0  0  0  0  0  0
    5.9510   21.8730   42.9050 O   0  0  0  0  0  0  0  0  0  0  0  0
    5.3870   23.0150   35.9230 N   0  0  0  0  0  0  0  0  0  0  0  0
    4.8420   23.8020   34.7920 C   0  0  0  0  0  0  0  0  0  0  0  0
   19.3890   21.1932   37.3767 H   0  0  0  0  0  0  0  0  0  0  0  0
   19.7413   20.0899   38.6851 H   0  0  0  0  0  0  0  0  0  0  0  0
   20.5585   21.6319   38.5985 H   0  0  0  0  0  0  0  0  0  0  0  0
   17.5550   22.3787   37.6032 H   0  0  0  0  0  0  0  0  0  0  0  0
   16.4587   22.5182   40.3230 H   0  0  0  0  0  0  0  0  0  0  0  0
   16.2127   24.6203   38.2137 H   0  0  0  0  0  0  0  0  0  0  0  0
   17.0434   24.7369   39.7630 H   0  0  0  0  0  0  0  0  0  0  0  0
   14.9106   24.4296   40.9126 H   0  0  0  0  0  0  0  0  0  0  0  0
   14.1173   24.4186   39.3079 H   0  0  0  0  0  0  0  0  0  0  0  0
   14.3260   21.9858   40.5723 H   0  0  0  0  0  0  0  0  0  0  0  0
   12.9819   20.8443   38.2182 H   0  0  0  0  0  0  0  0  0  0  0  0
   12.4224   20.4090   41.1370 H   0  0  0  0  0  0  0  0  0  0  0  0
   11.2252   19.1208   38.7112 H   0  0  0  0  0  0  0  0  0  0  0  0
   10.4200   20.2603   39.7630 H   0  0  0  0  0  0  0  0  0  0  0  0
   10.8831   18.6883   40.3692 H   0  0  0  0  0  0  0  0  0  0  0  0
   13.6573   18.5495   39.1161 H   0  0  0  0  0  0  0  0  0  0  0  0
   13.2775   18.1462   40.7733 H   0  0  0  0  0  0  0  0  0  0  0  0
   14.5041   19.3405   40.4239 H   0  0  0  0  0  0  0  0  0  0  0  0
   11.3317   22.0493   37.3916 H   0  0  0  0  0  0  0  0  0  0  0  0
    9.8840   23.9158   39.1469 H   0  0  0  0  0  0  0  0  0  0  0  0
   10.4409   24.0477   36.2010 H   0  0  0  0  0  0  0  0  0  0  0  0
    9.3461   25.1461   37.1053 H   0  0  0  0  0  0  0  0  0  0  0  0
   12.3033   24.9491   37.4087 H   0  0  0  0  0  0  0  0  0  0  0  0
   10.6200   27.1730   36.3105 H   0  0  0  0  0  0  0  0  0  0  0  0
   11.6505   26.1115   35.3809 H   0  0  0  0  0  0  0  0  0  0  0  0
   12.3516   27.2147   36.5403 H   0  0  0  0  0  0  0  0  0  0  0  0
   10.3727   26.7095   38.9082 H   0  0  0  0  0  0  0  0  0  0  0  0
   12.1146   26.7653   39.0331 H   0  0  0  0  0  0  0  0  0  0  0  0
   11.2449   25.3500   39.5748 H   0  0  0  0  0  0  0  0  0  0  0  0
    7.7046   23.7865   39.2350 H   0  0  0  0  0  0  0  0  0  0  0  0
    6.2972   21.6483   37.8212 H   0  0  0  0  0  0  0  0  0  0  0  0
    4.3810   22.4339   39.1768 H   0  0  0  0  0  0  0  0  0  0  0  0
    5.4679   23.6563   39.8740 H   0  0  0  0  0  0  0  0  0  0  0  0
    6.9041   21.7682   40.6161 H   0  0  0  0  0  0  0  0  0  0  0  0
    5.5226   20.7222   40.2031 H   0  0  0  0  0  0  0  0  0  0  0  0
    5.5440   22.0507   35.8014 H   0  0  0  0  0  0  0  0  0  0  0  0
    4.7325   24.8242   35.0888 H   0  0  0  0  0  0  0  0  0  0  0  0
    3.8878   23.4081   34.5105 H   0  0  0  0  0  0  0  0  0  0  0  0
    5.5122   23.7420   33.9600 H   0  0  0  0  0  0  0  0  0  0  0  0
  1  2  1  0  0  0  0
  1 39  1  0  0  0  0
  1 40  1  0  0  0  0
  1 41  1  0  0  0  0
  2  3  2  0  0  0  0
  4  2  1  0  0  0  0
  4  5  1  0  0  0  0
  4 42  1  0  0  0  0
  5 43  1  1  0  0  0
  6  5  1  0  0  0  0
  6 13  1  0  0  0  0
  7  6  2  0  0  0  0
  8  5  1  0  0  0  0
  8  9  1  0  0  0  0
  8 44  1  0  0  0  0
  8 45  1  0  0  0  0
  9 10  1  0  0  0  0
  9 46  1  0  0  0  0
  9 47  1  0  0  0  0
 10 12  1  0  0  0  0
 11 10  2  0  0  0  0
 13 48  1  0  0  0  0
 14 15  1  0  0  0  0
 14 13  1  0  0  0  0
 14 17  1  0  0  0  0
 14 49  1  6  0  0  0
 15 16  2  0  0  0  0
 17 50  1  0  0  0  0
 18 17  1  0  0  0  0
 18 51  1  0  0  0  0
 18 52  1  0  0  0  0
 18 53  1  0  0  0  0
 19 17  1  0  0  0  0
 19 54  1  0  0  0  0
 19 55  1  0  0  0  0
 19 56  1  0  0  0  0
 20 15  1  0  0  0  0
 20 57  1  0  0  0  0
 21 20  1  0  0  0  0
 21 58  1  1  0  0  0
 22 21  1  0  0  0  0
 22 28  1  0  0  0  0
 23 22  2  0  0  0  0
 24 25  1  0  0  0  0
 24 21  1  0  0  0  0
 24 59  1  0  0  0  0
 24 60  1  0  0  0  0
 25 27  1  0  0  0  0
 25 61  1  0  0  0  0
 26 25  1  0  0  0  0
 26 62  1  0  0  0  0
 26 63  1  0  0  0  0
 26 64  1  0  0  0  0
 27 65  1  0  0  0  0
 27 66  1  0  0  0  0
 27 67  1  0  0  0  0
 28 68  1  0  0  0  0
 29 28  1  0  0  0  0
 29 32  1  0  0  0  0
 29 69  1  6  0  0  0
 30 31  2  0  0  0  0
 30 29  1  0  0  0  0
 32 33  1  0  0  0  0
 32 70  1  0  0  0  0
 32 71  1  0  0  0  0
 33 34  1  0  0  0  0
 33 72  1  0  0  0  0
 33 73  1  0  0  0  0
 34 35  2  0  0  0  0
 34 36  1  0  0  0  0
 37 30  1  0  0  0  0
 37 74  1  0  0  0  0
 38 37  1  0  0  0  0
 38 75  1  0  0  0  0
 38 76  1  0  0  0  0
 38 77  1  0  0  0  0
M  CHG  1  12  -1
M  CHG  1  36  -1
M  END
>  <MODEL>
       0

$$$$
