selected_4mers/FPAV/540_noH.pdb
 OpenBabel03042518233D

 72 73  0  0  1  0  0  0  0  0999 V2000
   43.4050   29.1860   38.1140 C   0  0  0  0  0  0  0  0  0  0  0  0
   41.8830   29.1990   38.0150 C   0  0  0  0  0  0  0  0  0  0  0  0
   41.2310   28.1540   38.0320 O   0  0  0  0  0  0  0  0  0  0  0  0
   41.3290   30.4030   37.9430 N   0  0  0  0  0  0  0  0  0  0  0  0
   39.8880   30.5940   37.9170 C   0  0  2  0  0  0  0  0  0  0  0  0
   39.1960   30.4430   36.5780 C   0  0  0  0  0  0  0  0  0  0  0  0
   39.8030   30.6370   35.5270 O   0  0  0  0  0  0  0  0  0  0  0  0
   39.5590   31.9680   38.4940 C   0  0  0  0  0  0  0  0  0  0  0  0
   40.0420   32.1570   39.9030 C   0  0  0  0  0  0  0  0  0  0  0  0
   41.3640   32.5100   40.1650 C   0  0  0  0  0  0  0  0  0  0  0  0
   39.1840   31.9350   40.9730 C   0  0  0  0  0  0  0  0  0  0  0  0
   41.8230   32.6380   41.4720 C   0  0  0  0  0  0  0  0  0  0  0  0
   39.6360   32.0600   42.2890 C   0  0  0  0  0  0  0  0  0  0  0  0
   40.9540   32.4100   42.5400 C   0  0  0  0  0  0  0  0  0  0  0  0
   37.9060   30.0780   36.6040 N   0  0  0  0  0  0  0  0  0  0  0  0
   37.1620   29.9190   35.3520 C   0  0  2  0  0  0  0  0  0  0  0  0
   37.1870   31.2520   34.6230 C   0  0  0  0  0  0  0  0  0  0  0  0
   37.1500   32.3070   35.2580 O   0  0  0  0  0  0  0  0  0  0  0  0
   35.7500   29.5760   35.8260 C   0  0  0  0  0  0  0  0  0  0  0  0
   35.9850   28.8610   37.1180 C   0  0  0  0  0  0  0  0  0  0  0  0
   37.0860   29.6770   37.7630 C   0  0  0  0  0  0  0  0  0  0  0  0
   37.2450   31.2070   33.2950 N   0  0  0  0  0  0  0  0  0  0  0  0
   37.2510   32.4320   32.5100 C   0  0  2  0  0  0  0  0  0  0  0  0
   35.8770   33.1050   32.5650 C   0  0  0  0  0  0  0  0  0  0  0  0
   34.8620   32.4530   32.8130 O   0  0  0  0  0  0  0  0  0  0  0  0
   37.6280   32.1180   31.0660 C   0  0  0  0  0  0  0  0  0  0  0  0
   35.8560   34.4150   32.3540 N   0  0  0  0  0  0  0  0  0  0  0  0
   34.6080   35.1720   32.3660 C   0  0  2  0  0  0  0  0  0  0  0  0
   34.4970   35.9090   31.0440 C   0  0  0  0  0  0  0  0  0  0  0  0
   35.4290   36.5900   30.6270 O   0  0  0  0  0  0  0  0  0  0  0  0
   34.5720   36.2010   33.5150 C   0  0  0  0  0  0  0  0  0  0  0  0
   33.3560   37.1070   33.3660 C   0  0  0  0  0  0  0  0  0  0  0  0
   34.5210   35.4800   34.8530 C   0  0  0  0  0  0  0  0  0  0  0  0
   33.3570   35.7650   30.3800 N   0  0  0  0  0  0  0  0  0  0  0  0
   33.1480   36.4280   29.1020 C   0  0  0  0  0  0  0  0  0  0  0  0
   43.7732   30.1901   38.0810 H   0  0  0  0  0  0  0  0  0  0  0  0
   43.8110   28.6302   37.2948 H   0  0  0  0  0  0  0  0  0  0  0  0
   43.6986   28.7286   39.0357 H   0  0  0  0  0  0  0  0  0  0  0  0
   41.9140   31.1939   37.9059 H   0  0  0  0  0  0  0  0  0  0  0  0
   39.5037   29.7871   38.5053 H   0  0  0  0  0  0  0  0  0  0  0  0
   38.4967   32.0957   38.4801 H   0  0  0  0  0  0  0  0  0  0  0  0
   40.0627   32.6924   37.8887 H   0  0  0  0  0  0  0  0  0  0  0  0
   42.0113   32.6788   39.3792 H   0  0  0  0  0  0  0  0  0  0  0  0
   38.2016   31.6748   40.7936 H   0  0  0  0  0  0  0  0  0  0  0  0
   42.8046   32.9012   41.6516 H   0  0  0  0  0  0  0  0  0  0  0  0
   38.9885   31.8917   43.0748 H   0  0  0  0  0  0  0  0  0  0  0  0
   41.2905   32.5014   43.5113 H   0  0  0  0  0  0  0  0  0  0  0  0
   37.5509   29.1779   34.6853 H   0  0  0  0  0  0  0  0  0  0  0  0
   35.2528   28.9419   35.1220 H   0  0  0  0  0  0  0  0  0  0  0  0
   35.1232   30.4367   35.9318 H   0  0  0  0  0  0  0  0  0  0  0  0
   36.3023   27.8534   36.9478 H   0  0  0  0  0  0  0  0  0  0  0  0
   35.1063   28.7847   37.7238 H   0  0  0  0  0  0  0  0  0  0  0  0
   36.6881   30.5314   38.2695 H   0  0  0  0  0  0  0  0  0  0  0  0
   37.6344   29.1400   38.5085 H   0  0  0  0  0  0  0  0  0  0  0  0
   37.2843   30.3357   32.8384 H   0  0  0  0  0  0  0  0  0  0  0  0
   37.9747   33.1047   32.9207 H   0  0  0  0  0  0  0  0  0  0  0  0
   36.9086   31.4453   30.6478 H   0  0  0  0  0  0  0  0  0  0  0  0
   38.5969   31.6648   31.0408 H   0  0  0  0  0  0  0  0  0  0  0  0
   37.6430   33.0236   30.4963 H   0  0  0  0  0  0  0  0  0  0  0  0
   36.7029   34.8879   32.1852 H   0  0  0  0  0  0  0  0  0  0  0  0
   33.7945   34.4921   32.5103 H   0  0  0  0  0  0  0  0  0  0  0  0
   35.4578   36.7999   33.4741 H   0  0  0  0  0  0  0  0  0  0  0  0
   32.4644   36.5167   33.4057 H   0  0  0  0  0  0  0  0  0  0  0  0
   33.4044   37.6173   32.4268 H   0  0  0  0  0  0  0  0  0  0  0  0
   33.3453   37.8232   34.1609 H   0  0  0  0  0  0  0  0  0  0  0  0
   33.6371   34.8788   34.9007 H   0  0  0  0  0  0  0  0  0  0  0  0
   34.5065   36.1990   35.6453 H   0  0  0  0  0  0  0  0  0  0  0  0
   35.3834   34.8549   34.9544 H   0  0  0  0  0  0  0  0  0  0  0  0
   32.6431   35.2019   30.7574 H   0  0  0  0  0  0  0  0  0  0  0  0
   34.0199   36.9932   28.8466 H   0  0  0  0  0  0  0  0  0  0  0  0
   32.3060   37.0843   29.1742 H   0  0  0  0  0  0  0  0  0  0  0  0
   32.9644   35.6941   28.3453 H   0  0  0  0  0  0  0  0  0  0  0  0
  1 36  1  0  0  0  0
  1 37  1  0  0  0  0
  1 38  1  0  0  0  0
  2  3  2  0  0  0  0
  2  1  1  0  0  0  0
  4  2  1  0  0  0  0
  4 39  1  0  0  0  0
  5  4  1  0  0  0  0
  5  8  1  0  0  0  0
  5 40  1  1  0  0  0
  6 15  1  0  0  0  0
  6  5  1  0  0  0  0
  7  6  2  0  0  0  0
  8  9  1  0  0  0  0
  8 41  1  0  0  0  0
  8 42  1  0  0  0  0
  9 10  2  0  0  0  0
  9 11  1  0  0  0  0
 10 12  1  0  0  0  0
 10 43  1  0  0  0  0
 11 13  2  0  0  0  0
 11 44  1  0  0  0  0
 12 14  2  0  0  0  0
 12 45  1  0  0  0  0
 13 14  1  0  0  0  0
 13 46  1  0  0  0  0
 14 47  1  0  0  0  0
 15 21  1  0  0  0  0
 16 19  1  0  0  0  0
 16 15  1  0  0  0  0
 16 48  1  6  0  0  0
 17 18  2  0  0  0  0
 17 16  1  0  0  0  0
 19 20  1  0  0  0  0
 19 49  1  0  0  0  0
 19 50  1  0  0  0  0
 20 21  1  0  0  0  0
 20 51  1  0  0  0  0
 20 52  1  0  0  0  0
 21 53  1  0  0  0  0
 21 54  1  0  0  0  0
 22 17  1  0  0  0  0
 22 55  1  0  0  0  0
 23 24  1  0  0  0  0
 23 22  1  0  0  0  0
 23 56  1  1  0  0  0
 24 25  2  0  0  0  0
 26 23  1  0  0  0  0
 26 57  1  0  0  0  0
 26 58  1  0  0  0  0
 26 59  1  0  0  0  0
 27 28  1  0  0  0  0
 27 24  1  0  0  0  0
 27 60  1  0  0  0  0
 28 31  1  0  0  0  0
 28 61  1  1  0  0  0
 29 28  1  0  0  0  0
 30 29  2  0  0  0  0
 31 33  1  0  0  0  0
 31 62  1  0  0  0  0
 32 31  1  0  0  0  0
 32 63  1  0  0  0  0
 32 64  1  0  0  0  0
 32 65  1  0  0  0  0
 33 66  1  0  0  0  0
 33 67  1  0  0  0  0
 33 68  1  0  0  0  0
 34 29  1  0  0  0  0
 34 69  1  0  0  0  0
 35 34  1  0  0  0  0
 35 70  1  0  0  0  0
 35 71  1  0  0  0  0
 35 72  1  0  0  0  0
M  END
>  <MODEL>
       0

$$$$
selected_4mers/FPAV/541_noH.pdb
 OpenBabel03042518233D

 72 73  0  0  1  0  0  0  0  0999 V2000
   -4.4940   12.0730   43.5100 C   0  0  0  0  0  0  0  0  0  0  0  0
   -5.8190   11.3330   43.3070 C   0  0  0  0  0  0  0  0  0  0  0  0
   -6.0300   10.2750   43.8890 O   0  0  0  0  0  0  0  0  0  0  0  0
   -6.6470   11.8640   42.4210 N   0  0  0  0  0  0  0  0  0  0  0  0
   -7.9470   11.3510   42.0800 C   0  0  2  0  0  0  0  0  0  0  0  0
   -8.0060   11.0940   40.5620 C   0  0  0  0  0  0  0  0  0  0  0  0
   -8.3150   11.9980   39.7790 O   0  0  0  0  0  0  0  0  0  0  0  0
   -9.0500   12.3430   42.4890 C   0  0  0  0  0  0  0  0  0  0  0  0
   -9.1010   12.5890   43.9720 C   0  0  0  0  0  0  0  0  0  0  0  0
   -9.6120   11.6410   44.8370 C   0  0  0  0  0  0  0  0  0  0  0  0
   -8.6000   13.7650   44.5040 C   0  0  0  0  0  0  0  0  0  0  0  0
   -9.6450   11.8830   46.2270 C   0  0  0  0  0  0  0  0  0  0  0  0
   -8.6420   14.0060   45.8860 C   0  0  0  0  0  0  0  0  0  0  0  0
   -9.1520   13.0700   46.7360 C   0  0  0  0  0  0  0  0  0  0  0  0
   -7.7070    9.8610   40.1540 N   0  0  0  0  0  0  0  0  0  0  0  0
   -7.8100    9.5000   38.7310 C   0  0  2  0  0  0  0  0  0  0  0  0
   -9.2520    9.2860   38.3210 C   0  0  0  0  0  0  0  0  0  0  0  0
  -10.1570    9.1630   39.1870 O   0  0  0  0  0  0  0  0  0  0  0  0
   -6.9900    8.1830   38.6440 C   0  0  0  0  0  0  0  0  0  0  0  0
   -6.1910    8.1300   39.9340 C   0  0  0  0  0  0  0  0  0  0  0  0
   -7.1060    8.7770   40.9440 C   0  0  0  0  0  0  0  0  0  0  0  0
   -9.4880    9.1770   37.0190 N   0  0  0  0  0  0  0  0  0  0  0  0
  -10.8190    8.9960   36.4750 C   0  0  2  0  0  0  0  0  0  0  0  0
  -11.8000   10.0700   36.9410 C   0  0  0  0  0  0  0  0  0  0  0  0
  -12.9820    9.7750   37.2010 O   0  0  0  0  0  0  0  0  0  0  0  0
  -11.3520    7.5870   36.7660 C   0  0  0  0  0  0  0  0  0  0  0  0
  -11.3050   11.3040   37.0130 N   0  0  0  0  0  0  0  0  0  0  0  0
  -12.1560   12.4510   37.3190 C   0  0  2  0  0  0  0  0  0  0  0  0
  -11.9970   13.5120   36.2370 C   0  0  0  0  0  0  0  0  0  0  0  0
  -10.9360   14.1060   36.0900 O   0  0  0  0  0  0  0  0  0  0  0  0
  -11.8670   13.0430   38.6970 C   0  0  0  0  0  0  0  0  0  0  0  0
  -12.6680   14.3200   38.9170 C   0  0  0  0  0  0  0  0  0  0  0  0
  -12.0910   12.0150   39.8010 C   0  0  0  0  0  0  0  0  0  0  0  0
  -13.0670   13.7200   35.4790 N   0  0  0  0  0  0  0  0  0  0  0  0
  -13.1290   14.7430   34.4550 C   0  0  0  0  0  0  0  0  0  0  0  0
   -4.4927   12.9690   42.9252 H   0  0  0  0  0  0  0  0  0  0  0  0
   -3.6840   11.4451   43.2024 H   0  0  0  0  0  0  0  0  0  0  0  0
   -4.3793   12.3220   44.5443 H   0  0  0  0  0  0  0  0  0  0  0  0
   -6.3478   12.6787   41.9563 H   0  0  0  0  0  0  0  0  0  0  0  0
   -8.1100   10.4355   42.6093 H   0  0  0  0  0  0  0  0  0  0  0  0
   -9.9948   11.9500   42.1762 H   0  0  0  0  0  0  0  0  0  0  0  0
   -8.8295   13.2779   42.0176 H   0  0  0  0  0  0  0  0  0  0  0  0
   -9.9724   10.7489   44.4639 H   0  0  0  0  0  0  0  0  0  0  0  0
   -8.1902   14.4739   43.8759 H   0  0  0  0  0  0  0  0  0  0  0  0
  -10.0378   11.1728   46.8644 H   0  0  0  0  0  0  0  0  0  0  0  0
   -8.2842   14.8982   46.2615 H   0  0  0  0  0  0  0  0  0  0  0  0
   -9.1699   13.2464   47.7527 H   0  0  0  0  0  0  0  0  0  0  0  0
   -7.4464   10.2626   38.0744 H   0  0  0  0  0  0  0  0  0  0  0  0
   -6.3360    8.2027   37.7974 H   0  0  0  0  0  0  0  0  0  0  0  0
   -7.6191    7.3255   38.5260 H   0  0  0  0  0  0  0  0  0  0  0  0
   -5.2769    8.6782   39.8401 H   0  0  0  0  0  0  0  0  0  0  0  0
   -5.9072    7.1351   40.2070 H   0  0  0  0  0  0  0  0  0  0  0  0
   -6.5564    9.1611   41.7778 H   0  0  0  0  0  0  0  0  0  0  0  0
   -7.8205    8.1063   41.3736 H   0  0  0  0  0  0  0  0  0  0  0  0
   -8.7264    9.2210   36.3967 H   0  0  0  0  0  0  0  0  0  0  0  0
  -10.7322    9.1061   35.4142 H   0  0  0  0  0  0  0  0  0  0  0  0
  -11.4475    7.4531   37.8233 H   0  0  0  0  0  0  0  0  0  0  0  0
  -10.6712    6.8602   36.3745 H   0  0  0  0  0  0  0  0  0  0  0  0
  -12.3090    7.4650   36.3032 H   0  0  0  0  0  0  0  0  0  0  0  0
  -10.3435   11.4465   36.8564 H   0  0  0  0  0  0  0  0  0  0  0  0
  -13.1686   12.1059   37.3391 H   0  0  0  0  0  0  0  0  0  0  0  0
  -10.8320   13.3113   38.7377 H   0  0  0  0  0  0  0  0  0  0  0  0
  -13.7136   14.0953   38.8838 H   0  0  0  0  0  0  0  0  0  0  0  0
  -12.4305   15.0267   38.1495 H   0  0  0  0  0  0  0  0  0  0  0  0
  -12.4225   14.7349   39.8723 H   0  0  0  0  0  0  0  0  0  0  0  0
  -13.1172   11.7119   39.8032 H   0  0  0  0  0  0  0  0  0  0  0  0
  -11.8452   12.4490   40.7477 H   0  0  0  0  0  0  0  0  0  0  0  0
  -11.4678   11.1629   39.6267 H   0  0  0  0  0  0  0  0  0  0  0  0
  -13.8577   13.1507   35.6198 H   0  0  0  0  0  0  0  0  0  0  0  0
  -12.2002   15.2733   34.4239 H   0  0  0  0  0  0  0  0  0  0  0  0
  -13.9219   15.4253   34.6801 H   0  0  0  0  0  0  0  0  0  0  0  0
  -13.3108   14.2859   33.5048 H   0  0  0  0  0  0  0  0  0  0  0  0
  1 36  1  0  0  0  0
  1 37  1  0  0  0  0
  1 38  1  0  0  0  0
  2  1  1  0  0  0  0
  2  3  2  0  0  0  0
  4  2  1  0  0  0  0
  4 39  1  0  0  0  0
  5  4  1  0  0  0  0
  5  8  1  0  0  0  0
  5 40  1  1  0  0  0
  6  5  1  0  0  0  0
  7  6  2  0  0  0  0
  8  9  1  0  0  0  0
  8 41  1  0  0  0  0
  8 42  1  0  0  0  0
  9 11  2  0  0  0  0
  9 10  1  0  0  0  0
 10 12  2  0  0  0  0
 10 43  1  0  0  0  0
 11 13  1  0  0  0  0
 11 44  1  0  0  0  0
 12 14  1  0  0  0  0
 12 45  1  0  0  0  0
 13 14  2  0  0  0  0
 13 46  1  0  0  0  0
 14 47  1  0  0  0  0
 15  6  1  0  0  0  0
 15 21  1  0  0  0  0
 16 15  1  0  0  0  0
 16 48  1  6  0  0  0
 17 16  1  0  0  0  0
 17 18  2  0  0  0  0
 19 16  1  0  0  0  0
 19 20  1  0  0  0  0
 19 49  1  0  0  0  0
 19 50  1  0  0  0  0
 20 21  1  0  0  0  0
 20 51  1  0  0  0  0
 20 52  1  0  0  0  0
 21 53  1  0  0  0  0
 21 54  1  0  0  0  0
 22 17  1  0  0  0  0
 22 55  1  0  0  0  0
 23 26  1  0  0  0  0
 23 24  1  0  0  0  0
 23 22  1  0  0  0  0
 23 56  1  6  0  0  0
 24 27  1  0  0  0  0
 24 25  2  0  0  0  0
 26 57  1  0  0  0  0
 26 58  1  0  0  0  0
 26 59  1  0  0  0  0
 27 28  1  0  0  0  0
 27 60  1  0  0  0  0
 28 31  1  0  0  0  0
 28 61  1  6  0  0  0
 29 28  1  0  0  0  0
 30 29  2  0  0  0  0
 31 32  1  0  0  0  0
 31 33  1  0  0  0  0
 31 62  1  0  0  0  0
 32 63  1  0  0  0  0
 32 64  1  0  0  0  0
 32 65  1  0  0  0  0
 33 66  1  0  0  0  0
 33 67  1  0  0  0  0
 33 68  1  0  0  0  0
 34 29  1  0  0  0  0
 34 69  1  0  0  0  0
 35 34  1  0  0  0  0
 35 70  1  0  0  0  0
 35 71  1  0  0  0  0
 35 72  1  0  0  0  0
M  END
>  <MODEL>
       0

$$$$
selected_4mers/FPAV/542_noH.pdb
 OpenBabel03042518233D

 72 73  0  0  1  0  0  0  0  0999 V2000
   -8.3630   32.3290    9.5150 C   0  0  0  0  0  0  0  0  0  0  0  0
   -8.7060   33.7570    9.8980 C   0  0  0  0  0  0  0  0  0  0  0  0
   -9.2260   34.0350   10.9770 O   0  0  0  0  0  0  0  0  0  0  0  0
   -8.4140   34.6690    8.9760 N   0  0  0  0  0  0  0  0  0  0  0  0
   -8.6990   36.0940    9.1590 C   0  0  2  0  0  0  0  0  0  0  0  0
   -9.4960   36.5660    7.9520 C   0  0  0  0  0  0  0  0  0  0  0  0
   -8.9700   37.1880    7.0420 O   0  0  0  0  0  0  0  0  0  0  0  0
   -7.3870   36.8930    9.3130 C   0  0  0  0  0  0  0  0  0  0  0  0
   -6.6680   36.5880   10.5970 C   0  0  0  0  0  0  0  0  0  0  0  0
   -6.8750   37.3720   11.7340 C   0  0  0  0  0  0  0  0  0  0  0  0
   -5.8080   35.4930   10.6810 C   0  0  0  0  0  0  0  0  0  0  0  0
   -6.2170   37.0840   12.9370 C   0  0  0  0  0  0  0  0  0  0  0  0
   -5.1670   35.1700   11.8810 C   0  0  0  0  0  0  0  0  0  0  0  0
   -5.3690   35.9720   13.0170 C   0  0  0  0  0  0  0  0  0  0  0  0
  -10.7940   36.2290    7.9250 N   0  0  0  0  0  0  0  0  0  0  0  0
  -11.5590   36.4120    6.6890 C   0  0  2  0  0  0  0  0  0  0  0  0
  -11.7900   37.8600    6.2860 C   0  0  0  0  0  0  0  0  0  0  0  0
  -12.1300   38.1250    5.1380 O   0  0  0  0  0  0  0  0  0  0  0  0
  -12.8860   35.6920    6.9790 C   0  0  0  0  0  0  0  0  0  0  0  0
  -12.9760   35.6350    8.5030 C   0  0  0  0  0  0  0  0  0  0  0  0
  -11.5570   35.5640    8.9950 C   0  0  0  0  0  0  0  0  0  0  0  0
  -11.5980   38.7960    7.2090 N   0  0  0  0  0  0  0  0  0  0  0  0
  -11.7900   40.1960    6.8710 C   0  0  2  0  0  0  0  0  0  0  0  0
  -10.6420   40.7690    6.0290 C   0  0  0  0  0  0  0  0  0  0  0  0
  -10.7750   41.8630    5.5030 O   0  0  0  0  0  0  0  0  0  0  0  0
  -12.0160   41.0410    8.1310 C   0  0  0  0  0  0  0  0  0  0  0  0
   -9.5370   40.0260    5.9030 N   0  0  0  0  0  0  0  0  0  0  0  0
   -8.4220   40.4740    5.0640 C   0  0  2  0  0  0  0  0  0  0  0  0
   -8.5840   40.1560    3.5600 C   0  0  0  0  0  0  0  0  0  0  0  0
   -8.6300   41.0870    2.7410 O   0  0  0  0  0  0  0  0  0  0  0  0
   -7.0620   40.0230    5.6190 C   0  0  0  0  0  0  0  0  0  0  0  0
   -5.9670   40.4500    4.6790 C   0  0  0  0  0  0  0  0  0  0  0  0
   -6.8240   40.6710    6.9980 C   0  0  0  0  0  0  0  0  0  0  0  0
   -8.6730   38.8660    3.1770 N   0  0  0  0  0  0  0  0  0  0  0  0
   -8.5780   37.6280    3.9520 C   0  0  0  0  0  0  0  0  0  0  0  0
   -7.9218   32.3173    8.5403 H   0  0  0  0  0  0  0  0  0  0  0  0
   -9.2544   31.7371    9.5101 H   0  0  0  0  0  0  0  0  0  0  0  0
   -7.6710   31.9258   10.2246 H   0  0  0  0  0  0  0  0  0  0  0  0
   -7.9897   34.3752    8.1376 H   0  0  0  0  0  0  0  0  0  0  0  0
   -9.2669   36.2523   10.0519 H   0  0  0  0  0  0  0  0  0  0  0  0
   -7.6179   37.9375    9.2900 H   0  0  0  0  0  0  0  0  0  0  0  0
   -6.7416   36.6119    8.5072 H   0  0  0  0  0  0  0  0  0  0  0  0
   -7.5218   38.1748   11.6875 H   0  0  0  0  0  0  0  0  0  0  0  0
   -5.6422   34.9121    9.8443 H   0  0  0  0  0  0  0  0  0  0  0  0
   -6.3566   37.6891   13.7613 H   0  0  0  0  0  0  0  0  0  0  0  0
   -4.5480   34.3458   11.9321 H   0  0  0  0  0  0  0  0  0  0  0  0
   -4.8954   35.7431   13.9049 H   0  0  0  0  0  0  0  0  0  0  0  0
  -11.0208   36.0201    5.8513 H   0  0  0  0  0  0  0  0  0  0  0  0
  -12.8775   34.7054    6.5650 H   0  0  0  0  0  0  0  0  0  0  0  0
  -13.7227   36.1979    6.5443 H   0  0  0  0  0  0  0  0  0  0  0  0
  -13.5212   34.7677    8.8118 H   0  0  0  0  0  0  0  0  0  0  0  0
  -13.4880   36.4869    8.8993 H   0  0  0  0  0  0  0  0  0  0  0  0
  -11.4469   36.0834    9.9240 H   0  0  0  0  0  0  0  0  0  0  0  0
  -11.2287   34.5632    9.1836 H   0  0  0  0  0  0  0  0  0  0  0  0
  -11.3261   38.5415    8.1203 H   0  0  0  0  0  0  0  0  0  0  0  0
  -12.6700   40.2432    6.2641 H   0  0  0  0  0  0  0  0  0  0  0  0
  -11.1424   41.0025    8.7477 H   0  0  0  0  0  0  0  0  0  0  0  0
  -12.8532   40.6548    8.6740 H   0  0  0  0  0  0  0  0  0  0  0  0
  -12.2100   42.0551    7.8503 H   0  0  0  0  0  0  0  0  0  0  0  0
   -9.4718   39.1672    6.3799 H   0  0  0  0  0  0  0  0  0  0  0  0
   -8.4479   41.5424    5.1162 H   0  0  0  0  0  0  0  0  0  0  0  0
   -7.0586   38.9575    5.7168 H   0  0  0  0  0  0  0  0  0  0  0  0
   -5.9739   41.5158    4.5840 H   0  0  0  0  0  0  0  0  0  0  0  0
   -6.1274   40.0053    3.7191 H   0  0  0  0  0  0  0  0  0  0  0  0
   -5.0211   40.1325    5.0656 H   0  0  0  0  0  0  0  0  0  0  0  0
   -6.8279   41.7362    6.8970 H   0  0  0  0  0  0  0  0  0  0  0  0
   -5.8778   40.3527    7.3831 H   0  0  0  0  0  0  0  0  0  0  0  0
   -7.6011   40.3737    7.6707 H   0  0  0  0  0  0  0  0  0  0  0  0
   -8.8280   38.7349    2.2137 H   0  0  0  0  0  0  0  0  0  0  0  0
   -8.4101   37.8640    4.9821 H   0  0  0  0  0  0  0  0  0  0  0  0
   -7.7645   37.0384    3.5840 H   0  0  0  0  0  0  0  0  0  0  0  0
   -9.4900   37.0765    3.8565 H   0  0  0  0  0  0  0  0  0  0  0  0
  1  2  1  0  0  0  0
  1 36  1  0  0  0  0
  1 37  1  0  0  0  0
  1 38  1  0  0  0  0
  2  3  2  0  0  0  0
  4  5  1  0  0  0  0
  4  2  1  0  0  0  0
  4 39  1  0  0  0  0
  5  8  1  0  0  0  0
  5 40  1  1  0  0  0
  6  5  1  0  0  0  0
  7  6  2  0  0  0  0
  8  9  1  0  0  0  0
  8 41  1  0  0  0  0
  8 42  1  0  0  0  0
  9 11  2  0  0  0  0
  9 10  1  0  0  0  0
 10 12  2  0  0  0  0
 10 43  1  0  0  0  0
 11 13  1  0  0  0  0
 11 44  1  0  0  0  0
 12 14  1  0  0  0  0
 12 45  1  0  0  0  0
 13 14  2  0  0  0  0
 13 46  1  0  0  0  0
 14 47  1  0  0  0  0
 15  6  1  0  0  0  0
 15 21  1  0  0  0  0
 16 19  1  0  0  0  0
 16 15  1  0  0  0  0
 16 48  1  6  0  0  0
 17 16  1  0  0  0  0
 17 22  1  0  0  0  0
 18 17  2  0  0  0  0
 19 20  1  0  0  0  0
 19 49  1  0  0  0  0
 19 50  1  0  0  0  0
 20 21  1  0  0  0  0
 20 51  1  0  0  0  0
 20 52  1  0  0  0  0
 21 53  1  0  0  0  0
 21 54  1  0  0  0  0
 22 55  1  0  0  0  0
 23 22  1  0  0  0  0
 23 26  1  0  0  0  0
 23 56  1  6  0  0  0
 24 23  1  0  0  0  0
 25 24  2  0  0  0  0
 26 57  1  0  0  0  0
 26 58  1  0  0  0  0
 26 59  1  0  0  0  0
 27 24  1  0  0  0  0
 27 60  1  0  0  0  0
 28 31  1  0  0  0  0
 28 27  1  0  0  0  0
 28 61  1  1  0  0  0
 29 28  1  0  0  0  0
 30 29  2  0  0  0  0
 31 33  1  0  0  0  0
 31 62  1  0  0  0  0
 32 31  1  0  0  0  0
 32 63  1  0  0  0  0
 32 64  1  0  0  0  0
 32 65  1  0  0  0  0
 33 66  1  0  0  0  0
 33 67  1  0  0  0  0
 33 68  1  0  0  0  0
 34 29  1  0  0  0  0
 34 35  1  0  0  0  0
 34 69  1  0  0  0  0
 35 70  1  0  0  0  0
 35 71  1  0  0  0  0
 35 72  1  0  0  0  0
M  END
>  <MODEL>
       0

$$$$
selected_4mers/FPAV/543_noH.pdb
 OpenBabel03042518233D

 72 73  0  0  1  0  0  0  0  0999 V2000
   13.1300    7.9830   14.0130 C   0  0  0  0  0  0  0  0  0  0  0  0
   13.1580    9.2600   13.2000 C   0  0  0  0  0  0  0  0  0  0  0  0
   12.7270    9.2540   12.0380 O   0  0  0  0  0  0  0  0  0  0  0  0
   13.7250   10.3240   13.7830 N   0  0  0  0  0  0  0  0  0  0  0  0
   13.7710   11.6480   13.1570 C   0  0  2  0  0  0  0  0  0  0  0  0
   15.2170   12.0950   13.0020 C   0  0  0  0  0  0  0  0  0  0  0  0
   16.0380   11.8390   13.8800 O   0  0  0  0  0  0  0  0  0  0  0  0
   13.1500   12.6960   14.1000 C   0  0  0  0  0  0  0  0  0  0  0  0
   11.6350   12.6550   14.1710 C   0  0  0  0  0  0  0  0  0  0  0  0
   10.8520   13.6190   13.5280 C   0  0  0  0  0  0  0  0  0  0  0  0
   10.9830   11.7090   14.9680 C   0  0  0  0  0  0  0  0  0  0  0  0
    9.4650   13.6360   13.6770 C   0  0  0  0  0  0  0  0  0  0  0  0
    9.6030   11.6940   15.0780 C   0  0  0  0  0  0  0  0  0  0  0  0
    8.8410   12.6750   14.4430 C   0  0  0  0  0  0  0  0  0  0  0  0
   15.4830   12.9020   11.9800 N   0  0  0  0  0  0  0  0  0  0  0  0
   16.7080   13.6980   11.9120 C   0  0  2  0  0  0  0  0  0  0  0  0
   16.4480   15.0590   12.5480 C   0  0  0  0  0  0  0  0  0  0  0  0
   15.2880   15.3940   12.8840 O   0  0  0  0  0  0  0  0  0  0  0  0
   16.9070   13.8670   10.4120 C   0  0  0  0  0  0  0  0  0  0  0  0
   15.4570   14.0280    9.8720 C   0  0  0  0  0  0  0  0  0  0  0  0
   14.6040   13.1450   10.8020 C   0  0  0  0  0  0  0  0  0  0  0  0
   17.4990   15.8910   12.6320 N   0  0  0  0  0  0  0  0  0  0  0  0
   17.3470   17.2550   13.1680 C   0  0  2  0  0  0  0  0  0  0  0  0
   16.8390   18.1700   12.0250 C   0  0  0  0  0  0  0  0  0  0  0  0
   17.6140   18.8620   11.3300 O   0  0  0  0  0  0  0  0  0  0  0  0
   18.6770   17.7400   13.7610 C   0  0  0  0  0  0  0  0  0  0  0  0
   15.5350   18.0900   11.7780 N   0  0  0  0  0  0  0  0  0  0  0  0
   14.8760   18.8330   10.6990 C   0  0  2  0  0  0  0  0  0  0  0  0
   15.2640   20.3100   10.8020 C   0  0  0  0  0  0  0  0  0  0  0  0
   15.2420   20.8910   11.9060 O   0  0  0  0  0  0  0  0  0  0  0  0
   13.3320   18.6720   10.8300 C   0  0  0  0  0  0  0  0  0  0  0  0
   12.5910   19.5650    9.8080 C   0  0  0  0  0  0  0  0  0  0  0  0
   12.9050   17.2080   10.6190 C   0  0  0  0  0  0  0  0  0  0  0  0
   15.6510   20.8970    9.6490 N   0  0  0  0  0  0  0  0  0  0  0  0
   16.0060   22.3160    9.5140 C   0  0  0  0  0  0  0  0  0  0  0  0
   12.6559    7.2094   13.4458 H   0  0  0  0  0  0  0  0  0  0  0  0
   12.5831    8.1481   14.9177 H   0  0  0  0  0  0  0  0  0  0  0  0
   14.1312    7.6890   14.2500 H   0  0  0  0  0  0  0  0  0  0  0  0
   14.1296   10.2114   14.6734 H   0  0  0  0  0  0  0  0  0  0  0  0
   13.2562   11.5777   12.2216 H   0  0  0  0  0  0  0  0  0  0  0  0
   13.4430   13.6674   13.7602 H   0  0  0  0  0  0  0  0  0  0  0  0
   13.5081   12.4727   15.0832 H   0  0  0  0  0  0  0  0  0  0  0  0
   11.3075   14.3292   12.9337 H   0  0  0  0  0  0  0  0  0  0  0  0
   11.5403   11.0097   15.4833 H   0  0  0  0  0  0  0  0  0  0  0  0
    8.9057   14.3688   13.2132 H   0  0  0  0  0  0  0  0  0  0  0  0
    9.1377   10.9566   15.6301 H   0  0  0  0  0  0  0  0  0  0  0  0
    7.8142   12.6811   14.5464 H   0  0  0  0  0  0  0  0  0  0  0  0
   17.5468   13.2588   12.4105 H   0  0  0  0  0  0  0  0  0  0  0  0
   17.4936   14.7362   10.1991 H   0  0  0  0  0  0  0  0  0  0  0  0
   17.4307   13.0479    9.9651 H   0  0  0  0  0  0  0  0  0  0  0  0
   15.3896   13.6880    8.8597 H   0  0  0  0  0  0  0  0  0  0  0  0
   15.1336   15.0480    9.8670 H   0  0  0  0  0  0  0  0  0  0  0  0
   14.3489   12.2234   10.3219 H   0  0  0  0  0  0  0  0  0  0  0  0
   13.6768   13.6070   11.0700 H   0  0  0  0  0  0  0  0  0  0  0  0
   18.3848   15.5847   12.3307 H   0  0  0  0  0  0  0  0  0  0  0  0
   16.6323   17.2765   13.9640 H   0  0  0  0  0  0  0  0  0  0  0  0
   19.4291   17.7367   12.9999 H   0  0  0  0  0  0  0  0  0  0  0  0
   18.9717   17.0879   14.5565 H   0  0  0  0  0  0  0  0  0  0  0  0
   18.5574   18.7335   14.1400 H   0  0  0  0  0  0  0  0  0  0  0  0
   14.9854   17.5038   12.3468 H   0  0  0  0  0  0  0  0  0  0  0  0
   15.1850   18.4524    9.7479 H   0  0  0  0  0  0  0  0  0  0  0  0
   13.0684   18.9756   11.8216 H   0  0  0  0  0  0  0  0  0  0  0  0
   12.8528   19.2636    8.8152 H   0  0  0  0  0  0  0  0  0  0  0  0
   12.8728   20.5865    9.9566 H   0  0  0  0  0  0  0  0  0  0  0  0
   11.5347   19.4628    9.9449 H   0  0  0  0  0  0  0  0  0  0  0  0
   13.1665   16.8994    9.6284 H   0  0  0  0  0  0  0  0  0  0  0  0
   11.8467   17.1225   10.7515 H   0  0  0  0  0  0  0  0  0  0  0  0
   13.4050   16.5846   11.3305 H   0  0  0  0  0  0  0  0  0  0  0  0
   15.6985   20.3345    8.8424 H   0  0  0  0  0  0  0  0  0  0  0  0
   15.9091   22.7998   10.4635 H   0  0  0  0  0  0  0  0  0  0  0  0
   15.3509   22.7819    8.8078 H   0  0  0  0  0  0  0  0  0  0  0  0
   17.0165   22.3999    9.1724 H   0  0  0  0  0  0  0  0  0  0  0  0
  1 36  1  0  0  0  0
  1 37  1  0  0  0  0
  1 38  1  0  0  0  0
  2  4  1  0  0  0  0
  2  1  1  0  0  0  0
  3  2  2  0  0  0  0
  4 39  1  0  0  0  0
  5  4  1  0  0  0  0
  5  8  1  0  0  0  0
  5 40  1  6  0  0  0
  6  5  1  0  0  0  0
  6  7  2  0  0  0  0
  8  9  1  0  0  0  0
  8 41  1  0  0  0  0
  8 42  1  0  0  0  0
  9 11  1  0  0  0  0
 10 12  1  0  0  0  0
 10  9  2  0  0  0  0
 10 43  1  0  0  0  0
 11 13  2  0  0  0  0
 11 44  1  0  0  0  0
 12 14  2  0  0  0  0
 12 45  1  0  0  0  0
 13 46  1  0  0  0  0
 14 13  1  0  0  0  0
 14 47  1  0  0  0  0
 15  6  1  0  0  0  0
 16 15  1  0  0  0  0
 16 17  1  0  0  0  0
 16 48  1  1  0  0  0
 17 22  1  0  0  0  0
 17 18  2  0  0  0  0
 19 16  1  0  0  0  0
 19 49  1  0  0  0  0
 19 50  1  0  0  0  0
 20 19  1  0  0  0  0
 20 21  1  0  0  0  0
 20 51  1  0  0  0  0
 20 52  1  0  0  0  0
 21 15  1  0  0  0  0
 21 53  1  0  0  0  0
 21 54  1  0  0  0  0
 22 23  1  0  0  0  0
 22 55  1  0  0  0  0
 23 26  1  0  0  0  0
 23 56  1  1  0  0  0
 24 23  1  0  0  0  0
 25 24  2  0  0  0  0
 26 57  1  0  0  0  0
 26 58  1  0  0  0  0
 26 59  1  0  0  0  0
 27 24  1  0  0  0  0
 27 60  1  0  0  0  0
 28 29  1  0  0  0  0
 28 31  1  0  0  0  0
 28 27  1  0  0  0  0
 28 61  1  6  0  0  0
 29 30  2  0  0  0  0
 31 62  1  0  0  0  0
 32 31  1  0  0  0  0
 32 63  1  0  0  0  0
 32 64  1  0  0  0  0
 32 65  1  0  0  0  0
 33 31  1  0  0  0  0
 33 66  1  0  0  0  0
 33 67  1  0  0  0  0
 33 68  1  0  0  0  0
 34 29  1  0  0  0  0
 34 69  1  0  0  0  0
 35 34  1  0  0  0  0
 35 70  1  0  0  0  0
 35 71  1  0  0  0  0
 35 72  1  0  0  0  0
M  END
>  <MODEL>
       0

$$$$
selected_4mers/FPAV/544_noH.pdb
 OpenBabel03042518233D

 72 73  0  0  1  0  0  0  0  0999 V2000
  -28.7160   12.9810  -31.3510 C   0  0  0  0  0  0  0  0  0  0  0  0
  -29.6600   11.7880  -31.1090 C   0  0  0  0  0  0  0  0  0  0  0  0
  -29.9240   11.0240  -32.0470 O   0  0  0  0  0  0  0  0  0  0  0  0
  -30.1430   11.6440  -29.8570 N   0  0  0  0  0  0  0  0  0  0  0  0
  -31.1660   10.6060  -29.4580 C   0  0  2  0  0  0  0  0  0  0  0  0
  -30.7270    9.1370  -29.7350 C   0  0  0  0  0  0  0  0  0  0  0  0
  -31.3990    8.4050  -30.4740 O   0  0  0  0  0  0  0  0  0  0  0  0
  -32.5330   10.8530  -30.1190 C   0  0  0  0  0  0  0  0  0  0  0  0
  -33.1710   12.1910  -29.7280 C   0  0  0  0  0  0  0  0  0  0  0  0
  -33.7890   12.3150  -28.4490 C   0  0  0  0  0  0  0  0  0  0  0  0
  -33.1240   13.2940  -30.5810 C   0  0  0  0  0  0  0  0  0  0  0  0
  -34.3860   13.5420  -28.0490 C   0  0  0  0  0  0  0  0  0  0  0  0
  -33.7440   14.5520  -30.1840 C   0  0  0  0  0  0  0  0  0  0  0  0
  -34.3670   14.6380  -28.8940 C   0  0  0  0  0  0  0  0  0  0  0  0
  -29.6280    8.6990  -29.0910 N   0  0  0  0  0  0  0  0  0  0  0  0
  -29.4150    7.2460  -29.0680 C   0  0  2  0  0  0  0  0  0  0  0  0
  -30.5220    6.5670  -28.2270 C   0  0  0  0  0  0  0  0  0  0  0  0
  -31.2260    7.2430  -27.4650 O   0  0  0  0  0  0  0  0  0  0  0  0
  -28.0650    7.0970  -28.3510 C   0  0  0  0  0  0  0  0  0  0  0  0
  -27.9410    8.3640  -27.4860 C   0  0  0  0  0  0  0  0  0  0  0  0
  -28.6080    9.4530  -28.3360 C   0  0  0  0  0  0  0  0  0  0  0  0
  -30.6150    5.2490  -28.3330 N   0  0  0  0  0  0  0  0  0  0  0  0
  -31.6870    4.4610  -27.6610 C   0  0  2  0  0  0  0  0  0  0  0  0
  -31.7640    4.7840  -26.1470 C   0  0  0  0  0  0  0  0  0  0  0  0
  -32.8430    4.8770  -25.5840 O   0  0  0  0  0  0  0  0  0  0  0  0
  -31.4440    3.0010  -27.8770 C   0  0  0  0  0  0  0  0  0  0  0  0
  -30.6120    4.8670  -25.4920 N   0  0  0  0  0  0  0  0  0  0  0  0
  -30.5860    5.0490  -24.0270 C   0  0  2  0  0  0  0  0  0  0  0  0
  -31.3270    6.4020  -23.6500 C   0  0  0  0  0  0  0  0  0  0  0  0
  -32.0880    6.4170  -22.6870 O   0  0  0  0  0  0  0  0  0  0  0  0
  -29.1260    5.0440  -23.4550 C   0  0  0  0  0  0  0  0  0  0  0  0
  -28.3090    6.2610  -23.9710 C   0  0  0  0  0  0  0  0  0  0  0  0
  -29.1310    5.0790  -21.8890 C   0  0  0  0  0  0  0  0  0  0  0  0
  -31.1320    7.4330  -24.4580 N   0  0  0  0  0  0  0  0  0  0  0  0
  -31.7330    8.7650  -24.1670 C   0  0  0  0  0  0  0  0  0  0  0  0
  -28.4032   12.9865  -32.3742 H   0  0  0  0  0  0  0  0  0  0  0  0
  -27.8590   12.8921  -30.7165 H   0  0  0  0  0  0  0  0  0  0  0  0
  -29.2301   13.8931  -31.1303 H   0  0  0  0  0  0  0  0  0  0  0  0
  -29.8078   12.2533  -29.1601 H   0  0  0  0  0  0  0  0  0  0  0  0
  -31.2514   10.7220  -28.3977 H   0  0  0  0  0  0  0  0  0  0  0  0
  -32.4029   10.8378  -31.1810 H   0  0  0  0  0  0  0  0  0  0  0  0
  -33.1904   10.0805  -29.7784 H   0  0  0  0  0  0  0  0  0  0  0  0
  -33.8031   11.5067  -27.8076 H   0  0  0  0  0  0  0  0  0  0  0  0
  -32.6496   13.2191  -31.4944 H   0  0  0  0  0  0  0  0  0  0  0  0
  -34.8361   13.6157  -27.1232 H   0  0  0  0  0  0  0  0  0  0  0  0
  -33.7351   15.3657  -30.8187 H   0  0  0  0  0  0  0  0  0  0  0  0
  -34.8040   15.5235  -28.5942 H   0  0  0  0  0  0  0  0  0  0  0  0
  -29.4331    6.8023  -30.0415 H   0  0  0  0  0  0  0  0  0  0  0  0
  -27.2651    7.0440  -29.0596 H   0  0  0  0  0  0  0  0  0  0  0  0
  -28.0127    6.2015  -27.7677 H   0  0  0  0  0  0  0  0  0  0  0  0
  -26.9140    8.6003  -27.3009 H   0  0  0  0  0  0  0  0  0  0  0  0
  -28.3947    8.2542  -26.5232 H   0  0  0  0  0  0  0  0  0  0  0  0
  -29.0600   10.2010  -27.7187 H   0  0  0  0  0  0  0  0  0  0  0  0
  -27.9208    9.9812  -28.9634 H   0  0  0  0  0  0  0  0  0  0  0  0
  -29.9488    4.7710  -28.8779 H   0  0  0  0  0  0  0  0  0  0  0  0
  -32.6280    4.7314  -28.0925 H   0  0  0  0  0  0  0  0  0  0  0  0
  -30.5033    2.7284  -27.4461 H   0  0  0  0  0  0  0  0  0  0  0  0
  -31.4291    2.7933  -28.9266 H   0  0  0  0  0  0  0  0  0  0  0  0
  -32.2257    2.4368  -27.4128 H   0  0  0  0  0  0  0  0  0  0  0  0
  -29.7646    4.8064  -25.9894 H   0  0  0  0  0  0  0  0  0  0  0  0
  -31.0962    4.2206  -23.5817 H   0  0  0  0  0  0  0  0  0  0  0  0
  -28.6684    4.1382  -23.7943 H   0  0  0  0  0  0  0  0  0  0  0  0
  -28.7662    7.1671  -23.6320 H   0  0  0  0  0  0  0  0  0  0  0  0
  -28.2896    6.2498  -25.0408 H   0  0  0  0  0  0  0  0  0  0  0  0
  -27.3087    6.2041  -23.5955 H   0  0  0  0  0  0  0  0  0  0  0  0
  -29.5892    5.9860  -21.5540 H   0  0  0  0  0  0  0  0  0  0  0  0
  -28.1248    5.0333  -21.5280 H   0  0  0  0  0  0  0  0  0  0  0  0
  -29.6824    4.2416  -21.5153 H   0  0  0  0  0  0  0  0  0  0  0  0
  -30.5802    7.3173  -25.2651 H   0  0  0  0  0  0  0  0  0  0  0  0
  -32.2965    8.7114  -23.2590 H   0  0  0  0  0  0  0  0  0  0  0  0
  -32.3791    9.0482  -24.9715 H   0  0  0  0  0  0  0  0  0  0  0  0
  -30.9550    9.4920  -24.0616 H   0  0  0  0  0  0  0  0  0  0  0  0
  1  2  1  0  0  0  0
  1 36  1  0  0  0  0
  1 37  1  0  0  0  0
  1 38  1  0  0  0  0
  2  4  1  0  0  0  0
  3  2  2  0  0  0  0
  4  5  1  0  0  0  0
  4 39  1  0  0  0  0
  5 40  1  1  0  0  0
  6  5  1  0  0  0  0
  6 15  1  0  0  0  0
  7  6  2  0  0  0  0
  8  9  1  0  0  0  0
  8  5  1  0  0  0  0
  8 41  1  0  0  0  0
  8 42  1  0  0  0  0
  9 10  1  0  0  0  0
 10 12  2  0  0  0  0
 10 43  1  0  0  0  0
 11 13  1  0  0  0  0
 11  9  2  0  0  0  0
 11 44  1  0  0  0  0
 12 45  1  0  0  0  0
 13 14  2  0  0  0  0
 13 46  1  0  0  0  0
 14 12  1  0  0  0  0
 14 47  1  0  0  0  0
 15 16  1  0  0  0  0
 15 21  1  0  0  0  0
 16 19  1  0  0  0  0
 16 17  1  0  0  0  0
 16 48  1  6  0  0  0
 17 18  2  0  0  0  0
 19 20  1  0  0  0  0
 19 49  1  0  0  0  0
 19 50  1  0  0  0  0
 20 51  1  0  0  0  0
 20 52  1  0  0  0  0
 21 20  1  0  0  0  0
 21 53  1  0  0  0  0
 21 54  1  0  0  0  0
 22 17  1  0  0  0  0
 22 23  1  0  0  0  0
 22 55  1  0  0  0  0
 23 24  1  0  0  0  0
 23 56  1  6  0  0  0
 24 25  2  0  0  0  0
 24 27  1  0  0  0  0
 26 23  1  0  0  0  0
 26 57  1  0  0  0  0
 26 58  1  0  0  0  0
 26 59  1  0  0  0  0
 27 28  1  0  0  0  0
 27 60  1  0  0  0  0
 28 29  1  0  0  0  0
 28 31  1  0  0  0  0
 28 61  1  1  0  0  0
 29 30  2  0  0  0  0
 31 33  1  0  0  0  0
 31 62  1  0  0  0  0
 32 31  1  0  0  0  0
 32 63  1  0  0  0  0
 32 64  1  0  0  0  0
 32 65  1  0  0  0  0
 33 66  1  0  0  0  0
 33 67  1  0  0  0  0
 33 68  1  0  0  0  0
 34 35  1  0  0  0  0
 34 29  1  0  0  0  0
 34 69  1  0  0  0  0
 35 70  1  0  0  0  0
 35 71  1  0  0  0  0
 35 72  1  0  0  0  0
M  END
>  <MODEL>
       0

$$$$
