selected_4mers/GAAA/685_noH.pdb
 OpenBabel03042518233D

 49 48  0  0  1  0  0  0  0  0999 V2000
   36.3540    7.0250   40.1830 C   0  0  0  0  0  0  0  0  0  0  0  0
   36.6640    5.5440   40.3380 C   0  0  0  0  0  0  0  0  0  0  0  0
   36.8170    5.0410   41.4540 O   0  0  0  0  0  0  0  0  0  0  0  0
   36.7590    4.8460   39.2080 N   0  0  0  0  0  0  0  0  0  0  0  0
   37.1310    3.4440   39.2210 C   0  0  0  0  0  0  0  0  0  0  0  0
   38.5340    3.2320   39.7360 C   0  0  0  0  0  0  0  0  0  0  0  0
   38.7680    2.3240   40.5280 O   0  0  0  0  0  0  0  0  0  0  0  0
   39.4610    4.0860   39.3240 N   0  0  0  0  0  0  0  0  0  0  0  0
   40.8300    3.9740   39.8000 C   0  0  2  0  0  0  0  0  0  0  0  0
   40.9010    4.1600   41.3210 C   0  0  0  0  0  0  0  0  0  0  0  0
   41.5950    3.4080   42.0110 O   0  0  0  0  0  0  0  0  0  0  0  0
   41.6920    4.9780   39.0910 C   0  0  0  0  0  0  0  0  0  0  0  0
   40.1780    5.1410   41.8540 N   0  0  0  0  0  0  0  0  0  0  0  0
   40.1820    5.4050   43.2810 C   0  0  2  0  0  0  0  0  0  0  0  0
   39.6440    4.2130   44.0700 C   0  0  0  0  0  0  0  0  0  0  0  0
   40.2350    3.8150   45.0690 O   0  0  0  0  0  0  0  0  0  0  0  0
   39.4020    6.6610   43.6020 C   0  0  0  0  0  0  0  0  0  0  0  0
   38.5440    3.6320   43.6020 N   0  0  0  0  0  0  0  0  0  0  0  0
   37.9860    2.4490   44.2420 C   0  0  2  0  0  0  0  0  0  0  0  0
   38.9900    1.3020   44.2220 C   0  0  0  0  0  0  0  0  0  0  0  0
   39.1790    0.6200   45.2250 O   0  0  0  0  0  0  0  0  0  0  0  0
   36.7280    2.0530   43.5760 C   0  0  0  0  0  0  0  0  0  0  0  0
   39.6460    1.0920   43.0870 N   0  0  0  0  0  0  0  0  0  0  0  0
   40.6310    0.0230   43.0190 C   0  0  0  0  0  0  0  0  0  0  0  0
   36.2588    7.2626   39.1441 H   0  0  0  0  0  0  0  0  0  0  0  0
   37.1477    7.6021   40.6096 H   0  0  0  0  0  0  0  0  0  0  0  0
   35.4375    7.2521   40.6863 H   0  0  0  0  0  0  0  0  0  0  0  0
   36.5735    5.2892   38.3487 H   0  0  0  0  0  0  0  0  0  0  0  0
   37.0684    3.0614   38.2237 H   0  0  0  0  0  0  0  0  0  0  0  0
   36.4589    2.9315   39.8771 H   0  0  0  0  0  0  0  0  0  0  0  0
   39.2204    4.8009   38.6913 H   0  0  0  0  0  0  0  0  0  0  0  0
   41.1940    2.9916   39.5826 H   0  0  0  0  0  0  0  0  0  0  0  0
   41.3367    5.9651   39.3015 H   0  0  0  0  0  0  0  0  0  0  0  0
   41.6512    4.8016   38.0364 H   0  0  0  0  0  0  0  0  0  0  0  0
   42.7025    4.8829   39.4297 H   0  0  0  0  0  0  0  0  0  0  0  0
   39.6252    5.7032   41.2645 H   0  0  0  0  0  0  0  0  0  0  0  0
   41.1983    5.5593   43.5782 H   0  0  0  0  0  0  0  0  0  0  0  0
   38.3802    6.5300   43.3128 H   0  0  0  0  0  0  0  0  0  0  0  0
   39.8209    7.4875   43.0670 H   0  0  0  0  0  0  0  0  0  0  0  0
   39.4533    6.8538   44.6532 H   0  0  0  0  0  0  0  0  0  0  0  0
   38.0986    4.0081   42.8086 H   0  0  0  0  0  0  0  0  0  0  0  0
   37.7708    2.6842   45.2634 H   0  0  0  0  0  0  0  0  0  0  0  0
   36.9264    1.8142   42.5520 H   0  0  0  0  0  0  0  0  0  0  0  0
   36.0288    2.8615   43.6247 H   0  0  0  0  0  0  0  0  0  0  0  0
   36.3177    1.1965   44.0690 H   0  0  0  0  0  0  0  0  0  0  0  0
   39.4677    1.6542   42.2987 H   0  0  0  0  0  0  0  0  0  0  0  0
   40.6848   -0.4731   43.9655 H   0  0  0  0  0  0  0  0  0  0  0  0
   41.5884    0.4351   42.7773 H   0  0  0  0  0  0  0  0  0  0  0  0
   40.3440   -0.6790   42.2642 H   0  0  0  0  0  0  0  0  0  0  0  0
  1  2  1  0  0  0  0
  1 25  1  0  0  0  0
  1 26  1  0  0  0  0
  1 27  1  0  0  0  0
  2  3  2  0  0  0  0
  4  5  1  0  0  0  0
  4  2  1  0  0  0  0
  4 28  1  0  0  0  0
  5  6  1  0  0  0  0
  5 29  1  0  0  0  0
  5 30  1  0  0  0  0
  6  7  2  0  0  0  0
  8  6  1  0  0  0  0
  8  9  1  0  0  0  0
  8 31  1  0  0  0  0
  9 10  1  0  0  0  0
  9 32  1  6  0  0  0
 10 13  1  0  0  0  0
 10 11  2  0  0  0  0
 12  9  1  0  0  0  0
 12 33  1  0  0  0  0
 12 34  1  0  0  0  0
 12 35  1  0  0  0  0
 13 14  1  0  0  0  0
 13 36  1  0  0  0  0
 14 17  1  0  0  0  0
 14 15  1  0  0  0  0
 14 37  1  1  0  0  0
 15 16  2  0  0  0  0
 17 38  1  0  0  0  0
 17 39  1  0  0  0  0
 17 40  1  0  0  0  0
 18 15  1  0  0  0  0
 18 19  1  0  0  0  0
 18 41  1  0  0  0  0
 19 42  1  1  0  0  0
 20 19  1  0  0  0  0
 20 21  2  0  0  0  0
 22 19  1  0  0  0  0
 22 43  1  0  0  0  0
 22 44  1  0  0  0  0
 22 45  1  0  0  0  0
 23 20  1  0  0  0  0
 23 46  1  0  0  0  0
 24 23  1  0  0  0  0
 24 47  1  0  0  0  0
 24 48  1  0  0  0  0
 24 49  1  0  0  0  0
M  END
>  <MODEL>
       0

$$$$
selected_4mers/GAAA/686_noH.pdb
 OpenBabel03042518233D

 49 48  0  0  1  0  0  0  0  0999 V2000
  -16.3990   -3.9630  -12.2860 C   0  0  0  0  0  0  0  0  0  0  0  0
  -17.4440   -4.4090  -13.2910 C   0  0  0  0  0  0  0  0  0  0  0  0
  -17.3360   -3.8040  -14.4210 O   0  0  0  0  0  0  0  0  0  0  0  0
  -18.2660   -5.3700  -13.0050 N   0  0  0  0  0  0  0  0  0  0  0  0
  -19.2900   -5.7400  -13.9650 C   0  0  0  0  0  0  0  0  0  0  0  0
  -18.9860   -6.9360  -14.8020 C   0  0  0  0  0  0  0  0  0  0  0  0
  -19.8190   -7.2240  -15.7210 O   0  0  0  0  0  0  0  0  0  0  0  0
  -17.9160   -7.7000  -14.5940 N   0  0  0  0  0  0  0  0  0  0  0  0
  -17.6140   -8.8830  -15.4040 C   0  0  2  0  0  0  0  0  0  0  0  0
  -16.7050   -9.7710  -14.5340 C   0  0  0  0  0  0  0  0  0  0  0  0
  -16.0980   -9.2540  -13.5740 O   0  0  0  0  0  0  0  0  0  0  0  0
  -16.9950   -8.4770  -16.7370 C   0  0  0  0  0  0  0  0  0  0  0  0
  -16.6960  -11.0460  -14.8690 N   0  0  0  0  0  0  0  0  0  0  0  0
  -15.8430  -12.0110  -14.1460 C   0  0  2  0  0  0  0  0  0  0  0  0
  -14.4170  -11.5440  -13.9130 C   0  0  0  0  0  0  0  0  0  0  0  0
  -13.9080  -11.8160  -12.7720 O   0  0  0  0  0  0  0  0  0  0  0  0
  -15.7730  -13.3300  -14.9030 C   0  0  0  0  0  0  0  0  0  0  0  0
  -13.7380  -10.8710  -14.8090 N   0  0  0  0  0  0  0  0  0  0  0  0
  -12.3790  -10.4760  -14.5790 C   0  0  2  0  0  0  0  0  0  0  0  0
  -12.2060   -9.3040  -13.6260 C   0  0  0  0  0  0  0  0  0  0  0  0
  -11.0620   -8.8730  -13.3780 O   0  0  0  0  0  0  0  0  0  0  0  0
  -11.6540  -10.1850  -15.9050 C   0  0  0  0  0  0  0  0  0  0  0  0
  -13.2940   -8.7580  -13.1370 N   0  0  0  0  0  0  0  0  0  0  0  0
  -13.2300   -7.6290  -12.2030 C   0  0  0  0  0  0  0  0  0  0  0  0
  -15.8210   -3.1649  -12.7029 H   0  0  0  0  0  0  0  0  0  0  0  0
  -15.7554   -4.7851  -12.0521 H   0  0  0  0  0  0  0  0  0  0  0  0
  -16.8835   -3.6244  -11.3941 H   0  0  0  0  0  0  0  0  0  0  0  0
  -18.1963   -5.8442  -12.1450 H   0  0  0  0  0  0  0  0  0  0  0  0
  -20.1922   -5.9370  -13.4246 H   0  0  0  0  0  0  0  0  0  0  0  0
  -19.3644   -4.9176  -14.6455 H   0  0  0  0  0  0  0  0  0  0  0  0
  -17.3007   -7.4597  -13.8640 H   0  0  0  0  0  0  0  0  0  0  0  0
  -18.4903   -9.4343  -15.6741 H   0  0  0  0  0  0  0  0  0  0  0  0
  -16.1024   -7.9144  -16.5591 H   0  0  0  0  0  0  0  0  0  0  0  0
  -17.6911   -7.8775  -17.2856 H   0  0  0  0  0  0  0  0  0  0  0  0
  -16.7571   -9.3542  -17.3017 H   0  0  0  0  0  0  0  0  0  0  0  0
  -17.2644  -11.3585  -15.6096 H   0  0  0  0  0  0  0  0  0  0  0  0
  -16.3107  -12.1194  -13.1897 H   0  0  0  0  0  0  0  0  0  0  0  0
  -15.2995  -13.1732  -15.8496 H   0  0  0  0  0  0  0  0  0  0  0  0
  -16.7629  -13.7057  -15.0572 H   0  0  0  0  0  0  0  0  0  0  0  0
  -15.2074  -14.0381  -14.3342 H   0  0  0  0  0  0  0  0  0  0  0  0
  -14.1710  -10.6310  -15.6599 H   0  0  0  0  0  0  0  0  0  0  0  0
  -11.9324  -11.3181  -14.0928 H   0  0  0  0  0  0  0  0  0  0  0  0
  -12.1083   -9.3420  -16.3823 H   0  0  0  0  0  0  0  0  0  0  0  0
  -11.7257  -11.0390  -16.5456 H   0  0  0  0  0  0  0  0  0  0  0  0
  -10.6240   -9.9717  -15.7090 H   0  0  0  0  0  0  0  0  0  0  0  0
  -14.1726   -9.1139  -13.4028 H   0  0  0  0  0  0  0  0  0  0  0  0
  -12.2069   -7.3718  -12.0239 H   0  0  0  0  0  0  0  0  0  0  0  0
  -13.6958   -7.9032  -11.2795 H   0  0  0  0  0  0  0  0  0  0  0  0
  -13.7406   -6.7883  -12.6242 H   0  0  0  0  0  0  0  0  0  0  0  0
  1 25  1  0  0  0  0
  1 26  1  0  0  0  0
  1 27  1  0  0  0  0
  2  4  1  0  0  0  0
  2  1  1  0  0  0  0
  3  2  2  0  0  0  0
  4 28  1  0  0  0  0
  5  4  1  0  0  0  0
  5 29  1  0  0  0  0
  5 30  1  0  0  0  0
  6  8  1  0  0  0  0
  6  5  1  0  0  0  0
  7  6  2  0  0  0  0
  8 31  1  0  0  0  0
  9  8  1  0  0  0  0
  9 10  1  0  0  0  0
  9 32  1  6  0  0  0
 10 11  2  0  0  0  0
 12  9  1  0  0  0  0
 12 33  1  0  0  0  0
 12 34  1  0  0  0  0
 12 35  1  0  0  0  0
 13 10  1  0  0  0  0
 13 14  1  0  0  0  0
 13 36  1  0  0  0  0
 14 15  1  0  0  0  0
 14 37  1  1  0  0  0
 15 16  2  0  0  0  0
 17 14  1  0  0  0  0
 17 38  1  0  0  0  0
 17 39  1  0  0  0  0
 17 40  1  0  0  0  0
 18 19  1  0  0  0  0
 18 15  1  0  0  0  0
 18 41  1  0  0  0  0
 19 20  1  0  0  0  0
 19 42  1  1  0  0  0
 20 21  2  0  0  0  0
 20 23  1  0  0  0  0
 22 19  1  0  0  0  0
 22 43  1  0  0  0  0
 22 44  1  0  0  0  0
 22 45  1  0  0  0  0
 23 24  1  0  0  0  0
 23 46  1  0  0  0  0
 24 47  1  0  0  0  0
 24 48  1  0  0  0  0
 24 49  1  0  0  0  0
M  END
>  <MODEL>
       0

$$$$
selected_4mers/GAAA/687_noH.pdb
 OpenBabel03042518233D

 49 48  0  0  1  0  0  0  0  0999 V2000
   17.7690    5.4810   27.8850 C   0  0  0  0  0  0  0  0  0  0  0  0
   16.8470    4.9980   26.7700 C   0  0  0  0  0  0  0  0  0  0  0  0
   17.2880    4.8070   25.6390 O   0  0  0  0  0  0  0  0  0  0  0  0
   15.5730    4.8010   27.0890 N   0  0  0  0  0  0  0  0  0  0  0  0
   14.5680    4.5340   26.0680 C   0  0  0  0  0  0  0  0  0  0  0  0
   14.2680    5.7840   25.2510 C   0  0  0  0  0  0  0  0  0  0  0  0
   14.6710    6.8960   25.6220 O   0  0  0  0  0  0  0  0  0  0  0  0
   13.5570    5.5970   24.1410 N   0  0  0  0  0  0  0  0  0  0  0  0
   13.2470    6.6860   23.2030 C   0  0  2  0  0  0  0  0  0  0  0  0
   12.5990    7.8920   23.8770 C   0  0  0  0  0  0  0  0  0  0  0  0
   12.9760    9.0370   23.6090 O   0  0  0  0  0  0  0  0  0  0  0  0
   12.3420    6.1770   22.0860 C   0  0  0  0  0  0  0  0  0  0  0  0
   11.6050    7.6260   24.7220 N   0  0  0  0  0  0  0  0  0  0  0  0
   10.8620    8.6740   25.4230 C   0  0  2  0  0  0  0  0  0  0  0  0
   11.7510    9.5140   26.3460 C   0  0  0  0  0  0  0  0  0  0  0  0
   11.6380   10.7330   26.3670 O   0  0  0  0  0  0  0  0  0  0  0  0
    9.6730    8.0750   26.1950 C   0  0  0  0  0  0  0  0  0  0  0  0
   12.6450    8.8710   27.0940 N   0  0  0  0  0  0  0  0  0  0  0  0
   13.5520    9.6110   27.9800 C   0  0  2  0  0  0  0  0  0  0  0  0
   14.5900   10.3950   27.1750 C   0  0  0  0  0  0  0  0  0  0  0  0
   14.9580   11.5130   27.5300 O   0  0  0  0  0  0  0  0  0  0  0  0
   14.2400    8.6680   28.9470 C   0  0  0  0  0  0  0  0  0  0  0  0
   15.0580    9.7990   26.0830 N   0  0  0  0  0  0  0  0  0  0  0  0
   16.1060   10.4040   25.2800 C   0  0  0  0  0  0  0  0  0  0  0  0
   18.7607    5.6001   27.5013 H   0  0  0  0  0  0  0  0  0  0  0  0
   17.7772    4.7622   28.6776 H   0  0  0  0  0  0  0  0  0  0  0  0
   17.4159    6.4195   28.2583 H   0  0  0  0  0  0  0  0  0  0  0  0
   15.3019    4.8361   28.0348 H   0  0  0  0  0  0  0  0  0  0  0  0
   14.9295    3.7680   25.4142 H   0  0  0  0  0  0  0  0  0  0  0  0
   13.6668    4.2215   26.5529 H   0  0  0  0  0  0  0  0  0  0  0  0
   13.2251    4.6922   23.9400 H   0  0  0  0  0  0  0  0  0  0  0  0
   14.1823    7.0152   22.8007 H   0  0  0  0  0  0  0  0  0  0  0  0
   11.4113    5.8514   22.5015 H   0  0  0  0  0  0  0  0  0  0  0  0
   12.8165    5.3574   21.5881 H   0  0  0  0  0  0  0  0  0  0  0  0
   12.1632    6.9651   21.3847 H   0  0  0  0  0  0  0  0  0  0  0  0
   11.3599    6.6860   24.8817 H   0  0  0  0  0  0  0  0  0  0  0  0
   10.4849    9.3403   24.6755 H   0  0  0  0  0  0  0  0  0  0  0  0
   10.0365    7.4059   26.9467 H   0  0  0  0  0  0  0  0  0  0  0  0
    9.0406    7.5405   25.5173 H   0  0  0  0  0  0  0  0  0  0  0  0
    9.1152    8.8622   26.6578 H   0  0  0  0  0  0  0  0  0  0  0  0
   12.6985    7.8888   27.0526 H   0  0  0  0  0  0  0  0  0  0  0  0
   12.9661   10.3097   28.5399 H   0  0  0  0  0  0  0  0  0  0  0  0
   14.8300    7.9633   28.3991 H   0  0  0  0  0  0  0  0  0  0  0  0
   13.5033    8.1462   29.5214 H   0  0  0  0  0  0  0  0  0  0  0  0
   14.8724    9.2288   29.6031 H   0  0  0  0  0  0  0  0  0  0  0  0
   14.6861    8.9285   25.8126 H   0  0  0  0  0  0  0  0  0  0  0  0
   16.3921   11.3396   25.7132 H   0  0  0  0  0  0  0  0  0  0  0  0
   15.7447   10.5668   24.2861 H   0  0  0  0  0  0  0  0  0  0  0  0
   16.9533    9.7514   25.2491 H   0  0  0  0  0  0  0  0  0  0  0  0
  1 25  1  0  0  0  0
  1 26  1  0  0  0  0
  1 27  1  0  0  0  0
  2  4  1  0  0  0  0
  2  1  1  0  0  0  0
  3  2  2  0  0  0  0
  4 28  1  0  0  0  0
  5  4  1  0  0  0  0
  5 29  1  0  0  0  0
  5 30  1  0  0  0  0
  6  7  2  0  0  0  0
  6  5  1  0  0  0  0
  8  6  1  0  0  0  0
  8 31  1  0  0  0  0
  9 10  1  0  0  0  0
  9  8  1  0  0  0  0
  9 32  1  6  0  0  0
 10 13  1  0  0  0  0
 11 10  2  0  0  0  0
 12  9  1  0  0  0  0
 12 33  1  0  0  0  0
 12 34  1  0  0  0  0
 12 35  1  0  0  0  0
 13 14  1  0  0  0  0
 13 36  1  0  0  0  0
 14 17  1  0  0  0  0
 14 15  1  0  0  0  0
 14 37  1  6  0  0  0
 15 16  2  0  0  0  0
 15 18  1  0  0  0  0
 17 38  1  0  0  0  0
 17 39  1  0  0  0  0
 17 40  1  0  0  0  0
 18 19  1  0  0  0  0
 18 41  1  0  0  0  0
 19 22  1  0  0  0  0
 19 42  1  1  0  0  0
 20 21  2  0  0  0  0
 20 19  1  0  0  0  0
 22 43  1  0  0  0  0
 22 44  1  0  0  0  0
 22 45  1  0  0  0  0
 23 20  1  0  0  0  0
 23 46  1  0  0  0  0
 24 23  1  0  0  0  0
 24 47  1  0  0  0  0
 24 48  1  0  0  0  0
 24 49  1  0  0  0  0
M  END
>  <MODEL>
       0

$$$$
selected_4mers/GAAA/688_noH.pdb
 OpenBabel03042518233D

 49 48  0  0  1  0  0  0  0  0999 V2000
   19.6440  -33.9230  109.4940 C   0  0  0  0  0  0  0  0  0  0  0  0
   20.4010  -34.7990  108.5190 C   0  0  0  0  0  0  0  0  0  0  0  0
   21.4970  -35.2890  108.8150 O   0  0  0  0  0  0  0  0  0  0  0  0
   19.8000  -34.9980  107.3530 N   0  0  0  0  0  0  0  0  0  0  0  0
   20.4320  -35.8110  106.3440 C   0  0  0  0  0  0  0  0  0  0  0  0
   19.5320  -36.0520  105.1680 C   0  0  0  0  0  0  0  0  0  0  0  0
   18.3070  -35.9790  105.2750 O   0  0  0  0  0  0  0  0  0  0  0  0
   20.1620  -36.3070  104.0290 N   0  0  0  0  0  0  0  0  0  0  0  0
   19.4440  -36.5980  102.8120 C   0  0  2  0  0  0  0  0  0  0  0  0
   19.9780  -37.8760  102.2230 C   0  0  0  0  0  0  0  0  0  0  0  0
   21.1580  -38.1830  102.3460 O   0  0  0  0  0  0  0  0  0  0  0  0
   19.5750  -35.4740  101.8170 C   0  0  0  0  0  0  0  0  0  0  0  0
   19.0820  -38.6330  101.6100 N   0  0  0  0  0  0  0  0  0  0  0  0
   19.4470  -39.8760  100.9770 C   0  0  2  0  0  0  0  0  0  0  0  0
   18.7060  -39.9510   99.6700 C   0  0  0  0  0  0  0  0  0  0  0  0
   17.5540  -39.5230   99.5700 O   0  0  0  0  0  0  0  0  0  0  0  0
   19.0850  -41.0350  101.8540 C   0  0  0  0  0  0  0  0  0  0  0  0
   19.4060  -40.4160   98.6460 N   0  0  0  0  0  0  0  0  0  0  0  0
   18.8090  -40.5600   97.3440 C   0  0  2  0  0  0  0  0  0  0  0  0
   19.1020  -41.9190   96.7880 C   0  0  0  0  0  0  0  0  0  0  0  0
   20.1730  -42.4650   97.0260 O   0  0  0  0  0  0  0  0  0  0  0  0
   19.3020  -39.4990   96.4060 C   0  0  0  0  0  0  0  0  0  0  0  0
   18.1120  -42.5020   96.1210 N   0  0  0  0  0  0  0  0  0  0  0  0
   18.2840  -43.8120   95.5110 C   0  0  0  0  0  0  0  0  0  0  0  0
   18.7258  -33.6031  109.0474 H   0  0  0  0  0  0  0  0  0  0  0  0
   20.2379  -33.0677  109.7403 H   0  0  0  0  0  0  0  0  0  0  0  0
   19.4332  -34.4790  110.3836 H   0  0  0  0  0  0  0  0  0  0  0  0
   18.9215  -34.5900  107.1766 H   0  0  0  0  0  0  0  0  0  0  0  0
   21.3170  -35.3142  106.0051 H   0  0  0  0  0  0  0  0  0  0  0  0
   20.6628  -36.7595  106.7821 H   0  0  0  0  0  0  0  0  0  0  0  0
   21.1463  -36.2974  104.0137 H   0  0  0  0  0  0  0  0  0  0  0  0
   18.4048  -36.7070  103.0422 H   0  0  0  0  0  0  0  0  0  0  0  0
   20.6061  -35.3389  101.5652 H   0  0  0  0  0  0  0  0  0  0  0  0
   19.1914  -34.5718  102.2456 H   0  0  0  0  0  0  0  0  0  0  0  0
   19.0205  -35.7132  100.9337 H   0  0  0  0  0  0  0  0  0  0  0  0
   18.1424  -38.3400  101.5856 H   0  0  0  0  0  0  0  0  0  0  0  0
   20.5032  -39.9171  100.8105 H   0  0  0  0  0  0  0  0  0  0  0  0
   18.0316  -41.0249  102.0417 H   0  0  0  0  0  0  0  0  0  0  0  0
   19.6133  -40.9592  102.7814 H   0  0  0  0  0  0  0  0  0  0  0  0
   19.3515  -41.9489  101.3654 H   0  0  0  0  0  0  0  0  0  0  0  0
   20.3489  -40.6669   98.7774 H   0  0  0  0  0  0  0  0  0  0  0  0
   17.7501  -40.4472   97.4482 H   0  0  0  0  0  0  0  0  0  0  0  0
   20.3612  -39.5927   96.2865 H   0  0  0  0  0  0  0  0  0  0  0  0
   19.0723  -38.5339   96.8068 H   0  0  0  0  0  0  0  0  0  0  0  0
   18.8243  -39.6133   95.4554 H   0  0  0  0  0  0  0  0  0  0  0  0
   17.2468  -42.0397   96.0379 H   0  0  0  0  0  0  0  0  0  0  0  0
   19.2768  -44.1648   95.6977 H   0  0  0  0  0  0  0  0  0  0  0  0
   18.1245  -43.7377   94.4556 H   0  0  0  0  0  0  0  0  0  0  0  0
   17.5772  -44.4967   95.9312 H   0  0  0  0  0  0  0  0  0  0  0  0
  1 25  1  0  0  0  0
  1 26  1  0  0  0  0
  1 27  1  0  0  0  0
  2  3  2  0  0  0  0
  2  1  1  0  0  0  0
  4  2  1  0  0  0  0
  4 28  1  0  0  0  0
  5  4  1  0  0  0  0
  5 29  1  0  0  0  0
  5 30  1  0  0  0  0
  6  7  2  0  0  0  0
  6  5  1  0  0  0  0
  8  6  1  0  0  0  0
  8 31  1  0  0  0  0
  9  8  1  0  0  0  0
  9 32  1  1  0  0  0
 10 11  2  0  0  0  0
 10  9  1  0  0  0  0
 12  9  1  0  0  0  0
 12 33  1  0  0  0  0
 12 34  1  0  0  0  0
 12 35  1  0  0  0  0
 13 10  1  0  0  0  0
 13 36  1  0  0  0  0
 14 13  1  0  0  0  0
 14 17  1  0  0  0  0
 14 37  1  6  0  0  0
 15 14  1  0  0  0  0
 16 15  2  0  0  0  0
 17 38  1  0  0  0  0
 17 39  1  0  0  0  0
 17 40  1  0  0  0  0
 18 15  1  0  0  0  0
 18 41  1  0  0  0  0
 19 18  1  0  0  0  0
 19 42  1  1  0  0  0
 20 21  2  0  0  0  0
 20 19  1  0  0  0  0
 22 19  1  0  0  0  0
 22 43  1  0  0  0  0
 22 44  1  0  0  0  0
 22 45  1  0  0  0  0
 23 20  1  0  0  0  0
 23 46  1  0  0  0  0
 24 23  1  0  0  0  0
 24 47  1  0  0  0  0
 24 48  1  0  0  0  0
 24 49  1  0  0  0  0
M  END
>  <MODEL>
       0

$$$$
selected_4mers/GAAA/689_noH.pdb
 OpenBabel03042518233D

 49 48  0  0  1  0  0  0  0  0999 V2000
   -1.6190   13.9440   25.9570 C   0  0  0  0  0  0  0  0  0  0  0  0
   -1.3160   13.7220   24.4600 C   0  0  0  0  0  0  0  0  0  0  0  0
   -2.0610   14.1800   23.5680 O   0  0  0  0  0  0  0  0  0  0  0  0
   -0.2200   13.0150   24.1930 N   0  0  0  0  0  0  0  0  0  0  0  0
    0.1930   12.7060   22.8540 C   0  0  0  0  0  0  0  0  0  0  0  0
   -0.8470   11.8210   22.2070 C   0  0  0  0  0  0  0  0  0  0  0  0
   -1.2120   12.0380   21.0630 O   0  0  0  0  0  0  0  0  0  0  0  0
   -1.3450   10.8300   22.9500 N   0  0  0  0  0  0  0  0  0  0  0  0
   -2.3840    9.9380   22.4340 C   0  0  2  0  0  0  0  0  0  0  0  0
   -3.6290   10.7270   22.0270 C   0  0  0  0  0  0  0  0  0  0  0  0
   -4.1250   10.5840   20.8920 O   0  0  0  0  0  0  0  0  0  0  0  0
   -2.7290    8.8450   23.4660 C   0  0  0  0  0  0  0  0  0  0  0  0
   -4.1010   11.5810   22.9390 N   0  0  0  0  0  0  0  0  0  0  0  0
   -5.2620   12.4380   22.6940 C   0  0  2  0  0  0  0  0  0  0  0  0
   -5.0900   13.3100   21.4570 C   0  0  0  0  0  0  0  0  0  0  0  0
   -6.0000   13.3840   20.6270 O   0  0  0  0  0  0  0  0  0  0  0  0
   -5.5820   13.2880   23.9550 C   0  0  0  0  0  0  0  0  0  0  0  0
   -3.9320   13.9650   21.3250 N   0  0  0  0  0  0  0  0  0  0  0  0
   -3.6080   14.7410   20.1190 C   0  0  2  0  0  0  0  0  0  0  0  0
   -3.7820   13.9120   18.8520 C   0  0  0  0  0  0  0  0  0  0  0  0
   -4.3520   14.3730   17.8680 O   0  0  0  0  0  0  0  0  0  0  0  0
   -2.1750   15.3050   20.2000 C   0  0  0  0  0  0  0  0  0  0  0  0
   -3.2630   12.6870   18.8710 N   0  0  0  0  0  0  0  0  0  0  0  0
   -3.4450   11.7620   17.7520 C   0  0  0  0  0  0  0  0  0  0  0  0
   -2.5151   14.5199   26.0579 H   0  0  0  0  0  0  0  0  0  0  0  0
   -0.8048   14.4686   26.4117 H   0  0  0  0  0  0  0  0  0  0  0  0
   -1.7471   12.9974   26.4392 H   0  0  0  0  0  0  0  0  0  0  0  0
    0.3287   12.6915   24.9437 H   0  0  0  0  0  0  0  0  0  0  0  0
    0.2929   13.6111   22.2921 H   0  0  0  0  0  0  0  0  0  0  0  0
    1.1348   12.1986   22.8755 H   0  0  0  0  0  0  0  0  0  0  0  0
   -1.0060   10.6964   23.8646 H   0  0  0  0  0  0  0  0  0  0  0  0
   -2.0040    9.4548   21.5582 H   0  0  0  0  0  0  0  0  0  0  0  0
   -3.1125    9.3016   24.3544 H   0  0  0  0  0  0  0  0  0  0  0  0
   -1.8471    8.2876   23.7036 H   0  0  0  0  0  0  0  0  0  0  0  0
   -3.4668    8.1874   23.0560 H   0  0  0  0  0  0  0  0  0  0  0  0
   -3.6494   11.6364   23.8121 H   0  0  0  0  0  0  0  0  0  0  0  0
   -6.0980   11.8005   22.4950 H   0  0  0  0  0  0  0  0  0  0  0  0
   -4.7555   13.9328   24.1696 H   0  0  0  0  0  0  0  0  0  0  0  0
   -5.7539   12.6392   24.7883 H   0  0  0  0  0  0  0  0  0  0  0  0
   -6.4569   13.8773   23.7753 H   0  0  0  0  0  0  0  0  0  0  0  0
   -3.2759   13.9265   22.0580 H   0  0  0  0  0  0  0  0  0  0  0  0
   -4.2966   15.5585   20.0710 H   0  0  0  0  0  0  0  0  0  0  0  0
   -1.4757   14.4966   20.2486 H   0  0  0  0  0  0  0  0  0  0  0  0
   -2.0797   15.9122   21.0759 H   0  0  0  0  0  0  0  0  0  0  0  0
   -1.9753   15.8976   19.3317 H   0  0  0  0  0  0  0  0  0  0  0  0
   -2.7447   12.3963   19.6559 H   0  0  0  0  0  0  0  0  0  0  0  0
   -4.0278   12.2350   16.9894 H   0  0  0  0  0  0  0  0  0  0  0  0
   -3.9509   10.8834   18.0942 H   0  0  0  0  0  0  0  0  0  0  0  0
   -2.4894   11.4911   17.3541 H   0  0  0  0  0  0  0  0  0  0  0  0
  1 25  1  0  0  0  0
  1 26  1  0  0  0  0
  1 27  1  0  0  0  0
  2  1  1  0  0  0  0
  3  2  2  0  0  0  0
  4  2  1  0  0  0  0
  4 28  1  0  0  0  0
  5  4  1  0  0  0  0
  5 29  1  0  0  0  0
  5 30  1  0  0  0  0
  6  5  1  0  0  0  0
  6  8  1  0  0  0  0
  7  6  2  0  0  0  0
  8 31  1  0  0  0  0
  9  8  1  0  0  0  0
  9 12  1  0  0  0  0
  9 32  1  6  0  0  0
 10  9  1  0  0  0  0
 10 13  1  0  0  0  0
 11 10  2  0  0  0  0
 12 33  1  0  0  0  0
 12 34  1  0  0  0  0
 12 35  1  0  0  0  0
 13 36  1  0  0  0  0
 14 13  1  0  0  0  0
 14 17  1  0  0  0  0
 14 37  1  6  0  0  0
 15 14  1  0  0  0  0
 16 15  2  0  0  0  0
 17 38  1  0  0  0  0
 17 39  1  0  0  0  0
 17 40  1  0  0  0  0
 18 15  1  0  0  0  0
 18 41  1  0  0  0  0
 19 22  1  0  0  0  0
 19 18  1  0  0  0  0
 19 42  1  6  0  0  0
 20 23  1  0  0  0  0
 20 19  1  0  0  0  0
 21 20  2  0  0  0  0
 22 43  1  0  0  0  0
 22 44  1  0  0  0  0
 22 45  1  0  0  0  0
 23 46  1  0  0  0  0
 24 23  1  0  0  0  0
 24 47  1  0  0  0  0
 24 48  1  0  0  0  0
 24 49  1  0  0  0  0
M  END
>  <MODEL>
       0

$$$$
