selected_4mers/GADG/700_noH.pdb
 OpenBabel03042518233D

 48 47  0  0  1  0  0  0  0  0999 V2000
   34.3510   96.2970   48.0890 C   0  0  0  0  0  0  0  0  0  0  0  0
   32.9680   95.7460   47.7910 C   0  0  0  0  0  0  0  0  0  0  0  0
   31.9770   96.4700   47.8850 O   0  0  0  0  0  0  0  0  0  0  0  0
   32.8970   94.4710   47.4210 N   0  0  0  0  0  0  0  0  0  0  0  0
   31.6110   93.8610   47.1340 C   0  0  0  0  0  0  0  0  0  0  0  0
   31.3750   93.4430   45.6950 C   0  0  0  0  0  0  0  0  0  0  0  0
   30.3020   92.9340   45.3700 O   0  0  0  0  0  0  0  0  0  0  0  0
   32.3600   93.6540   44.8280 N   0  0  0  0  0  0  0  0  0  0  0  0
   32.2180   93.2790   43.4240 C   0  0  2  0  0  0  0  0  0  0  0  0
   31.9940   91.7740   43.3030 C   0  0  0  0  0  0  0  0  0  0  0  0
   32.5130   90.9970   44.1030 O   0  0  0  0  0  0  0  0  0  0  0  0
   33.4620   93.6920   42.6440 C   0  0  0  0  0  0  0  0  0  0  0  0
   31.2180   91.3700   42.3030 N   0  0  0  0  0  0  0  0  0  0  0  0
   30.9280   89.9580   42.0820 C   0  0  2  0  0  0  0  0  0  0  0  0
   31.9560   89.3270   41.1550 C   0  0  0  0  0  0  0  0  0  0  0  0
   31.9320   88.1230   40.9100 O   0  0  0  0  0  0  0  0  0  0  0  0
   29.5270   89.8130   41.4920 C   0  0  0  0  0  0  0  0  0  0  0  0
   28.4610   90.3400   42.4250 C   0  0  0  0  0  0  0  0  0  0  0  0
   28.1130   89.6280   43.3920 O   0  0  0  0  0  0  0  0  0  0  0  0
   27.9930   91.4750   42.2070 O   0  5  0  0  0  0  0  0  0  0  0  0
   32.8620   90.1540   40.6480 N   0  0  0  0  0  0  0  0  0  0  0  0
   33.8970   89.6720   39.7560 C   0  0  0  0  0  0  0  0  0  0  0  0
   34.6440   90.8360   39.1510 C   0  0  0  0  0  0  0  0  0  0  0  0
   34.3710   91.9910   39.4710 O   0  0  0  0  0  0  0  0  0  0  0  0
   35.6080   90.5340   38.2910 N   0  0  0  0  0  0  0  0  0  0  0  0
   36.3770   91.5800   37.6320 C   0  0  0  0  0  0  0  0  0  0  0  0
   35.0793   95.5248   47.9539 H   0  0  0  0  0  0  0  0  0  0  0  0
   34.3854   96.6469   49.0996 H   0  0  0  0  0  0  0  0  0  0  0  0
   34.5630   97.1076   47.4235 H   0  0  0  0  0  0  0  0  0  0  0  0
   33.7207   93.9377   47.3412 H   0  0  0  0  0  0  0  0  0  0  0  0
   31.5193   92.9886   47.7467 H   0  0  0  0  0  0  0  0  0  0  0  0
   30.8829   94.6188   47.3355 H   0  0  0  0  0  0  0  0  0  0  0  0
   33.1975   94.0692   45.1369 H   0  0  0  0  0  0  0  0  0  0  0  0
   31.3701   93.7864   43.0135 H   0  0  0  0  0  0  0  0  0  0  0  0
   34.3176   93.1906   43.0457 H   0  0  0  0  0  0  0  0  0  0  0  0
   33.5984   94.7502   42.7244 H   0  0  0  0  0  0  0  0  0  0  0  0
   33.3426   93.4249   41.6148 H   0  0  0  0  0  0  0  0  0  0  0  0
   30.8291   92.0406   41.6961 H   0  0  0  0  0  0  0  0  0  0  0  0
   30.9757   89.4478   43.0213 H   0  0  0  0  0  0  0  0  0  0  0  0
   29.3380   88.7771   41.3019 H   0  0  0  0  0  0  0  0  0  0  0  0
   29.4882   90.3862   40.5893 H   0  0  0  0  0  0  0  0  0  0  0  0
   32.8302   91.1098   40.8817 H   0  0  0  0  0  0  0  0  0  0  0  0
   34.5810   89.0598   40.3057 H   0  0  0  0  0  0  0  0  0  0  0  0
   33.4455   89.1003   38.9723 H   0  0  0  0  0  0  0  0  0  0  0  0
   35.8061   89.5896   38.0957 H   0  0  0  0  0  0  0  0  0  0  0  0
   36.0300   92.5378   37.9594 H   0  0  0  0  0  0  0  0  0  0  0  0
   36.2539   91.4992   36.5722 H   0  0  0  0  0  0  0  0  0  0  0  0
   37.4122   91.4717   37.8801 H   0  0  0  0  0  0  0  0  0  0  0  0
  1 27  1  0  0  0  0
  1 28  1  0  0  0  0
  1 29  1  0  0  0  0
  2  3  2  0  0  0  0
  2  1  1  0  0  0  0
  4  2  1  0  0  0  0
  4 30  1  0  0  0  0
  5  4  1  0  0  0  0
  5 31  1  0  0  0  0
  5 32  1  0  0  0  0
  6  5  1  0  0  0  0
  7  6  2  0  0  0  0
  8  6  1  0  0  0  0
  8 33  1  0  0  0  0
  9  8  1  0  0  0  0
  9 34  1  6  0  0  0
 10  9  1  0  0  0  0
 10 11  2  0  0  0  0
 12  9  1  0  0  0  0
 12 35  1  0  0  0  0
 12 36  1  0  0  0  0
 12 37  1  0  0  0  0
 13 10  1  0  0  0  0
 13 38  1  0  0  0  0
 14 13  1  0  0  0  0
 14 39  1  1  0  0  0
 15 14  1  0  0  0  0
 16 15  2  0  0  0  0
 17 14  1  0  0  0  0
 17 18  1  0  0  0  0
 17 40  1  0  0  0  0
 17 41  1  0  0  0  0
 18 19  1  0  0  0  0
 20 18  2  0  0  0  0
 21 15  1  0  0  0  0
 21 42  1  0  0  0  0
 22 21  1  0  0  0  0
 22 43  1  0  0  0  0
 22 44  1  0  0  0  0
 23 24  2  0  0  0  0
 23 22  1  0  0  0  0
 25 23  1  0  0  0  0
 25 45  1  0  0  0  0
 26 25  1  0  0  0  0
 26 46  1  0  0  0  0
 26 47  1  0  0  0  0
 26 48  1  0  0  0  0
M  CHG  1  19  -1
M  END
>  <MODEL>
       0

$$$$
selected_4mers/GADG/701_noH.pdb
 OpenBabel03042518233D

 48 47  0  0  1  0  0  0  0  0999 V2000
   11.3950   20.4520   22.3370 C   0  0  0  0  0  0  0  0  0  0  0  0
   10.7590   19.7870   21.0940 C   0  0  0  0  0  0  0  0  0  0  0  0
    9.6570   20.1980   20.6810 O   0  0  0  0  0  0  0  0  0  0  0  0
   11.4670   18.7750   20.5180 N   0  0  0  0  0  0  0  0  0  0  0  0
   11.0320   17.9330   19.3670 C   0  0  0  0  0  0  0  0  0  0  0  0
   10.1350   18.4130   18.2190 C   0  0  0  0  0  0  0  0  0  0  0  0
   10.6260   18.5630   17.0880 O   0  0  0  0  0  0  0  0  0  0  0  0
    8.8310   18.5530   18.4400 N   0  0  0  0  0  0  0  0  0  0  0  0
    7.9180   19.0950   17.4130 C   0  0  2  0  0  0  0  0  0  0  0  0
    7.7680   20.6650   17.4200 C   0  0  0  0  0  0  0  0  0  0  0  0
    7.3460   21.3740   16.4160 O   0  0  0  0  0  0  0  0  0  0  0  0
    6.6090   18.4280   17.5500 C   0  0  0  0  0  0  0  0  0  0  0  0
    8.1200   21.2990   18.5320 N   0  0  0  0  0  0  0  0  0  0  0  0
    8.0290   22.7620   18.5320 C   0  0  2  0  0  0  0  0  0  0  0  0
    8.9110   23.4480   17.4690 C   0  0  0  0  0  0  0  0  0  0  0  0
    9.9650   22.9470   17.0620 O   0  0  0  0  0  0  0  0  0  0  0  0
    8.4200   23.3450   19.8850 C   0  0  0  0  0  0  0  0  0  0  0  0
    7.8250   22.5490   21.0710 C   0  0  0  0  0  0  0  0  0  0  0  0
    6.6280   22.1540   21.0810 O   0  0  0  0  0  0  0  0  0  0  0  0
    8.5650   22.3510   22.0530 O   0  0  0  0  0  0  0  0  0  0  0  0
    8.4820   24.5900   16.9750 N   0  5  0  0  0  0  0  0  0  0  0  0
    9.3550   25.1980   15.9990 C   0  0  0  0  0  0  0  0  0  0  0  0
    9.0150   24.8590   14.5530 C   0  0  0  0  0  0  0  0  0  0  0  0
    9.2370   25.7420   13.7200 O   0  0  0  0  0  0  0  0  0  0  0  0
    8.5160   23.6690   14.2040 N   0  0  0  0  0  0  0  0  0  0  0  0
    8.1930   23.5130   12.7560 C   0  0  0  0  0  0  0  0  0  0  0  0
   12.3315   19.9817   22.5532 H   0  0  0  0  0  0  0  0  0  0  0  0
   10.7389   20.3424   23.1751 H   0  0  0  0  0  0  0  0  0  0  0  0
   11.5546   21.4920   22.1427 H   0  0  0  0  0  0  0  0  0  0  0  0
   12.3534   18.5807   20.8997 H   0  0  0  0  0  0  0  0  0  0  0  0
   11.9348   17.5954   18.9024 H   0  0  0  0  0  0  0  0  0  0  0  0
   10.3681   17.2554   19.8620 H   0  0  0  0  0  0  0  0  0  0  0  0
    8.4634   18.2876   19.3139 H   0  0  0  0  0  0  0  0  0  0  0  0
    8.3559   18.8828   16.4601 H   0  0  0  0  0  0  0  0  0  0  0  0
    6.1918   18.6547   18.5089 H   0  0  0  0  0  0  0  0  0  0  0  0
    6.7366   17.3697   17.4577 H   0  0  0  0  0  0  0  0  0  0  0  0
    5.9493   18.7760   16.7828 H   0  0  0  0  0  0  0  0  0  0  0  0
    8.4301   20.8058   19.3257 H   0  0  0  0  0  0  0  0  0  0  0  0
    7.0024   22.9589   18.3033 H   0  0  0  0  0  0  0  0  0  0  0  0
    8.0673   24.3538   19.9382 H   0  0  0  0  0  0  0  0  0  0  0  0
    9.4859   23.2946   19.9635 H   0  0  0  0  0  0  0  0  0  0  0  0
    7.6298   24.9989   17.2503 H   0  0  0  0  0  0  0  0  0  0  0  0
    9.2993   26.2602   16.1157 H   0  0  0  0  0  0  0  0  0  0  0  0
   10.3350   24.8092   16.1816 H   0  0  0  0  0  0  0  0  0  0  0  0
    8.3718   22.9463   14.8568 H   0  0  0  0  0  0  0  0  0  0  0  0
    8.4291   24.4192   12.2383 H   0  0  0  0  0  0  0  0  0  0  0  0
    7.1505   23.2995   12.6441 H   0  0  0  0  0  0  0  0  0  0  0  0
    8.7678   22.7085   12.3470 H   0  0  0  0  0  0  0  0  0  0  0  0
  1 27  1  0  0  0  0
  1 28  1  0  0  0  0
  1 29  1  0  0  0  0
  2  1  1  0  0  0  0
  3  2  2  0  0  0  0
  4  2  1  0  0  0  0
  4 30  1  0  0  0  0
  5  4  1  0  0  0  0
  5 31  1  0  0  0  0
  5 32  1  0  0  0  0
  6  8  1  0  0  0  0
  6  5  1  0  0  0  0
  7  6  2  0  0  0  0
  8 33  1  0  0  0  0
  9 10  1  0  0  0  0
  9 12  1  0  0  0  0
  9  8  1  0  0  0  0
  9 34  1  6  0  0  0
 10 13  1  0  0  0  0
 11 10  2  0  0  0  0
 12 35  1  0  0  0  0
 12 36  1  0  0  0  0
 12 37  1  0  0  0  0
 13 38  1  0  0  0  0
 14 13  1  0  0  0  0
 14 17  1  0  0  0  0
 14 39  1  6  0  0  0
 15 14  1  0  0  0  0
 16 15  2  0  0  0  0
 17 18  1  0  0  0  0
 17 40  1  0  0  0  0
 17 41  1  0  0  0  0
 18 19  2  0  0  0  0
 18 20  1  0  0  0  0
 21 15  1  0  0  0  0
 21 42  1  0  0  0  0
 22 21  1  0  0  0  0
 22 43  1  0  0  0  0
 22 44  1  0  0  0  0
 23 22  1  0  0  0  0
 24 23  2  0  0  0  0
 25 23  1  0  0  0  0
 25 45  1  0  0  0  0
 26 25  1  0  0  0  0
 26 46  1  0  0  0  0
 26 47  1  0  0  0  0
 26 48  1  0  0  0  0
M  CHG  1  20  -1
M  END
>  <MODEL>
       0

$$$$
selected_4mers/GADG/702_noH.pdb
 OpenBabel03042518233D

 48 47  0  0  1  0  0  0  0  0999 V2000
   23.5640   15.4710   17.8540 C   0  0  0  0  0  0  0  0  0  0  0  0
   24.8360   16.2860   17.9680 C   0  0  0  0  0  0  0  0  0  0  0  0
   25.5100   16.2400   18.9910 O   0  0  0  0  0  0  0  0  0  0  0  0
   25.1250   17.0440   16.9150 N   0  0  0  0  0  0  0  0  0  0  0  0
   26.2850   17.9200   16.8780 C   0  0  0  0  0  0  0  0  0  0  0  0
   25.8630   19.3730   16.8350 C   0  0  0  0  0  0  0  0  0  0  0  0
   24.7900   19.7750   17.3060 O   0  0  0  0  0  0  0  0  0  0  0  0
   26.7350   20.1820   16.2420 N   0  0  0  0  0  0  0  0  0  0  0  0
   26.5500   21.6340   16.2220 C   0  0  2  0  0  0  0  0  0  0  0  0
   25.2710   22.0230   15.4850 C   0  0  0  0  0  0  0  0  0  0  0  0
   24.9280   21.4350   14.4650 O   0  0  0  0  0  0  0  0  0  0  0  0
   27.7500   22.3240   15.6010 C   0  0  0  0  0  0  0  0  0  0  0  0
   24.5580   23.0040   16.0250 N   0  0  0  0  0  0  0  0  0  0  0  0
   23.3260   23.5110   15.4240 C   0  0  2  0  0  0  0  0  0  0  0  0
   22.1990   22.4580   15.4810 C   0  0  0  0  0  0  0  0  0  0  0  0
   21.1550   22.6760   14.8990 O   0  0  0  0  0  0  0  0  0  0  0  0
   23.5410   24.0030   13.9630 C   0  0  0  0  0  0  0  0  0  0  0  0
   24.2520   25.3430   13.8750 C   0  0  0  0  0  0  0  0  0  0  0  0
   24.8580   25.6520   12.8180 O   0  0  0  0  0  0  0  0  0  0  0  0
   24.2140   26.1590   14.8010 O   0  0  0  0  0  0  0  0  0  0  0  0
   22.3810   21.3500   16.2120 N   0  5  0  0  0  0  0  0  0  0  0  0
   21.3890   20.2750   16.2320 C   0  0  0  0  0  0  0  0  0  0  0  0
   21.5310   19.2800   15.0960 C   0  0  0  0  0  0  0  0  0  0  0  0
   20.7280   18.3510   15.0070 O   0  0  0  0  0  0  0  0  0  0  0  0
   22.5520   19.4250   14.2480 N   0  0  0  0  0  0  0  0  0  0  0  0
   22.7210   18.5600   13.0890 C   0  0  0  0  0  0  0  0  0  0  0  0
   23.1168   15.6398   16.8967 H   0  0  0  0  0  0  0  0  0  0  0  0
   22.8814   15.7657   18.6235 H   0  0  0  0  0  0  0  0  0  0  0  0
   23.7954   14.4318   17.9613 H   0  0  0  0  0  0  0  0  0  0  0  0
   24.5312   17.0111   16.1304 H   0  0  0  0  0  0  0  0  0  0  0  0
   26.8781   17.7531   17.7528 H   0  0  0  0  0  0  0  0  0  0  0  0
   26.8504   17.7018   15.9961 H   0  0  0  0  0  0  0  0  0  0  0  0
   27.5269   19.7941   15.8043 H   0  0  0  0  0  0  0  0  0  0  0  0
   26.4582   21.9601   17.2369 H   0  0  0  0  0  0  0  0  0  0  0  0
   27.8562   22.0083   14.5842 H   0  0  0  0  0  0  0  0  0  0  0  0
   28.6325   22.0663   16.1485 H   0  0  0  0  0  0  0  0  0  0  0  0
   27.6076   23.3840   15.6324 H   0  0  0  0  0  0  0  0  0  0  0  0
   24.8726   23.4072   16.8663 H   0  0  0  0  0  0  0  0  0  0  0  0
   23.0281   24.3577   16.0064 H   0  0  0  0  0  0  0  0  0  0  0  0
   24.1261   23.2739   13.4424 H   0  0  0  0  0  0  0  0  0  0  0  0
   22.5721   24.1307   13.5273 H   0  0  0  0  0  0  0  0  0  0  0  0
   23.2014   21.2571   16.7482 H   0  0  0  0  0  0  0  0  0  0  0  0
   21.4861   19.7454   17.1567 H   0  0  0  0  0  0  0  0  0  0  0  0
   20.4307   20.7374   16.1192 H   0  0  0  0  0  0  0  0  0  0  0  0
   23.2105   20.1384   14.4113 H   0  0  0  0  0  0  0  0  0  0  0  0
   21.9259   17.8446   13.0590 H   0  0  0  0  0  0  0  0  0  0  0  0
   23.6584   18.0488   13.1591 H   0  0  0  0  0  0  0  0  0  0  0  0
   22.7029   19.1510   12.1972 H   0  0  0  0  0  0  0  0  0  0  0  0
  1  2  1  0  0  0  0
  1 27  1  0  0  0  0
  1 28  1  0  0  0  0
  1 29  1  0  0  0  0
  2  3  2  0  0  0  0
  4  2  1  0  0  0  0
  4 30  1  0  0  0  0
  5  4  1  0  0  0  0
  5 31  1  0  0  0  0
  5 32  1  0  0  0  0
  6  5  1  0  0  0  0
  6  7  2  0  0  0  0
  8  6  1  0  0  0  0
  8 33  1  0  0  0  0
  9  8  1  0  0  0  0
  9 34  1  1  0  0  0
 10 13  1  0  0  0  0
 10  9  1  0  0  0  0
 11 10  2  0  0  0  0
 12  9  1  0  0  0  0
 12 35  1  0  0  0  0
 12 36  1  0  0  0  0
 12 37  1  0  0  0  0
 13 38  1  0  0  0  0
 14 15  1  0  0  0  0
 14 13  1  0  0  0  0
 14 39  1  1  0  0  0
 15 21  1  0  0  0  0
 16 15  2  0  0  0  0
 17 14  1  0  0  0  0
 17 40  1  0  0  0  0
 17 41  1  0  0  0  0
 18 17  1  0  0  0  0
 18 20  1  0  0  0  0
 19 18  2  0  0  0  0
 21 22  1  0  0  0  0
 21 42  1  0  0  0  0
 22 43  1  0  0  0  0
 22 44  1  0  0  0  0
 23 22  1  0  0  0  0
 24 23  2  0  0  0  0
 25 23  1  0  0  0  0
 25 45  1  0  0  0  0
 26 25  1  0  0  0  0
 26 46  1  0  0  0  0
 26 47  1  0  0  0  0
 26 48  1  0  0  0  0
M  CHG  1  20  -1
M  END
>  <MODEL>
       0

$$$$
selected_4mers/GADG/703_noH.pdb
 OpenBabel03042518233D

 48 47  0  0  1  0  0  0  0  0999 V2000
    8.1770   35.9760    4.1470 C   0  0  0  0  0  0  0  0  0  0  0  0
    7.7210   36.4260    5.5100 C   0  0  0  0  0  0  0  0  0  0  0  0
    7.2880   37.5560    5.6880 O   0  0  0  0  0  0  0  0  0  0  0  0
    7.8480   35.5380    6.4850 N   0  0  0  0  0  0  0  0  0  0  0  0
    7.4840   35.8600    7.8450 C   0  0  0  0  0  0  0  0  0  0  0  0
    8.2470   34.9460    8.7780 C   0  0  0  0  0  0  0  0  0  0  0  0
    8.9560   34.0410    8.3460 O   0  0  0  0  0  0  0  0  0  0  0  0
    8.1050   35.1690   10.0730 N   0  0  0  0  0  0  0  0  0  0  0  0
    8.7990   34.3420   11.0530 C   0  0  2  0  0  0  0  0  0  0  0  0
    8.1190   34.4950   12.4110 C   0  0  0  0  0  0  0  0  0  0  0  0
    7.4640   35.5100   12.6480 O   0  0  0  0  0  0  0  0  0  0  0  0
   10.2640   34.7430   11.1540 C   0  0  0  0  0  0  0  0  0  0  0  0
    8.2650   33.5290   13.3240 N   0  0  0  0  0  0  0  0  0  0  0  0
    9.0070   32.2670   13.1410 C   0  0  2  0  0  0  0  0  0  0  0  0
    8.0440   31.1360   12.8070 C   0  0  0  0  0  0  0  0  0  0  0  0
    8.3350   30.2180   12.0410 O   0  0  0  0  0  0  0  0  0  0  0  0
    9.6760   31.8280   14.4540 C   0  0  0  0  0  0  0  0  0  0  0  0
   10.8900   32.6520   14.8500 C   0  0  0  0  0  0  0  0  0  0  0  0
   11.1690   33.7120   14.2610 O   0  0  0  0  0  0  0  0  0  0  0  0
   11.6330   32.2840   15.7900 O   0  0  0  0  0  0  0  0  0  0  0  0
    6.8990   31.1800   13.4700 N   0  5  0  0  0  0  0  0  0  0  0  0
    5.9100   30.1390   13.3940 C   0  0  0  0  0  0  0  0  0  0  0  0
    5.4340   29.7470   14.7710 C   0  0  0  0  0  0  0  0  0  0  0  0
    5.6370   30.4600   15.7540 O   0  0  0  0  0  0  0  0  0  0  0  0
    4.7420   28.6200   14.8080 N   0  0  0  0  0  0  0  0  0  0  0  0
    4.1570   28.1680   16.0430 C   0  0  0  0  0  0  0  0  0  0  0  0
    8.0292   36.7674    3.4422 H   0  0  0  0  0  0  0  0  0  0  0  0
    7.6102   35.1198    3.8460 H   0  0  0  0  0  0  0  0  0  0  0  0
    9.2155   35.7211    4.1845 H   0  0  0  0  0  0  0  0  0  0  0  0
    8.1973   34.6411    6.2784 H   0  0  0  0  0  0  0  0  0  0  0  0
    6.4323   35.7167    7.9803 H   0  0  0  0  0  0  0  0  0  0  0  0
    7.7246   36.8811    8.0558 H   0  0  0  0  0  0  0  0  0  0  0  0
    7.5238   35.9021   10.3795 H   0  0  0  0  0  0  0  0  0  0  0  0
    8.7540   33.3194   10.7411 H   0  0  0  0  0  0  0  0  0  0  0  0
   10.3336   35.7644   11.4651 H   0  0  0  0  0  0  0  0  0  0  0  0
   10.7318   34.6286   10.1985 H   0  0  0  0  0  0  0  0  0  0  0  0
   10.7564   34.1179   11.8693 H   0  0  0  0  0  0  0  0  0  0  0  0
    7.8379   33.6732   14.1992 H   0  0  0  0  0  0  0  0  0  0  0  0
    9.7228   32.4438   12.3656 H   0  0  0  0  0  0  0  0  0  0  0  0
    9.9843   30.8089   14.3474 H   0  0  0  0  0  0  0  0  0  0  0  0
    8.9491   31.9670   15.2268 H   0  0  0  0  0  0  0  0  0  0  0  0
    6.7163   31.9609   14.0410 H   0  0  0  0  0  0  0  0  0  0  0  0
    6.3380   29.2835   12.9146 H   0  0  0  0  0  0  0  0  0  0  0  0
    5.0738   30.5021   12.8338 H   0  0  0  0  0  0  0  0  0  0  0  0
    4.6267   28.0883   13.9875 H   0  0  0  0  0  0  0  0  0  0  0  0
    4.3837   28.8661   16.8216 H   0  0  0  0  0  0  0  0  0  0  0  0
    4.5567   27.2085   16.2968 H   0  0  0  0  0  0  0  0  0  0  0  0
    3.0957   28.0934   15.9287 H   0  0  0  0  0  0  0  0  0  0  0  0
  1  2  1  0  0  0  0
  1 27  1  0  0  0  0
  1 28  1  0  0  0  0
  1 29  1  0  0  0  0
  2  3  2  0  0  0  0
  2  4  1  0  0  0  0
  4  5  1  0  0  0  0
  4 30  1  0  0  0  0
  5  6  1  0  0  0  0
  5 31  1  0  0  0  0
  5 32  1  0  0  0  0
  6  8  1  0  0  0  0
  7  6  2  0  0  0  0
  8  9  1  0  0  0  0
  8 33  1  0  0  0  0
  9 12  1  0  0  0  0
  9 10  1  0  0  0  0
  9 34  1  6  0  0  0
 10 11  2  0  0  0  0
 10 13  1  0  0  0  0
 12 35  1  0  0  0  0
 12 36  1  0  0  0  0
 12 37  1  0  0  0  0
 13 38  1  0  0  0  0
 14 13  1  0  0  0  0
 14 17  1  0  0  0  0
 14 39  1  6  0  0  0
 15 14  1  0  0  0  0
 15 21  1  0  0  0  0
 16 15  2  0  0  0  0
 17 18  1  0  0  0  0
 17 40  1  0  0  0  0
 17 41  1  0  0  0  0
 18 20  1  0  0  0  0
 19 18  2  0  0  0  0
 21 42  1  0  0  0  0
 22 21  1  0  0  0  0
 22 23  1  0  0  0  0
 22 43  1  0  0  0  0
 22 44  1  0  0  0  0
 23 25  1  0  0  0  0
 23 24  2  0  0  0  0
 25 26  1  0  0  0  0
 25 45  1  0  0  0  0
 26 46  1  0  0  0  0
 26 47  1  0  0  0  0
 26 48  1  0  0  0  0
M  CHG  1  20  -1
M  END
>  <MODEL>
       0

$$$$
selected_4mers/GADG/704_noH.pdb
 OpenBabel03042518233D

 48 47  0  0  1  0  0  0  0  0999 V2000
   16.1360   56.9090   41.3270 C   0  0  0  0  0  0  0  0  0  0  0  0
   16.7560   56.4070   40.0420 C   0  0  0  0  0  0  0  0  0  0  0  0
   16.5270   55.2610   39.6520 O   0  0  0  0  0  0  0  0  0  0  0  0
   17.5800   57.2440   39.4180 N   0  0  0  0  0  0  0  0  0  0  0  0
   18.2030   56.8730   38.1580 C   0  0  0  0  0  0  0  0  0  0  0  0
   19.2500   55.7750   38.1870 C   0  0  0  0  0  0  0  0  0  0  0  0
   19.5710   55.2070   37.1380 O   0  0  0  0  0  0  0  0  0  0  0  0
   19.7840   55.4760   39.3710 N   0  0  0  0  0  0  0  0  0  0  0  0
   20.8090   54.4440   39.5490 C   0  0  2  0  0  0  0  0  0  0  0  0
   21.8010   54.3900   38.3870 C   0  0  0  0  0  0  0  0  0  0  0  0
   22.4380   55.4010   38.0760 O   0  0  0  0  0  0  0  0  0  0  0  0
   20.1480   53.0830   39.7660 C   0  0  0  0  0  0  0  0  0  0  0  0
   21.9540   53.2330   37.7460 N   0  0  0  0  0  0  0  0  0  0  0  0
   22.8790   53.1490   36.6170 C   0  0  2  0  0  0  0  0  0  0  0  0
   22.1610   53.0500   35.2670 C   0  0  0  0  0  0  0  0  0  0  0  0
   22.6180   52.3700   34.3450 O   0  0  0  0  0  0  0  0  0  0  0  0
   23.8610   51.9860   36.7670 C   0  0  0  0  0  0  0  0  0  0  0  0
   25.0780   52.1560   35.8840 C   0  0  0  0  0  0  0  0  0  0  0  0
   25.7110   51.1570   35.5050 O   0  0  0  0  0  0  0  0  0  0  0  0
   25.4100   53.3140   35.5680 O   0  0  0  0  0  0  0  0  0  0  0  0
   21.0120   53.7070   35.1800 N   0  5  0  0  0  0  0  0  0  0  0  0
   20.2780   53.7530   33.9260 C   0  0  0  0  0  0  0  0  0  0  0  0
   19.9370   52.4610   33.2170 C   0  0  0  0  0  0  0  0  0  0  0  0
   19.5270   51.4840   33.8390 O   0  0  0  0  0  0  0  0  0  0  0  0
   20.1010   52.4680   31.8980 N   0  0  0  0  0  0  0  0  0  0  0  0
   19.7660   51.3180   31.0620 C   0  0  0  0  0  0  0  0  0  0  0  0
   16.4462   57.9179   41.5023 H   0  0  0  0  0  0  0  0  0  0  0  0
   16.4535   56.2916   42.1412 H   0  0  0  0  0  0  0  0  0  0  0  0
   15.0697   56.8726   41.2465 H   0  0  0  0  0  0  0  0  0  0  0  0
   17.7702   58.1250   39.8140 H   0  0  0  0  0  0  0  0  0  0  0  0
   17.4238   56.5546   37.4974 H   0  0  0  0  0  0  0  0  0  0  0  0
   18.7365   57.7483   37.8512 H   0  0  0  0  0  0  0  0  0  0  0  0
   19.4752   55.9719   40.1634 H   0  0  0  0  0  0  0  0  0  0  0  0
   21.3766   54.7042   40.4179 H   0  0  0  0  0  0  0  0  0  0  0  0
   19.5796   52.8202   38.8984 H   0  0  0  0  0  0  0  0  0  0  0  0
   19.4995   53.1329   40.6156 H   0  0  0  0  0  0  0  0  0  0  0  0
   20.9022   52.3432   39.9359 H   0  0  0  0  0  0  0  0  0  0  0  0
   21.4471   52.4385   38.0307 H   0  0  0  0  0  0  0  0  0  0  0  0
   23.4284   54.0671   36.6298 H   0  0  0  0  0  0  0  0  0  0  0  0
   24.1790   51.9315   37.7872 H   0  0  0  0  0  0  0  0  0  0  0  0
   23.3593   51.0887   36.4702 H   0  0  0  0  0  0  0  0  0  0  0  0
   20.6528   54.1679   35.9723 H   0  0  0  0  0  0  0  0  0  0  0  0
   19.3531   54.2531   34.1245 H   0  0  0  0  0  0  0  0  0  0  0  0
   20.9557   54.2378   33.2547 H   0  0  0  0  0  0  0  0  0  0  0  0
   20.4613   53.2776   31.4690 H   0  0  0  0  0  0  0  0  0  0  0  0
   19.3901   50.5273   31.6771 H   0  0  0  0  0  0  0  0  0  0  0  0
   20.6426   50.9837   30.5475 H   0  0  0  0  0  0  0  0  0  0  0  0
   19.0199   51.6006   30.3490 H   0  0  0  0  0  0  0  0  0  0  0  0
  1 27  1  0  0  0  0
  1 28  1  0  0  0  0
  1 29  1  0  0  0  0
  2  1  1  0  0  0  0
  3  2  2  0  0  0  0
  4  2  1  0  0  0  0
  4 30  1  0  0  0  0
  5  6  1  0  0  0  0
  5  4  1  0  0  0  0
  5 31  1  0  0  0  0
  5 32  1  0  0  0  0
  6  8  1  0  0  0  0
  7  6  2  0  0  0  0
  8  9  1  0  0  0  0
  8 33  1  0  0  0  0
  9 12  1  0  0  0  0
  9 34  1  1  0  0  0
 10  9  1  0  0  0  0
 11 10  2  0  0  0  0
 12 35  1  0  0  0  0
 12 36  1  0  0  0  0
 12 37  1  0  0  0  0
 13 10  1  0  0  0  0
 13 38  1  0  0  0  0
 14 17  1  0  0  0  0
 14 13  1  0  0  0  0
 14 39  1  6  0  0  0
 15 14  1  0  0  0  0
 16 15  2  0  0  0  0
 17 40  1  0  0  0  0
 17 41  1  0  0  0  0
 18 17  1  0  0  0  0
 19 18  2  0  0  0  0
 20 18  1  0  0  0  0
 21 15  1  0  0  0  0
 21 42  1  0  0  0  0
 22 21  1  0  0  0  0
 22 43  1  0  0  0  0
 22 44  1  0  0  0  0
 23 24  2  0  0  0  0
 23 22  1  0  0  0  0
 25 23  1  0  0  0  0
 25 45  1  0  0  0  0
 26 25  1  0  0  0  0
 26 46  1  0  0  0  0
 26 47  1  0  0  0  0
 26 48  1  0  0  0  0
M  CHG  1  20  -1
M  END
>  <MODEL>
       0

$$$$
