selected_4mers/GAEL/695_noH.pdb
 OpenBabel03042518233D

 63 62  0  0  1  0  0  0  0  0999 V2000
   78.6520  -14.5230  -22.8510 C   0  0  0  0  0  0  0  0  0  0  0  0
   80.0640  -15.0160  -23.1450 C   0  0  0  0  0  0  0  0  0  0  0  0
   80.4420  -15.2070  -24.3100 O   0  0  0  0  0  0  0  0  0  0  0  0
   80.8480  -15.2430  -22.0930 N   0  0  0  0  0  0  0  0  0  0  0  0
   82.1950  -15.7280  -22.3070 C   0  0  0  0  0  0  0  0  0  0  0  0
   82.1900  -17.0710  -23.0310 C   0  0  0  0  0  0  0  0  0  0  0  0
   82.9660  -17.3140  -23.9540 O   0  0  0  0  0  0  0  0  0  0  0  0
   81.3220  -17.9750  -22.5730 N   0  0  0  0  0  0  0  0  0  0  0  0
   81.2020  -19.2780  -23.1740 C   0  0  2  0  0  0  0  0  0  0  0  0
   80.8600  -19.1750  -24.6710 C   0  0  0  0  0  0  0  0  0  0  0  0
   81.4060  -19.9150  -25.5290 O   0  0  0  0  0  0  0  0  0  0  0  0
   80.1390  -20.0760  -22.4350 C   0  0  0  0  0  0  0  0  0  0  0  0
   79.9450  -18.2560  -24.9950 N   0  0  0  0  0  0  0  0  0  0  0  0
   79.5390  -18.0700  -26.4000 C   0  0  2  0  0  0  0  0  0  0  0  0
   80.7210  -17.5890  -27.2210 C   0  0  0  0  0  0  0  0  0  0  0  0
   80.9640  -18.0720  -28.3370 O   0  0  0  0  0  0  0  0  0  0  0  0
   78.3590  -17.1040  -26.5280 C   0  0  0  0  0  0  0  0  0  0  0  0
   77.8230  -17.0510  -27.9490 C   0  0  0  0  0  0  0  0  0  0  0  0
   77.1480  -18.3250  -28.3930 C   0  0  0  0  0  0  0  0  0  0  0  0
   76.6150  -19.0570  -27.5240 O   0  0  0  0  0  0  0  0  0  0  0  0
   77.1180  -18.6000  -29.6000 O   0  0  0  0  0  0  0  0  0  0  0  0
   81.4920  -16.6870  -26.6430 N   0  0  0  0  0  0  0  0  0  0  0  0
   82.6300  -16.1400  -27.3240 C   0  0  2  0  0  0  0  0  0  0  0  0
   83.6990  -17.2310  -27.5750 C   0  0  0  0  0  0  0  0  0  0  0  0
   84.3160  -17.2560  -28.6380 O   0  0  0  0  0  0  0  0  0  0  0  0
   83.1700  -14.9840  -26.5370 C   0  0  0  0  0  0  0  0  0  0  0  0
   82.2960  -13.7280  -26.5020 C   0  0  0  0  0  0  0  0  0  0  0  0
   82.8760  -12.7320  -25.5550 C   0  0  0  0  0  0  0  0  0  0  0  0
   82.1630  -13.1210  -27.9190 C   0  0  0  0  0  0  0  0  0  0  0  0
   83.8880  -18.1240  -26.6020 N   0  0  0  0  0  0  0  0  0  0  0  0
   84.8690  -19.1890  -26.7410 C   0  0  0  0  0  0  0  0  0  0  0  0
   78.1257  -14.3788  -23.7714 H   0  0  0  0  0  0  0  0  0  0  0  0
   78.7014  -13.5957  -22.3194 H   0  0  0  0  0  0  0  0  0  0  0  0
   78.1377  -15.2483  -22.2558 H   0  0  0  0  0  0  0  0  0  0  0  0
   80.5155  -15.0829  -21.1803 H   0  0  0  0  0  0  0  0  0  0  0  0
   82.7327  -15.0155  -22.8970 H   0  0  0  0  0  0  0  0  0  0  0  0
   82.6631  -15.8590  -21.3538 H   0  0  0  0  0  0  0  0  0  0  0  0
   80.7497  -17.7455  -21.8055 H   0  0  0  0  0  0  0  0  0  0  0  0
   82.1435  -19.7804  -23.0960 H   0  0  0  0  0  0  0  0  0  0  0  0
   79.1975  -19.5737  -22.5129 H   0  0  0  0  0  0  0  0  0  0  0  0
   80.4118  -20.1645  -21.4042 H   0  0  0  0  0  0  0  0  0  0  0  0
   80.0598  -21.0513  -22.8680 H   0  0  0  0  0  0  0  0  0  0  0  0
   79.5397  -17.6999  -24.2910 H   0  0  0  0  0  0  0  0  0  0  0  0
   79.2129  -19.0164  -26.7780 H   0  0  0  0  0  0  0  0  0  0  0  0
   77.5755  -17.4261  -25.8743 H   0  0  0  0  0  0  0  0  0  0  0  0
   78.7015  -16.1248  -26.2655 H   0  0  0  0  0  0  0  0  0  0  0  0
   77.1127  -16.2532  -28.0121 H   0  0  0  0  0  0  0  0  0  0  0  0
   78.6638  -16.9027  -28.5939 H   0  0  0  0  0  0  0  0  0  0  0  0
   81.2827  -16.3847  -25.7297 H   0  0  0  0  0  0  0  0  0  0  0  0
   82.3340  -15.7780  -28.2864 H   0  0  0  0  0  0  0  0  0  0  0  0
   84.1149  -14.7133  -26.9598 H   0  0  0  0  0  0  0  0  0  0  0  0
   83.2243  -15.3253  -25.5244 H   0  0  0  0  0  0  0  0  0  0  0  0
   81.3176  -13.9960  -26.1618 H   0  0  0  0  0  0  0  0  0  0  0  0
   83.8558  -12.4553  -25.8843 H   0  0  0  0  0  0  0  0  0  0  0  0
   82.9366  -13.1627  -24.5774 H   0  0  0  0  0  0  0  0  0  0  0  0
   82.2516  -11.8636  -25.5241 H   0  0  0  0  0  0  0  0  0  0  0  0
   83.1313  -12.8446  -28.2809 H   0  0  0  0  0  0  0  0  0  0  0  0
   81.5367  -12.2544  -27.8784 H   0  0  0  0  0  0  0  0  0  0  0  0
   81.7291  -13.8442  -28.5775 H   0  0  0  0  0  0  0  0  0  0  0  0
   83.3550  -18.0612  -25.7767 H   0  0  0  0  0  0  0  0  0  0  0  0
   85.3524  -19.1067  -27.6920 H   0  0  0  0  0  0  0  0  0  0  0  0
   84.3783  -20.1373  -26.6712 H   0  0  0  0  0  0  0  0  0  0  0  0
   85.5979  -19.1064  -25.9620 H   0  0  0  0  0  0  0  0  0  0  0  0
  1 32  1  0  0  0  0
  1 33  1  0  0  0  0
  1 34  1  0  0  0  0
  2  1  1  0  0  0  0
  2  4  1  0  0  0  0
  3  2  2  0  0  0  0
  4 35  1  0  0  0  0
  5  4  1  0  0  0  0
  5 36  1  0  0  0  0
  5 37  1  0  0  0  0
  6  8  1  0  0  0  0
  6  5  1  0  0  0  0
  7  6  2  0  0  0  0
  8 38  1  0  0  0  0
  9  8  1  0  0  0  0
  9 12  1  0  0  0  0
  9 39  1  1  0  0  0
 10  9  1  0  0  0  0
 11 10  2  0  0  0  0
 12 40  1  0  0  0  0
 12 41  1  0  0  0  0
 12 42  1  0  0  0  0
 13 10  1  0  0  0  0
 13 43  1  0  0  0  0
 14 13  1  0  0  0  0
 14 44  1  6  0  0  0
 15 22  1  0  0  0  0
 15 14  1  0  0  0  0
 16 15  2  0  0  0  0
 17 14  1  0  0  0  0
 17 45  1  0  0  0  0
 17 46  1  0  0  0  0
 18 17  1  0  0  0  0
 18 47  1  0  0  0  0
 18 48  1  0  0  0  0
 19 18  1  0  0  0  0
 19 20  1  0  0  0  0
 21 19  2  0  0  0  0
 22 49  1  0  0  0  0
 23 22  1  0  0  0  0
 23 26  1  0  0  0  0
 23 50  1  6  0  0  0
 24 23  1  0  0  0  0
 24 30  1  0  0  0  0
 25 24  2  0  0  0  0
 26 27  1  0  0  0  0
 26 51  1  0  0  0  0
 26 52  1  0  0  0  0
 27 28  1  0  0  0  0
 27 53  1  0  0  0  0
 28 54  1  0  0  0  0
 28 55  1  0  0  0  0
 28 56  1  0  0  0  0
 29 27  1  0  0  0  0
 29 57  1  0  0  0  0
 29 58  1  0  0  0  0
 29 59  1  0  0  0  0
 30 60  1  0  0  0  0
 31 30  1  0  0  0  0
 31 61  1  0  0  0  0
 31 62  1  0  0  0  0
 31 63  1  0  0  0  0
M  CHG  1  20  -1
M  END
>  <MODEL>
       0

$$$$
selected_4mers/GAEL/696_noH.pdb
 OpenBabel03042518233D

 63 62  0  0  1  0  0  0  0  0999 V2000
   40.0330   69.7910   52.8100 C   0  0  0  0  0  0  0  0  0  0  0  0
   40.6540   68.4060   53.0380 C   0  0  0  0  0  0  0  0  0  0  0  0
   39.9840   67.4220   53.3410 O   0  0  0  0  0  0  0  0  0  0  0  0
   41.9630   68.3360   52.8710 N   0  0  0  0  0  0  0  0  0  0  0  0
   42.6850   67.0730   52.9150 C   0  0  0  0  0  0  0  0  0  0  0  0
   43.0410   66.5970   54.3140 C   0  0  0  0  0  0  0  0  0  0  0  0
   42.8910   67.3350   55.2920 O   0  0  0  0  0  0  0  0  0  0  0  0
   43.5380   65.3650   54.3830 N   0  0  0  0  0  0  0  0  0  0  0  0
   43.7680   64.7000   55.6070 C   0  0  2  0  0  0  0  0  0  0  0  0
   44.7130   65.4990   56.4840 C   0  0  0  0  0  0  0  0  0  0  0  0
   45.5760   66.2900   55.9890 O   0  0  0  0  0  0  0  0  0  0  0  0
   44.3040   63.2860   55.3190 C   0  0  0  0  0  0  0  0  0  0  0  0
   44.4990   65.3780   57.8020 N   0  0  0  0  0  0  0  0  0  0  0  0
   45.2200   66.1670   58.7920 C   0  0  2  0  0  0  0  0  0  0  0  0
   45.8090   65.2510   59.7880 C   0  0  0  0  0  0  0  0  0  0  0  0
   45.1600   64.2900   60.2050 O   0  0  0  0  0  0  0  0  0  0  0  0
   44.2440   67.1000   59.4360 C   0  0  0  0  0  0  0  0  0  0  0  0
   43.7910   68.2120   58.4760 C   0  0  0  0  0  0  0  0  0  0  0  0
   44.8630   69.2700   58.2300 C   0  0  0  0  0  0  0  0  0  0  0  0
   46.0140   69.2060   58.7540 O   0  0  0  0  0  0  0  0  0  0  0  0
   44.5340   70.1830   57.4960 O   0  0  0  0  0  0  0  0  0  0  0  0
   47.0590   65.4600   60.1050 N   0  0  0  0  0  0  0  0  0  0  0  0
   47.7100   64.8000   61.2170 C   0  0  2  0  0  0  0  0  0  0  0  0
   47.8610   65.8390   62.3310 C   0  0  0  0  0  0  0  0  0  0  0  0
   48.5080   66.8640   62.1400 O   0  0  0  0  0  0  0  0  0  0  0  0
   49.0800   64.2880   60.8240 C   0  0  0  0  0  0  0  0  0  0  0  0
   49.9750   63.7790   61.9480 C   0  0  0  0  0  0  0  0  0  0  0  0
   49.3650   62.5750   62.7250 C   0  0  0  0  0  0  0  0  0  0  0  0
   51.3380   63.4230   61.3930 C   0  0  0  0  0  0  0  0  0  0  0  0
   47.3330   65.5360   63.5130 N   0  0  0  0  0  0  0  0  0  0  0  0
   47.4420   66.4950   64.6530 C   0  0  0  0  0  0  0  0  0  0  0  0
   40.8029   70.4899   52.5575 H   0  0  0  0  0  0  0  0  0  0  0  0
   39.5390   70.1118   53.7033 H   0  0  0  0  0  0  0  0  0  0  0  0
   39.3242   69.7368   52.0103 H   0  0  0  0  0  0  0  0  0  0  0  0
   42.4670   69.1665   52.7114 H   0  0  0  0  0  0  0  0  0  0  0  0
   43.5928   67.1878   52.3603 H   0  0  0  0  0  0  0  0  0  0  0  0
   42.0308   66.3347   52.5004 H   0  0  0  0  0  0  0  0  0  0  0  0
   43.7548   64.8968   53.5445 H   0  0  0  0  0  0  0  0  0  0  0  0
   42.8492   64.6099   56.1479 H   0  0  0  0  0  0  0  0  0  0  0  0
   45.2242   63.3568   54.7777 H   0  0  0  0  0  0  0  0  0  0  0  0
   43.5881   62.7450   54.7362 H   0  0  0  0  0  0  0  0  0  0  0  0
   44.4723   62.7733   56.2430 H   0  0  0  0  0  0  0  0  0  0  0  0
   43.8271   64.7294   58.1136 H   0  0  0  0  0  0  0  0  0  0  0  0
   46.0084   66.7345   58.3433 H   0  0  0  0  0  0  0  0  0  0  0  0
   43.3860   66.5415   59.7472 H   0  0  0  0  0  0  0  0  0  0  0  0
   44.7291   67.5613   60.2707 H   0  0  0  0  0  0  0  0  0  0  0  0
   43.5318   67.7666   57.5383 H   0  0  0  0  0  0  0  0  0  0  0  0
   42.9578   68.7047   58.9320 H   0  0  0  0  0  0  0  0  0  0  0  0
   47.5817   66.0947   59.5635 H   0  0  0  0  0  0  0  0  0  0  0  0
   47.1266   63.9606   61.5330 H   0  0  0  0  0  0  0  0  0  0  0  0
   49.5966   65.0884   60.3368 H   0  0  0  0  0  0  0  0  0  0  0  0
   48.8921   63.4332   60.2085 H   0  0  0  0  0  0  0  0  0  0  0  0
   50.0675   64.5724   62.6599 H   0  0  0  0  0  0  0  0  0  0  0  0
   49.2477   61.7444   62.0607 H   0  0  0  0  0  0  0  0  0  0  0  0
   48.4105   62.8527   63.1209 H   0  0  0  0  0  0  0  0  0  0  0  0
   50.0177   62.3007   63.5272 H   0  0  0  0  0  0  0  0  0  0  0  0
   51.2375   62.6295   60.6823 H   0  0  0  0  0  0  0  0  0  0  0  0
   51.9770   63.1080   62.1913 H   0  0  0  0  0  0  0  0  0  0  0  0
   51.7626   64.2799   60.9132 H   0  0  0  0  0  0  0  0  0  0  0  0
   46.8687   64.6768   63.6373 H   0  0  0  0  0  0  0  0  0  0  0  0
   47.9745   67.3672   64.3357 H   0  0  0  0  0  0  0  0  0  0  0  0
   47.9677   66.0304   65.4609 H   0  0  0  0  0  0  0  0  0  0  0  0
   46.4619   66.7744   64.9790 H   0  0  0  0  0  0  0  0  0  0  0  0
  1  2  1  0  0  0  0
  1 32  1  0  0  0  0
  1 33  1  0  0  0  0
  1 34  1  0  0  0  0
  2  3  2  0  0  0  0
  4  5  1  0  0  0  0
  4  2  1  0  0  0  0
  4 35  1  0  0  0  0
  5  6  1  0  0  0  0
  5 36  1  0  0  0  0
  5 37  1  0  0  0  0
  6  8  1  0  0  0  0
  6  7  2  0  0  0  0
  8  9  1  0  0  0  0
  8 38  1  0  0  0  0
  9 10  1  0  0  0  0
  9 39  1  1  0  0  0
 10 13  1  0  0  0  0
 11 10  2  0  0  0  0
 12  9  1  0  0  0  0
 12 40  1  0  0  0  0
 12 41  1  0  0  0  0
 12 42  1  0  0  0  0
 13 14  1  0  0  0  0
 13 43  1  0  0  0  0
 14 17  1  0  0  0  0
 14 15  1  0  0  0  0
 14 44  1  6  0  0  0
 15 22  1  0  0  0  0
 15 16  2  0  0  0  0
 17 45  1  0  0  0  0
 17 46  1  0  0  0  0
 18 17  1  0  0  0  0
 18 47  1  0  0  0  0
 18 48  1  0  0  0  0
 19 18  1  0  0  0  0
 19 20  1  0  0  0  0
 21 19  2  0  0  0  0
 22 23  1  0  0  0  0
 22 49  1  0  0  0  0
 23 24  1  0  0  0  0
 23 50  1  1  0  0  0
 24 30  1  0  0  0  0
 25 24  2  0  0  0  0
 26 23  1  0  0  0  0
 26 27  1  0  0  0  0
 26 51  1  0  0  0  0
 26 52  1  0  0  0  0
 27 28  1  0  0  0  0
 27 53  1  0  0  0  0
 28 54  1  0  0  0  0
 28 55  1  0  0  0  0
 28 56  1  0  0  0  0
 29 27  1  0  0  0  0
 29 57  1  0  0  0  0
 29 58  1  0  0  0  0
 29 59  1  0  0  0  0
 30 31  1  0  0  0  0
 30 60  1  0  0  0  0
 31 61  1  0  0  0  0
 31 62  1  0  0  0  0
 31 63  1  0  0  0  0
M  CHG  1  20  -1
M  END
>  <MODEL>
       0

$$$$
selected_4mers/GAEL/697_noH.pdb
 OpenBabel03042518233D

 63 62  0  0  1  0  0  0  0  0999 V2000
   -3.7480  -17.2470   31.7180 C   0  0  0  0  0  0  0  0  0  0  0  0
   -4.7020  -18.3990   31.4360 C   0  0  0  0  0  0  0  0  0  0  0  0
   -5.8620  -18.1800   31.0890 O   0  0  0  0  0  0  0  0  0  0  0  0
   -4.2090  -19.6240   31.5840 N   0  0  0  0  0  0  0  0  0  0  0  0
   -5.0390  -20.7920   31.3490 C   0  0  0  0  0  0  0  0  0  0  0  0
   -5.0560  -21.2530   29.9020 C   0  0  0  0  0  0  0  0  0  0  0  0
   -5.8070  -22.1610   29.5420 O   0  0  0  0  0  0  0  0  0  0  0  0
   -4.2320  -20.6330   29.0640 N   0  0  0  0  0  0  0  0  0  0  0  0
   -4.1840  -21.0110   27.6580 C   0  0  2  0  0  0  0  0  0  0  0  0
   -3.5000  -22.3630   27.4980 C   0  0  0  0  0  0  0  0  0  0  0  0
   -2.5670  -22.6900   28.2330 O   0  0  0  0  0  0  0  0  0  0  0  0
   -3.4370  -19.9580   26.8550 C   0  0  0  0  0  0  0  0  0  0  0  0
   -3.9840  -23.1490   26.5440 N   0  0  0  0  0  0  0  0  0  0  0  0
   -3.4010  -24.4500   26.2570 C   0  0  2  0  0  0  0  0  0  0  0  0
   -2.5090  -24.2330   25.0510 C   0  0  0  0  0  0  0  0  0  0  0  0
   -2.9340  -23.6400   24.0600 O   0  0  0  0  0  0  0  0  0  0  0  0
   -4.4840  -25.4660   25.9030 C   0  0  0  0  0  0  0  0  0  0  0  0
   -3.9320  -26.8380   25.5640 C   0  0  0  0  0  0  0  0  0  0  0  0
   -4.9930  -27.7680   25.0070 C   0  0  0  0  0  0  0  0  0  0  0  0
   -6.1100  -27.7930   25.5690 O   0  0  0  0  0  0  0  0  0  0  0  0
   -4.7070  -28.4770   24.0160 O   0  0  0  0  0  0  0  0  0  0  0  0
   -1.2730  -24.7110   25.1230 N   0  0  0  0  0  0  0  0  0  0  0  0
   -0.3660  -24.5110   24.0120 C   0  0  2  0  0  0  0  0  0  0  0  0
   -0.1290  -25.7520   23.1700 C   0  0  0  0  0  0  0  0  0  0  0  0
    0.0280  -26.8600   23.6890 O   0  0  0  0  0  0  0  0  0  0  0  0
    0.9830  -23.9760   24.5170 C   0  0  0  0  0  0  0  0  0  0  0  0
    0.9720  -22.7000   25.3730 C   0  0  0  0  0  0  0  0  0  0  0  0
    2.4060  -22.3110   25.7130 C   0  0  0  0  0  0  0  0  0  0  0  0
    0.2840  -21.5640   24.6230 C   0  0  0  0  0  0  0  0  0  0  0  0
   -0.1190  -25.5470   21.8600 N   0  0  0  0  0  0  0  0  0  0  0  0
    0.1580  -26.6110   20.8960 C   0  0  0  0  0  0  0  0  0  0  0  0
   -4.2561  -16.3177   31.5659 H   0  0  0  0  0  0  0  0  0  0  0  0
   -2.9098  -17.3078   31.0557 H   0  0  0  0  0  0  0  0  0  0  0  0
   -3.4074  -17.3057   32.7307 H   0  0  0  0  0  0  0  0  0  0  0  0
   -3.2701  -19.7410   31.8561 H   0  0  0  0  0  0  0  0  0  0  0  0
   -4.6710  -21.5942   31.9540 H   0  0  0  0  0  0  0  0  0  0  0  0
   -6.0421  -20.5160   31.5991 H   0  0  0  0  0  0  0  0  0  0  0  0
   -3.6492  -19.9123   29.3960 H   0  0  0  0  0  0  0  0  0  0  0  0
   -5.1866  -21.0825   27.2911 H   0  0  0  0  0  0  0  0  0  0  0  0
   -2.4327  -19.8802   27.2159 H   0  0  0  0  0  0  0  0  0  0  0  0
   -3.9283  -19.0134   26.9613 H   0  0  0  0  0  0  0  0  0  0  0  0
   -3.4243  -20.2393   25.8227 H   0  0  0  0  0  0  0  0  0  0  0  0
   -4.7575  -22.8433   26.0172 H   0  0  0  0  0  0  0  0  0  0  0  0
   -2.8687  -24.8297   27.1040 H   0  0  0  0  0  0  0  0  0  0  0  0
   -5.1450  -25.5629   26.7388 H   0  0  0  0  0  0  0  0  0  0  0  0
   -4.9868  -25.1025   25.0313 H   0  0  0  0  0  0  0  0  0  0  0  0
   -3.1568  -26.7258   24.8351 H   0  0  0  0  0  0  0  0  0  0  0  0
   -3.5605  -27.2723   26.4686 H   0  0  0  0  0  0  0  0  0  0  0  0
   -0.9751  -25.1977   25.9253 H   0  0  0  0  0  0  0  0  0  0  0  0
   -0.8454  -23.7969   23.3755 H   0  0  0  0  0  0  0  0  0  0  0  0
    1.5900  -23.7790   23.6581 H   0  0  0  0  0  0  0  0  0  0  0  0
    1.3466  -24.7383   25.1740 H   0  0  0  0  0  0  0  0  0  0  0  0
    0.4287  -22.8854   26.2759 H   0  0  0  0  0  0  0  0  0  0  0  0
    2.9490  -22.1256   24.8098 H   0  0  0  0  0  0  0  0  0  0  0  0
    2.8733  -23.1079   26.2529 H   0  0  0  0  0  0  0  0  0  0  0  0
    2.4024  -21.4264   26.3149 H   0  0  0  0  0  0  0  0  0  0  0  0
    0.8139  -21.3635   23.7153 H   0  0  0  0  0  0  0  0  0  0  0  0
    0.2778  -20.6855   25.2339 H   0  0  0  0  0  0  0  0  0  0  0  0
   -0.7224  -21.8460   24.3937 H   0  0  0  0  0  0  0  0  0  0  0  0
   -0.3058  -24.6412   21.5225 H   0  0  0  0  0  0  0  0  0  0  0  0
    0.3392  -27.5271   21.4182 H   0  0  0  0  0  0  0  0  0  0  0  0
    1.0209  -26.3531   20.3183 H   0  0  0  0  0  0  0  0  0  0  0  0
   -0.6834  -26.7314   20.2461 H   0  0  0  0  0  0  0  0  0  0  0  0
  1 32  1  0  0  0  0
  1 33  1  0  0  0  0
  1 34  1  0  0  0  0
  2  4  1  0  0  0  0
  2  1  1  0  0  0  0
  3  2  2  0  0  0  0
  4 35  1  0  0  0  0
  5  4  1  0  0  0  0
  5 36  1  0  0  0  0
  5 37  1  0  0  0  0
  6  5  1  0  0  0  0
  7  6  2  0  0  0  0
  8  6  1  0  0  0  0
  8 38  1  0  0  0  0
  9  8  1  0  0  0  0
  9 39  1  6  0  0  0
 10  9  1  0  0  0  0
 10 11  2  0  0  0  0
 12  9  1  0  0  0  0
 12 40  1  0  0  0  0
 12 41  1  0  0  0  0
 12 42  1  0  0  0  0
 13 10  1  0  0  0  0
 13 43  1  0  0  0  0
 14 13  1  0  0  0  0
 14 44  1  1  0  0  0
 15 22  1  0  0  0  0
 15 14  1  0  0  0  0
 16 15  2  0  0  0  0
 17 14  1  0  0  0  0
 17 45  1  0  0  0  0
 17 46  1  0  0  0  0
 18 17  1  0  0  0  0
 18 47  1  0  0  0  0
 18 48  1  0  0  0  0
 19 18  1  0  0  0  0
 19 20  1  0  0  0  0
 21 19  2  0  0  0  0
 22 49  1  0  0  0  0
 23 26  1  0  0  0  0
 23 22  1  0  0  0  0
 23 50  1  6  0  0  0
 24 25  2  0  0  0  0
 24 23  1  0  0  0  0
 26 27  1  0  0  0  0
 26 51  1  0  0  0  0
 26 52  1  0  0  0  0
 27 28  1  0  0  0  0
 27 53  1  0  0  0  0
 28 54  1  0  0  0  0
 28 55  1  0  0  0  0
 28 56  1  0  0  0  0
 29 27  1  0  0  0  0
 29 57  1  0  0  0  0
 29 58  1  0  0  0  0
 29 59  1  0  0  0  0
 30 24  1  0  0  0  0
 30 60  1  0  0  0  0
 31 30  1  0  0  0  0
 31 61  1  0  0  0  0
 31 62  1  0  0  0  0
 31 63  1  0  0  0  0
M  CHG  1  20  -1
M  END
>  <MODEL>
       0

$$$$
selected_4mers/GAEL/698_noH.pdb
 OpenBabel03042518233D

 63 62  0  0  1  0  0  0  0  0999 V2000
    9.2150   15.4420   58.7590 C   0  0  0  0  0  0  0  0  0  0  0  0
    8.5910   15.7450   57.4050 C   0  0  0  0  0  0  0  0  0  0  0  0
    8.2520   16.9000   57.1310 O   0  0  0  0  0  0  0  0  0  0  0  0
    8.4750   14.7330   56.5540 N   0  0  0  0  0  0  0  0  0  0  0  0
    7.8410   14.9240   55.2570 C   0  0  0  0  0  0  0  0  0  0  0  0
    8.6910   15.2360   54.0350 C   0  0  0  0  0  0  0  0  0  0  0  0
    8.1490   15.3590   52.9380 O   0  0  0  0  0  0  0  0  0  0  0  0
   10.0080   15.3600   54.2000 N   0  0  0  0  0  0  0  0  0  0  0  0
   10.8880   15.6710   53.0730 C   0  0  2  0  0  0  0  0  0  0  0  0
   10.9010   14.6430   51.9590 C   0  0  0  0  0  0  0  0  0  0  0  0
   11.0510   13.4490   52.2100 O   0  0  0  0  0  0  0  0  0  0  0  0
   12.3270   15.8810   53.5650 C   0  0  0  0  0  0  0  0  0  0  0  0
   10.7800   15.1200   50.7230 N   0  0  0  0  0  0  0  0  0  0  0  0
   10.8350   14.2510   49.5560 C   0  0  2  0  0  0  0  0  0  0  0  0
   12.1580   14.4630   48.8490 C   0  0  0  0  0  0  0  0  0  0  0  0
   12.5610   13.6720   48.0000 O   0  0  0  0  0  0  0  0  0  0  0  0
    9.7030   14.5760   48.5890 C   0  0  0  0  0  0  0  0  0  0  0  0
    8.3110   14.3490   49.1580 C   0  0  0  0  0  0  0  0  0  0  0  0
    8.0300   12.8890   49.4630 C   0  0  0  0  0  0  0  0  0  0  0  0
    6.9270   12.5890   49.9670 O   0  0  0  0  0  0  0  0  0  0  0  0
    8.9080   12.0410   49.1980 O   0  0  0  0  0  0  0  0  0  0  0  0
   12.8400   15.5460   49.2130 N   0  0  0  0  0  0  0  0  0  0  0  0
   14.1260   15.8950   48.6210 C   0  0  2  0  0  0  0  0  0  0  0  0
   14.9620   16.5930   49.6830 C   0  0  0  0  0  0  0  0  0  0  0  0
   14.4230   17.2830   50.5400 O   0  0  0  0  0  0  0  0  0  0  0  0
   13.9210   16.8690   47.4570 C   0  0  0  0  0  0  0  0  0  0  0  0
   15.1880   17.5650   46.9510 C   0  0  0  0  0  0  0  0  0  0  0  0
   16.0180   16.6110   46.0700 C   0  0  0  0  0  0  0  0  0  0  0  0
   14.7870   18.7970   46.1640 C   0  0  0  0  0  0  0  0  0  0  0  0
   16.2690   16.3830   49.6460 N   0  0  0  0  0  0  0  0  0  0  0  0
   17.1540   17.0470   50.5840 C   0  0  0  0  0  0  0  0  0  0  0  0
    9.4438   14.3986   58.8208 H   0  0  0  0  0  0  0  0  0  0  0  0
    8.5265   15.7028   59.5354 H   0  0  0  0  0  0  0  0  0  0  0  0
   10.1136   16.0115   58.8731 H   0  0  0  0  0  0  0  0  0  0  0  0
    8.8207   13.8452   56.8019 H   0  0  0  0  0  0  0  0  0  0  0  0
    7.3052   14.0238   55.0392 H   0  0  0  0  0  0  0  0  0  0  0  0
    7.2668   15.8167   55.3924 H   0  0  0  0  0  0  0  0  0  0  0  0
   10.3958   15.2401   55.0969 H   0  0  0  0  0  0  0  0  0  0  0  0
   10.4793   16.5653   52.6510 H   0  0  0  0  0  0  0  0  0  0  0  0
   12.6994   14.9672   53.9788 H   0  0  0  0  0  0  0  0  0  0  0  0
   12.3396   16.6436   54.3154 H   0  0  0  0  0  0  0  0  0  0  0  0
   12.9449   16.1785   52.7437 H   0  0  0  0  0  0  0  0  0  0  0  0
   10.6497   16.0872   50.5938 H   0  0  0  0  0  0  0  0  0  0  0  0
   10.7359   13.2350   49.8766 H   0  0  0  0  0  0  0  0  0  0  0  0
    9.7868   15.6051   48.3083 H   0  0  0  0  0  0  0  0  0  0  0  0
    9.8077   13.9093   47.7586 H   0  0  0  0  0  0  0  0  0  0  0  0
    7.5905   14.6942   48.4462 H   0  0  0  0  0  0  0  0  0  0  0  0
    8.2486   14.8881   50.0802 H   0  0  0  0  0  0  0  0  0  0  0  0
   12.4625   16.1331   49.9074 H   0  0  0  0  0  0  0  0  0  0  0  0
   14.6088   15.0091   48.2646 H   0  0  0  0  0  0  0  0  0  0  0  0
   13.4961   16.3230   46.6408 H   0  0  0  0  0  0  0  0  0  0  0  0
   13.2876   17.6460   47.8312 H   0  0  0  0  0  0  0  0  0  0  0  0
   15.7946   17.8509   47.7848 H   0  0  0  0  0  0  0  0  0  0  0  0
   15.4351   16.3075   45.2256 H   0  0  0  0  0  0  0  0  0  0  0  0
   16.2951   15.7492   46.6404 H   0  0  0  0  0  0  0  0  0  0  0  0
   16.9000   17.1140   45.7324 H   0  0  0  0  0  0  0  0  0  0  0  0
   14.1808   18.5067   45.3315 H   0  0  0  0  0  0  0  0  0  0  0  0
   15.6651   19.2951   45.8093 H   0  0  0  0  0  0  0  0  0  0  0  0
   14.2321   19.4588   46.7957 H   0  0  0  0  0  0  0  0  0  0  0  0
   16.6443   15.7691   48.9741 H   0  0  0  0  0  0  0  0  0  0  0  0
   16.5793   17.6713   51.2358 H   0  0  0  0  0  0  0  0  0  0  0  0
   17.8590   17.6460   50.0463 H   0  0  0  0  0  0  0  0  0  0  0  0
   17.6765   16.3135   51.1618 H   0  0  0  0  0  0  0  0  0  0  0  0
  1 32  1  0  0  0  0
  1 33  1  0  0  0  0
  1 34  1  0  0  0  0
  2  1  1  0  0  0  0
  3  2  2  0  0  0  0
  4  2  1  0  0  0  0
  4 35  1  0  0  0  0
  5  4  1  0  0  0  0
  5 36  1  0  0  0  0
  5 37  1  0  0  0  0
  6  8  1  0  0  0  0
  6  5  1  0  0  0  0
  7  6  2  0  0  0  0
  8 38  1  0  0  0  0
  9 12  1  0  0  0  0
  9  8  1  0  0  0  0
  9 39  1  6  0  0  0
 10 11  2  0  0  0  0
 10  9  1  0  0  0  0
 12 40  1  0  0  0  0
 12 41  1  0  0  0  0
 12 42  1  0  0  0  0
 13 10  1  0  0  0  0
 13 43  1  0  0  0  0
 14 13  1  0  0  0  0
 14 44  1  1  0  0  0
 15 22  1  0  0  0  0
 15 14  1  0  0  0  0
 16 15  2  0  0  0  0
 17 18  1  0  0  0  0
 17 14  1  0  0  0  0
 17 45  1  0  0  0  0
 17 46  1  0  0  0  0
 18 19  1  0  0  0  0
 18 47  1  0  0  0  0
 18 48  1  0  0  0  0
 19 20  1  0  0  0  0
 21 19  2  0  0  0  0
 22 49  1  0  0  0  0
 23 22  1  0  0  0  0
 23 24  1  0  0  0  0
 23 50  1  6  0  0  0
 24 25  2  0  0  0  0
 26 23  1  0  0  0  0
 26 51  1  0  0  0  0
 26 52  1  0  0  0  0
 27 26  1  0  0  0  0
 27 53  1  0  0  0  0
 28 27  1  0  0  0  0
 28 54  1  0  0  0  0
 28 55  1  0  0  0  0
 28 56  1  0  0  0  0
 29 27  1  0  0  0  0
 29 57  1  0  0  0  0
 29 58  1  0  0  0  0
 29 59  1  0  0  0  0
 30 24  1  0  0  0  0
 30 31  1  0  0  0  0
 30 60  1  0  0  0  0
 31 61  1  0  0  0  0
 31 62  1  0  0  0  0
 31 63  1  0  0  0  0
M  CHG  1  20  -1
M  END
>  <MODEL>
       0

$$$$
selected_4mers/GAEL/699_noH.pdb
 OpenBabel03042518233D

 63 62  0  0  1  0  0  0  0  0999 V2000
   17.1340   38.1640  106.2470 C   0  0  0  0  0  0  0  0  0  0  0  0
   18.5520   38.2960  106.7910 C   0  0  0  0  0  0  0  0  0  0  0  0
   19.4830   37.6770  106.2780 O   0  0  0  0  0  0  0  0  0  0  0  0
   18.7110   39.1270  107.8190 N   0  0  0  0  0  0  0  0  0  0  0  0
   20.0170   39.3220  108.4270 C   0  0  0  0  0  0  0  0  0  0  0  0
   20.9280   40.3190  107.7370 C   0  0  0  0  0  0  0  0  0  0  0  0
   21.9370   40.7280  108.3050 O   0  0  0  0  0  0  0  0  0  0  0  0
   20.5840   40.7150  106.5180 N   0  0  0  0  0  0  0  0  0  0  0  0
   21.4000   41.6650  105.7760 C   0  0  2  0  0  0  0  0  0  0  0  0
   20.9200   43.1020  105.9780 C   0  0  0  0  0  0  0  0  0  0  0  0
   19.7320   43.4000  105.8370 O   0  0  0  0  0  0  0  0  0  0  0  0
   21.3850   41.3140  104.2940 C   0  0  0  0  0  0  0  0  0  0  0  0
   21.8530   43.9890  106.3080 N   0  0  0  0  0  0  0  0  0  0  0  0
   21.5260   45.3940  106.5170 C   0  0  2  0  0  0  0  0  0  0  0  0
   21.3620   46.0880  105.1730 C   0  0  0  0  0  0  0  0  0  0  0  0
   22.3170   46.1910  104.4030 O   0  0  0  0  0  0  0  0  0  0  0  0
   22.6330   46.0800  107.3170 C   0  0  0  0  0  0  0  0  0  0  0  0
   22.4650   47.5860  107.4490 C   0  0  0  0  0  0  0  0  0  0  0  0
   23.6070   48.2270  108.2070 C   0  0  0  0  0  0  0  0  0  0  0  0
   23.7410   47.9550  109.4200 O   0  0  0  0  0  0  0  0  0  0  0  0
   24.3730   48.9960  107.5870 O   0  0  0  0  0  0  0  0  0  0  0  0
   20.1520   46.5660  104.8950 N   0  0  0  0  0  0  0  0  0  0  0  0
   19.8790   47.2410  103.6320 C   0  0  2  0  0  0  0  0  0  0  0  0
   19.7100   48.7500  103.7960 C   0  0  0  0  0  0  0  0  0  0  0  0
   19.5930   49.4720  102.8110 O   0  0  0  0  0  0  0  0  0  0  0  0
   18.6350   46.6400  102.9720 C   0  0  0  0  0  0  0  0  0  0  0  0
   18.6680   45.1250  102.7440 C   0  0  0  0  0  0  0  0  0  0  0  0
   17.3780   44.6800  102.0720 C   0  0  0  0  0  0  0  0  0  0  0  0
   19.8700   44.7540  101.8850 C   0  0  0  0  0  0  0  0  0  0  0  0
   19.6910   49.2210  105.0410 N   0  0  0  0  0  0  0  0  0  0  0  0
   19.5740   50.6510  105.3150 C   0  0  0  0  0  0  0  0  0  0  0  0
   17.1286   37.4746  105.4287 H   0  0  0  0  0  0  0  0  0  0  0  0
   16.7907   39.1199  105.9103 H   0  0  0  0  0  0  0  0  0  0  0  0
   16.4874   37.8049  107.0202 H   0  0  0  0  0  0  0  0  0  0  0  0
   17.9332   39.6163  108.1724 H   0  0  0  0  0  0  0  0  0  0  0  0
   19.8640   39.6584  109.4311 H   0  0  0  0  0  0  0  0  0  0  0  0
   20.5140   38.3773  108.3534 H   0  0  0  0  0  0  0  0  0  0  0  0
   19.7623   40.3599  106.1082 H   0  0  0  0  0  0  0  0  0  0  0  0
   22.4002   41.6004  106.1505 H   0  0  0  0  0  0  0  0  0  0  0  0
   20.3838   41.3793  103.9221 H   0  0  0  0  0  0  0  0  0  0  0  0
   21.7511   40.3176  104.1597 H   0  0  0  0  0  0  0  0  0  0  0  0
   22.0096   41.9985  103.7590 H   0  0  0  0  0  0  0  0  0  0  0  0
   22.7852   43.6907  106.4136 H   0  0  0  0  0  0  0  0  0  0  0  0
   20.6096   45.4582  107.0656 H   0  0  0  0  0  0  0  0  0  0  0  0
   23.5667   45.8878  106.8310 H   0  0  0  0  0  0  0  0  0  0  0  0
   22.5909   45.6779  108.3077 H   0  0  0  0  0  0  0  0  0  0  0  0
   21.5516   47.7860  107.9691 H   0  0  0  0  0  0  0  0  0  0  0  0
   22.4524   48.0016  106.4631 H   0  0  0  0  0  0  0  0  0  0  0  0
   19.4280   46.4620  105.5540 H   0  0  0  0  0  0  0  0  0  0  0  0
   20.7313   47.0875  103.0035 H   0  0  0  0  0  0  0  0  0  0  0  0
   17.7937   46.8601  103.5954 H   0  0  0  0  0  0  0  0  0  0  0  0
   18.5812   47.0797  101.9980 H   0  0  0  0  0  0  0  0  0  0  0  0
   18.7566   44.6271  103.6869 H   0  0  0  0  0  0  0  0  0  0  0  0
   17.2796   45.1726  101.1273 H   0  0  0  0  0  0  0  0  0  0  0  0
   16.5456   44.9334  102.6948 H   0  0  0  0  0  0  0  0  0  0  0  0
   17.4013   43.6209  101.9213 H   0  0  0  0  0  0  0  0  0  0  0  0
   19.7961   45.2448  100.9371 H   0  0  0  0  0  0  0  0  0  0  0  0
   19.8895   43.6944  101.7374 H   0  0  0  0  0  0  0  0  0  0  0  0
   20.7688   45.0622  102.3771 H   0  0  0  0  0  0  0  0  0  0  0  0
   19.7573   48.5909  105.7945 H   0  0  0  0  0  0  0  0  0  0  0  0
   19.5128   51.1873  104.3911 H   0  0  0  0  0  0  0  0  0  0  0  0
   20.4322   50.9806  105.8626 H   0  0  0  0  0  0  0  0  0  0  0  0
   18.6914   50.8326  105.8920 H   0  0  0  0  0  0  0  0  0  0  0  0
  1  2  1  0  0  0  0
  1 32  1  0  0  0  0
  1 33  1  0  0  0  0
  1 34  1  0  0  0  0
  2  4  1  0  0  0  0
  3  2  2  0  0  0  0
  4  5  1  0  0  0  0
  4 35  1  0  0  0  0
  5 36  1  0  0  0  0
  5 37  1  0  0  0  0
  6  7  2  0  0  0  0
  6  5  1  0  0  0  0
  8  6  1  0  0  0  0
  8 38  1  0  0  0  0
  9 10  1  0  0  0  0
  9  8  1  0  0  0  0
  9 39  1  1  0  0  0
 10 13  1  0  0  0  0
 11 10  2  0  0  0  0
 12  9  1  0  0  0  0
 12 40  1  0  0  0  0
 12 41  1  0  0  0  0
 12 42  1  0  0  0  0
 13 14  1  0  0  0  0
 13 43  1  0  0  0  0
 14 17  1  0  0  0  0
 14 44  1  1  0  0  0
 15 14  1  0  0  0  0
 16 15  2  0  0  0  0
 17 18  1  0  0  0  0
 17 45  1  0  0  0  0
 17 46  1  0  0  0  0
 18 19  1  0  0  0  0
 18 47  1  0  0  0  0
 18 48  1  0  0  0  0
 19 20  1  0  0  0  0
 21 19  2  0  0  0  0
 22 15  1  0  0  0  0
 22 49  1  0  0  0  0
 23 24  1  0  0  0  0
 23 22  1  0  0  0  0
 23 50  1  6  0  0  0
 24 30  1  0  0  0  0
 25 24  2  0  0  0  0
 26 23  1  0  0  0  0
 26 51  1  0  0  0  0
 26 52  1  0  0  0  0
 27 26  1  0  0  0  0
 27 53  1  0  0  0  0
 28 27  1  0  0  0  0
 28 54  1  0  0  0  0
 28 55  1  0  0  0  0
 28 56  1  0  0  0  0
 29 27  1  0  0  0  0
 29 57  1  0  0  0  0
 29 58  1  0  0  0  0
 29 59  1  0  0  0  0
 30 31  1  0  0  0  0
 30 60  1  0  0  0  0
 31 61  1  0  0  0  0
 31 62  1  0  0  0  0
 31 63  1  0  0  0  0
M  CHG  1  20  -1
M  END
>  <MODEL>
       0

$$$$
