selected_4mers/GASV/710_noH.pdb
 OpenBabel03042518353D

 56 55  0  0  1  0  0  0  0  0999 V2000
   -0.4480   -5.7430   59.7250 C   0  0  0  0  0  0  0  0  0  0  0  0
    0.3950   -6.8500   59.0900 C   0  0  0  0  0  0  0  0  0  0  0  0
    0.1580   -8.0370   59.3520 O   0  0  0  0  0  0  0  0  0  0  0  0
    1.3710   -6.4780   58.2650 N   0  0  0  0  0  0  0  0  0  0  0  0
    2.2540   -7.4450   57.6280 C   0  0  0  0  0  0  0  0  0  0  0  0
    3.6940   -7.2660   58.0730 C   0  0  0  0  0  0  0  0  0  0  0  0
    4.0740   -6.2110   58.6080 O   0  0  0  0  0  0  0  0  0  0  0  0
    4.5150   -8.2840   57.8210 N   0  0  0  0  0  0  0  0  0  0  0  0
    5.9150   -8.2900   58.2500 C   0  0  2  0  0  0  0  0  0  0  0  0
    6.7470   -9.1420   57.2800 C   0  0  0  0  0  0  0  0  0  0  0  0
    6.7210  -10.3860   57.3420 O   0  0  0  0  0  0  0  0  0  0  0  0
    6.0210   -8.8420   59.6690 C   0  0  0  0  0  0  0  0  0  0  0  0
    7.4770   -8.4760   56.3790 N   0  0  0  0  0  0  0  0  0  0  0  0
    8.3340   -9.1470   55.3990 C   0  0  2  0  0  0  0  0  0  0  0  0
    9.7960   -9.0410   55.8390 C   0  0  0  0  0  0  0  0  0  0  0  0
   10.2780   -7.9540   56.1510 O   0  0  0  0  0  0  0  0  0  0  0  0
    8.1790   -8.5360   54.0020 C   0  0  0  0  0  0  0  0  0  0  0  0
    6.8530   -8.7050   53.5120 O   0  0  0  0  0  0  0  0  0  0  0  0
   10.4930  -10.1750   55.8670 N   0  0  0  0  0  0  0  0  0  0  0  0
   11.9210  -10.2530   56.1800 C   0  0  2  0  0  0  0  0  0  0  0  0
   12.6530  -10.5450   54.8680 C   0  0  0  0  0  0  0  0  0  0  0  0
   12.2530  -11.4470   54.1380 O   0  0  0  0  0  0  0  0  0  0  0  0
   12.2050  -11.3590   57.2380 C   0  0  0  0  0  0  0  0  0  0  0  0
   13.6070  -11.1920   57.8140 C   0  0  0  0  0  0  0  0  0  0  0  0
   11.1820  -11.3570   58.3690 C   0  0  0  0  0  0  0  0  0  0  0  0
   13.6840   -9.7580   54.5390 N   0  0  0  0  0  0  0  0  0  0  0  0
   14.3810   -9.8810   53.2440 C   0  0  0  0  0  0  0  0  0  0  0  0
   -0.1002   -4.7901   59.3845 H   0  0  0  0  0  0  0  0  0  0  0  0
   -0.3607   -5.7947   60.7902 H   0  0  0  0  0  0  0  0  0  0  0  0
   -1.4728   -5.8697   59.4445 H   0  0  0  0  0  0  0  0  0  0  0  0
    1.4999   -5.5197   58.0798 H   0  0  0  0  0  0  0  0  0  0  0  0
    1.9313   -8.4321   57.8857 H   0  0  0  0  0  0  0  0  0  0  0  0
    2.2096   -7.2919   56.5699 H   0  0  0  0  0  0  0  0  0  0  0  0
    4.1675   -9.0619   57.3276 H   0  0  0  0  0  0  0  0  0  0  0  0
    6.2934   -7.2892   58.2443 H   0  0  0  0  0  0  0  0  0  0  0  0
    5.6458   -9.8438   59.6909 H   0  0  0  0  0  0  0  0  0  0  0  0
    5.4460   -8.2312   60.3332 H   0  0  0  0  0  0  0  0  0  0  0  0
    7.0455   -8.8380   59.9777 H   0  0  0  0  0  0  0  0  0  0  0  0
    7.4366   -7.4923   56.3742 H   0  0  0  0  0  0  0  0  0  0  0  0
    8.0358  -10.1734   55.3490 H   0  0  0  0  0  0  0  0  0  0  0  0
    8.4027   -7.4908   54.0511 H   0  0  0  0  0  0  0  0  0  0  0  0
    8.8528   -9.0344   53.3368 H   0  0  0  0  0  0  0  0  0  0  0  0
    6.2295   -8.2579   54.1055 H   0  0  0  0  0  0  0  0  0  0  0  0
   10.0185  -11.0135   55.6646 H   0  0  0  0  0  0  0  0  0  0  0  0
   12.2627   -9.3323   56.6049 H   0  0  0  0  0  0  0  0  0  0  0  0
   12.1292  -12.2999   56.7342 H   0  0  0  0  0  0  0  0  0  0  0  0
   13.6764  -10.2497   58.3162 H   0  0  0  0  0  0  0  0  0  0  0  0
   14.3248  -11.2274   57.0213 H   0  0  0  0  0  0  0  0  0  0  0  0
   13.8036  -11.9817   58.5087 H   0  0  0  0  0  0  0  0  0  0  0  0
   11.2327  -10.4261   58.8942 H   0  0  0  0  0  0  0  0  0  0  0  0
   11.3950  -12.1594   59.0440 H   0  0  0  0  0  0  0  0  0  0  0  0
   10.2005  -11.4841   57.9624 H   0  0  0  0  0  0  0  0  0  0  0  0
   13.9870   -9.0757   55.1808 H   0  0  0  0  0  0  0  0  0  0  0  0
   13.9307  -10.6633   52.6695 H   0  0  0  0  0  0  0  0  0  0  0  0
   15.4119  -10.1116   53.4143 H   0  0  0  0  0  0  0  0  0  0  0  0
   14.3058   -8.9572   52.7093 H   0  0  0  0  0  0  0  0  0  0  0  0
  1 28  1  0  0  0  0
  1 29  1  0  0  0  0
  1 30  1  0  0  0  0
  2  3  2  0  0  0  0
  2  1  1  0  0  0  0
  4  2  1  0  0  0  0
  4 31  1  0  0  0  0
  5  6  1  0  0  0  0
  5  4  1  0  0  0  0
  5 32  1  0  0  0  0
  5 33  1  0  0  0  0
  6  7  2  0  0  0  0
  8  6  1  0  0  0  0
  8  9  1  0  0  0  0
  8 34  1  0  0  0  0
  9 12  1  0  0  0  0
  9 35  1  6  0  0  0
 10 11  2  0  0  0  0
 10  9  1  0  0  0  0
 12 36  1  0  0  0  0
 12 37  1  0  0  0  0
 12 38  1  0  0  0  0
 13 10  1  0  0  0  0
 13 39  1  0  0  0  0
 14 15  1  0  0  0  0
 14 13  1  0  0  0  0
 14 40  1  6  0  0  0
 15 19  1  0  0  0  0
 15 16  2  0  0  0  0
 17 14  1  0  0  0  0
 17 41  1  0  0  0  0
 17 42  1  0  0  0  0
 18 17  1  0  0  0  0
 18 43  1  0  0  0  0
 19 20  1  0  0  0  0
 19 44  1  0  0  0  0
 20 23  1  0  0  0  0
 20 45  1  1  0  0  0
 21 20  1  0  0  0  0
 22 21  2  0  0  0  0
 23 24  1  0  0  0  0
 23 25  1  0  0  0  0
 23 46  1  0  0  0  0
 24 47  1  0  0  0  0
 24 48  1  0  0  0  0
 24 49  1  0  0  0  0
 25 50  1  0  0  0  0
 25 51  1  0  0  0  0
 25 52  1  0  0  0  0
 26 21  1  0  0  0  0
 26 53  1  0  0  0  0
 27 26  1  0  0  0  0
 27 54  1  0  0  0  0
 27 55  1  0  0  0  0
 27 56  1  0  0  0  0
M  END
>  <MODEL>
       0

$$$$
selected_4mers/GASV/711_noH.pdb
 OpenBabel03042518353D

 56 55  0  0  1  0  0  0  0  0999 V2000
   68.6160   47.9700   62.7440 C   0  0  0  0  0  0  0  0  0  0  0  0
   67.4340   47.1130   63.1780 C   0  0  0  0  0  0  0  0  0  0  0  0
   67.3060   46.8330   64.3530 O   0  0  0  0  0  0  0  0  0  0  0  0
   66.5590   46.7670   62.2480 N   0  0  0  0  0  0  0  0  0  0  0  0
   65.4150   45.9220   62.5510 C   0  0  0  0  0  0  0  0  0  0  0  0
   64.1960   46.6980   63.0060 C   0  0  0  0  0  0  0  0  0  0  0  0
   63.0910   46.1830   62.9800 O   0  0  0  0  0  0  0  0  0  0  0  0
   64.3890   47.9490   63.4050 N   0  0  0  0  0  0  0  0  0  0  0  0
   63.3060   48.7520   63.9130 C   0  0  2  0  0  0  0  0  0  0  0  0
   62.4970   49.2560   62.7300 C   0  0  0  0  0  0  0  0  0  0  0  0
   62.8320   49.0300   61.5890 O   0  0  0  0  0  0  0  0  0  0  0  0
   63.8450   49.9170   64.7370 C   0  0  0  0  0  0  0  0  0  0  0  0
   61.4070   49.9210   63.0180 N   0  0  0  0  0  0  0  0  0  0  0  0
   60.6250   50.5140   61.9880 C   0  0  2  0  0  0  0  0  0  0  0  0
   60.5430   51.9600   62.3990 C   0  0  0  0  0  0  0  0  0  0  0  0
   60.8190   52.2960   63.5400 O   0  0  0  0  0  0  0  0  0  0  0  0
   59.2650   49.8250   61.9150 C   0  0  0  0  0  0  0  0  0  0  0  0
   58.4640   50.2000   63.0100 O   0  0  0  0  0  0  0  0  0  0  0  0
   60.2290   52.8230   61.4670 N   0  0  0  0  0  0  0  0  0  0  0  0
   60.1760   54.2140   61.7210 C   0  0  2  0  0  0  0  0  0  0  0  0
   58.9630   54.7120   60.9460 C   0  0  0  0  0  0  0  0  0  0  0  0
   58.6030   54.1110   59.9440 O   0  0  0  0  0  0  0  0  0  0  0  0
   61.4960   54.9150   61.2380 C   0  0  0  0  0  0  0  0  0  0  0  0
   61.5230   55.1130   59.7070 C   0  0  0  0  0  0  0  0  0  0  0  0
   61.6510   56.2130   61.9480 C   0  0  0  0  0  0  0  0  0  0  0  0
   58.3120   55.7480   61.4480 N   0  0  0  0  0  0  0  0  0  0  0  0
   57.1750   56.3200   60.7740 C   0  0  0  0  0  0  0  0  0  0  0  0
   68.5779   48.1204   61.6853 H   0  0  0  0  0  0  0  0  0  0  0  0
   69.5290   47.4749   63.0013 H   0  0  0  0  0  0  0  0  0  0  0  0
   68.5715   48.9168   63.2405 H   0  0  0  0  0  0  0  0  0  0  0  0
   66.6857   47.0901   61.3267 H   0  0  0  0  0  0  0  0  0  0  0  0
   65.6929   45.2411   63.3282 H   0  0  0  0  0  0  0  0  0  0  0  0
   65.1477   45.4168   61.6464 H   0  0  0  0  0  0  0  0  0  0  0  0
   65.2923   48.3369   63.3527 H   0  0  0  0  0  0  0  0  0  0  0  0
   62.6830   48.1664   64.5562 H   0  0  0  0  0  0  0  0  0  0  0  0
   64.4749   50.5266   64.1234 H   0  0  0  0  0  0  0  0  0  0  0  0
   64.4101   49.5384   65.5629 H   0  0  0  0  0  0  0  0  0  0  0  0
   63.0280   50.5033   65.1027 H   0  0  0  0  0  0  0  0  0  0  0  0
   61.1254   50.0118   63.9570 H   0  0  0  0  0  0  0  0  0  0  0  0
   61.0352   50.4184   61.0044 H   0  0  0  0  0  0  0  0  0  0  0  0
   59.4062   48.7644   61.9286 H   0  0  0  0  0  0  0  0  0  0  0  0
   58.7753   50.1199   61.0105 H   0  0  0  0  0  0  0  0  0  0  0  0
   58.9005   49.9364   63.8352 H   0  0  0  0  0  0  0  0  0  0  0  0
   60.0235   52.4947   60.5619 H   0  0  0  0  0  0  0  0  0  0  0  0
   60.0906   54.4339   62.7647 H   0  0  0  0  0  0  0  0  0  0  0  0
   62.3220   54.2777   61.4757 H   0  0  0  0  0  0  0  0  0  0  0  0
   60.7120   55.7470   59.4150 H   0  0  0  0  0  0  0  0  0  0  0  0
   61.4258   54.1638   59.2228 H   0  0  0  0  0  0  0  0  0  0  0  0
   62.4499   55.5654   59.4222 H   0  0  0  0  0  0  0  0  0  0  0  0
   60.8250   56.8504   61.7104 H   0  0  0  0  0  0  0  0  0  0  0  0
   62.5627   56.6811   61.6405 H   0  0  0  0  0  0  0  0  0  0  0  0
   61.6767   56.0412   63.0038 H   0  0  0  0  0  0  0  0  0  0  0  0
   58.6113   56.1369   62.3015 H   0  0  0  0  0  0  0  0  0  0  0  0
   56.9881   55.7804   59.8691 H   0  0  0  0  0  0  0  0  0  0  0  0
   57.3760   57.3452   60.5428 H   0  0  0  0  0  0  0  0  0  0  0  0
   56.3161   56.2594   61.4093 H   0  0  0  0  0  0  0  0  0  0  0  0
  1  2  1  0  0  0  0
  1 28  1  0  0  0  0
  1 29  1  0  0  0  0
  1 30  1  0  0  0  0
  2  3  2  0  0  0  0
  4  5  1  0  0  0  0
  4  2  1  0  0  0  0
  4 31  1  0  0  0  0
  5  6  1  0  0  0  0
  5 32  1  0  0  0  0
  5 33  1  0  0  0  0
  6  8  1  0  0  0  0
  7  6  2  0  0  0  0
  8  9  1  0  0  0  0
  8 34  1  0  0  0  0
  9 12  1  0  0  0  0
  9 35  1  1  0  0  0
 10 13  1  0  0  0  0
 10  9  1  0  0  0  0
 11 10  2  0  0  0  0
 12 36  1  0  0  0  0
 12 37  1  0  0  0  0
 12 38  1  0  0  0  0
 13 39  1  0  0  0  0
 14 15  1  0  0  0  0
 14 13  1  0  0  0  0
 14 40  1  6  0  0  0
 15 16  2  0  0  0  0
 17 14  1  0  0  0  0
 17 18  1  0  0  0  0
 17 41  1  0  0  0  0
 17 42  1  0  0  0  0
 18 43  1  0  0  0  0
 19 20  1  0  0  0  0
 19 15  1  0  0  0  0
 19 44  1  0  0  0  0
 20 45  1  1  0  0  0
 21 26  1  0  0  0  0
 21 20  1  0  0  0  0
 22 21  2  0  0  0  0
 23 20  1  0  0  0  0
 23 25  1  0  0  0  0
 23 46  1  0  0  0  0
 24 23  1  0  0  0  0
 24 47  1  0  0  0  0
 24 48  1  0  0  0  0
 24 49  1  0  0  0  0
 25 50  1  0  0  0  0
 25 51  1  0  0  0  0
 25 52  1  0  0  0  0
 26 53  1  0  0  0  0
 27 26  1  0  0  0  0
 27 54  1  0  0  0  0
 27 55  1  0  0  0  0
 27 56  1  0  0  0  0
M  END
>  <MODEL>
       0

$$$$
selected_4mers/GASV/712_noH.pdb
 OpenBabel03042518353D

 56 55  0  0  1  0  0  0  0  0999 V2000
   -7.3120    5.4230   23.9980 C   0  0  0  0  0  0  0  0  0  0  0  0
   -8.0510    6.4340   23.0940 C   0  0  0  0  0  0  0  0  0  0  0  0
   -9.0440    6.0900   22.4580 O   0  0  0  0  0  0  0  0  0  0  0  0
   -7.5420    7.6590   22.9880 N   0  0  0  0  0  0  0  0  0  0  0  0
   -8.1620    8.6690   22.1130 C   0  0  0  0  0  0  0  0  0  0  0  0
   -8.1790    8.2400   20.6450 C   0  0  0  0  0  0  0  0  0  0  0  0
   -9.2030    8.3600   19.9660 O   0  0  0  0  0  0  0  0  0  0  0  0
   -7.0700    7.6850   20.1570 N   0  0  0  0  0  0  0  0  0  0  0  0
   -6.9970    7.2400   18.7740 C   0  0  2  0  0  0  0  0  0  0  0  0
   -7.9630    6.0830   18.5300 C   0  0  0  0  0  0  0  0  0  0  0  0
   -8.7040    6.0940   17.5390 O   0  0  0  0  0  0  0  0  0  0  0  0
   -5.5680    6.8450   18.3960 C   0  0  0  0  0  0  0  0  0  0  0  0
   -7.9890    5.1260   19.4500 N   0  0  0  0  0  0  0  0  0  0  0  0
   -8.8860    3.9680   19.2940 C   0  0  2  0  0  0  0  0  0  0  0  0
  -10.3700    4.3510   19.3340 C   0  0  0  0  0  0  0  0  0  0  0  0
  -11.1470    3.9720   18.4600 O   0  0  0  0  0  0  0  0  0  0  0  0
   -8.5700    2.9370   20.3630 C   0  0  0  0  0  0  0  0  0  0  0  0
   -9.4180    1.8130   20.2180 O   0  0  0  0  0  0  0  0  0  0  0  0
  -10.7680    5.1170   20.3470 N   0  0  0  0  0  0  0  0  0  0  0  0
  -12.1550    5.5720   20.4560 C   0  0  2  0  0  0  0  0  0  0  0  0
  -12.5770    6.4430   19.2370 C   0  0  0  0  0  0  0  0  0  0  0  0
  -13.6490    6.2430   18.6610 O   0  0  0  0  0  0  0  0  0  0  0  0
  -12.3860    6.2890   21.8060 C   0  0  0  0  0  0  0  0  0  0  0  0
  -13.7810    6.9180   21.8460 C   0  0  0  0  0  0  0  0  0  0  0  0
  -12.1770    5.2680   22.9530 C   0  0  0  0  0  0  0  0  0  0  0  0
  -11.7160    7.3710   18.8310 N   0  0  0  0  0  0  0  0  0  0  0  0
  -12.0030    8.2490   17.6930 C   0  0  0  0  0  0  0  0  0  0  0  0
   -7.8318    4.4878   23.9865 H   0  0  0  0  0  0  0  0  0  0  0  0
   -7.2767    5.7991   24.9991 H   0  0  0  0  0  0  0  0  0  0  0  0
   -6.3155    5.2817   23.6347 H   0  0  0  0  0  0  0  0  0  0  0  0
   -6.7369    7.8944   23.5034 H   0  0  0  0  0  0  0  0  0  0  0  0
   -9.1695    8.8303   22.4352 H   0  0  0  0  0  0  0  0  0  0  0  0
   -7.5787    9.5632   22.1840 H   0  0  0  0  0  0  0  0  0  0  0  0
   -6.2865    7.5742   20.7427 H   0  0  0  0  0  0  0  0  0  0  0  0
   -7.2863    8.0578   18.1476 H   0  0  0  0  0  0  0  0  0  0  0  0
   -5.2504    6.0267   19.0079 H   0  0  0  0  0  0  0  0  0  0  0  0
   -4.9152    7.6789   18.5487 H   0  0  0  0  0  0  0  0  0  0  0  0
   -5.5390    6.5531   17.3670 H   0  0  0  0  0  0  0  0  0  0  0  0
   -7.4058    5.1907   20.2405 H   0  0  0  0  0  0  0  0  0  0  0  0
   -8.7108    3.5535   18.3232 H   0  0  0  0  0  0  0  0  0  0  0  0
   -8.7197    3.3714   21.3293 H   0  0  0  0  0  0  0  0  0  0  0  0
   -7.5520    2.6244   20.2591 H   0  0  0  0  0  0  0  0  0  0  0  0
  -10.3425    2.0913   20.3114 H   0  0  0  0  0  0  0  0  0  0  0  0
  -10.1171    5.3827   21.0362 H   0  0  0  0  0  0  0  0  0  0  0  0
  -12.7912    4.7119   20.4371 H   0  0  0  0  0  0  0  0  0  0  0  0
  -11.6831    7.0868   21.9259 H   0  0  0  0  0  0  0  0  0  0  0  0
  -14.5204    6.1535   21.7292 H   0  0  0  0  0  0  0  0  0  0  0  0
  -13.8746    7.6290   21.0519 H   0  0  0  0  0  0  0  0  0  0  0  0
  -13.9231    7.4112   22.7849 H   0  0  0  0  0  0  0  0  0  0  0  0
  -12.8742    4.4634   22.8457 H   0  0  0  0  0  0  0  0  0  0  0  0
  -12.3332    5.7522   23.8943 H   0  0  0  0  0  0  0  0  0  0  0  0
  -11.1794    4.8835   22.9109 H   0  0  0  0  0  0  0  0  0  0  0  0
  -10.8609    7.4714   19.3085 H   0  0  0  0  0  0  0  0  0  0  0  0
  -12.9654    8.0093   17.2914 H   0  0  0  0  0  0  0  0  0  0  0  0
  -11.2571    8.1103   16.9385 H   0  0  0  0  0  0  0  0  0  0  0  0
  -11.9960    9.2683   18.0183 H   0  0  0  0  0  0  0  0  0  0  0  0
  1 28  1  0  0  0  0
  1 29  1  0  0  0  0
  1 30  1  0  0  0  0
  2  1  1  0  0  0  0
  3  2  2  0  0  0  0
  4  2  1  0  0  0  0
  4 31  1  0  0  0  0
  5  4  1  0  0  0  0
  5 32  1  0  0  0  0
  5 33  1  0  0  0  0
  6  5  1  0  0  0  0
  7  6  2  0  0  0  0
  8  6  1  0  0  0  0
  8 34  1  0  0  0  0
  9  8  1  0  0  0  0
  9 35  1  6  0  0  0
 10  9  1  0  0  0  0
 10 13  1  0  0  0  0
 11 10  2  0  0  0  0
 12  9  1  0  0  0  0
 12 36  1  0  0  0  0
 12 37  1  0  0  0  0
 12 38  1  0  0  0  0
 13 39  1  0  0  0  0
 14 15  1  0  0  0  0
 14 13  1  0  0  0  0
 14 17  1  0  0  0  0
 14 40  1  6  0  0  0
 15 19  1  0  0  0  0
 16 15  2  0  0  0  0
 17 41  1  0  0  0  0
 17 42  1  0  0  0  0
 18 17  1  0  0  0  0
 18 43  1  0  0  0  0
 19 20  1  0  0  0  0
 19 44  1  0  0  0  0
 20 23  1  0  0  0  0
 20 45  1  6  0  0  0
 21 20  1  0  0  0  0
 22 21  2  0  0  0  0
 23 24  1  0  0  0  0
 23 25  1  0  0  0  0
 23 46  1  0  0  0  0
 24 47  1  0  0  0  0
 24 48  1  0  0  0  0
 24 49  1  0  0  0  0
 25 50  1  0  0  0  0
 25 51  1  0  0  0  0
 25 52  1  0  0  0  0
 26 21  1  0  0  0  0
 26 53  1  0  0  0  0
 27 26  1  0  0  0  0
 27 54  1  0  0  0  0
 27 55  1  0  0  0  0
 27 56  1  0  0  0  0
M  END
>  <MODEL>
       0

$$$$
selected_4mers/GASV/713_noH.pdb
 OpenBabel03042518353D

 56 55  0  0  1  0  0  0  0  0999 V2000
   23.3620   22.3040    8.7500 C   0  0  0  0  0  0  0  0  0  0  0  0
   24.2080   21.0440    8.9200 C   0  0  0  0  0  0  0  0  0  0  0  0
   24.9350   20.6500    8.0100 O   0  0  0  0  0  0  0  0  0  0  0  0
   24.1410   20.4500   10.1050 N   0  0  0  0  0  0  0  0  0  0  0  0
   24.8870   19.2300   10.4000 C   0  0  0  0  0  0  0  0  0  0  0  0
   26.2540   19.4420   11.0290 C   0  0  0  0  0  0  0  0  0  0  0  0
   26.8540   18.4900   11.5280 O   0  0  0  0  0  0  0  0  0  0  0  0
   26.7600   20.6750   11.0080 N   0  0  0  0  0  0  0  0  0  0  0  0
   28.0230   20.9910   11.6710 C   0  0  2  0  0  0  0  0  0  0  0  0
   27.8430   20.8470   13.1730 C   0  0  0  0  0  0  0  0  0  0  0  0
   26.8800   21.3650   13.7270 O   0  0  0  0  0  0  0  0  0  0  0  0
   28.4630   22.4060   11.3280 C   0  0  0  0  0  0  0  0  0  0  0  0
   28.7610   20.1530   13.8410 N   0  0  0  0  0  0  0  0  0  0  0  0
   28.6430   19.9480   15.2840 C   0  0  2  0  0  0  0  0  0  0  0  0
   28.5120   21.2830   16.0040 C   0  0  0  0  0  0  0  0  0  0  0  0
   27.7380   21.4160   16.9490 O   0  0  0  0  0  0  0  0  0  0  0  0
   29.8450   19.1790   15.8390 C   0  0  0  0  0  0  0  0  0  0  0  0
   31.0270   19.9700   15.8220 O   0  0  0  0  0  0  0  0  0  0  0  0
   29.2700   22.2710   15.5350 N   0  0  0  0  0  0  0  0  0  0  0  0
   29.3080   23.5860   16.1630 C   0  0  2  0  0  0  0  0  0  0  0  0
   27.9730   24.3240   16.0500 C   0  0  0  0  0  0  0  0  0  0  0  0
   27.6060   25.0660   16.9580 O   0  0  0  0  0  0  0  0  0  0  0  0
   30.4700   24.4470   15.6020 C   0  0  0  0  0  0  0  0  0  0  0  0
   31.8110   23.8240   15.9720 C   0  0  0  0  0  0  0  0  0  0  0  0
   30.3520   24.6240   14.0980 C   0  0  0  0  0  0  0  0  0  0  0  0
   27.2460   24.1220   14.9530 N   0  0  0  0  0  0  0  0  0  0  0  0
   25.9200   24.7240   14.7880 C   0  0  0  0  0  0  0  0  0  0  0  0
   23.4955   22.6926    7.7620 H   0  0  0  0  0  0  0  0  0  0  0  0
   23.6673   23.0379    9.4663 H   0  0  0  0  0  0  0  0  0  0  0  0
   22.3304   22.0643    8.9026 H   0  0  0  0  0  0  0  0  0  0  0  0
   23.5718   20.8434   10.8054 H   0  0  0  0  0  0  0  0  0  0  0  0
   25.0241   18.6962    9.4828 H   0  0  0  0  0  0  0  0  0  0  0  0
   24.3074   18.6959   11.1237 H   0  0  0  0  0  0  0  0  0  0  0  0
   26.2723   21.3879   10.5357 H   0  0  0  0  0  0  0  0  0  0  0  0
   28.7804   20.3148   11.3334 H   0  0  0  0  0  0  0  0  0  0  0  0
   27.7187   23.1006   11.6573 H   0  0  0  0  0  0  0  0  0  0  0  0
   28.5890   22.4935   10.2691 H   0  0  0  0  0  0  0  0  0  0  0  0
   29.3908   22.6193   11.8164 H   0  0  0  0  0  0  0  0  0  0  0  0
   29.5296   19.7726   13.3574 H   0  0  0  0  0  0  0  0  0  0  0  0
   27.7616   19.3660   15.4552 H   0  0  0  0  0  0  0  0  0  0  0  0
   30.0036   18.3051   15.2422 H   0  0  0  0  0  0  0  0  0  0  0  0
   29.6335   18.9157   16.8543 H   0  0  0  0  0  0  0  0  0  0  0  0
   31.2360   20.2194   14.9082 H   0  0  0  0  0  0  0  0  0  0  0  0
   29.8236   22.1085   14.7373 H   0  0  0  0  0  0  0  0  0  0  0  0
   29.4881   23.4231   17.2051 H   0  0  0  0  0  0  0  0  0  0  0  0
   30.4092   25.4192   16.0447 H   0  0  0  0  0  0  0  0  0  0  0  0
   31.8845   22.8501   15.5349 H   0  0  0  0  0  0  0  0  0  0  0  0
   31.8855   23.7438   17.0364 H   0  0  0  0  0  0  0  0  0  0  0  0
   32.6044   24.4407   15.6044 H   0  0  0  0  0  0  0  0  0  0  0  0
   30.4090   23.6680   13.6208 H   0  0  0  0  0  0  0  0  0  0  0  0
   31.1499   25.2453   13.7483 H   0  0  0  0  0  0  0  0  0  0  0  0
   29.4140   25.0834   13.8654 H   0  0  0  0  0  0  0  0  0  0  0  0
   27.6082   23.5542   14.2349 H   0  0  0  0  0  0  0  0  0  0  0  0
   25.6820   25.3055   15.6541 H   0  0  0  0  0  0  0  0  0  0  0  0
   25.1901   23.9512   14.6657 H   0  0  0  0  0  0  0  0  0  0  0  0
   25.9197   25.3548   13.9237 H   0  0  0  0  0  0  0  0  0  0  0  0
  1  2  1  0  0  0  0
  1 28  1  0  0  0  0
  1 29  1  0  0  0  0
  1 30  1  0  0  0  0
  2  4  1  0  0  0  0
  3  2  2  0  0  0  0
  4  5  1  0  0  0  0
  4 31  1  0  0  0  0
  5  6  1  0  0  0  0
  5 32  1  0  0  0  0
  5 33  1  0  0  0  0
  6  7  2  0  0  0  0
  8  6  1  0  0  0  0
  8  9  1  0  0  0  0
  8 34  1  0  0  0  0
  9 10  1  0  0  0  0
  9 35  1  6  0  0  0
 10 11  2  0  0  0  0
 10 13  1  0  0  0  0
 12  9  1  0  0  0  0
 12 36  1  0  0  0  0
 12 37  1  0  0  0  0
 12 38  1  0  0  0  0
 13 14  1  0  0  0  0
 13 39  1  0  0  0  0
 14 17  1  0  0  0  0
 14 15  1  0  0  0  0
 14 40  1  1  0  0  0
 15 16  2  0  0  0  0
 17 41  1  0  0  0  0
 17 42  1  0  0  0  0
 18 17  1  0  0  0  0
 18 43  1  0  0  0  0
 19 15  1  0  0  0  0
 19 20  1  0  0  0  0
 19 44  1  0  0  0  0
 20 45  1  1  0  0  0
 21 20  1  0  0  0  0
 21 22  2  0  0  0  0
 23 24  1  0  0  0  0
 23 20  1  0  0  0  0
 23 46  1  0  0  0  0
 24 47  1  0  0  0  0
 24 48  1  0  0  0  0
 24 49  1  0  0  0  0
 25 23  1  0  0  0  0
 25 50  1  0  0  0  0
 25 51  1  0  0  0  0
 25 52  1  0  0  0  0
 26 21  1  0  0  0  0
 26 53  1  0  0  0  0
 27 26  1  0  0  0  0
 27 54  1  0  0  0  0
 27 55  1  0  0  0  0
 27 56  1  0  0  0  0
M  END
>  <MODEL>
       0

$$$$
selected_4mers/GASV/714_noH.pdb
 OpenBabel03042518353D

 56 55  0  0  1  0  0  0  0  0999 V2000
   33.1200   49.9760   33.5890 C   0  0  0  0  0  0  0  0  0  0  0  0
   33.7810   50.8300   34.6950 C   0  0  0  0  0  0  0  0  0  0  0  0
   33.2760   51.8990   35.0440 O   0  0  0  0  0  0  0  0  0  0  0  0
   34.8990   50.3320   35.2240 N   0  0  0  0  0  0  0  0  0  0  0  0
   35.7250   51.0290   36.2050 C   0  0  0  0  0  0  0  0  0  0  0  0
   35.8930   50.4020   37.5890 C   0  0  0  0  0  0  0  0  0  0  0  0
   36.4830   50.9950   38.4850 O   0  0  0  0  0  0  0  0  0  0  0  0
   35.3960   49.1940   37.7770 N   0  0  0  0  0  0  0  0  0  0  0  0
   35.5100   48.5130   39.0810 C   0  0  2  0  0  0  0  0  0  0  0  0
   36.9710   48.2280   39.4420 C   0  0  0  0  0  0  0  0  0  0  0  0
   37.7860   47.8680   38.5940 O   0  0  0  0  0  0  0  0  0  0  0  0
   34.6670   47.2380   39.1360 C   0  0  0  0  0  0  0  0  0  0  0  0
   37.2530   48.3880   40.7270 N   0  0  0  0  0  0  0  0  0  0  0  0
   38.5970   48.1890   41.2870 C   0  0  2  0  0  0  0  0  0  0  0  0
   38.8520   46.7120   41.6130 C   0  0  0  0  0  0  0  0  0  0  0  0
   39.9660   46.2100   41.4810 O   0  0  0  0  0  0  0  0  0  0  0  0
   38.7920   48.9920   42.5830 C   0  0  0  0  0  0  0  0  0  0  0  0
   38.1720   50.2770   42.5370 O   0  0  0  0  0  0  0  0  0  0  0  0
   37.7910   46.0840   42.0970 N   0  0  0  0  0  0  0  0  0  0  0  0
   37.7920   44.7390   42.6520 C   0  0  2  0  0  0  0  0  0  0  0  0
   36.5330   43.9890   42.2000 C   0  0  0  0  0  0  0  0  0  0  0  0
   35.4480   44.5930   42.0840 O   0  0  0  0  0  0  0  0  0  0  0  0
   37.8320   44.7720   44.2400 C   0  0  0  0  0  0  0  0  0  0  0  0
   37.9990   43.3570   44.8260 C   0  0  0  0  0  0  0  0  0  0  0  0
   38.9540   45.7170   44.7800 C   0  0  0  0  0  0  0  0  0  0  0  0
   36.6850   42.6880   41.9720 N   0  0  0  0  0  0  0  0  0  0  0  0
   35.5660   41.7570   41.7110 C   0  0  0  0  0  0  0  0  0  0  0  0
   32.2366   50.4677   33.2388 H   0  0  0  0  0  0  0  0  0  0  0  0
   32.8607   49.0168   33.9861 H   0  0  0  0  0  0  0  0  0  0  0  0
   33.8052   49.8523   32.7765 H   0  0  0  0  0  0  0  0  0  0  0  0
   35.1860   49.4360   34.9341 H   0  0  0  0  0  0  0  0  0  0  0  0
   35.2970   51.9994   36.3469 H   0  0  0  0  0  0  0  0  0  0  0  0
   36.7087   51.0069   35.7845 H   0  0  0  0  0  0  0  0  0  0  0  0
   34.9403   48.7383   37.0327 H   0  0  0  0  0  0  0  0  0  0  0  0
   35.1188   49.1840   39.8169 H   0  0  0  0  0  0  0  0  0  0  0  0
   35.0293   46.5393   38.4111 H   0  0  0  0  0  0  0  0  0  0  0  0
   33.6459   47.4761   38.9227 H   0  0  0  0  0  0  0  0  0  0  0  0
   34.7361   46.8066   40.1127 H   0  0  0  0  0  0  0  0  0  0  0  0
   36.5265   48.6532   41.3362 H   0  0  0  0  0  0  0  0  0  0  0  0
   39.2849   48.5267   40.5402 H   0  0  0  0  0  0  0  0  0  0  0  0
   39.8408   49.1243   42.7485 H   0  0  0  0  0  0  0  0  0  0  0  0
   38.3312   48.4405   43.3757 H   0  0  0  0  0  0  0  0  0  0  0  0
   38.5698   50.8027   41.8254 H   0  0  0  0  0  0  0  0  0  0  0  0
   36.9327   46.5660   42.0798 H   0  0  0  0  0  0  0  0  0  0  0  0
   38.6678   44.2375   42.2965 H   0  0  0  0  0  0  0  0  0  0  0  0
   36.8904   45.1654   44.5617 H   0  0  0  0  0  0  0  0  0  0  0  0
   38.9375   42.9497   44.5126 H   0  0  0  0  0  0  0  0  0  0  0  0
   37.2043   42.7307   44.4779 H   0  0  0  0  0  0  0  0  0  0  0  0
   37.9712   43.4079   45.8944 H   0  0  0  0  0  0  0  0  0  0  0  0
   39.9100   45.3474   44.4729 H   0  0  0  0  0  0  0  0  0  0  0  0
   38.9102   45.7483   45.8486 H   0  0  0  0  0  0  0  0  0  0  0  0
   38.8098   46.7021   44.3881 H   0  0  0  0  0  0  0  0  0  0  0  0
   37.5989   42.3218   41.9772 H   0  0  0  0  0  0  0  0  0  0  0  0
   34.6413   42.2947   41.7366 H   0  0  0  0  0  0  0  0  0  0  0  0
   35.5553   40.9933   42.4603 H   0  0  0  0  0  0  0  0  0  0  0  0
   35.6918   41.3094   40.7473 H   0  0  0  0  0  0  0  0  0  0  0  0
  1  2  1  0  0  0  0
  1 28  1  0  0  0  0
  1 29  1  0  0  0  0
  1 30  1  0  0  0  0
  2  3  2  0  0  0  0
  2  4  1  0  0  0  0
  4  5  1  0  0  0  0
  4 31  1  0  0  0  0
  5  6  1  0  0  0  0
  5 32  1  0  0  0  0
  5 33  1  0  0  0  0
  6  8  1  0  0  0  0
  6  7  2  0  0  0  0
  8  9  1  0  0  0  0
  8 34  1  0  0  0  0
  9 12  1  0  0  0  0
  9 10  1  0  0  0  0
  9 35  1  1  0  0  0
 10 13  1  0  0  0  0
 11 10  2  0  0  0  0
 12 36  1  0  0  0  0
 12 37  1  0  0  0  0
 12 38  1  0  0  0  0
 13 14  1  0  0  0  0
 13 39  1  0  0  0  0
 14 15  1  0  0  0  0
 14 17  1  0  0  0  0
 14 40  1  6  0  0  0
 15 19  1  0  0  0  0
 16 15  2  0  0  0  0
 17 41  1  0  0  0  0
 17 42  1  0  0  0  0
 18 17  1  0  0  0  0
 18 43  1  0  0  0  0
 19 20  1  0  0  0  0
 19 44  1  0  0  0  0
 20 23  1  0  0  0  0
 20 45  1  6  0  0  0
 21 20  1  0  0  0  0
 22 21  2  0  0  0  0
 23 25  1  0  0  0  0
 23 24  1  0  0  0  0
 23 46  1  0  0  0  0
 24 47  1  0  0  0  0
 24 48  1  0  0  0  0
 24 49  1  0  0  0  0
 25 50  1  0  0  0  0
 25 51  1  0  0  0  0
 25 52  1  0  0  0  0
 26 21  1  0  0  0  0
 26 53  1  0  0  0  0
 27 26  1  0  0  0  0
 27 54  1  0  0  0  0
 27 55  1  0  0  0  0
 27 56  1  0  0  0  0
M  END
>  <MODEL>
       0

$$$$
