selected_4mers/GGAS/735_noH.pdb
 OpenBabel03042518353D

 47 46  0  0  1  0  0  0  0  0999 V2000
   18.1750    8.2180    2.7000 C   0  0  0  0  0  0  0  0  0  0  0  0
   19.3020    7.2380    3.0390 C   0  0  0  0  0  0  0  0  0  0  0  0
   20.1500    7.5320    3.8820 O   0  0  0  0  0  0  0  0  0  0  0  0
   19.3050    6.0760    2.3880 N   0  0  0  0  0  0  0  0  0  0  0  0
   20.3380    5.0840    2.6450 C   0  0  0  0  0  0  0  0  0  0  0  0
   19.9870    4.0110    3.6630 C   0  0  0  0  0  0  0  0  0  0  0  0
   20.8200    3.1610    3.9870 O   0  0  0  0  0  0  0  0  0  0  0  0
   18.7580    4.0380    4.1710 N   0  0  0  0  0  0  0  0  0  0  0  0
   18.3530    3.0490    5.1560 C   0  0  0  0  0  0  0  0  0  0  0  0
   17.3190    2.0770    4.6270 C   0  0  0  0  0  0  0  0  0  0  0  0
   16.6680    2.3390    3.6160 O   0  0  0  0  0  0  0  0  0  0  0  0
   17.1560    0.9460    5.3070 N   0  0  0  0  0  0  0  0  0  0  0  0
   16.1840   -0.0380    4.8640 C   0  0  2  0  0  0  0  0  0  0  0  0
   15.6290   -0.8200    6.0430 C   0  0  0  0  0  0  0  0  0  0  0  0
   16.2650   -1.7560    6.5340 O   0  0  0  0  0  0  0  0  0  0  0  0
   16.8300   -0.9930    3.8470 C   0  0  0  0  0  0  0  0  0  0  0  0
   14.4440   -0.4270    6.5020 N   0  0  0  0  0  0  0  0  0  0  0  0
   13.8020   -1.1110    7.6130 C   0  0  2  0  0  0  0  0  0  0  0  0
   12.6370   -1.9570    7.0960 C   0  0  0  0  0  0  0  0  0  0  0  0
   11.7990   -1.4690    6.3240 O   0  0  0  0  0  0  0  0  0  0  0  0
   13.2770   -0.1000    8.6460 C   0  0  0  0  0  0  0  0  0  0  0  0
   14.3310    0.6310    9.2610 O   0  0  0  0  0  0  0  0  0  0  0  0
   12.6040   -3.2260    7.4990 N   0  0  0  0  0  0  0  0  0  0  0  0
   11.5190   -4.1300    7.1180 C   0  0  0  0  0  0  0  0  0  0  0  0
   17.5423    7.7888    1.9514 H   0  0  0  0  0  0  0  0  0  0  0  0
   18.5948    9.1307    2.3317 H   0  0  0  0  0  0  0  0  0  0  0  0
   17.6005    8.4192    3.5800 H   0  0  0  0  0  0  0  0  0  0  0  0
   18.6012    5.8864    1.7262 H   0  0  0  0  0  0  0  0  0  0  0  0
   21.2072    5.5990    2.9975 H   0  0  0  0  0  0  0  0  0  0  0  0
   20.4828    4.5689    1.7184 H   0  0  0  0  0  0  0  0  0  0  0  0
   18.1211    4.7296    3.8791 H   0  0  0  0  0  0  0  0  0  0  0  0
   17.9408    3.5588    6.0017 H   0  0  0  0  0  0  0  0  0  0  0  0
   19.2221    2.4818    5.4166 H   0  0  0  0  0  0  0  0  0  0  0  0
   17.6955    0.7752    6.1126 H   0  0  0  0  0  0  0  0  0  0  0  0
   15.3718    0.4759    4.3938 H   0  0  0  0  0  0  0  0  0  0  0  0
   17.6436   -1.5106    4.3107 H   0  0  0  0  0  0  0  0  0  0  0  0
   17.1940   -0.4317    3.0119 H   0  0  0  0  0  0  0  0  0  0  0  0
   16.1020   -1.7013    3.5106 H   0  0  0  0  0  0  0  0  0  0  0  0
   13.9934    0.3409    6.0819 H   0  0  0  0  0  0  0  0  0  0  0  0
   14.5270   -1.7410    8.0846 H   0  0  0  0  0  0  0  0  0  0  0  0
   12.7363   -0.6289    9.4028 H   0  0  0  0  0  0  0  0  0  0  0  0
   12.6465    0.5971    8.1347 H   0  0  0  0  0  0  0  0  0  0  0  0
   14.9174    0.0185    9.7320 H   0  0  0  0  0  0  0  0  0  0  0  0
   13.3308   -3.5654    8.0698 H   0  0  0  0  0  0  0  0  0  0  0  0
   10.8181   -3.6063    6.5020 H   0  0  0  0  0  0  0  0  0  0  0  0
   11.0248   -4.4849    7.9982 H   0  0  0  0  0  0  0  0  0  0  0  0
   11.9204   -4.9601    6.5751 H   0  0  0  0  0  0  0  0  0  0  0  0
  1  2  1  0  0  0  0
  1 25  1  0  0  0  0
  1 26  1  0  0  0  0
  1 27  1  0  0  0  0
  2  3  2  0  0  0  0
  4  5  1  0  0  0  0
  4  2  1  0  0  0  0
  4 28  1  0  0  0  0
  5  6  1  0  0  0  0
  5 29  1  0  0  0  0
  5 30  1  0  0  0  0
  6  7  2  0  0  0  0
  6  8  1  0  0  0  0
  8  9  1  0  0  0  0
  8 31  1  0  0  0  0
  9 32  1  0  0  0  0
  9 33  1  0  0  0  0
 10  9  1  0  0  0  0
 10 12  1  0  0  0  0
 11 10  2  0  0  0  0
 12 34  1  0  0  0  0
 13 12  1  0  0  0  0
 13 14  1  0  0  0  0
 13 35  1  6  0  0  0
 14 17  1  0  0  0  0
 14 15  2  0  0  0  0
 16 13  1  0  0  0  0
 16 36  1  0  0  0  0
 16 37  1  0  0  0  0
 16 38  1  0  0  0  0
 17 18  1  0  0  0  0
 17 39  1  0  0  0  0
 18 21  1  0  0  0  0
 18 40  1  1  0  0  0
 19 23  1  0  0  0  0
 19 18  1  0  0  0  0
 20 19  2  0  0  0  0
 21 22  1  0  0  0  0
 21 41  1  0  0  0  0
 21 42  1  0  0  0  0
 22 43  1  0  0  0  0
 23 44  1  0  0  0  0
 24 23  1  0  0  0  0
 24 45  1  0  0  0  0
 24 46  1  0  0  0  0
 24 47  1  0  0  0  0
M  END
>  <MODEL>
       0

$$$$
selected_4mers/GGAS/736_noH.pdb
 OpenBabel03042518353D

 47 46  0  0  1  0  0  0  0  0999 V2000
   27.5520   27.7970   25.9930 C   0  0  0  0  0  0  0  0  0  0  0  0
   27.8930   29.1860   26.5610 C   0  0  0  0  0  0  0  0  0  0  0  0
   28.9900   29.4300   27.1050 O   0  0  0  0  0  0  0  0  0  0  0  0
   26.9390   30.1060   26.4190 N   0  0  0  0  0  0  0  0  0  0  0  0
   27.1270   31.4640   26.8510 C   0  0  0  0  0  0  0  0  0  0  0  0
   26.9900   31.6570   28.3480 C   0  0  0  0  0  0  0  0  0  0  0  0
   26.6200   30.7350   29.0850 O   0  0  0  0  0  0  0  0  0  0  0  0
   27.3220   32.8590   28.7890 N   0  0  0  0  0  0  0  0  0  0  0  0
   27.2530   33.1680   30.2020 C   0  0  0  0  0  0  0  0  0  0  0  0
   25.8380   33.4050   30.6900 C   0  0  0  0  0  0  0  0  0  0  0  0
   25.4940   33.0490   31.8250 O   0  0  0  0  0  0  0  0  0  0  0  0
   24.9920   33.9910   29.8350 N   0  0  0  0  0  0  0  0  0  0  0  0
   23.6230   34.3080   30.2580 C   0  0  2  0  0  0  0  0  0  0  0  0
   22.5520   33.5620   29.4580 C   0  0  0  0  0  0  0  0  0  0  0  0
   21.5130   33.1900   30.0070 O   0  0  0  0  0  0  0  0  0  0  0  0
   23.3700   35.8320   30.2150 C   0  0  0  0  0  0  0  0  0  0  0  0
   22.8140   33.3410   28.1710 N   0  0  0  0  0  0  0  0  0  0  0  0
   21.9480   32.4870   27.3640 C   0  0  2  0  0  0  0  0  0  0  0  0
   22.7760   31.4170   26.6690 C   0  0  0  0  0  0  0  0  0  0  0  0
   23.9800   31.5990   26.4660 O   0  0  0  0  0  0  0  0  0  0  0  0
   21.1680   33.3190   26.3200 C   0  0  0  0  0  0  0  0  0  0  0  0
   22.0420   33.9530   25.4120 O   0  0  0  0  0  0  0  0  0  0  0  0
   22.1280   30.3270   26.3080 N   0  0  0  0  0  0  0  0  0  0  0  0
   22.7510   29.3100   25.4350 C   0  0  0  0  0  0  0  0  0  0  0  0
   26.5667   27.8142   25.5762 H   0  0  0  0  0  0  0  0  0  0  0  0
   27.5948   27.0706   26.7774 H   0  0  0  0  0  0  0  0  0  0  0  0
   28.2574   27.5405   25.2305 H   0  0  0  0  0  0  0  0  0  0  0  0
   26.0826   29.8485   26.0072 H   0  0  0  0  0  0  0  0  0  0  0  0
   26.3971   32.0765   26.3642 H   0  0  0  0  0  0  0  0  0  0  0  0
   28.1293   31.7359   26.5933 H   0  0  0  0  0  0  0  0  0  0  0  0
   27.6182   33.5486   28.1519 H   0  0  0  0  0  0  0  0  0  0  0  0
   27.8291   34.0507   30.3861 H   0  0  0  0  0  0  0  0  0  0  0  0
   27.6362   32.3217   30.7329 H   0  0  0  0  0  0  0  0  0  0  0  0
   25.2880   34.2096   28.9218 H   0  0  0  0  0  0  0  0  0  0  0  0
   23.5392   33.9672   31.2688 H   0  0  0  0  0  0  0  0  0  0  0  0
   23.4525   36.1789   29.2062 H   0  0  0  0  0  0  0  0  0  0  0  0
   24.0943   36.3311   30.8242 H   0  0  0  0  0  0  0  0  0  0  0  0
   22.3880   36.0411   30.5849 H   0  0  0  0  0  0  0  0  0  0  0  0
   23.6034   33.7598   27.7579 H   0  0  0  0  0  0  0  0  0  0  0  0
   21.2388   32.0169   28.0128 H   0  0  0  0  0  0  0  0  0  0  0  0
   20.5122   32.6707   25.7774 H   0  0  0  0  0  0  0  0  0  0  0  0
   20.6127   34.0737   26.8367 H   0  0  0  0  0  0  0  0  0  0  0  0
   22.5542   33.2820   24.9341 H   0  0  0  0  0  0  0  0  0  0  0  0
   21.2073   30.1872   26.6275 H   0  0  0  0  0  0  0  0  0  0  0  0
   23.7444   29.6170   25.1825 H   0  0  0  0  0  0  0  0  0  0  0  0
   22.1723   29.2044   24.5412 H   0  0  0  0  0  0  0  0  0  0  0  0
   22.7873   28.3724   25.9493 H   0  0  0  0  0  0  0  0  0  0  0  0
  1  2  1  0  0  0  0
  1 25  1  0  0  0  0
  1 26  1  0  0  0  0
  1 27  1  0  0  0  0
  2  3  2  0  0  0  0
  4  2  1  0  0  0  0
  4  5  1  0  0  0  0
  4 28  1  0  0  0  0
  5  6  1  0  0  0  0
  5 29  1  0  0  0  0
  5 30  1  0  0  0  0
  6  8  1  0  0  0  0
  6  7  2  0  0  0  0
  8  9  1  0  0  0  0
  8 31  1  0  0  0  0
  9 10  1  0  0  0  0
  9 32  1  0  0  0  0
  9 33  1  0  0  0  0
 10 11  2  0  0  0  0
 12 13  1  0  0  0  0
 12 10  1  0  0  0  0
 12 34  1  0  0  0  0
 13 35  1  1  0  0  0
 14 15  2  0  0  0  0
 14 13  1  0  0  0  0
 16 13  1  0  0  0  0
 16 36  1  0  0  0  0
 16 37  1  0  0  0  0
 16 38  1  0  0  0  0
 17 14  1  0  0  0  0
 17 39  1  0  0  0  0
 18 17  1  0  0  0  0
 18 40  1  1  0  0  0
 19 18  1  0  0  0  0
 20 19  2  0  0  0  0
 21 18  1  0  0  0  0
 21 41  1  0  0  0  0
 21 42  1  0  0  0  0
 22 21  1  0  0  0  0
 22 43  1  0  0  0  0
 23 19  1  0  0  0  0
 23 44  1  0  0  0  0
 24 23  1  0  0  0  0
 24 45  1  0  0  0  0
 24 46  1  0  0  0  0
 24 47  1  0  0  0  0
M  END
>  <MODEL>
       0

$$$$
selected_4mers/GGAS/737_noH.pdb
 OpenBabel03042518353D

 47 46  0  0  1  0  0  0  0  0999 V2000
   24.4900    1.9850    9.3480 C   0  0  0  0  0  0  0  0  0  0  0  0
   25.9280    1.9720    9.8620 C   0  0  0  0  0  0  0  0  0  0  0  0
   26.2710    2.7830   10.7210 O   0  0  0  0  0  0  0  0  0  0  0  0
   26.7630    1.1120    9.3070 N   0  0  0  0  0  0  0  0  0  0  0  0
   28.1670    1.0410    9.6730 C   0  0  0  0  0  0  0  0  0  0  0  0
   28.9920    1.8740    8.7010 C   0  0  0  0  0  0  0  0  0  0  0  0
   29.1080    3.0950    8.8420 O   0  0  0  0  0  0  0  0  0  0  0  0
   29.5580    1.2250    7.6710 N   0  0  0  0  0  0  0  0  0  0  0  0
   30.5210    1.9090    6.8210 C   0  0  0  0  0  0  0  0  0  0  0  0
   30.0180    3.1890    6.2010 C   0  0  0  0  0  0  0  0  0  0  0  0
   30.7610    4.1750    6.1320 O   0  0  0  0  0  0  0  0  0  0  0  0
   28.7680    3.2210    5.7180 N   0  0  0  0  0  0  0  0  0  0  0  0
   28.2750    4.4290    5.0370 C   0  0  2  0  0  0  0  0  0  0  0  0
   28.0890    5.5850    6.0100 C   0  0  0  0  0  0  0  0  0  0  0  0
   27.9490    6.7280    5.5710 O   0  0  0  0  0  0  0  0  0  0  0  0
   26.9920    4.1080    4.2710 C   0  0  0  0  0  0  0  0  0  0  0  0
   28.0280    5.3010    7.3210 N   0  0  0  0  0  0  0  0  0  0  0  0
   27.7800    6.3500    8.2870 C   0  0  2  0  0  0  0  0  0  0  0  0
   29.0280    7.1750    8.6290 C   0  0  0  0  0  0  0  0  0  0  0  0
   28.9210    8.2000    9.3030 O   0  0  0  0  0  0  0  0  0  0  0  0
   27.1750    5.8310    9.5890 C   0  0  0  0  0  0  0  0  0  0  0  0
   28.1220    5.2170   10.4360 O   0  0  0  0  0  0  0  0  0  0  0  0
   30.1790    6.7180    8.1460 N   0  0  0  0  0  0  0  0  0  0  0  0
   31.4440    7.4580    8.2440 C   0  0  0  0  0  0  0  0  0  0  0  0
   24.3678    1.2193    8.6107 H   0  0  0  0  0  0  0  0  0  0  0  0
   24.2759    2.9381    8.9113 H   0  0  0  0  0  0  0  0  0  0  0  0
   23.8187    1.8068   10.1619 H   0  0  0  0  0  0  0  0  0  0  0  0
   26.4209    0.4960    8.6194 H   0  0  0  0  0  0  0  0  0  0  0  0
   28.2958    1.4204   10.6652 H   0  0  0  0  0  0  0  0  0  0  0  0
   28.4931    0.0227    9.6333 H   0  0  0  0  0  0  0  0  0  0  0  0
   29.3216    0.2865    7.4908 H   0  0  0  0  0  0  0  0  0  0  0  0
   31.3818    2.1412    7.4126 H   0  0  0  0  0  0  0  0  0  0  0  0
   30.7339    1.2441    6.0102 H   0  0  0  0  0  0  0  0  0  0  0  0
   28.1805    2.4375    5.8187 H   0  0  0  0  0  0  0  0  0  0  0  0
   29.0123    4.7484    4.3304 H   0  0  0  0  0  0  0  0  0  0  0  0
   26.2377    3.7855    4.9579 H   0  0  0  0  0  0  0  0  0  0  0  0
   27.1850    3.3301    3.5621 H   0  0  0  0  0  0  0  0  0  0  0  0
   26.6551    4.9837    3.7567 H   0  0  0  0  0  0  0  0  0  0  0  0
   28.1527    4.3736    7.6270 H   0  0  0  0  0  0  0  0  0  0  0  0
   27.0721    6.9843    7.7956 H   0  0  0  0  0  0  0  0  0  0  0  0
   26.4173    5.1143    9.3500 H   0  0  0  0  0  0  0  0  0  0  0  0
   26.7787    6.6749   10.1141 H   0  0  0  0  0  0  0  0  0  0  0  0
   28.5027    4.4448    9.9892 H   0  0  0  0  0  0  0  0  0  0  0  0
   30.1838    5.8401    7.7005 H   0  0  0  0  0  0  0  0  0  0  0  0
   31.2763    8.3856    8.7502 H   0  0  0  0  0  0  0  0  0  0  0  0
   31.8213    7.6510    7.2615 H   0  0  0  0  0  0  0  0  0  0  0  0
   32.1559    6.8765    8.7916 H   0  0  0  0  0  0  0  0  0  0  0  0
  1  2  1  0  0  0  0
  1 25  1  0  0  0  0
  1 26  1  0  0  0  0
  1 27  1  0  0  0  0
  2  3  2  0  0  0  0
  4  5  1  0  0  0  0
  4  2  1  0  0  0  0
  4 28  1  0  0  0  0
  5 29  1  0  0  0  0
  5 30  1  0  0  0  0
  6  7  2  0  0  0  0
  6  5  1  0  0  0  0
  8  6  1  0  0  0  0
  8 31  1  0  0  0  0
  9  8  1  0  0  0  0
  9 32  1  0  0  0  0
  9 33  1  0  0  0  0
 10  9  1  0  0  0  0
 11 10  2  0  0  0  0
 12 10  1  0  0  0  0
 12 34  1  0  0  0  0
 13 12  1  0  0  0  0
 13 14  1  0  0  0  0
 13 35  1  6  0  0  0
 14 17  1  0  0  0  0
 15 14  2  0  0  0  0
 16 13  1  0  0  0  0
 16 36  1  0  0  0  0
 16 37  1  0  0  0  0
 16 38  1  0  0  0  0
 17 18  1  0  0  0  0
 17 39  1  0  0  0  0
 18 19  1  0  0  0  0
 18 21  1  0  0  0  0
 18 40  1  6  0  0  0
 19 20  2  0  0  0  0
 21 22  1  0  0  0  0
 21 41  1  0  0  0  0
 21 42  1  0  0  0  0
 22 43  1  0  0  0  0
 23 24  1  0  0  0  0
 23 19  1  0  0  0  0
 23 44  1  0  0  0  0
 24 45  1  0  0  0  0
 24 46  1  0  0  0  0
 24 47  1  0  0  0  0
M  END
>  <MODEL>
       0

$$$$
selected_4mers/GGAS/738_noH.pdb
 OpenBabel03042518353D

 47 46  0  0  1  0  0  0  0  0999 V2000
   38.0340   24.0120   62.0320 C   0  0  0  0  0  0  0  0  0  0  0  0
   37.4500   23.2190   63.1870 C   0  0  0  0  0  0  0  0  0  0  0  0
   37.7060   23.5440   64.3400 O   0  0  0  0  0  0  0  0  0  0  0  0
   36.7150   22.1580   62.8830 N   0  0  0  0  0  0  0  0  0  0  0  0
   36.1690   21.3010   63.9150 C   0  0  0  0  0  0  0  0  0  0  0  0
   35.2880   20.2360   63.3370 C   0  0  0  0  0  0  0  0  0  0  0  0
   35.2700   20.0120   62.1420 O   0  0  0  0  0  0  0  0  0  0  0  0
   34.5330   19.6060   64.2180 N   0  0  0  0  0  0  0  0  0  0  0  0
   33.6690   18.5140   63.8510 C   0  0  0  0  0  0  0  0  0  0  0  0
   33.6740   17.4150   64.8780 C   0  0  0  0  0  0  0  0  0  0  0  0
   34.1610   17.6020   65.9860 O   0  0  0  0  0  0  0  0  0  0  0  0
   33.1680   16.2620   64.4880 N   0  0  0  0  0  0  0  0  0  0  0  0
   32.9960   15.1170   65.3600 C   0  0  2  0  0  0  0  0  0  0  0  0
   32.7990   13.8890   64.5110 C   0  0  0  0  0  0  0  0  0  0  0  0
   32.3910   13.9790   63.3720 O   0  0  0  0  0  0  0  0  0  0  0  0
   31.7900   15.3300   66.2600 C   0  0  0  0  0  0  0  0  0  0  0  0
   33.0440   12.7270   65.0920 N   0  0  0  0  0  0  0  0  0  0  0  0
   32.8260   11.4550   64.4270 C   0  0  2  0  0  0  0  0  0  0  0  0
   31.8390   10.5820   65.1720 C   0  0  0  0  0  0  0  0  0  0  0  0
   31.9280   10.4360   66.3750 O   0  0  0  0  0  0  0  0  0  0  0  0
   34.1310   10.6780   64.2760 C   0  0  0  0  0  0  0  0  0  0  0  0
   33.8780    9.3880   63.7710 O   0  0  0  0  0  0  0  0  0  0  0  0
   30.9440    9.9780   64.4020 N   0  0  0  0  0  0  0  0  0  0  0  0
   29.9680    9.0330   64.9180 C   0  0  0  0  0  0  0  0  0  0  0  0
   37.7058   23.5878   61.1061 H   0  0  0  0  0  0  0  0  0  0  0  0
   39.1024   23.9788   62.0807 H   0  0  0  0  0  0  0  0  0  0  0  0
   37.7055   25.0284   62.0950 H   0  0  0  0  0  0  0  0  0  0  0  0
   36.5370   21.9488   61.9376 H   0  0  0  0  0  0  0  0  0  0  0  0
   35.5947   21.8967   64.5934 H   0  0  0  0  0  0  0  0  0  0  0  0
   36.9830   20.8247   64.4204 H   0  0  0  0  0  0  0  0  0  0  0  0
   34.5617   19.8930   65.1593 H   0  0  0  0  0  0  0  0  0  0  0  0
   33.9991   18.1129   62.9156 H   0  0  0  0  0  0  0  0  0  0  0  0
   32.6711   18.8939   63.7816 H   0  0  0  0  0  0  0  0  0  0  0  0
   32.8901   16.1732   63.5477 H   0  0  0  0  0  0  0  0  0  0  0  0
   33.8621   14.9938   65.9762 H   0  0  0  0  0  0  0  0  0  0  0  0
   30.9139   15.4551   65.6586 H   0  0  0  0  0  0  0  0  0  0  0  0
   31.9407   16.2050   66.8572 H   0  0  0  0  0  0  0  0  0  0  0  0
   31.6664   14.4798   66.8978 H   0  0  0  0  0  0  0  0  0  0  0  0
   33.3887   12.7241   66.0142 H   0  0  0  0  0  0  0  0  0  0  0  0
   32.4262   11.6923   63.4633 H   0  0  0  0  0  0  0  0  0  0  0  0
   34.7765   11.2005   63.6013 H   0  0  0  0  0  0  0  0  0  0  0  0
   34.5960   10.5903   65.2357 H   0  0  0  0  0  0  0  0  0  0  0  0
   33.4561    9.4586   62.9004 H   0  0  0  0  0  0  0  0  0  0  0  0
   30.9406   10.1787   63.4382 H   0  0  0  0  0  0  0  0  0  0  0  0
   30.1010    8.9238   65.9741 H   0  0  0  0  0  0  0  0  0  0  0  0
   30.1034    8.0845   64.4416 H   0  0  0  0  0  0  0  0  0  0  0  0
   28.9810    9.3948   64.7183 H   0  0  0  0  0  0  0  0  0  0  0  0
  1  2  1  0  0  0  0
  1 25  1  0  0  0  0
  1 26  1  0  0  0  0
  1 27  1  0  0  0  0
  2  3  2  0  0  0  0
  4  2  1  0  0  0  0
  4  5  1  0  0  0  0
  4 28  1  0  0  0  0
  5 29  1  0  0  0  0
  5 30  1  0  0  0  0
  6  5  1  0  0  0  0
  6  8  1  0  0  0  0
  7  6  2  0  0  0  0
  8 31  1  0  0  0  0
  9  8  1  0  0  0  0
  9 10  1  0  0  0  0
  9 32  1  0  0  0  0
  9 33  1  0  0  0  0
 10 11  2  0  0  0  0
 12 10  1  0  0  0  0
 12 13  1  0  0  0  0
 12 34  1  0  0  0  0
 13 16  1  0  0  0  0
 13 35  1  1  0  0  0
 14 17  1  0  0  0  0
 14 13  1  0  0  0  0
 15 14  2  0  0  0  0
 16 36  1  0  0  0  0
 16 37  1  0  0  0  0
 16 38  1  0  0  0  0
 17 39  1  0  0  0  0
 18 17  1  0  0  0  0
 18 19  1  0  0  0  0
 18 40  1  6  0  0  0
 19 20  2  0  0  0  0
 21 18  1  0  0  0  0
 21 41  1  0  0  0  0
 21 42  1  0  0  0  0
 22 21  1  0  0  0  0
 22 43  1  0  0  0  0
 23 24  1  0  0  0  0
 23 19  1  0  0  0  0
 23 44  1  0  0  0  0
 24 45  1  0  0  0  0
 24 46  1  0  0  0  0
 24 47  1  0  0  0  0
M  END
>  <MODEL>
       0

$$$$
selected_4mers/GGAS/739_noH.pdb
 OpenBabel03042518353D

 47 46  0  0  1  0  0  0  0  0999 V2000
   38.1230  -19.9270   13.3820 C   0  0  0  0  0  0  0  0  0  0  0  0
   37.8460  -19.6160   11.9130 C   0  0  0  0  0  0  0  0  0  0  0  0
   37.7100  -18.4680   11.4700 O   0  0  0  0  0  0  0  0  0  0  0  0
   37.7630  -20.6270   11.0790 N   0  0  0  0  0  0  0  0  0  0  0  0
   37.7480  -20.4980    9.6460 C   0  0  0  0  0  0  0  0  0  0  0  0
   38.8870  -19.6600    9.1220 C   0  0  0  0  0  0  0  0  0  0  0  0
   38.7580  -18.8240    8.2260 O   0  0  0  0  0  0  0  0  0  0  0  0
   40.0850  -19.8650    9.6580 N   0  0  0  0  0  0  0  0  0  0  0  0
   41.2280  -19.0230    9.4480 C   0  0  0  0  0  0  0  0  0  0  0  0
   42.1430  -19.3750    8.3050 C   0  0  0  0  0  0  0  0  0  0  0  0
   43.1250  -18.6680    8.1780 O   0  0  0  0  0  0  0  0  0  0  0  0
   41.8190  -20.3930    7.5380 N   0  0  0  0  0  0  0  0  0  0  0  0
   42.7570  -20.8000    6.5070 C   0  0  2  0  0  0  0  0  0  0  0  0
   42.4470  -20.2080    5.1670 C   0  0  0  0  0  0  0  0  0  0  0  0
   43.1880  -20.4810    4.2100 O   0  0  0  0  0  0  0  0  0  0  0  0
   42.7650  -22.3300    6.4820 C   0  0  0  0  0  0  0  0  0  0  0  0
   41.4130  -19.3730    5.0650 N   0  0  0  0  0  0  0  0  0  0  0  0
   41.1230  -18.7040    3.8020 C   0  0  2  0  0  0  0  0  0  0  0  0
   40.3100  -17.4240    4.0210 C   0  0  0  0  0  0  0  0  0  0  0  0
   39.8500  -17.1550    5.1460 O   0  0  0  0  0  0  0  0  0  0  0  0
   40.3830  -19.6190    2.8150 C   0  0  0  0  0  0  0  0  0  0  0  0
   39.0650  -19.8510    3.2230 O   0  0  0  0  0  0  0  0  0  0  0  0
   40.1380  -16.6090    2.9850 N   0  0  0  0  0  0  0  0  0  0  0  0
   39.2880  -15.4530    3.0500 C   0  0  0  0  0  0  0  0  0  0  0  0
   38.1992  -20.9861   13.5141 H   0  0  0  0  0  0  0  0  0  0  0  0
   37.3228  -19.5492   13.9836 H   0  0  0  0  0  0  0  0  0  0  0  0
   39.0410  -19.4637   13.6777 H   0  0  0  0  0  0  0  0  0  0  0  0
   37.7073  -21.5333   11.4595 H   0  0  0  0  0  0  0  0  0  0  0  0
   37.8155  -21.4747    9.2142 H   0  0  0  0  0  0  0  0  0  0  0  0
   36.8365  -20.0066    9.3766 H   0  0  0  0  0  0  0  0  0  0  0  0
   40.1967  -20.6505   10.2408 H   0  0  0  0  0  0  0  0  0  0  0  0
   40.8688  -18.0295    9.2782 H   0  0  0  0  0  0  0  0  0  0  0  0
   41.8257  -19.1461   10.3269 H   0  0  0  0  0  0  0  0  0  0  0  0
   40.9642  -20.8660    7.6595 H   0  0  0  0  0  0  0  0  0  0  0  0
   43.7327  -20.4269    6.7386 H   0  0  0  0  0  0  0  0  0  0  0  0
   41.7839  -22.6880    6.2495 H   0  0  0  0  0  0  0  0  0  0  0  0
   43.0621  -22.7008    7.4407 H   0  0  0  0  0  0  0  0  0  0  0  0
   43.4547  -22.6710    5.7384 H   0  0  0  0  0  0  0  0  0  0  0  0
   40.8405  -19.2066    5.8485 H   0  0  0  0  0  0  0  0  0  0  0  0
   42.0705  -18.4489    3.3753 H   0  0  0  0  0  0  0  0  0  0  0  0
   40.3723  -19.1547    1.8510 H   0  0  0  0  0  0  0  0  0  0  0  0
   40.8943  -20.5582    2.7787 H   0  0  0  0  0  0  0  0  0  0  0  0
   38.5855  -19.0087    3.2616 H   0  0  0  0  0  0  0  0  0  0  0  0
   40.6099  -16.8047    2.1434 H   0  0  0  0  0  0  0  0  0  0  0  0
   38.8536  -15.3841    4.0254 H   0  0  0  0  0  0  0  0  0  0  0  0
   38.5114  -15.5398    2.3190 H   0  0  0  0  0  0  0  0  0  0  0  0
   39.8658  -14.5740    2.8539 H   0  0  0  0  0  0  0  0  0  0  0  0
  1 25  1  0  0  0  0
  1 26  1  0  0  0  0
  1 27  1  0  0  0  0
  2  1  1  0  0  0  0
  3  2  2  0  0  0  0
  4  2  1  0  0  0  0
  4 28  1  0  0  0  0
  5  4  1  0  0  0  0
  5 29  1  0  0  0  0
  5 30  1  0  0  0  0
  6  5  1  0  0  0  0
  6  8  1  0  0  0  0
  7  6  2  0  0  0  0
  8 31  1  0  0  0  0
  9  8  1  0  0  0  0
  9 32  1  0  0  0  0
  9 33  1  0  0  0  0
 10  9  1  0  0  0  0
 11 10  2  0  0  0  0
 12 10  1  0  0  0  0
 12 34  1  0  0  0  0
 13 12  1  0  0  0  0
 13 35  1  1  0  0  0
 14 13  1  0  0  0  0
 15 14  2  0  0  0  0
 16 13  1  0  0  0  0
 16 36  1  0  0  0  0
 16 37  1  0  0  0  0
 16 38  1  0  0  0  0
 17 14  1  0  0  0  0
 17 39  1  0  0  0  0
 18 19  1  0  0  0  0
 18 17  1  0  0  0  0
 18 40  1  6  0  0  0
 19 20  2  0  0  0  0
 21 22  1  0  0  0  0
 21 18  1  0  0  0  0
 21 41  1  0  0  0  0
 21 42  1  0  0  0  0
 22 43  1  0  0  0  0
 23 24  1  0  0  0  0
 23 19  1  0  0  0  0
 23 44  1  0  0  0  0
 24 45  1  0  0  0  0
 24 46  1  0  0  0  0
 24 47  1  0  0  0  0
M  END
>  <MODEL>
       0

$$$$
