selected_4mers/GKVL/725_noH.pdb
 OpenBabel03042518353D

 75 74  0  0  1  0  0  0  0  0999 V2000
    0.2660   22.4580    9.5980 C   0  0  0  0  0  0  0  0  0  0  0  0
    1.0610   22.4600    8.2850 C   0  0  0  0  0  0  0  0  0  0  0  0
    1.1720   23.5090    7.6360 O   0  0  0  0  0  0  0  0  0  0  0  0
    1.5690   21.2930    7.8660 N   0  0  0  0  0  0  0  0  0  0  0  0
    2.1650   21.1790    6.5400 C   0  0  0  0  0  0  0  0  0  0  0  0
    3.6160   21.5900    6.4280 C   0  0  0  0  0  0  0  0  0  0  0  0
    4.1960   21.5480    5.3370 O   0  0  0  0  0  0  0  0  0  0  0  0
    4.2100   21.9870    7.5510 N   0  0  0  0  0  0  0  0  0  0  0  0
    5.6310   22.3550    7.6210 C   0  0  2  0  0  0  0  0  0  0  0  0
    6.1580   22.0200    9.0460 C   0  0  0  0  0  0  0  0  0  0  0  0
    5.3640   21.9360   10.0160 O   0  0  0  0  0  0  0  0  0  0  0  0
    5.8130   23.8510    7.3270 C   0  0  0  0  0  0  0  0  0  0  0  0
    5.4300   24.7510    8.4950 C   0  0  0  0  0  0  0  0  0  0  0  0
    5.7820   26.2400    8.2770 C   0  0  0  0  0  0  0  0  0  0  0  0
    5.2330   27.0610    9.4780 C   0  0  0  0  0  0  0  0  0  0  0  0
    5.7270   28.4810    9.4800 N   0  0  0  0  0  0  0  0  0  0  0  0
    7.4740   21.8350    9.1750 N   0  0  0  0  0  0  0  0  0  0  0  0
    8.0310   21.4850   10.4970 C   0  0  2  0  0  0  0  0  0  0  0  0
    8.0370   22.7450   11.3600 C   0  0  0  0  0  0  0  0  0  0  0  0
    8.4530   23.8170   10.9030 O   0  0  0  0  0  0  0  0  0  0  0  0
    9.4700   20.8810   10.4060 C   0  0  0  0  0  0  0  0  0  0  0  0
    9.9860   20.5090   11.7470 C   0  0  0  0  0  0  0  0  0  0  0  0
    9.4830   19.6330    9.5640 C   0  0  0  0  0  0  0  0  0  0  0  0
    7.5440   22.6060   12.5990 N   0  0  0  0  0  0  0  0  0  0  0  0
    7.6740   23.6270   13.6320 C   0  0  2  0  0  0  0  0  0  0  0  0
    8.8860   23.2510   14.5000 C   0  0  0  0  0  0  0  0  0  0  0  0
    9.4450   22.1630   14.3660 O   0  0  0  0  0  0  0  0  0  0  0  0
    6.4060   23.7340   14.4760 C   0  0  0  0  0  0  0  0  0  0  0  0
    5.1010   23.9590   13.6780 C   0  0  0  0  0  0  0  0  0  0  0  0
    3.9460   24.1620   14.6490 C   0  0  0  0  0  0  0  0  0  0  0  0
    5.2590   25.1770   12.7600 C   0  0  0  0  0  0  0  0  0  0  0  0
    9.3110   24.1500   15.3820 N   0  0  0  0  0  0  0  0  0  0  0  0
   10.6010   23.9970   16.0720 C   0  0  0  0  0  0  0  0  0  0  0  0
   -0.0774   23.4493    9.8085 H   0  0  0  0  0  0  0  0  0  0  0  0
    0.8952   22.1217   10.3954 H   0  0  0  0  0  0  0  0  0  0  0  0
   -0.5740   21.8017    9.5054 H   0  0  0  0  0  0  0  0  0  0  0  0
    1.5396   20.5067    8.4577 H   0  0  0  0  0  0  0  0  0  0  0  0
    2.0898   20.1564    6.2341 H   0  0  0  0  0  0  0  0  0  0  0  0
    1.6229   21.8623    5.9203 H   0  0  0  0  0  0  0  0  0  0  0  0
    3.6718   22.0365    8.3739 H   0  0  0  0  0  0  0  0  0  0  0  0
    6.1829   21.8043    6.8882 H   0  0  0  0  0  0  0  0  0  0  0  0
    5.2020   24.1078    6.4870 H   0  0  0  0  0  0  0  0  0  0  0  0
    6.8537   24.0097    7.1355 H   0  0  0  0  0  0  0  0  0  0  0  0
    5.9439   24.4073    9.3683 H   0  0  0  0  0  0  0  0  0  0  0  0
    4.3664   24.6940    8.5965 H   0  0  0  0  0  0  0  0  0  0  0  0
    5.3348   26.5868    7.3689 H   0  0  0  0  0  0  0  0  0  0  0  0
    6.8432   26.3583    8.2082 H   0  0  0  0  0  0  0  0  0  0  0  0
    5.5432   26.5887   10.3866 H   0  0  0  0  0  0  0  0  0  0  0  0
    4.1668   27.0883    9.3922 H   0  0  0  0  0  0  0  0  0  0  0  0
    6.7438   28.4871    9.5609 H   0  0  0  0  0  0  0  0  0  0  0  0
    5.3200   28.9815   10.2701 H   0  0  0  0  0  0  0  0  0  0  0  0
    8.0677   21.9311    8.3956 H   0  0  0  0  0  0  0  0  0  0  0  0
    7.4161   20.7258   10.9334 H   0  0  0  0  0  0  0  0  0  0  0  0
   10.0859   21.6377    9.9667 H   0  0  0  0  0  0  0  0  0  0  0  0
    9.3604   19.7525   12.1726 H   0  0  0  0  0  0  0  0  0  0  0  0
    9.9852   21.3708   12.3811 H   0  0  0  0  0  0  0  0  0  0  0  0
   10.9844   20.1355   11.6540 H   0  0  0  0  0  0  0  0  0  0  0  0
    8.8625   18.8894   10.0189 H   0  0  0  0  0  0  0  0  0  0  0  0
   10.4846   19.2642    9.4883 H   0  0  0  0  0  0  0  0  0  0  0  0
    9.1111   19.8585    8.5864 H   0  0  0  0  0  0  0  0  0  0  0  0
    7.0703   21.7725   12.8227 H   0  0  0  0  0  0  0  0  0  0  0  0
    7.8181   24.5875   13.1830 H   0  0  0  0  0  0  0  0  0  0  0  0
    6.5265   24.5548   15.1518 H   0  0  0  0  0  0  0  0  0  0  0  0
    6.2951   22.7894   14.9663 H   0  0  0  0  0  0  0  0  0  0  0  0
    4.8947   23.1029   13.0703 H   0  0  0  0  0  0  0  0  0  0  0  0
    4.1418   25.0165   15.2625 H   0  0  0  0  0  0  0  0  0  0  0  0
    3.8433   23.2949   15.2674 H   0  0  0  0  0  0  0  0  0  0  0  0
    3.0411   24.3173   14.0995 H   0  0  0  0  0  0  0  0  0  0  0  0
    5.4662   26.0446   13.3510 H   0  0  0  0  0  0  0  0  0  0  0  0
    4.3542   25.3283   12.2093 H   0  0  0  0  0  0  0  0  0  0  0  0
    6.0669   25.0080   12.0791 H   0  0  0  0  0  0  0  0  0  0  0  0
    8.7503   24.9352   15.5777 H   0  0  0  0  0  0  0  0  0  0  0  0
   11.0763   23.0962   15.7440 H   0  0  0  0  0  0  0  0  0  0  0  0
   10.4371   23.9495   17.1283 H   0  0  0  0  0  0  0  0  0  0  0  0
   11.2280   24.8340   15.8457 H   0  0  0  0  0  0  0  0  0  0  0  0
  1 34  1  0  0  0  0
  1 35  1  0  0  0  0
  1 36  1  0  0  0  0
  2  1  1  0  0  0  0
  3  2  2  0  0  0  0
  4  2  1  0  0  0  0
  4 37  1  0  0  0  0
  5  4  1  0  0  0  0
  5 38  1  0  0  0  0
  5 39  1  0  0  0  0
  6  5  1  0  0  0  0
  6  8  1  0  0  0  0
  7  6  2  0  0  0  0
  8  9  1  0  0  0  0
  8 40  1  0  0  0  0
  9 10  1  0  0  0  0
  9 41  1  6  0  0  0
 10 17  1  0  0  0  0
 10 11  2  0  0  0  0
 12  9  1  0  0  0  0
 12 13  1  0  0  0  0
 12 42  1  0  0  0  0
 12 43  1  0  0  0  0
 13 44  1  0  0  0  0
 13 45  1  0  0  0  0
 14 13  1  0  0  0  0
 14 15  1  0  0  0  0
 14 46  1  0  0  0  0
 14 47  1  0  0  0  0
 15 16  1  0  0  0  0
 15 48  1  0  0  0  0
 15 49  1  0  0  0  0
 16 50  1  0  0  0  0
 16 51  1  0  0  0  0
 17 18  1  0  0  0  0
 17 52  1  0  0  0  0
 18 19  1  0  0  0  0
 18 53  1  1  0  0  0
 19 24  1  0  0  0  0
 20 19  2  0  0  0  0
 21 18  1  0  0  0  0
 21 22  1  0  0  0  0
 21 54  1  0  0  0  0
 22 55  1  0  0  0  0
 22 56  1  0  0  0  0
 22 57  1  0  0  0  0
 23 21  1  0  0  0  0
 23 58  1  0  0  0  0
 23 59  1  0  0  0  0
 23 60  1  0  0  0  0
 24 25  1  0  0  0  0
 24 61  1  0  0  0  0
 25 28  1  0  0  0  0
 25 26  1  0  0  0  0
 25 62  1  6  0  0  0
 26 32  1  0  0  0  0
 27 26  2  0  0  0  0
 28 63  1  0  0  0  0
 28 64  1  0  0  0  0
 29 28  1  0  0  0  0
 29 30  1  0  0  0  0
 29 65  1  0  0  0  0
 30 66  1  0  0  0  0
 30 67  1  0  0  0  0
 30 68  1  0  0  0  0
 31 29  1  0  0  0  0
 31 69  1  0  0  0  0
 31 70  1  0  0  0  0
 31 71  1  0  0  0  0
 32 33  1  0  0  0  0
 32 72  1  0  0  0  0
 33 73  1  0  0  0  0
 33 74  1  0  0  0  0
 33 75  1  0  0  0  0
M  END
>  <MODEL>
       0

$$$$
selected_4mers/GKVL/726_noH.pdb
 OpenBabel03042518353D

 75 74  0  0  1  0  0  0  0  0999 V2000
    7.7550   29.1370   29.6090 C   0  0  0  0  0  0  0  0  0  0  0  0
    7.9670   28.7990   31.1080 C   0  0  0  0  0  0  0  0  0  0  0  0
    8.9780   28.1590   31.4640 O   0  0  0  0  0  0  0  0  0  0  0  0
    7.0270   29.1560   31.9820 N   0  0  0  0  0  0  0  0  0  0  0  0
    7.0600   28.7330   33.3920 C   0  0  0  0  0  0  0  0  0  0  0  0
    6.9790   27.2130   33.4970 C   0  0  0  0  0  0  0  0  0  0  0  0
    7.6570   26.6020   34.2900 O   0  0  0  0  0  0  0  0  0  0  0  0
    6.1150   26.5900   32.7190 N   0  0  0  0  0  0  0  0  0  0  0  0
    6.0220   25.1310   32.6760 C   0  0  2  0  0  0  0  0  0  0  0  0
    7.3160   24.4960   32.1890 C   0  0  0  0  0  0  0  0  0  0  0  0
    7.7550   23.4920   32.7620 O   0  0  0  0  0  0  0  0  0  0  0  0
    4.8510   24.7270   31.7780 C   0  0  0  0  0  0  0  0  0  0  0  0
    4.6050   23.2290   31.7360 C   0  0  0  0  0  0  0  0  0  0  0  0
    3.3020   22.9370   30.9830 C   0  0  0  0  0  0  0  0  0  0  0  0
    2.7050   21.5900   31.3650 C   0  0  0  0  0  0  0  0  0  0  0  0
    1.4290   21.4320   30.6160 N   0  0  0  0  0  0  0  0  0  0  0  0
    7.9430   25.0940   31.1870 N   0  0  0  0  0  0  0  0  0  0  0  0
    9.2380   24.5760   30.7200 C   0  0  2  0  0  0  0  0  0  0  0  0
   10.2530   24.6610   31.8650 C   0  0  0  0  0  0  0  0  0  0  0  0
   10.9910   23.7080   32.0750 O   0  0  0  0  0  0  0  0  0  0  0  0
    9.7420   25.3080   29.4820 C   0  0  0  0  0  0  0  0  0  0  0  0
   11.1440   24.8520   29.1250 C   0  0  0  0  0  0  0  0  0  0  0  0
    8.7520   25.0890   28.2750 C   0  0  0  0  0  0  0  0  0  0  0  0
   10.3150   25.7970   32.5730 N   0  0  0  0  0  0  0  0  0  0  0  0
   11.2510   25.9620   33.6540 C   0  0  2  0  0  0  0  0  0  0  0  0
   10.9540   24.9820   34.7770 C   0  0  0  0  0  0  0  0  0  0  0  0
   11.8740   24.4310   35.4100 O   0  0  0  0  0  0  0  0  0  0  0  0
   11.3270   27.4400   34.1620 C   0  0  0  0  0  0  0  0  0  0  0  0
   12.5360   27.7670   35.0290 C   0  0  0  0  0  0  0  0  0  0  0  0
   13.8650   27.5500   34.2610 C   0  0  0  0  0  0  0  0  0  0  0  0
   12.4170   29.2390   35.4840 C   0  0  0  0  0  0  0  0  0  0  0  0
    9.6930   24.6820   35.0730 N   0  0  0  0  0  0  0  0  0  0  0  0
    9.3400   23.6330   36.0500 C   0  0  0  0  0  0  0  0  0  0  0  0
    8.5924   28.7867   29.0425 H   0  0  0  0  0  0  0  0  0  0  0  0
    7.6632   30.1966   29.4918 H   0  0  0  0  0  0  0  0  0  0  0  0
    6.8631   28.6608   29.2587 H   0  0  0  0  0  0  0  0  0  0  0  0
    6.2835   29.7231   31.6740 H   0  0  0  0  0  0  0  0  0  0  0  0
    6.2294   29.1662   33.9089 H   0  0  0  0  0  0  0  0  0  0  0  0
    7.9795   29.0612   33.8299 H   0  0  0  0  0  0  0  0  0  0  0  0
    5.5144   27.1234   32.1499 H   0  0  0  0  0  0  0  0  0  0  0  0
    5.8535   24.7729   33.6701 H   0  0  0  0  0  0  0  0  0  0  0  0
    3.9654   25.2051   32.1415 H   0  0  0  0  0  0  0  0  0  0  0  0
    5.0992   25.0320   30.7829 H   0  0  0  0  0  0  0  0  0  0  0  0
    5.4198   22.7492   31.2351 H   0  0  0  0  0  0  0  0  0  0  0  0
    4.5261   22.8560   32.7358 H   0  0  0  0  0  0  0  0  0  0  0  0
    2.5929   23.7051   31.2112 H   0  0  0  0  0  0  0  0  0  0  0  0
    3.5264   22.9114   29.9371 H   0  0  0  0  0  0  0  0  0  0  0  0
    3.3816   20.8038   31.1022 H   0  0  0  0  0  0  0  0  0  0  0  0
    2.5289   21.5436   32.4194 H   0  0  0  0  0  0  0  0  0  0  0  0
    1.6148   21.4786   29.6142 H   0  0  0  0  0  0  0  0  0  0  0  0
    0.7863   22.1795   30.8778 H   0  0  0  0  0  0  0  0  0  0  0  0
    7.5430   25.8835   30.7558 H   0  0  0  0  0  0  0  0  0  0  0  0
    9.1084   23.5543   30.4297 H   0  0  0  0  0  0  0  0  0  0  0  0
    9.7813   26.3555   29.6969 H   0  0  0  0  0  0  0  0  0  0  0  0
   11.1333   23.8049   28.9049 H   0  0  0  0  0  0  0  0  0  0  0  0
   11.7999   25.0364   29.9500 H   0  0  0  0  0  0  0  0  0  0  0  0
   11.4877   25.3930   28.2682 H   0  0  0  0  0  0  0  0  0  0  0  0
    8.6977   24.0459   28.0430 H   0  0  0  0  0  0  0  0  0  0  0  0
    9.1070   25.6264   27.4205 H   0  0  0  0  0  0  0  0  0  0  0  0
    7.7794   25.4461   28.5422 H   0  0  0  0  0  0  0  0  0  0  0  0
    9.7055   26.5368   32.3483 H   0  0  0  0  0  0  0  0  0  0  0  0
   12.2247   25.7359   33.2722 H   0  0  0  0  0  0  0  0  0  0  0  0
   10.4454   27.6387   34.7349 H   0  0  0  0  0  0  0  0  0  0  0  0
   11.4153   28.0501   33.2875 H   0  0  0  0  0  0  0  0  0  0  0  0
   12.5507   27.1109   35.8741 H   0  0  0  0  0  0  0  0  0  0  0  0
   13.8906   28.1906   33.4043 H   0  0  0  0  0  0  0  0  0  0  0  0
   13.9322   26.5297   33.9456 H   0  0  0  0  0  0  0  0  0  0  0  0
   14.6896   27.7799   34.9030 H   0  0  0  0  0  0  0  0  0  0  0  0
   12.4040   29.8777   34.6256 H   0  0  0  0  0  0  0  0  0  0  0  0
   13.2533   29.4898   36.1026 H   0  0  0  0  0  0  0  0  0  0  0  0
   11.5113   29.3687   36.0388 H   0  0  0  0  0  0  0  0  0  0  0  0
    8.9693   25.1767   34.6250 H   0  0  0  0  0  0  0  0  0  0  0  0
   10.2342   23.1956   36.4424 H   0  0  0  0  0  0  0  0  0  0  0  0
    8.7558   22.8778   35.5670 H   0  0  0  0  0  0  0  0  0  0  0  0
    8.7741   24.0653   36.8486 H   0  0  0  0  0  0  0  0  0  0  0  0
  1  2  1  0  0  0  0
  1 34  1  0  0  0  0
  1 35  1  0  0  0  0
  1 36  1  0  0  0  0
  2  3  2  0  0  0  0
  2  4  1  0  0  0  0
  4  5  1  0  0  0  0
  4 37  1  0  0  0  0
  5  6  1  0  0  0  0
  5 38  1  0  0  0  0
  5 39  1  0  0  0  0
  6  7  2  0  0  0  0
  8  6  1  0  0  0  0
  8 40  1  0  0  0  0
  9  8  1  0  0  0  0
  9 41  1  1  0  0  0
 10  9  1  0  0  0  0
 10 11  2  0  0  0  0
 12  9  1  0  0  0  0
 12 42  1  0  0  0  0
 12 43  1  0  0  0  0
 13 12  1  0  0  0  0
 13 44  1  0  0  0  0
 13 45  1  0  0  0  0
 14 15  1  0  0  0  0
 14 13  1  0  0  0  0
 14 46  1  0  0  0  0
 14 47  1  0  0  0  0
 15 48  1  0  0  0  0
 15 49  1  0  0  0  0
 16 15  1  0  0  0  0
 16 50  1  0  0  0  0
 16 51  1  0  0  0  0
 17 10  1  0  0  0  0
 17 52  1  0  0  0  0
 18 17  1  0  0  0  0
 18 19  1  0  0  0  0
 18 53  1  6  0  0  0
 19 20  2  0  0  0  0
 19 24  1  0  0  0  0
 21 18  1  0  0  0  0
 21 54  1  0  0  0  0
 22 21  1  0  0  0  0
 22 55  1  0  0  0  0
 22 56  1  0  0  0  0
 22 57  1  0  0  0  0
 23 21  1  0  0  0  0
 23 58  1  0  0  0  0
 23 59  1  0  0  0  0
 23 60  1  0  0  0  0
 24 25  1  0  0  0  0
 24 61  1  0  0  0  0
 25 28  1  0  0  0  0
 25 26  1  0  0  0  0
 25 62  1  6  0  0  0
 26 32  1  0  0  0  0
 26 27  2  0  0  0  0
 28 29  1  0  0  0  0
 28 63  1  0  0  0  0
 28 64  1  0  0  0  0
 29 31  1  0  0  0  0
 29 65  1  0  0  0  0
 30 29  1  0  0  0  0
 30 66  1  0  0  0  0
 30 67  1  0  0  0  0
 30 68  1  0  0  0  0
 31 69  1  0  0  0  0
 31 70  1  0  0  0  0
 31 71  1  0  0  0  0
 32 33  1  0  0  0  0
 32 72  1  0  0  0  0
 33 73  1  0  0  0  0
 33 74  1  0  0  0  0
 33 75  1  0  0  0  0
M  END
>  <MODEL>
       0

$$$$
selected_4mers/GKVL/727_noH.pdb
 OpenBabel03042518353D

 75 74  0  0  1  0  0  0  0  0999 V2000
  -10.6630   21.3900    0.5090 C   0  0  0  0  0  0  0  0  0  0  0  0
  -10.8050   20.9850   -0.9570 C   0  0  0  0  0  0  0  0  0  0  0  0
  -11.0940   21.8350   -1.7980 O   0  0  0  0  0  0  0  0  0  0  0  0
  -10.6150   19.7070   -1.2720 N   0  0  0  0  0  0  0  0  0  0  0  0
  -10.7460   19.2670   -2.6490 C   0  0  0  0  0  0  0  0  0  0  0  0
  -10.7560   17.7680   -2.7720 C   0  0  0  0  0  0  0  0  0  0  0  0
  -10.7100   17.0440   -1.7740 O   0  0  0  0  0  0  0  0  0  0  0  0
  -10.8200   17.3030   -4.0130 N   0  0  0  0  0  0  0  0  0  0  0  0
  -10.6940   15.8850   -4.2820 C   0  0  2  0  0  0  0  0  0  0  0  0
  -10.1870   15.6650   -5.6920 C   0  0  0  0  0  0  0  0  0  0  0  0
  -10.3780   16.5040   -6.5780 O   0  0  0  0  0  0  0  0  0  0  0  0
  -12.0200   15.1620   -4.0700 C   0  0  0  0  0  0  0  0  0  0  0  0
  -13.0520   15.4430   -5.1280 C   0  0  0  0  0  0  0  0  0  0  0  0
  -14.3460   14.7000   -4.8490 C   0  0  0  0  0  0  0  0  0  0  0  0
  -14.1790   13.1910   -4.9520 C   0  0  0  0  0  0  0  0  0  0  0  0
  -13.9260   12.7650   -6.3550 N   0  0  0  0  0  0  0  0  0  0  0  0
   -9.5300   14.5320   -5.8910 N   0  0  0  0  0  0  0  0  0  0  0  0
   -9.1600   14.0790   -7.2220 C   0  0  2  0  0  0  0  0  0  0  0  0
  -10.4260   13.8480   -8.0480 C   0  0  0  0  0  0  0  0  0  0  0  0
  -11.3650   13.1840   -7.5890 O   0  0  0  0  0  0  0  0  0  0  0  0
   -8.3490   12.7610   -7.1500 C   0  0  0  0  0  0  0  0  0  0  0  0
   -8.0870   12.1980   -8.5400 C   0  0  0  0  0  0  0  0  0  0  0  0
   -7.0390   12.9680   -6.3970 C   0  0  0  0  0  0  0  0  0  0  0  0
  -10.4480   14.4230   -9.2490 N   0  0  0  0  0  0  0  0  0  0  0  0
  -11.4980   14.1550  -10.2250 C   0  0  2  0  0  0  0  0  0  0  0  0
  -11.0050   13.2480  -11.3460 C   0  0  0  0  0  0  0  0  0  0  0  0
  -11.7590   12.4130  -11.8540 O   0  0  0  0  0  0  0  0  0  0  0  0
  -12.0170   15.4580  -10.8280 C   0  0  0  0  0  0  0  0  0  0  0  0
  -12.7260   16.4250   -9.8800 C   0  0  0  0  0  0  0  0  0  0  0  0
  -13.1000   17.6930  -10.6260 C   0  0  0  0  0  0  0  0  0  0  0  0
  -13.9590   15.7840   -9.2530 C   0  0  0  0  0  0  0  0  0  0  0  0
   -9.7460   13.4240  -11.7410 N   0  0  0  0  0  0  0  0  0  0  0  0
   -9.1760   12.7050  -12.8810 C   0  0  0  0  0  0  0  0  0  0  0  0
  -10.8428   22.4401    0.6079 H   0  0  0  0  0  0  0  0  0  0  0  0
   -9.6733   21.1642    0.8472 H   0  0  0  0  0  0  0  0  0  0  0  0
  -11.3735   20.8494    1.0988 H   0  0  0  0  0  0  0  0  0  0  0  0
  -10.3848   19.0573   -0.5690 H   0  0  0  0  0  0  0  0  0  0  0  0
  -11.6621   19.6508   -3.0470 H   0  0  0  0  0  0  0  0  0  0  0  0
   -9.8996   19.6338   -3.1912 H   0  0  0  0  0  0  0  0  0  0  0  0
  -10.9548   17.9294   -4.7604 H   0  0  0  0  0  0  0  0  0  0  0  0
   -9.9863   15.4758   -3.5917 H   0  0  0  0  0  0  0  0  0  0  0  0
  -11.8299   14.1091   -4.0580 H   0  0  0  0  0  0  0  0  0  0  0  0
  -12.4217   15.5214   -3.1457 H   0  0  0  0  0  0  0  0  0  0  0  0
  -13.2515   16.4940   -5.1496 H   0  0  0  0  0  0  0  0  0  0  0  0
  -12.6685   15.1105   -6.0699 H   0  0  0  0  0  0  0  0  0  0  0  0
  -15.0829   15.0139   -5.5585 H   0  0  0  0  0  0  0  0  0  0  0  0
  -14.6455   14.9287   -3.8475 H   0  0  0  0  0  0  0  0  0  0  0  0
  -13.3523   12.8903   -4.3429 H   0  0  0  0  0  0  0  0  0  0  0  0
  -15.0851   12.7294   -4.6192 H   0  0  0  0  0  0  0  0  0  0  0  0
  -13.0645   13.1956   -6.6910 H   0  0  0  0  0  0  0  0  0  0  0  0
  -14.7049   13.0577   -6.9449 H   0  0  0  0  0  0  0  0  0  0  0  0
   -9.2848   13.9798   -5.1137 H   0  0  0  0  0  0  0  0  0  0  0  0
   -8.5518   14.8302   -7.6810 H   0  0  0  0  0  0  0  0  0  0  0  0
   -8.9364   12.0473   -6.6110 H   0  0  0  0  0  0  0  0  0  0  0  0
   -7.4997   12.8940   -9.1018 H   0  0  0  0  0  0  0  0  0  0  0  0
   -9.0188   12.0328   -9.0394 H   0  0  0  0  0  0  0  0  0  0  0  0
   -7.5583   11.2716   -8.4557 H   0  0  0  0  0  0  0  0  0  0  0  0
   -6.4354   13.6798   -6.9204 H   0  0  0  0  0  0  0  0  0  0  0  0
   -6.5154   12.0373   -6.3297 H   0  0  0  0  0  0  0  0  0  0  0  0
   -7.2471   13.3322   -5.4126 H   0  0  0  0  0  0  0  0  0  0  0  0
   -9.7290   15.0521   -9.4867 H   0  0  0  0  0  0  0  0  0  0  0  0
  -12.2901   13.6573   -9.7056 H   0  0  0  0  0  0  0  0  0  0  0  0
  -12.7073   15.2023  -11.6046 H   0  0  0  0  0  0  0  0  0  0  0  0
  -11.1431   15.9805  -11.1569 H   0  0  0  0  0  0  0  0  0  0  0  0
  -12.0544   16.6723   -9.0845 H   0  0  0  0  0  0  0  0  0  0  0  0
  -13.7719   17.4527  -11.4233 H   0  0  0  0  0  0  0  0  0  0  0  0
  -12.2168   18.1442  -11.0276 H   0  0  0  0  0  0  0  0  0  0  0  0
  -13.5750   18.3759   -9.9529 H   0  0  0  0  0  0  0  0  0  0  0  0
  -14.6553   15.5226  -10.0223 H   0  0  0  0  0  0  0  0  0  0  0  0
  -14.4167   16.4765   -8.5779 H   0  0  0  0  0  0  0  0  0  0  0  0
  -13.6703   14.9030   -8.7188 H   0  0  0  0  0  0  0  0  0  0  0  0
   -9.1784   14.0603  -11.2489 H   0  0  0  0  0  0  0  0  0  0  0  0
   -9.9175   12.0584  -13.3018 H   0  0  0  0  0  0  0  0  0  0  0  0
   -8.3397   12.1233  -12.5538 H   0  0  0  0  0  0  0  0  0  0  0  0
   -8.8541   13.4076  -13.6210 H   0  0  0  0  0  0  0  0  0  0  0  0
  1 34  1  0  0  0  0
  1 35  1  0  0  0  0
  1 36  1  0  0  0  0
  2  1  1  0  0  0  0
  3  2  2  0  0  0  0
  4  2  1  0  0  0  0
  4 37  1  0  0  0  0
  5  4  1  0  0  0  0
  5 38  1  0  0  0  0
  5 39  1  0  0  0  0
  6  5  1  0  0  0  0
  6  7  2  0  0  0  0
  8  6  1  0  0  0  0
  8 40  1  0  0  0  0
  9 12  1  0  0  0  0
  9  8  1  0  0  0  0
  9 41  1  1  0  0  0
 10  9  1  0  0  0  0
 11 10  2  0  0  0  0
 12 42  1  0  0  0  0
 12 43  1  0  0  0  0
 13 14  1  0  0  0  0
 13 12  1  0  0  0  0
 13 44  1  0  0  0  0
 13 45  1  0  0  0  0
 14 46  1  0  0  0  0
 14 47  1  0  0  0  0
 15 14  1  0  0  0  0
 15 48  1  0  0  0  0
 15 49  1  0  0  0  0
 16 15  1  0  0  0  0
 16 50  1  0  0  0  0
 16 51  1  0  0  0  0
 17 10  1  0  0  0  0
 17 52  1  0  0  0  0
 18 21  1  0  0  0  0
 18 17  1  0  0  0  0
 18 53  1  6  0  0  0
 19 20  2  0  0  0  0
 19 18  1  0  0  0  0
 21 23  1  0  0  0  0
 21 54  1  0  0  0  0
 22 21  1  0  0  0  0
 22 55  1  0  0  0  0
 22 56  1  0  0  0  0
 22 57  1  0  0  0  0
 23 58  1  0  0  0  0
 23 59  1  0  0  0  0
 23 60  1  0  0  0  0
 24 19  1  0  0  0  0
 24 61  1  0  0  0  0
 25 24  1  0  0  0  0
 25 62  1  1  0  0  0
 26 25  1  0  0  0  0
 27 26  2  0  0  0  0
 28 25  1  0  0  0  0
 28 29  1  0  0  0  0
 28 63  1  0  0  0  0
 28 64  1  0  0  0  0
 29 31  1  0  0  0  0
 29 65  1  0  0  0  0
 30 29  1  0  0  0  0
 30 66  1  0  0  0  0
 30 67  1  0  0  0  0
 30 68  1  0  0  0  0
 31 69  1  0  0  0  0
 31 70  1  0  0  0  0
 31 71  1  0  0  0  0
 32 26  1  0  0  0  0
 32 72  1  0  0  0  0
 33 32  1  0  0  0  0
 33 73  1  0  0  0  0
 33 74  1  0  0  0  0
 33 75  1  0  0  0  0
M  END
>  <MODEL>
       0

$$$$
selected_4mers/GKVL/728_noH.pdb
 OpenBabel03042518353D

 75 74  0  0  1  0  0  0  0  0999 V2000
   11.0110   61.1500    9.9820 C   0  0  0  0  0  0  0  0  0  0  0  0
   12.0730   61.6940    9.0010 C   0  0  0  0  0  0  0  0  0  0  0  0
   12.9730   62.4350    9.3950 O   0  0  0  0  0  0  0  0  0  0  0  0
   11.9650   61.3250    7.7260 N   0  0  0  0  0  0  0  0  0  0  0  0
   12.8470   61.8520    6.6810 C   0  0  0  0  0  0  0  0  0  0  0  0
   14.1270   61.0650    6.4480 C   0  0  0  0  0  0  0  0  0  0  0  0
   15.0300   61.5410    5.7580 O   0  0  0  0  0  0  0  0  0  0  0  0
   14.2080   59.8610    7.0100 N   0  0  0  0  0  0  0  0  0  0  0  0
   15.3920   59.0170    6.8490 C   0  0  2  0  0  0  0  0  0  0  0  0
   15.1970   58.1590    5.6160 C   0  0  0  0  0  0  0  0  0  0  0  0
   14.1130   57.6300    5.3740 O   0  0  0  0  0  0  0  0  0  0  0  0
   15.6390   58.1280    8.0710 C   0  0  0  0  0  0  0  0  0  0  0  0
   16.0000   58.8930    9.3420 C   0  0  0  0  0  0  0  0  0  0  0  0
   14.8670   59.7840    9.8080 C   0  0  0  0  0  0  0  0  0  0  0  0
   15.2200   60.5340   11.0660 C   0  0  0  0  0  0  0  0  0  0  0  0
   16.1660   61.6660   10.8180 N   0  0  0  0  0  0  0  0  0  0  0  0
   16.2580   58.0300    4.8370 N   0  0  0  0  0  0  0  0  0  0  0  0
   16.2100   57.2980    3.5880 C   0  0  2  0  0  0  0  0  0  0  0  0
   17.1810   56.1270    3.6870 C   0  0  0  0  0  0  0  0  0  0  0  0
   18.3930   56.3260    3.7830 O   0  0  0  0  0  0  0  0  0  0  0  0
   16.5660   58.2200    2.4050 C   0  0  0  0  0  0  0  0  0  0  0  0
   16.4330   57.4850    1.1010 C   0  0  0  0  0  0  0  0  0  0  0  0
   15.6650   59.4590    2.4020 C   0  0  0  0  0  0  0  0  0  0  0  0
   16.6330   54.9120    3.6850 N   0  0  0  0  0  0  0  0  0  0  0  0
   17.4330   53.6910    3.7890 C   0  0  2  0  0  0  0  0  0  0  0  0
   17.4140   52.8960    2.4870 C   0  0  0  0  0  0  0  0  0  0  0  0
   16.3500   52.6210    1.9250 O   0  0  0  0  0  0  0  0  0  0  0  0
   16.9400   52.7970    4.9340 C   0  0  0  0  0  0  0  0  0  0  0  0
   17.1510   53.2570    6.3850 C   0  0  0  0  0  0  0  0  0  0  0  0
   18.5610   53.8030    6.6180 C   0  0  0  0  0  0  0  0  0  0  0  0
   16.0990   54.2790    6.7950 C   0  0  0  0  0  0  0  0  0  0  0  0
   18.6080   52.5250    2.0320 N   0  0  0  0  0  0  0  0  0  0  0  0
   18.7890   51.7170    0.8320 C   0  0  0  0  0  0  0  0  0  0  0  0
   10.3200   60.5289    9.4512 H   0  0  0  0  0  0  0  0  0  0  0  0
   10.4852   61.9682   10.4281 H   0  0  0  0  0  0  0  0  0  0  0  0
   11.4921   60.5761   10.7462 H   0  0  0  0  0  0  0  0  0  0  0  0
   11.2684   60.6755    7.4768 H   0  0  0  0  0  0  0  0  0  0  0  0
   12.2978   61.8679    5.7629 H   0  0  0  0  0  0  0  0  0  0  0  0
   13.1540   62.8207    7.0160 H   0  0  0  0  0  0  0  0  0  0  0  0
   13.4523   59.5303    7.5474 H   0  0  0  0  0  0  0  0  0  0  0  0
   16.2505   59.6471    6.7450 H   0  0  0  0  0  0  0  0  0  0  0  0
   16.4429   57.4599    7.8423 H   0  0  0  0  0  0  0  0  0  0  0  0
   14.7192   57.6191    8.2706 H   0  0  0  0  0  0  0  0  0  0  0  0
   16.8595   59.5000    9.1477 H   0  0  0  0  0  0  0  0  0  0  0  0
   16.1978   58.1784   10.1134 H   0  0  0  0  0  0  0  0  0  0  0  0
   14.0060   59.1775    9.9974 H   0  0  0  0  0  0  0  0  0  0  0  0
   14.6730   60.5018    9.0386 H   0  0  0  0  0  0  0  0  0  0  0  0
   15.6747   59.8526   11.7544 H   0  0  0  0  0  0  0  0  0  0  0  0
   14.3155   60.9493   11.4588 H   0  0  0  0  0  0  0  0  0  0  0  0
   17.0412   61.3015   10.4418 H   0  0  0  0  0  0  0  0  0  0  0  0
   16.3498   62.1538   11.6947 H   0  0  0  0  0  0  0  0  0  0  0  0
   17.1068   58.4444    5.1147 H   0  0  0  0  0  0  0  0  0  0  0  0
   15.2208   56.9299    3.4126 H   0  0  0  0  0  0  0  0  0  0  0  0
   17.5831   58.5320    2.5196 H   0  0  0  0  0  0  0  0  0  0  0  0
   15.4196   57.1666    0.9728 H   0  0  0  0  0  0  0  0  0  0  0  0
   17.0774   56.6308    1.1057 H   0  0  0  0  0  0  0  0  0  0  0  0
   16.7074   58.1343    0.2960 H   0  0  0  0  0  0  0  0  0  0  0  0
   14.6447   59.1577    2.2878 H   0  0  0  0  0  0  0  0  0  0  0  0
   15.9410   60.0988    1.5900 H   0  0  0  0  0  0  0  0  0  0  0  0
   15.7800   59.9859    3.3262 H   0  0  0  0  0  0  0  0  0  0  0  0
   15.6545   54.8331    3.6109 H   0  0  0  0  0  0  0  0  0  0  0  0
   18.4375   53.9985    3.9922 H   0  0  0  0  0  0  0  0  0  0  0  0
   17.4340   51.8536    4.8296 H   0  0  0  0  0  0  0  0  0  0  0  0
   15.8763   52.7965    4.8181 H   0  0  0  0  0  0  0  0  0  0  0  0
   17.0400   52.3923    7.0053 H   0  0  0  0  0  0  0  0  0  0  0  0
   18.7114   54.6723    6.0125 H   0  0  0  0  0  0  0  0  0  0  0  0
   19.2807   53.0562    6.3549 H   0  0  0  0  0  0  0  0  0  0  0  0
   18.6771   54.0624    7.6496 H   0  0  0  0  0  0  0  0  0  0  0  0
   16.1939   55.1529    6.1849 H   0  0  0  0  0  0  0  0  0  0  0  0
   16.2403   54.5440    7.8220 H   0  0  0  0  0  0  0  0  0  0  0  0
   15.1237   53.8582    6.6662 H   0  0  0  0  0  0  0  0  0  0  0  0
   19.4081   52.8099    2.5298 H   0  0  0  0  0  0  0  0  0  0  0  0
   17.8334   51.4898    0.4075 H   0  0  0  0  0  0  0  0  0  0  0  0
   19.2915   50.8074    1.0869 H   0  0  0  0  0  0  0  0  0  0  0  0
   19.3749   52.2609    0.1208 H   0  0  0  0  0  0  0  0  0  0  0  0
  1 34  1  0  0  0  0
  1 35  1  0  0  0  0
  1 36  1  0  0  0  0
  2  3  2  0  0  0  0
  2  1  1  0  0  0  0
  4  2  1  0  0  0  0
  4 37  1  0  0  0  0
  5  4  1  0  0  0  0
  5 38  1  0  0  0  0
  5 39  1  0  0  0  0
  6  5  1  0  0  0  0
  6  8  1  0  0  0  0
  7  6  2  0  0  0  0
  8 40  1  0  0  0  0
  9  8  1  0  0  0  0
  9 12  1  0  0  0  0
  9 41  1  6  0  0  0
 10  9  1  0  0  0  0
 11 10  2  0  0  0  0
 12 13  1  0  0  0  0
 12 42  1  0  0  0  0
 12 43  1  0  0  0  0
 13 14  1  0  0  0  0
 13 44  1  0  0  0  0
 13 45  1  0  0  0  0
 14 15  1  0  0  0  0
 14 46  1  0  0  0  0
 14 47  1  0  0  0  0
 15 48  1  0  0  0  0
 15 49  1  0  0  0  0
 16 15  1  0  0  0  0
 16 50  1  0  0  0  0
 16 51  1  0  0  0  0
 17 10  1  0  0  0  0
 17 52  1  0  0  0  0
 18 19  1  0  0  0  0
 18 17  1  0  0  0  0
 18 53  1  6  0  0  0
 19 20  2  0  0  0  0
 21 18  1  0  0  0  0
 21 54  1  0  0  0  0
 22 21  1  0  0  0  0
 22 55  1  0  0  0  0
 22 56  1  0  0  0  0
 22 57  1  0  0  0  0
 23 21  1  0  0  0  0
 23 58  1  0  0  0  0
 23 59  1  0  0  0  0
 23 60  1  0  0  0  0
 24 19  1  0  0  0  0
 24 25  1  0  0  0  0
 24 61  1  0  0  0  0
 25 28  1  0  0  0  0
 25 62  1  1  0  0  0
 26 25  1  0  0  0  0
 27 26  2  0  0  0  0
 28 29  1  0  0  0  0
 28 63  1  0  0  0  0
 28 64  1  0  0  0  0
 29 30  1  0  0  0  0
 29 31  1  0  0  0  0
 29 65  1  0  0  0  0
 30 66  1  0  0  0  0
 30 67  1  0  0  0  0
 30 68  1  0  0  0  0
 31 69  1  0  0  0  0
 31 70  1  0  0  0  0
 31 71  1  0  0  0  0
 32 26  1  0  0  0  0
 32 72  1  0  0  0  0
 33 32  1  0  0  0  0
 33 73  1  0  0  0  0
 33 74  1  0  0  0  0
 33 75  1  0  0  0  0
M  END
>  <MODEL>
       0

$$$$
selected_4mers/GKVL/729_noH.pdb
 OpenBabel03042518353D

 75 74  0  0  1  0  0  0  0  0999 V2000
    8.2420   -0.3730    9.8280 C   0  0  0  0  0  0  0  0  0  0  0  0
    8.9230    0.9310   10.1960 C   0  0  0  0  0  0  0  0  0  0  0  0
    9.7650    1.4310    9.4520 O   0  0  0  0  0  0  0  0  0  0  0  0
    8.5610    1.4830   11.3470 N   0  0  0  0  0  0  0  0  0  0  0  0
    9.1290    2.7410   11.7950 C   0  0  0  0  0  0  0  0  0  0  0  0
    8.0530    3.6810   12.3010 C   0  0  0  0  0  0  0  0  0  0  0  0
    6.8990    3.2810   12.4700 O   0  0  0  0  0  0  0  0  0  0  0  0
    8.4300    4.9360   12.5320 N   0  0  0  0  0  0  0  0  0  0  0  0
    7.5190    5.9340   13.0740 C   0  0  2  0  0  0  0  0  0  0  0  0
    6.4520    6.3400   12.0650 C   0  0  0  0  0  0  0  0  0  0  0  0
    6.6680    6.3000   10.8490 O   0  0  0  0  0  0  0  0  0  0  0  0
    8.2930    7.1680   13.5510 C   0  0  0  0  0  0  0  0  0  0  0  0
    9.2240    6.8870   14.7210 C   0  0  0  0  0  0  0  0  0  0  0  0
    9.9400    8.1460   15.1960 C   0  0  0  0  0  0  0  0  0  0  0  0
   10.8650    8.7060   14.1230 C   0  0  0  0  0  0  0  0  0  0  0  0
   11.6990    9.8230   14.6610 N   0  0  0  0  0  0  0  0  0  0  0  0
    5.2950    6.7300   12.5840 N   0  0  0  0  0  0  0  0  0  0  0  0
    4.1810    7.1350   11.7390 C   0  0  2  0  0  0  0  0  0  0  0  0
    3.7480    8.5500   12.1080 C   0  0  0  0  0  0  0  0  0  0  0  0
    3.4610    8.8370   13.2790 O   0  0  0  0  0  0  0  0  0  0  0  0
    2.9840    6.1670   11.8970 C   0  0  0  0  0  0  0  0  0  0  0  0
    1.8520    6.5500   10.9470 C   0  0  0  0  0  0  0  0  0  0  0  0
    3.4260    4.7170   11.6660 C   0  0  0  0  0  0  0  0  0  0  0  0
    3.7060    9.4380   11.1150 N   0  0  0  0  0  0  0  0  0  0  0  0
    3.2840   10.8180   11.3360 C   0  0  2  0  0  0  0  0  0  0  0  0
    1.7700   10.9710   11.2860 C   0  0  0  0  0  0  0  0  0  0  0  0
    1.0690   10.1970   10.6280 O   0  0  0  0  0  0  0  0  0  0  0  0
    3.8860   11.7380   10.2730 C   0  0  0  0  0  0  0  0  0  0  0  0
    5.4040   11.8370   10.1510 C   0  0  0  0  0  0  0  0  0  0  0  0
    5.7650   12.5750    8.8730 C   0  0  0  0  0  0  0  0  0  0  0  0
    6.0100   12.5160   11.3770 C   0  0  0  0  0  0  0  0  0  0  0  0
    1.2710   11.9990   11.9620 N   0  0  0  0  0  0  0  0  0  0  0  0
   -0.1080   12.4180   11.7800 C   0  0  0  0  0  0  0  0  0  0  0  0
    8.6149   -0.7166    8.8858 H   0  0  0  0  0  0  0  0  0  0  0  0
    7.1858   -0.2164    9.7580 H   0  0  0  0  0  0  0  0  0  0  0  0
    8.4448   -1.1061   10.5806 H   0  0  0  0  0  0  0  0  0  0  0  0
    7.8924    1.0292   11.9094 H   0  0  0  0  0  0  0  0  0  0  0  0
    9.6399    3.2040   10.9767 H   0  0  0  0  0  0  0  0  0  0  0  0
    9.8065    2.5390   12.5982 H   0  0  0  0  0  0  0  0  0  0  0  0
    9.3569    5.1988   12.3294 H   0  0  0  0  0  0  0  0  0  0  0  0
    7.0217    5.4879   13.9098 H   0  0  0  0  0  0  0  0  0  0  0  0
    7.5878    7.9146   13.8513 H   0  0  0  0  0  0  0  0  0  0  0  0
    8.9038    7.4910   12.7340 H   0  0  0  0  0  0  0  0  0  0  0  0
    9.9553    6.1681   14.4156 H   0  0  0  0  0  0  0  0  0  0  0  0
    8.6328    6.5169   15.5324 H   0  0  0  0  0  0  0  0  0  0  0  0
    9.2097    8.8871   15.4457 H   0  0  0  0  0  0  0  0  0  0  0  0
   10.5338    7.8908   16.0487 H   0  0  0  0  0  0  0  0  0  0  0  0
   11.5089    7.9256   13.7747 H   0  0  0  0  0  0  0  0  0  0  0  0
   10.2656    9.0849   13.3217 H   0  0  0  0  0  0  0  0  0  0  0  0
   12.2771    9.4773   15.4270 H   0  0  0  0  0  0  0  0  0  0  0  0
   11.0909   10.5671   15.0030 H   0  0  0  0  0  0  0  0  0  0  0  0
    5.1874    6.7459   13.5625 H   0  0  0  0  0  0  0  0  0  0  0  0
    4.5033    7.1084   10.7190 H   0  0  0  0  0  0  0  0  0  0  0  0
    2.6173    6.2463   12.8991 H   0  0  0  0  0  0  0  0  0  0  0  0
    2.1952    6.4783    9.9361 H   0  0  0  0  0  0  0  0  0  0  0  0
    1.5420    7.5542   11.1481 H   0  0  0  0  0  0  0  0  0  0  0  0
    1.0254    5.8859   11.0910 H   0  0  0  0  0  0  0  0  0  0  0  0
    3.7977    4.6121   10.6681 H   0  0  0  0  0  0  0  0  0  0  0  0
    2.5909    4.0629   11.8061 H   0  0  0  0  0  0  0  0  0  0  0  0
    4.1979    4.4641   12.3625 H   0  0  0  0  0  0  0  0  0  0  0  0
    3.9665    9.1559   10.2085 H   0  0  0  0  0  0  0  0  0  0  0  0
    3.6299   11.0879   12.3119 H   0  0  0  0  0  0  0  0  0  0  0  0
    3.5167   11.4053    9.3254 H   0  0  0  0  0  0  0  0  0  0  0  0
    3.5902   12.7177   10.5855 H   0  0  0  0  0  0  0  0  0  0  0  0
    5.8147   10.8501   10.1034 H   0  0  0  0  0  0  0  0  0  0  0  0
    5.3603   13.5650    8.9064 H   0  0  0  0  0  0  0  0  0  0  0  0
    5.3592   12.0520    8.0323 H   0  0  0  0  0  0  0  0  0  0  0  0
    6.8297   12.6278    8.7802 H   0  0  0  0  0  0  0  0  0  0  0  0
    5.6236   13.5102   11.4616 H   0  0  0  0  0  0  0  0  0  0  0  0
    7.0743   12.5546   11.2738 H   0  0  0  0  0  0  0  0  0  0  0  0
    5.7568   11.9590   12.2548 H   0  0  0  0  0  0  0  0  0  0  0  0
    1.8450   12.4853   12.5970 H   0  0  0  0  0  0  0  0  0  0  0  0
   -0.5812   11.7842   11.0594 H   0  0  0  0  0  0  0  0  0  0  0  0
   -0.1305   13.4303   11.4341 H   0  0  0  0  0  0  0  0  0  0  0  0
   -0.6280   12.3481   12.7125 H   0  0  0  0  0  0  0  0  0  0  0  0
  1  2  1  0  0  0  0
  1 34  1  0  0  0  0
  1 35  1  0  0  0  0
  1 36  1  0  0  0  0
  2  4  1  0  0  0  0
  3  2  2  0  0  0  0
  4  5  1  0  0  0  0
  4 37  1  0  0  0  0
  5  6  1  0  0  0  0
  5 38  1  0  0  0  0
  5 39  1  0  0  0  0
  6  7  2  0  0  0  0
  6  8  1  0  0  0  0
  8  9  1  0  0  0  0
  8 40  1  0  0  0  0
  9 12  1  0  0  0  0
  9 41  1  1  0  0  0
 10 17  1  0  0  0  0
 10  9  1  0  0  0  0
 11 10  2  0  0  0  0
 12 13  1  0  0  0  0
 12 42  1  0  0  0  0
 12 43  1  0  0  0  0
 13 14  1  0  0  0  0
 13 44  1  0  0  0  0
 13 45  1  0  0  0  0
 14 46  1  0  0  0  0
 14 47  1  0  0  0  0
 15 16  1  0  0  0  0
 15 14  1  0  0  0  0
 15 48  1  0  0  0  0
 15 49  1  0  0  0  0
 16 50  1  0  0  0  0
 16 51  1  0  0  0  0
 17 52  1  0  0  0  0
 18 21  1  0  0  0  0
 18 19  1  0  0  0  0
 18 17  1  0  0  0  0
 18 53  1  6  0  0  0
 19 20  2  0  0  0  0
 21 54  1  0  0  0  0
 22 21  1  0  0  0  0
 22 55  1  0  0  0  0
 22 56  1  0  0  0  0
 22 57  1  0  0  0  0
 23 21  1  0  0  0  0
 23 58  1  0  0  0  0
 23 59  1  0  0  0  0
 23 60  1  0  0  0  0
 24 25  1  0  0  0  0
 24 19  1  0  0  0  0
 24 61  1  0  0  0  0
 25 62  1  1  0  0  0
 26 25  1  0  0  0  0
 26 32  1  0  0  0  0
 27 26  2  0  0  0  0
 28 25  1  0  0  0  0
 28 63  1  0  0  0  0
 28 64  1  0  0  0  0
 29 28  1  0  0  0  0
 29 31  1  0  0  0  0
 29 65  1  0  0  0  0
 30 29  1  0  0  0  0
 30 66  1  0  0  0  0
 30 67  1  0  0  0  0
 30 68  1  0  0  0  0
 31 69  1  0  0  0  0
 31 70  1  0  0  0  0
 31 71  1  0  0  0  0
 32 72  1  0  0  0  0
 33 32  1  0  0  0  0
 33 73  1  0  0  0  0
 33 74  1  0  0  0  0
 33 75  1  0  0  0  0
M  END
>  <MODEL>
       0

$$$$
