selected_4mers/GLAA/680_noH.pdb
 OpenBabel03042518233D

 58 57  0  0  1  0  0  0  0  0999 V2000
   42.8890  -13.3610   76.4490 C   0  0  0  0  0  0  0  0  0  0  0  0
   41.9840  -14.0640   75.4480 C   0  0  0  0  0  0  0  0  0  0  0  0
   41.8970  -15.2930   75.4370 O   0  0  0  0  0  0  0  0  0  0  0  0
   41.3170  -13.2820   74.6030 N   0  0  0  0  0  0  0  0  0  0  0  0
   40.4410  -13.8630   73.6010 C   0  0  0  0  0  0  0  0  0  0  0  0
   41.2230  -14.7110   72.6090 C   0  0  0  0  0  0  0  0  0  0  0  0
   40.7780  -15.7830   72.2030 O   0  0  0  0  0  0  0  0  0  0  0  0
   42.4030  -14.2350   72.2160 N   0  0  0  0  0  0  0  0  0  0  0  0
   43.2510  -14.9570   71.2740 C   0  0  2  0  0  0  0  0  0  0  0  0
   43.6760  -16.2730   71.9150 C   0  0  0  0  0  0  0  0  0  0  0  0
   43.6690  -17.3230   71.2730 O   0  0  0  0  0  0  0  0  0  0  0  0
   44.4850  -14.1150   70.9440 C   0  0  0  0  0  0  0  0  0  0  0  0
   44.7910  -13.6950   69.5020 C   0  0  0  0  0  0  0  0  0  0  0  0
   43.5280  -13.5180   68.6780 C   0  0  0  0  0  0  0  0  0  0  0  0
   45.6160  -12.4190   69.5480 C   0  0  0  0  0  0  0  0  0  0  0  0
   44.0440  -16.2050   73.1870 N   0  0  0  0  0  0  0  0  0  0  0  0
   44.4590  -17.3990   73.9080 C   0  0  2  0  0  0  0  0  0  0  0  0
   43.2980  -18.3940   73.9390 C   0  0  0  0  0  0  0  0  0  0  0  0
   43.4860  -19.5910   73.7190 O   0  0  0  0  0  0  0  0  0  0  0  0
   44.8920  -17.0350   75.3240 C   0  0  0  0  0  0  0  0  0  0  0  0
   42.0920  -17.8930   74.1880 N   0  0  0  0  0  0  0  0  0  0  0  0
   40.9120  -18.7500   74.2410 C   0  0  2  0  0  0  0  0  0  0  0  0
   40.6370  -19.3860   72.8820 C   0  0  0  0  0  0  0  0  0  0  0  0
   40.2920  -20.5660   72.7920 O   0  0  0  0  0  0  0  0  0  0  0  0
   39.6980  -17.9400   74.6970 C   0  0  0  0  0  0  0  0  0  0  0  0
   40.7910  -18.6000   71.8210 N   0  0  0  0  0  0  0  0  0  0  0  0
   40.5590  -19.1030   70.4750 C   0  0  0  0  0  0  0  0  0  0  0  0
   42.8293  -12.3028   76.3019 H   0  0  0  0  0  0  0  0  0  0  0  0
   43.8987  -13.6847   76.3056 H   0  0  0  0  0  0  0  0  0  0  0  0
   42.5753  -13.6012   77.4434 H   0  0  0  0  0  0  0  0  0  0  0  0
   41.4179  -12.3042   74.6574 H   0  0  0  0  0  0  0  0  0  0  0  0
   39.7136  -14.4782   74.0882 H   0  0  0  0  0  0  0  0  0  0  0  0
   39.9660  -13.0679   73.0653 H   0  0  0  0  0  0  0  0  0  0  0  0
   42.7120  -13.3706   72.5716 H   0  0  0  0  0  0  0  0  0  0  0  0
   42.7145  -15.1507   70.3687 H   0  0  0  0  0  0  0  0  0  0  0  0
   44.3982  -13.2123   71.5119 H   0  0  0  0  0  0  0  0  0  0  0  0
   45.2917  -14.7801   71.1718 H   0  0  0  0  0  0  0  0  0  0  0  0
   45.3461  -14.4696   69.0155 H   0  0  0  0  0  0  0  0  0  0  0  0
   42.9224  -12.7510   69.1138 H   0  0  0  0  0  0  0  0  0  0  0  0
   42.9813  -14.4377   68.6612 H   0  0  0  0  0  0  0  0  0  0  0  0
   43.7902  -13.2406   67.6784 H   0  0  0  0  0  0  0  0  0  0  0  0
   45.0552  -11.6491   70.0355 H   0  0  0  0  0  0  0  0  0  0  0  0
   45.8525  -12.1111   68.5509 H   0  0  0  0  0  0  0  0  0  0  0  0
   46.5209  -12.5987   70.0899 H   0  0  0  0  0  0  0  0  0  0  0  0
   44.0364  -15.3359   73.6495 H   0  0  0  0  0  0  0  0  0  0  0  0
   45.2934  -17.8474   73.4104 H   0  0  0  0  0  0  0  0  0  0  0  0
   44.0721  -16.5838   75.8428 H   0  0  0  0  0  0  0  0  0  0  0  0
   45.7095  -16.3460   75.2810 H   0  0  0  0  0  0  0  0  0  0  0  0
   45.1982  -17.9198   75.8419 H   0  0  0  0  0  0  0  0  0  0  0  0
   41.9931  -16.9253   74.3395 H   0  0  0  0  0  0  0  0  0  0  0  0
   41.0975  -19.5339   74.9453 H   0  0  0  0  0  0  0  0  0  0  0  0
   39.5091  -17.1548   73.9951 H   0  0  0  0  0  0  0  0  0  0  0  0
   39.8925  -17.5178   75.6607 H   0  0  0  0  0  0  0  0  0  0  0  0
   38.8429  -18.5806   74.7542 H   0  0  0  0  0  0  0  0  0  0  0  0
   41.0662  -17.6633   71.9476 H   0  0  0  0  0  0  0  0  0  0  0  0
   40.2691  -20.1318   70.5238 H   0  0  0  0  0  0  0  0  0  0  0  0
   41.4572  -19.0124   69.9006 H   0  0  0  0  0  0  0  0  0  0  0  0
   39.7801  -18.5346   70.0111 H   0  0  0  0  0  0  0  0  0  0  0  0
  1 28  1  0  0  0  0
  1 29  1  0  0  0  0
  1 30  1  0  0  0  0
  2  1  1  0  0  0  0
  3  2  2  0  0  0  0
  4  2  1  0  0  0  0
  4 31  1  0  0  0  0
  5  4  1  0  0  0  0
  5 32  1  0  0  0  0
  5 33  1  0  0  0  0
  6  5  1  0  0  0  0
  7  6  2  0  0  0  0
  8  6  1  0  0  0  0
  8 34  1  0  0  0  0
  9 10  1  0  0  0  0
  9  8  1  0  0  0  0
  9 35  1  6  0  0  0
 10 16  1  0  0  0  0
 11 10  2  0  0  0  0
 12  9  1  0  0  0  0
 12 36  1  0  0  0  0
 12 37  1  0  0  0  0
 13 15  1  0  0  0  0
 13 12  1  0  0  0  0
 13 38  1  0  0  0  0
 14 13  1  0  0  0  0
 14 39  1  0  0  0  0
 14 40  1  0  0  0  0
 14 41  1  0  0  0  0
 15 42  1  0  0  0  0
 15 43  1  0  0  0  0
 15 44  1  0  0  0  0
 16 17  1  0  0  0  0
 16 45  1  0  0  0  0
 17 18  1  0  0  0  0
 17 20  1  0  0  0  0
 17 46  1  6  0  0  0
 18 21  1  0  0  0  0
 19 18  2  0  0  0  0
 20 47  1  0  0  0  0
 20 48  1  0  0  0  0
 20 49  1  0  0  0  0
 21 22  1  0  0  0  0
 21 50  1  0  0  0  0
 22 25  1  0  0  0  0
 22 51  1  1  0  0  0
 23 22  1  0  0  0  0
 24 23  2  0  0  0  0
 25 52  1  0  0  0  0
 25 53  1  0  0  0  0
 25 54  1  0  0  0  0
 26 23  1  0  0  0  0
 26 55  1  0  0  0  0
 27 26  1  0  0  0  0
 27 56  1  0  0  0  0
 27 57  1  0  0  0  0
 27 58  1  0  0  0  0
M  END
>  <MODEL>
       0

$$$$
selected_4mers/GLAA/681_noH.pdb
 OpenBabel03042518233D

 58 57  0  0  1  0  0  0  0  0999 V2000
  131.1150  243.2840   67.4360 C   0  0  0  0  0  0  0  0  0  0  0  0
  130.5010  244.2490   66.4330 C   0  0  0  0  0  0  0  0  0  0  0  0
  130.7210  245.4600   66.5080 O   0  0  0  0  0  0  0  0  0  0  0  0
  129.7460  243.7170   65.4770 N   0  0  0  0  0  0  0  0  0  0  0  0
  129.2860  244.5270   64.3660 C   0  0  0  0  0  0  0  0  0  0  0  0
  128.0890  245.3860   64.7160 C   0  0  0  0  0  0  0  0  0  0  0  0
  127.4880  245.2320   65.7770 O   0  0  0  0  0  0  0  0  0  0  0  0
  127.7310  246.2900   63.8140 N   0  0  0  0  0  0  0  0  0  0  0  0
  126.5510  247.1140   64.0220 C   0  0  2  0  0  0  0  0  0  0  0  0
  125.9760  247.5920   62.7080 C   0  0  0  0  0  0  0  0  0  0  0  0
  126.6900  247.6810   61.7060 O   0  0  0  0  0  0  0  0  0  0  0  0
  126.8820  248.3310   64.8880 C   0  0  0  0  0  0  0  0  0  0  0  0
  127.6440  249.4530   64.1780 C   0  0  0  0  0  0  0  0  0  0  0  0
  127.5590  250.7550   64.9660 C   0  0  0  0  0  0  0  0  0  0  0  0
  129.0990  249.0490   63.9450 C   0  0  0  0  0  0  0  0  0  0  0  0
  124.6730  247.8710   62.7290 N   0  0  0  0  0  0  0  0  0  0  0  0
  123.9910  248.5940   61.6550 C   0  0  2  0  0  0  0  0  0  0  0  0
  123.5140  247.7450   60.4800 C   0  0  0  0  0  0  0  0  0  0  0  0
  122.7720  248.2370   59.6340 O   0  0  0  0  0  0  0  0  0  0  0  0
  124.8070  249.7990   61.2140 C   0  0  0  0  0  0  0  0  0  0  0  0
  123.9250  246.4830   60.4140 N   0  0  0  0  0  0  0  0  0  0  0  0
  123.4640  245.6390   59.3240 C   0  0  2  0  0  0  0  0  0  0  0  0
  121.9630  245.4050   59.3410 C   0  0  0  0  0  0  0  0  0  0  0  0
  121.3370  245.3710   60.4070 O   0  0  0  0  0  0  0  0  0  0  0  0
  124.1840  244.2860   59.3480 C   0  0  0  0  0  0  0  0  0  0  0  0
  121.3830  245.2550   58.1510 N   0  0  0  0  0  0  0  0  0  0  0  0
  119.9880  244.8850   58.0230 C   0  0  0  0  0  0  0  0  0  0  0  0
  130.8076  242.2856   67.2045 H   0  0  0  0  0  0  0  0  0  0  0  0
  130.7874  243.5384   68.4223 H   0  0  0  0  0  0  0  0  0  0  0  0
  132.1819  243.3492   67.3866 H   0  0  0  0  0  0  0  0  0  0  0  0
  129.4973  242.7656   65.5237 H   0  0  0  0  0  0  0  0  0  0  0  0
  130.0858  245.1667   64.0562 H   0  0  0  0  0  0  0  0  0  0  0  0
  128.9839  243.8592   63.5865 H   0  0  0  0  0  0  0  0  0  0  0  0
  128.2684  246.4041   62.9971 H   0  0  0  0  0  0  0  0  0  0  0  0
  125.8268  246.5045   64.5210 H   0  0  0  0  0  0  0  0  0  0  0  0
  127.4772  247.9978   65.7124 H   0  0  0  0  0  0  0  0  0  0  0  0
  125.9418  248.7508   65.1791 H   0  0  0  0  0  0  0  0  0  0  0  0
  127.1854  249.6176   63.2254 H   0  0  0  0  0  0  0  0  0  0  0  0
  128.0111  250.6208   65.9264 H   0  0  0  0  0  0  0  0  0  0  0  0
  126.5325  251.0303   65.0904 H   0  0  0  0  0  0  0  0  0  0  0  0
  128.0737  251.5279   64.4344 H   0  0  0  0  0  0  0  0  0  0  0  0
  129.5772  248.8792   64.8870 H   0  0  0  0  0  0  0  0  0  0  0  0
  129.6075  249.8325   63.4229 H   0  0  0  0  0  0  0  0  0  0  0  0
  129.1312  248.1524   63.3619 H   0  0  0  0  0  0  0  0  0  0  0  0
  124.1435  247.5763   63.5049 H   0  0  0  0  0  0  0  0  0  0  0  0
  123.0745  248.9366   62.0880 H   0  0  0  0  0  0  0  0  0  0  0  0
  125.7266  249.4672   60.7791 H   0  0  0  0  0  0  0  0  0  0  0  0
  125.0160  250.4177   62.0616 H   0  0  0  0  0  0  0  0  0  0  0  0
  124.2525  250.3600   60.4910 H   0  0  0  0  0  0  0  0  0  0  0  0
  124.5360  246.1231   61.0969 H   0  0  0  0  0  0  0  0  0  0  0  0
  123.6972  246.1678   58.4235 H   0  0  0  0  0  0  0  0  0  0  0  0
  123.9418  243.7691   60.2530 H   0  0  0  0  0  0  0  0  0  0  0  0
  125.2412  244.4437   59.2993 H   0  0  0  0  0  0  0  0  0  0  0  0
  123.8716  243.7008   58.5084 H   0  0  0  0  0  0  0  0  0  0  0  0
  121.9168  245.3995   57.3365 H   0  0  0  0  0  0  0  0  0  0  0  0
  119.5593  244.7679   58.9963 H   0  0  0  0  0  0  0  0  0  0  0  0
  119.9115  243.9626   57.4862 H   0  0  0  0  0  0  0  0  0  0  0  0
  119.4630  245.6513   57.4919 H   0  0  0  0  0  0  0  0  0  0  0  0
  1 28  1  0  0  0  0
  1 29  1  0  0  0  0
  1 30  1  0  0  0  0
  2  3  2  0  0  0  0
  2  1  1  0  0  0  0
  4  2  1  0  0  0  0
  4 31  1  0  0  0  0
  5  6  1  0  0  0  0
  5  4  1  0  0  0  0
  5 32  1  0  0  0  0
  5 33  1  0  0  0  0
  6  7  2  0  0  0  0
  8  9  1  0  0  0  0
  8  6  1  0  0  0  0
  8 34  1  0  0  0  0
  9 12  1  0  0  0  0
  9 35  1  1  0  0  0
 10 16  1  0  0  0  0
 10  9  1  0  0  0  0
 11 10  2  0  0  0  0
 12 36  1  0  0  0  0
 12 37  1  0  0  0  0
 13 12  1  0  0  0  0
 13 14  1  0  0  0  0
 13 38  1  0  0  0  0
 14 39  1  0  0  0  0
 14 40  1  0  0  0  0
 14 41  1  0  0  0  0
 15 13  1  0  0  0  0
 15 42  1  0  0  0  0
 15 43  1  0  0  0  0
 15 44  1  0  0  0  0
 16 45  1  0  0  0  0
 17 16  1  0  0  0  0
 17 46  1  1  0  0  0
 18 17  1  0  0  0  0
 19 18  2  0  0  0  0
 20 17  1  0  0  0  0
 20 47  1  0  0  0  0
 20 48  1  0  0  0  0
 20 49  1  0  0  0  0
 21 18  1  0  0  0  0
 21 50  1  0  0  0  0
 22 23  1  0  0  0  0
 22 25  1  0  0  0  0
 22 21  1  0  0  0  0
 22 51  1  6  0  0  0
 23 24  2  0  0  0  0
 25 52  1  0  0  0  0
 25 53  1  0  0  0  0
 25 54  1  0  0  0  0
 26 23  1  0  0  0  0
 26 55  1  0  0  0  0
 27 26  1  0  0  0  0
 27 56  1  0  0  0  0
 27 57  1  0  0  0  0
 27 58  1  0  0  0  0
M  END
>  <MODEL>
       0

$$$$
selected_4mers/GLAA/682_noH.pdb
 OpenBabel03042518233D

 58 57  0  0  1  0  0  0  0  0999 V2000
  -21.5040   28.7340   20.2250 C   0  0  0  0  0  0  0  0  0  0  0  0
  -22.8320   28.9480   19.5060 C   0  0  0  0  0  0  0  0  0  0  0  0
  -23.8590   28.4500   19.9650 O   0  0  0  0  0  0  0  0  0  0  0  0
  -22.8310   29.6060   18.3460 N   0  0  0  0  0  0  0  0  0  0  0  0
  -24.0700   29.7340   17.5700 C   0  0  0  0  0  0  0  0  0  0  0  0
  -23.7470   29.7410   16.0820 C   0  0  0  0  0  0  0  0  0  0  0  0
  -22.6990   30.2580   15.6790 O   0  0  0  0  0  0  0  0  0  0  0  0
  -24.6070   29.1220   15.2870 N   0  0  0  0  0  0  0  0  0  0  0  0
  -24.3870   29.0530   13.8560 C   0  0  2  0  0  0  0  0  0  0  0  0
  -25.7260   29.1990   13.2130 C   0  0  0  0  0  0  0  0  0  0  0  0
  -26.6810   28.5340   13.6140 O   0  0  0  0  0  0  0  0  0  0  0  0
  -23.7590   27.7090   13.4300 C   0  0  0  0  0  0  0  0  0  0  0  0
  -23.2370   27.5240   12.0130 C   0  0  0  0  0  0  0  0  0  0  0  0
  -21.9760   28.4480   11.6880 C   0  0  0  0  0  0  0  0  0  0  0  0
  -22.9020   26.0090   11.7510 C   0  0  0  0  0  0  0  0  0  0  0  0
  -25.8200   30.0420   12.2060 N   0  0  0  0  0  0  0  0  0  0  0  0
  -27.0740   30.2100   11.4430 C   0  0  2  0  0  0  0  0  0  0  0  0
  -26.9100   29.6200   10.0430 C   0  0  0  0  0  0  0  0  0  0  0  0
  -25.7940   29.6810    9.5080 O   0  0  0  0  0  0  0  0  0  0  0  0
  -27.4530   31.7210   11.3710 C   0  0  0  0  0  0  0  0  0  0  0  0
  -28.0020   29.1690    9.4190 N   0  0  0  0  0  0  0  0  0  0  0  0
  -27.9170   28.4250    8.0970 C   0  0  2  0  0  0  0  0  0  0  0  0
  -27.2140   29.2450    6.9670 C   0  0  0  0  0  0  0  0  0  0  0  0
  -26.4980   28.6640    6.1990 O   0  0  0  0  0  0  0  0  0  0  0  0
  -29.2790   27.9700    7.6580 C   0  0  0  0  0  0  0  0  0  0  0  0
  -27.3630   30.6090    6.9170 N   0  0  0  0  0  0  0  0  0  0  0  0
  -26.6600   31.3350    5.8550 C   0  0  0  0  0  0  0  0  0  0  0  0
  -20.7240   29.2342   19.6898 H   0  0  0  0  0  0  0  0  0  0  0  0
  -21.2890   27.6869   20.2729 H   0  0  0  0  0  0  0  0  0  0  0  0
  -21.5673   29.1308   21.2167 H   0  0  0  0  0  0  0  0  0  0  0  0
  -21.9971   30.0068   18.0095 H   0  0  0  0  0  0  0  0  0  0  0  0
  -24.7140   28.9083   17.7900 H   0  0  0  0  0  0  0  0  0  0  0  0
  -24.5574   30.6502   17.8305 H   0  0  0  0  0  0  0  0  0  0  0  0
  -25.4087   28.7020   15.6745 H   0  0  0  0  0  0  0  0  0  0  0  0
  -23.7058   29.8226   13.5584 H   0  0  0  0  0  0  0  0  0  0  0  0
  -22.9338   27.5323   14.0878 H   0  0  0  0  0  0  0  0  0  0  0  0
  -24.5833   27.0285   13.4773 H   0  0  0  0  0  0  0  0  0  0  0  0
  -24.0168   27.8344   11.3493 H   0  0  0  0  0  0  0  0  0  0  0  0
  -21.1618   28.1782   12.3277 H   0  0  0  0  0  0  0  0  0  0  0  0
  -22.2336   29.4735   11.8518 H   0  0  0  0  0  0  0  0  0  0  0  0
  -21.6875   28.3114   10.6667 H   0  0  0  0  0  0  0  0  0  0  0  0
  -22.1223   25.6964   12.4137 H   0  0  0  0  0  0  0  0  0  0  0  0
  -22.5803   25.8849   10.7381 H   0  0  0  0  0  0  0  0  0  0  0  0
  -23.7756   25.4156   11.9230 H   0  0  0  0  0  0  0  0  0  0  0  0
  -25.0320   30.5758   11.9542 H   0  0  0  0  0  0  0  0  0  0  0  0
  -27.8663   29.6888   11.9385 H   0  0  0  0  0  0  0  0  0  0  0  0
  -26.6722   32.2615   10.8780 H   0  0  0  0  0  0  0  0  0  0  0  0
  -27.5813   32.1041   12.3618 H   0  0  0  0  0  0  0  0  0  0  0  0
  -28.3655   31.8341   10.8239 H   0  0  0  0  0  0  0  0  0  0  0  0
  -28.8849   29.3228    9.8265 H   0  0  0  0  0  0  0  0  0  0  0  0
  -27.2993   27.5690    8.2717 H   0  0  0  0  0  0  0  0  0  0  0  0
  -29.9005   28.8231    7.4821 H   0  0  0  0  0  0  0  0  0  0  0  0
  -29.7157   27.3622    8.4227 H   0  0  0  0  0  0  0  0  0  0  0  0
  -29.1914   27.4005    6.7564 H   0  0  0  0  0  0  0  0  0  0  0  0
  -27.9234   31.0837    7.5726 H   0  0  0  0  0  0  0  0  0  0  0  0
  -26.1102   30.6421    5.2529 H   0  0  0  0  0  0  0  0  0  0  0  0
  -25.9854   32.0413    6.2920 H   0  0  0  0  0  0  0  0  0  0  0  0
  -27.3713   31.8515    5.2449 H   0  0  0  0  0  0  0  0  0  0  0  0
  1 28  1  0  0  0  0
  1 29  1  0  0  0  0
  1 30  1  0  0  0  0
  2  3  2  0  0  0  0
  2  1  1  0  0  0  0
  4  2  1  0  0  0  0
  4 31  1  0  0  0  0
  5  4  1  0  0  0  0
  5 32  1  0  0  0  0
  5 33  1  0  0  0  0
  6  5  1  0  0  0  0
  7  6  2  0  0  0  0
  8  6  1  0  0  0  0
  8 34  1  0  0  0  0
  9  8  1  0  0  0  0
  9 35  1  6  0  0  0
 10 11  2  0  0  0  0
 10  9  1  0  0  0  0
 12  9  1  0  0  0  0
 12 36  1  0  0  0  0
 12 37  1  0  0  0  0
 13 12  1  0  0  0  0
 13 38  1  0  0  0  0
 14 13  1  0  0  0  0
 14 39  1  0  0  0  0
 14 40  1  0  0  0  0
 14 41  1  0  0  0  0
 15 13  1  0  0  0  0
 15 42  1  0  0  0  0
 15 43  1  0  0  0  0
 15 44  1  0  0  0  0
 16 10  1  0  0  0  0
 16 45  1  0  0  0  0
 17 16  1  0  0  0  0
 17 46  1  1  0  0  0
 18 17  1  0  0  0  0
 19 18  2  0  0  0  0
 20 17  1  0  0  0  0
 20 47  1  0  0  0  0
 20 48  1  0  0  0  0
 20 49  1  0  0  0  0
 21 18  1  0  0  0  0
 21 50  1  0  0  0  0
 22 21  1  0  0  0  0
 22 51  1  1  0  0  0
 23 22  1  0  0  0  0
 24 23  2  0  0  0  0
 25 22  1  0  0  0  0
 25 52  1  0  0  0  0
 25 53  1  0  0  0  0
 25 54  1  0  0  0  0
 26 23  1  0  0  0  0
 26 55  1  0  0  0  0
 27 26  1  0  0  0  0
 27 56  1  0  0  0  0
 27 57  1  0  0  0  0
 27 58  1  0  0  0  0
M  END
>  <MODEL>
       0

$$$$
selected_4mers/GLAA/683_noH.pdb
 OpenBabel03042518233D

 58 57  0  0  1  0  0  0  0  0999 V2000
   84.5380   43.1900  115.4360 C   0  0  0  0  0  0  0  0  0  0  0  0
   85.2040   42.7670  114.1480 C   0  0  0  0  0  0  0  0  0  0  0  0
   86.2980   42.1690  114.2130 O   0  0  0  0  0  0  0  0  0  0  0  0
   84.6140   43.0500  113.0070 N   0  0  0  0  0  0  0  0  0  0  0  0
   85.0130   42.5140  111.7240 C   0  0  0  0  0  0  0  0  0  0  0  0
   84.0440   41.4580  111.2210 C   0  0  0  0  0  0  0  0  0  0  0  0
   83.9890   41.1890  110.0330 O   0  0  0  0  0  0  0  0  0  0  0  0
   83.2430   40.8730  112.1050 N   0  0  0  0  0  0  0  0  0  0  0  0
   82.2960   39.8640  111.7160 C   0  0  2  0  0  0  0  0  0  0  0  0
   81.0120   40.4300  111.1560 C   0  0  0  0  0  0  0  0  0  0  0  0
   80.2940   39.7070  110.4110 O   0  0  0  0  0  0  0  0  0  0  0  0
   81.9890   38.9480  112.8830 C   0  0  0  0  0  0  0  0  0  0  0  0
   83.2110   38.2410  113.5430 C   0  0  0  0  0  0  0  0  0  0  0  0
   82.6940   37.4700  114.8000 C   0  0  0  0  0  0  0  0  0  0  0  0
   83.9550   37.3710  112.5680 C   0  0  0  0  0  0  0  0  0  0  0  0
   80.7030   41.6630  111.4940 N   0  0  0  0  0  0  0  0  0  0  0  0
   79.5680   42.4340  111.0410 C   0  0  2  0  0  0  0  0  0  0  0  0
   78.2290   41.9820  111.5820 C   0  0  0  0  0  0  0  0  0  0  0  0
   77.5320   42.7540  112.2970 O   0  0  0  0  0  0  0  0  0  0  0  0
   79.5190   42.6300  109.5260 C   0  0  0  0  0  0  0  0  0  0  0  0
   77.7710   40.7960  111.2160 N   0  0  0  0  0  0  0  0  0  0  0  0
   76.4530   40.3030  111.5730 C   0  0  2  0  0  0  0  0  0  0  0  0
   76.5890   38.7880  111.6860 C   0  0  0  0  0  0  0  0  0  0  0  0
   77.1300   38.1290  110.8140 O   0  0  0  0  0  0  0  0  0  0  0  0
   75.4360   40.7130  110.5390 C   0  0  0  0  0  0  0  0  0  0  0  0
   76.0230   38.2730  112.7950 N   0  0  0  0  0  0  0  0  0  0  0  0
   76.1270   36.8870  113.1610 C   0  0  0  0  0  0  0  0  0  0  0  0
   83.6163   43.6864  115.2147 H   0  0  0  0  0  0  0  0  0  0  0  0
   85.1832   43.8568  115.9689 H   0  0  0  0  0  0  0  0  0  0  0  0
   84.3427   42.3265  116.0369 H   0  0  0  0  0  0  0  0  0  0  0  0
   83.8486   43.6689  113.0276 H   0  0  0  0  0  0  0  0  0  0  0  0
   85.0525   43.3129  111.0133 H   0  0  0  0  0  0  0  0  0  0  0  0
   85.9713   42.0529  111.8425 H   0  0  0  0  0  0  0  0  0  0  0  0
   83.2996   41.1376  113.0516 H   0  0  0  0  0  0  0  0  0  0  0  0
   82.7592   39.3087  110.9274 H   0  0  0  0  0  0  0  0  0  0  0  0
   81.3212   38.1880  112.5346 H   0  0  0  0  0  0  0  0  0  0  0  0
   81.5792   39.5800  113.6429 H   0  0  0  0  0  0  0  0  0  0  0  0
   83.9357   38.9635  113.8556 H   0  0  0  0  0  0  0  0  0  0  0  0
   81.9679   36.7439  114.4994 H   0  0  0  0  0  0  0  0  0  0  0  0
   82.2457   38.1611  115.4829 H   0  0  0  0  0  0  0  0  0  0  0  0
   83.5144   36.9771  115.2785 H   0  0  0  0  0  0  0  0  0  0  0  0
   83.3006   36.6095  112.1981 H   0  0  0  0  0  0  0  0  0  0  0  0
   84.7891   36.9162  113.0602 H   0  0  0  0  0  0  0  0  0  0  0  0
   84.3047   37.9682  111.7519 H   0  0  0  0  0  0  0  0  0  0  0  0
   81.3122   42.1098  112.1252 H   0  0  0  0  0  0  0  0  0  0  0  0
   79.7472   43.3942  111.4777 H   0  0  0  0  0  0  0  0  0  0  0  0
   79.3407   41.6884  109.0501 H   0  0  0  0  0  0  0  0  0  0  0  0
   80.4522   43.0296  109.1877 H   0  0  0  0  0  0  0  0  0  0  0  0
   78.7298   43.3093  109.2796 H   0  0  0  0  0  0  0  0  0  0  0  0
   78.3543   40.2177  110.6733 H   0  0  0  0  0  0  0  0  0  0  0  0
   76.1057   40.7144  112.4977 H   0  0  0  0  0  0  0  0  0  0  0  0
   75.7257   40.3306  109.5826 H   0  0  0  0  0  0  0  0  0  0  0  0
   75.3827   41.7808  110.4950 H   0  0  0  0  0  0  0  0  0  0  0  0
   74.4776   40.3187  110.8054 H   0  0  0  0  0  0  0  0  0  0  0  0
   75.5132   38.8756  113.3834 H   0  0  0  0  0  0  0  0  0  0  0  0
   76.7071   36.3670  112.4276 H   0  0  0  0  0  0  0  0  0  0  0  0
   75.1485   36.4572  113.2121 H   0  0  0  0  0  0  0  0  0  0  0  0
   76.6028   36.8050  114.1159 H   0  0  0  0  0  0  0  0  0  0  0  0
  1 28  1  0  0  0  0
  1 29  1  0  0  0  0
  1 30  1  0  0  0  0
  2  3  2  0  0  0  0
  2  1  1  0  0  0  0
  4  2  1  0  0  0  0
  4 31  1  0  0  0  0
  5  4  1  0  0  0  0
  5 32  1  0  0  0  0
  5 33  1  0  0  0  0
  6  5  1  0  0  0  0
  6  8  1  0  0  0  0
  7  6  2  0  0  0  0
  8 34  1  0  0  0  0
  9  8  1  0  0  0  0
  9 12  1  0  0  0  0
  9 35  1  6  0  0  0
 10 16  1  0  0  0  0
 10  9  1  0  0  0  0
 11 10  2  0  0  0  0
 12 13  1  0  0  0  0
 12 36  1  0  0  0  0
 12 37  1  0  0  0  0
 13 14  1  0  0  0  0
 13 38  1  0  0  0  0
 14 39  1  0  0  0  0
 14 40  1  0  0  0  0
 14 41  1  0  0  0  0
 15 13  1  0  0  0  0
 15 42  1  0  0  0  0
 15 43  1  0  0  0  0
 15 44  1  0  0  0  0
 16 45  1  0  0  0  0
 17 16  1  0  0  0  0
 17 18  1  0  0  0  0
 17 46  1  1  0  0  0
 18 19  2  0  0  0  0
 20 17  1  0  0  0  0
 20 47  1  0  0  0  0
 20 48  1  0  0  0  0
 20 49  1  0  0  0  0
 21 22  1  0  0  0  0
 21 18  1  0  0  0  0
 21 50  1  0  0  0  0
 22 23  1  0  0  0  0
 22 51  1  1  0  0  0
 23 26  1  0  0  0  0
 24 23  2  0  0  0  0
 25 22  1  0  0  0  0
 25 52  1  0  0  0  0
 25 53  1  0  0  0  0
 25 54  1  0  0  0  0
 26 27  1  0  0  0  0
 26 55  1  0  0  0  0
 27 56  1  0  0  0  0
 27 57  1  0  0  0  0
 27 58  1  0  0  0  0
M  END
>  <MODEL>
       0

$$$$
selected_4mers/GLAA/684_noH.pdb
 OpenBabel03042518233D

 58 57  0  0  1  0  0  0  0  0999 V2000
   39.0760   -9.6770    0.8360 C   0  0  0  0  0  0  0  0  0  0  0  0
   39.5340  -10.8410   -0.0720 C   0  0  0  0  0  0  0  0  0  0  0  0
   40.7200  -11.0380   -0.2710 O   0  0  0  0  0  0  0  0  0  0  0  0
   38.5530  -11.5790   -0.5700 N   0  0  0  0  0  0  0  0  0  0  0  0
   38.7420  -12.6670   -1.4980 C   0  0  0  0  0  0  0  0  0  0  0  0
   38.5800  -14.0550   -0.9430 C   0  0  0  0  0  0  0  0  0  0  0  0
   38.5450  -15.0290   -1.6880 O   0  0  0  0  0  0  0  0  0  0  0  0
   38.4680  -14.1530    0.3650 N   0  0  0  0  0  0  0  0  0  0  0  0
   38.3830  -15.4260    1.0640 C   0  0  2  0  0  0  0  0  0  0  0  0
   36.9390  -15.8880    1.2570 C   0  0  0  0  0  0  0  0  0  0  0  0
   36.0050  -15.1440    0.9050 O   0  0  0  0  0  0  0  0  0  0  0  0
   39.1310  -15.2960    2.3850 C   0  0  0  0  0  0  0  0  0  0  0  0
   40.5750  -14.7890    2.2600 C   0  0  0  0  0  0  0  0  0  0  0  0
   41.2190  -14.6660    3.6360 C   0  0  0  0  0  0  0  0  0  0  0  0
   41.4520  -15.6870    1.3570 C   0  0  0  0  0  0  0  0  0  0  0  0
   36.7440  -17.0980    1.7990 N   0  0  0  0  0  0  0  0  0  0  0  0
   35.4150  -17.6540    1.9660 C   0  0  2  0  0  0  0  0  0  0  0  0
   34.6410  -16.8910    3.0320 C   0  0  0  0  0  0  0  0  0  0  0  0
   35.2100  -16.1670    3.8710 O   0  0  0  0  0  0  0  0  0  0  0  0
   35.4960  -19.1270    2.3390 C   0  0  0  0  0  0  0  0  0  0  0  0
   33.3310  -17.0840    3.0220 N   0  0  0  0  0  0  0  0  0  0  0  0
   32.4680  -16.4420    3.9910 C   0  0  2  0  0  0  0  0  0  0  0  0
   32.9050  -16.8480    5.4040 C   0  0  0  0  0  0  0  0  0  0  0  0
   33.0880  -18.0200    5.6520 O   0  0  0  0  0  0  0  0  0  0  0  0
   30.9880  -16.8850    3.7230 C   0  0  0  0  0  0  0  0  0  0  0  0
   33.1410  -15.8920    6.3140 N   0  0  0  0  0  0  0  0  0  0  0  0
   33.5660  -16.1930    7.6710 C   0  0  0  0  0  0  0  0  0  0  0  0
   38.0074   -9.6651    0.8888 H   0  0  0  0  0  0  0  0  0  0  0  0
   39.4234   -8.7500    0.4300 H   0  0  0  0  0  0  0  0  0  0  0  0
   39.4802   -9.8102    1.8177 H   0  0  0  0  0  0  0  0  0  0  0  0
   37.6331  -11.3709   -0.2877 H   0  0  0  0  0  0  0  0  0  0  0  0
   38.0311  -12.5476   -2.2888 H   0  0  0  0  0  0  0  0  0  0  0  0
   39.7642  -12.6022   -1.8075 H   0  0  0  0  0  0  0  0  0  0  0  0
   38.4404  -13.3244    0.8960 H   0  0  0  0  0  0  0  0  0  0  0  0
   38.8413  -16.1887    0.4697 H   0  0  0  0  0  0  0  0  0  0  0  0
   39.1555  -16.2594    2.8499 H   0  0  0  0  0  0  0  0  0  0  0  0
   38.6032  -14.5635    2.9593 H   0  0  0  0  0  0  0  0  0  0  0  0
   40.5179  -13.8265    1.7961 H   0  0  0  0  0  0  0  0  0  0  0  0
   41.2722  -15.6322    4.0926 H   0  0  0  0  0  0  0  0  0  0  0  0
   40.6311  -14.0142    4.2480 H   0  0  0  0  0  0  0  0  0  0  0  0
   42.2058  -14.2652    3.5334 H   0  0  0  0  0  0  0  0  0  0  0  0
   41.5311  -16.6613    1.7921 H   0  0  0  0  0  0  0  0  0  0  0  0
   42.4275  -15.2568    1.2658 H   0  0  0  0  0  0  0  0  0  0  0  0
   41.0043  -15.7643    0.3883 H   0  0  0  0  0  0  0  0  0  0  0  0
   37.5235  -17.6234    2.0915 H   0  0  0  0  0  0  0  0  0  0  0  0
   34.8974  -17.5603    1.0342 H   0  0  0  0  0  0  0  0  0  0  0  0
   36.0124  -19.2312    3.2703 H   0  0  0  0  0  0  0  0  0  0  0  0
   36.0249  -19.6595    1.5764 H   0  0  0  0  0  0  0  0  0  0  0  0
   34.5076  -19.5261    2.4326 H   0  0  0  0  0  0  0  0  0  0  0  0
   32.9359  -17.6761    2.3418 H   0  0  0  0  0  0  0  0  0  0  0  0
   32.5355  -15.3777    3.9040 H   0  0  0  0  0  0  0  0  0  0  0  0
   30.9131  -17.9489    3.8085 H   0  0  0  0  0  0  0  0  0  0  0  0
   30.6988  -16.5851    2.7374 H   0  0  0  0  0  0  0  0  0  0  0  0
   30.3420  -16.4232    4.4402 H   0  0  0  0  0  0  0  0  0  0  0  0
   33.0219  -14.9502    6.0531 H   0  0  0  0  0  0  0  0  0  0  0  0
   33.6477  -17.2530    7.7923 H   0  0  0  0  0  0  0  0  0  0  0  0
   32.8463  -15.8092    8.3636 H   0  0  0  0  0  0  0  0  0  0  0  0
   34.5168  -15.7385    7.8561 H   0  0  0  0  0  0  0  0  0  0  0  0
  1 28  1  0  0  0  0
  1 29  1  0  0  0  0
  1 30  1  0  0  0  0
  2  1  1  0  0  0  0
  3  2  2  0  0  0  0
  4  2  1  0  0  0  0
  4 31  1  0  0  0  0
  5  6  1  0  0  0  0
  5  4  1  0  0  0  0
  5 32  1  0  0  0  0
  5 33  1  0  0  0  0
  6  8  1  0  0  0  0
  7  6  2  0  0  0  0
  8  9  1  0  0  0  0
  8 34  1  0  0  0  0
  9 10  1  0  0  0  0
  9 12  1  0  0  0  0
  9 35  1  6  0  0  0
 10 16  1  0  0  0  0
 11 10  2  0  0  0  0
 12 36  1  0  0  0  0
 12 37  1  0  0  0  0
 13 12  1  0  0  0  0
 13 14  1  0  0  0  0
 13 38  1  0  0  0  0
 14 39  1  0  0  0  0
 14 40  1  0  0  0  0
 14 41  1  0  0  0  0
 15 13  1  0  0  0  0
 15 42  1  0  0  0  0
 15 43  1  0  0  0  0
 15 44  1  0  0  0  0
 16 17  1  0  0  0  0
 16 45  1  0  0  0  0
 17 20  1  0  0  0  0
 17 18  1  0  0  0  0
 17 46  1  6  0  0  0
 18 19  2  0  0  0  0
 20 47  1  0  0  0  0
 20 48  1  0  0  0  0
 20 49  1  0  0  0  0
 21 18  1  0  0  0  0
 21 22  1  0  0  0  0
 21 50  1  0  0  0  0
 22 23  1  0  0  0  0
 22 51  1  6  0  0  0
 23 24  2  0  0  0  0
 23 26  1  0  0  0  0
 25 22  1  0  0  0  0
 25 52  1  0  0  0  0
 25 53  1  0  0  0  0
 25 54  1  0  0  0  0
 26 27  1  0  0  0  0
 26 55  1  0  0  0  0
 27 56  1  0  0  0  0
 27 57  1  0  0  0  0
 27 58  1  0  0  0  0
M  END
>  <MODEL>
       0

$$$$
