selected_4mers/GLLA/690_noH.pdb
 OpenBabel03042518233D

 67 66  0  0  1  0  0  0  0  0999 V2000
  -48.3450   30.2100   44.8860 C   0  0  0  0  0  0  0  0  0  0  0  0
  -47.6630   31.5730   44.9570 C   0  0  0  0  0  0  0  0  0  0  0  0
  -47.6410   32.3130   43.9810 O   0  0  0  0  0  0  0  0  0  0  0  0
  -47.1180   31.9070   46.1160 N   0  0  0  0  0  0  0  0  0  0  0  0
  -46.4120   33.1710   46.2750 C   0  0  0  0  0  0  0  0  0  0  0  0
  -45.1760   33.2340   45.3970 C   0  0  0  0  0  0  0  0  0  0  0  0
  -44.8780   34.2590   44.8110 O   0  0  0  0  0  0  0  0  0  0  0  0
  -44.4560   32.1230   45.2890 N   0  0  0  0  0  0  0  0  0  0  0  0
  -43.2600   32.1100   44.4540 C   0  0  2  0  0  0  0  0  0  0  0  0
  -43.6380   32.3060   42.9950 C   0  0  0  0  0  0  0  0  0  0  0  0
  -43.0070   33.0940   42.2900 O   0  0  0  0  0  0  0  0  0  0  0  0
  -42.4670   30.8160   44.6450 C   0  0  0  0  0  0  0  0  0  0  0  0
  -41.2370   30.6160   43.7650 C   0  0  0  0  0  0  0  0  0  0  0  0
  -40.1970   31.7180   43.9830 C   0  0  0  0  0  0  0  0  0  0  0  0
  -40.6730   29.2500   44.1110 C   0  0  0  0  0  0  0  0  0  0  0  0
  -44.6790   31.6020   42.5510 N   0  0  0  0  0  0  0  0  0  0  0  0
  -45.1390   31.7300   41.1720 C   0  0  2  0  0  0  0  0  0  0  0  0
  -45.5630   33.1730   40.8840 C   0  0  0  0  0  0  0  0  0  0  0  0
  -45.2910   33.6970   39.8160 O   0  0  0  0  0  0  0  0  0  0  0  0
  -46.2750   30.7500   40.8690 C   0  0  0  0  0  0  0  0  0  0  0  0
  -45.9370   29.2550   40.8740 C   0  0  0  0  0  0  0  0  0  0  0  0
  -47.2040   28.4220   40.6640 C   0  0  0  0  0  0  0  0  0  0  0  0
  -44.9120   28.9290   39.8100 C   0  0  0  0  0  0  0  0  0  0  0  0
  -46.2160   33.8220   41.8410 N   0  0  0  0  0  0  0  0  0  0  0  0
  -46.6490   35.2040   41.6360 C   0  0  2  0  0  0  0  0  0  0  0  0
  -45.4670   36.1630   41.5340 C   0  0  0  0  0  0  0  0  0  0  0  0
  -45.4930   37.1060   40.7560 O   0  0  0  0  0  0  0  0  0  0  0  0
  -47.6230   35.6500   42.7270 C   0  0  0  0  0  0  0  0  0  0  0  0
  -44.4250   35.9180   42.3220 N   0  0  0  0  0  0  0  0  0  0  0  0
  -43.2190   36.7190   42.2460 C   0  0  0  0  0  0  0  0  0  0  0  0
  -48.7423   30.0607   43.9038 H   0  0  0  0  0  0  0  0  0  0  0  0
  -49.1394   30.1709   45.6018 H   0  0  0  0  0  0  0  0  0  0  0  0
  -47.6316   29.4425   45.1027 H   0  0  0  0  0  0  0  0  0  0  0  0
  -47.1909   31.2923   46.8815 H   0  0  0  0  0  0  0  0  0  0  0  0
  -47.0692   33.9720   46.0076 H   0  0  0  0  0  0  0  0  0  0  0  0
  -46.1024   33.2556   47.2957 H   0  0  0  0  0  0  0  0  0  0  0  0
  -44.7291   31.3096   45.7717 H   0  0  0  0  0  0  0  0  0  0  0  0
  -42.6300   32.9209   44.7548 H   0  0  0  0  0  0  0  0  0  0  0  0
  -42.1423   30.7849   45.6641 H   0  0  0  0  0  0  0  0  0  0  0  0
  -43.1404   30.0350   44.3595 H   0  0  0  0  0  0  0  0  0  0  0  0
  -41.5043   30.6695   42.7303 H   0  0  0  0  0  0  0  0  0  0  0  0
  -39.8861   31.7175   45.0068 H   0  0  0  0  0  0  0  0  0  0  0  0
  -40.6273   32.6674   43.7413 H   0  0  0  0  0  0  0  0  0  0  0  0
  -39.3506   31.5393   43.3532 H   0  0  0  0  0  0  0  0  0  0  0  0
  -40.4144   29.2234   45.1489 H   0  0  0  0  0  0  0  0  0  0  0  0
  -39.7998   29.0648   43.5210 H   0  0  0  0  0  0  0  0  0  0  0  0
  -41.4072   28.4989   43.9070 H   0  0  0  0  0  0  0  0  0  0  0  0
  -45.1445   30.9865   43.1624 H   0  0  0  0  0  0  0  0  0  0  0  0
  -44.3239   31.4818   40.5248 H   0  0  0  0  0  0  0  0  0  0  0  0
  -47.0394   30.9087   41.6007 H   0  0  0  0  0  0  0  0  0  0  0  0
  -46.5582   30.9631   39.8594 H   0  0  0  0  0  0  0  0  0  0  0  0
  -45.5179   29.0111   41.8278 H   0  0  0  0  0  0  0  0  0  0  0  0
  -47.6322   28.6578   39.7122 H   0  0  0  0  0  0  0  0  0  0  0  0
  -47.9093   28.6443   41.4373 H   0  0  0  0  0  0  0  0  0  0  0  0
  -46.9561   27.3816   40.6957 H   0  0  0  0  0  0  0  0  0  0  0  0
  -45.3111   29.1657   38.8458 H   0  0  0  0  0  0  0  0  0  0  0  0
  -44.6741   27.8866   39.8514 H   0  0  0  0  0  0  0  0  0  0  0  0
  -44.0259   29.5041   39.9802 H   0  0  0  0  0  0  0  0  0  0  0  0
  -46.4099   33.3701   42.6939 H   0  0  0  0  0  0  0  0  0  0  0  0
  -47.1655   35.2332   40.6993 H   0  0  0  0  0  0  0  0  0  0  0  0
  -47.1293   35.6294   43.6761 H   0  0  0  0  0  0  0  0  0  0  0  0
  -48.4631   34.9877   42.7476 H   0  0  0  0  0  0  0  0  0  0  0  0
  -47.9582   36.6450   42.5208 H   0  0  0  0  0  0  0  0  0  0  0  0
  -44.4731   35.1782   42.9698 H   0  0  0  0  0  0  0  0  0  0  0  0
  -43.3378   37.4722   41.4954 H   0  0  0  0  0  0  0  0  0  0  0  0
  -42.3896   36.0918   41.9938 H   0  0  0  0  0  0  0  0  0  0  0  0
  -43.0395   37.1841   43.1928 H   0  0  0  0  0  0  0  0  0  0  0  0
  1  2  1  0  0  0  0
  1 31  1  0  0  0  0
  1 32  1  0  0  0  0
  1 33  1  0  0  0  0
  2  4  1  0  0  0  0
  3  2  2  0  0  0  0
  4  5  1  0  0  0  0
  4 34  1  0  0  0  0
  5 35  1  0  0  0  0
  5 36  1  0  0  0  0
  6  5  1  0  0  0  0
  7  6  2  0  0  0  0
  8  6  1  0  0  0  0
  8 37  1  0  0  0  0
  9 12  1  0  0  0  0
  9  8  1  0  0  0  0
  9 38  1  1  0  0  0
 10  9  1  0  0  0  0
 11 10  2  0  0  0  0
 12 39  1  0  0  0  0
 12 40  1  0  0  0  0
 13 14  1  0  0  0  0
 13 15  1  0  0  0  0
 13 12  1  0  0  0  0
 13 41  1  0  0  0  0
 14 42  1  0  0  0  0
 14 43  1  0  0  0  0
 14 44  1  0  0  0  0
 15 45  1  0  0  0  0
 15 46  1  0  0  0  0
 15 47  1  0  0  0  0
 16 10  1  0  0  0  0
 16 48  1  0  0  0  0
 17 16  1  0  0  0  0
 17 49  1  6  0  0  0
 18 17  1  0  0  0  0
 18 24  1  0  0  0  0
 19 18  2  0  0  0  0
 20 21  1  0  0  0  0
 20 17  1  0  0  0  0
 20 50  1  0  0  0  0
 20 51  1  0  0  0  0
 21 52  1  0  0  0  0
 22 21  1  0  0  0  0
 22 53  1  0  0  0  0
 22 54  1  0  0  0  0
 22 55  1  0  0  0  0
 23 21  1  0  0  0  0
 23 56  1  0  0  0  0
 23 57  1  0  0  0  0
 23 58  1  0  0  0  0
 24 59  1  0  0  0  0
 25 24  1  0  0  0  0
 25 28  1  0  0  0  0
 25 60  1  6  0  0  0
 26 25  1  0  0  0  0
 26 29  1  0  0  0  0
 27 26  2  0  0  0  0
 28 61  1  0  0  0  0
 28 62  1  0  0  0  0
 28 63  1  0  0  0  0
 29 64  1  0  0  0  0
 30 29  1  0  0  0  0
 30 65  1  0  0  0  0
 30 66  1  0  0  0  0
 30 67  1  0  0  0  0
M  END
>  <MODEL>
       0

$$$$
selected_4mers/GLLA/691_noH.pdb
 OpenBabel03042518233D

 67 66  0  0  1  0  0  0  0  0999 V2000
   -1.3380   50.2510   76.5560 C   0  0  0  0  0  0  0  0  0  0  0  0
   -2.5220   49.3890   76.9970 C   0  0  0  0  0  0  0  0  0  0  0  0
   -2.3540   48.2130   77.3030 O   0  0  0  0  0  0  0  0  0  0  0  0
   -3.7150   49.9790   77.0280 N   0  0  0  0  0  0  0  0  0  0  0  0
   -4.9050   49.2380   77.4190 C   0  0  0  0  0  0  0  0  0  0  0  0
   -4.9900   48.9170   78.9020 C   0  0  0  0  0  0  0  0  0  0  0  0
   -5.5870   47.9120   79.2970 O   0  0  0  0  0  0  0  0  0  0  0  0
   -4.4100   49.7760   79.7320 N   0  0  0  0  0  0  0  0  0  0  0  0
   -4.4180   49.5420   81.1720 C   0  0  2  0  0  0  0  0  0  0  0  0
   -5.5720   50.2100   81.9040 C   0  0  0  0  0  0  0  0  0  0  0  0
   -5.7750   49.9670   83.1000 O   0  0  0  0  0  0  0  0  0  0  0  0
   -3.1080   50.0300   81.7790 C   0  0  0  0  0  0  0  0  0  0  0  0
   -1.8220   49.5820   81.0910 C   0  0  0  0  0  0  0  0  0  0  0  0
   -0.6390   50.2060   81.8170 C   0  0  0  0  0  0  0  0  0  0  0  0
   -1.7210   48.0610   81.0960 C   0  0  0  0  0  0  0  0  0  0  0  0
   -6.3280   51.0420   81.1950 N   0  0  0  0  0  0  0  0  0  0  0  0
   -7.4400   51.7600   81.8090 C   0  0  2  0  0  0  0  0  0  0  0  0
   -8.8090   51.4240   81.2310 C   0  0  0  0  0  0  0  0  0  0  0  0
   -8.9840   51.3210   80.0160 O   0  0  0  0  0  0  0  0  0  0  0  0
   -7.2190   53.2710   81.6910 C   0  0  0  0  0  0  0  0  0  0  0  0
   -5.9560   53.8680   82.3220 C   0  0  0  0  0  0  0  0  0  0  0  0
   -5.8760   55.3500   81.9570 C   0  0  0  0  0  0  0  0  0  0  0  0
   -5.9750   53.6920   83.8310 C   0  0  0  0  0  0  0  0  0  0  0  0
   -9.7810   51.2740   82.1250 N   0  0  0  0  0  0  0  0  0  0  0  0
  -11.1490   50.9770   81.7350 C   0  0  2  0  0  0  0  0  0  0  0  0
  -11.7780   52.2710   81.2450 C   0  0  0  0  0  0  0  0  0  0  0  0
  -11.4190   53.3550   81.7010 O   0  0  0  0  0  0  0  0  0  0  0  0
  -11.9330   50.4370   82.9260 C   0  0  0  0  0  0  0  0  0  0  0  0
  -12.7100   52.1600   80.3080 N   0  0  0  0  0  0  0  0  0  0  0  0
  -13.3900   53.3340   79.7860 C   0  0  0  0  0  0  0  0  0  0  0  0
   -1.6805   51.2397   76.3321 H   0  0  0  0  0  0  0  0  0  0  0  0
   -0.8902   49.8226   75.6837 H   0  0  0  0  0  0  0  0  0  0  0  0
   -0.6150   50.2938   77.3436 H   0  0  0  0  0  0  0  0  0  0  0  0
   -3.7933   50.9293   76.7831 H   0  0  0  0  0  0  0  0  0  0  0  0
   -4.9175   48.3158   76.8764 H   0  0  0  0  0  0  0  0  0  0  0  0
   -5.7414   49.8669   77.1958 H   0  0  0  0  0  0  0  0  0  0  0  0
   -3.9698   50.5795   79.3717 H   0  0  0  0  0  0  0  0  0  0  0  0
   -4.5401   48.4862   81.2954 H   0  0  0  0  0  0  0  0  0  0  0  0
   -3.1250   51.0998   81.7684 H   0  0  0  0  0  0  0  0  0  0  0  0
   -3.0710   49.5918   82.7544 H   0  0  0  0  0  0  0  0  0  0  0  0
   -1.8228   49.9043   80.0707 H   0  0  0  0  0  0  0  0  0  0  0  0
   -0.6370   49.8846   82.8376 H   0  0  0  0  0  0  0  0  0  0  0  0
   -0.7193   51.2723   81.7791 H   0  0  0  0  0  0  0  0  0  0  0  0
    0.2711   49.8999   81.3448 H   0  0  0  0  0  0  0  0  0  0  0  0
   -1.7179   47.7071   82.1058 H   0  0  0  0  0  0  0  0  0  0  0  0
   -0.8156   47.7621   80.6105 H   0  0  0  0  0  0  0  0  0  0  0  0
   -2.5587   47.6462   80.5753 H   0  0  0  0  0  0  0  0  0  0  0  0
   -6.1344   51.1762   80.2391 H   0  0  0  0  0  0  0  0  0  0  0  0
   -7.4491   51.4411   82.8303 H   0  0  0  0  0  0  0  0  0  0  0  0
   -8.0594   53.7514   82.1469 H   0  0  0  0  0  0  0  0  0  0  0  0
   -7.0977   53.4408   80.6416 H   0  0  0  0  0  0  0  0  0  0  0  0
   -5.0943   53.3577   81.9453 H   0  0  0  0  0  0  0  0  0  0  0  0
   -6.7389   55.8575   82.3349 H   0  0  0  0  0  0  0  0  0  0  0  0
   -5.8389   55.4537   80.8927 H   0  0  0  0  0  0  0  0  0  0  0  0
   -4.9942   55.7764   82.3879 H   0  0  0  0  0  0  0  0  0  0  0  0
   -6.8284   54.1932   84.2378 H   0  0  0  0  0  0  0  0  0  0  0  0
   -5.0831   54.1090   84.2500 H   0  0  0  0  0  0  0  0  0  0  0  0
   -6.0269   52.6498   84.0679 H   0  0  0  0  0  0  0  0  0  0  0  0
   -9.5675   51.3670   83.0816 H   0  0  0  0  0  0  0  0  0  0  0  0
  -11.1631   50.2341   80.9651 H   0  0  0  0  0  0  0  0  0  0  0  0
  -11.9336   51.1635   83.7116 H   0  0  0  0  0  0  0  0  0  0  0  0
  -11.4754   49.5349   83.2748 H   0  0  0  0  0  0  0  0  0  0  0  0
  -12.9402   50.2337   82.6274 H   0  0  0  0  0  0  0  0  0  0  0  0
  -12.9448   51.2692   79.9608 H   0  0  0  0  0  0  0  0  0  0  0  0
  -13.0133   54.2098   80.2718 H   0  0  0  0  0  0  0  0  0  0  0  0
  -14.4407   53.2485   79.9693 H   0  0  0  0  0  0  0  0  0  0  0  0
  -13.2165   53.4078   78.7327 H   0  0  0  0  0  0  0  0  0  0  0  0
  1  2  1  0  0  0  0
  1 31  1  0  0  0  0
  1 32  1  0  0  0  0
  1 33  1  0  0  0  0
  2  4  1  0  0  0  0
  2  3  2  0  0  0  0
  4  5  1  0  0  0  0
  4 34  1  0  0  0  0
  5  6  1  0  0  0  0
  5 35  1  0  0  0  0
  5 36  1  0  0  0  0
  6  7  2  0  0  0  0
  6  8  1  0  0  0  0
  8  9  1  0  0  0  0
  8 37  1  0  0  0  0
  9 12  1  0  0  0  0
  9 10  1  0  0  0  0
  9 38  1  1  0  0  0
 10 11  2  0  0  0  0
 12 39  1  0  0  0  0
 12 40  1  0  0  0  0
 13 15  1  0  0  0  0
 13 12  1  0  0  0  0
 13 14  1  0  0  0  0
 13 41  1  0  0  0  0
 14 42  1  0  0  0  0
 14 43  1  0  0  0  0
 14 44  1  0  0  0  0
 15 45  1  0  0  0  0
 15 46  1  0  0  0  0
 15 47  1  0  0  0  0
 16 17  1  0  0  0  0
 16 10  1  0  0  0  0
 16 48  1  0  0  0  0
 17 49  1  1  0  0  0
 18 17  1  0  0  0  0
 18 24  1  0  0  0  0
 19 18  2  0  0  0  0
 20 17  1  0  0  0  0
 20 21  1  0  0  0  0
 20 50  1  0  0  0  0
 20 51  1  0  0  0  0
 21 23  1  0  0  0  0
 21 52  1  0  0  0  0
 22 21  1  0  0  0  0
 22 53  1  0  0  0  0
 22 54  1  0  0  0  0
 22 55  1  0  0  0  0
 23 56  1  0  0  0  0
 23 57  1  0  0  0  0
 23 58  1  0  0  0  0
 24 59  1  0  0  0  0
 25 24  1  0  0  0  0
 25 28  1  0  0  0  0
 25 60  1  6  0  0  0
 26 27  2  0  0  0  0
 26 25  1  0  0  0  0
 28 61  1  0  0  0  0
 28 62  1  0  0  0  0
 28 63  1  0  0  0  0
 29 26  1  0  0  0  0
 29 64  1  0  0  0  0
 30 29  1  0  0  0  0
 30 65  1  0  0  0  0
 30 66  1  0  0  0  0
 30 67  1  0  0  0  0
M  END
>  <MODEL>
       0

$$$$
selected_4mers/GLLA/692_noH.pdb
 OpenBabel03042518233D

 67 66  0  0  1  0  0  0  0  0999 V2000
    5.1950   12.2150   -4.9830 C   0  0  0  0  0  0  0  0  0  0  0  0
    5.5640   12.8410   -3.6550 C   0  0  0  0  0  0  0  0  0  0  0  0
    6.6150   13.4480   -3.4800 O   0  0  0  0  0  0  0  0  0  0  0  0
    4.7310   12.6470   -2.6470 N   0  0  0  0  0  0  0  0  0  0  0  0
    5.0820   13.1410   -1.3330 C   0  0  0  0  0  0  0  0  0  0  0  0
    4.4690   14.4700   -0.9590 C   0  0  0  0  0  0  0  0  0  0  0  0
    4.8530   14.9750    0.1100 O   0  0  0  0  0  0  0  0  0  0  0  0
    3.6080   15.0410   -1.7750 N   0  0  0  0  0  0  0  0  0  0  0  0
    2.9890   16.3490   -1.5540 C   0  0  2  0  0  0  0  0  0  0  0  0
    1.5700   16.1630   -1.0640 C   0  0  0  0  0  0  0  0  0  0  0  0
    0.7970   15.4800   -1.7050 O   0  0  0  0  0  0  0  0  0  0  0  0
    3.0150   17.1350   -2.8710 C   0  0  0  0  0  0  0  0  0  0  0  0
    2.4340   18.5580   -2.7860 C   0  0  0  0  0  0  0  0  0  0  0  0
    3.2100   19.4700   -1.8700 C   0  0  0  0  0  0  0  0  0  0  0  0
    2.3930   19.1620   -4.1940 C   0  0  0  0  0  0  0  0  0  0  0  0
    1.2040   16.7760    0.0550 N   0  0  0  0  0  0  0  0  0  0  0  0
   -0.1530   16.7110    0.5900 C   0  0  2  0  0  0  0  0  0  0  0  0
   -1.0020   17.7730   -0.0810 C   0  0  0  0  0  0  0  0  0  0  0  0
   -0.7210   18.9700    0.0620 O   0  0  0  0  0  0  0  0  0  0  0  0
   -0.1050   16.9170    2.1050 C   0  0  0  0  0  0  0  0  0  0  0  0
   -1.5270   17.0220    2.7200 C   0  0  0  0  0  0  0  0  0  0  0  0
   -2.2750   15.7410    2.4820 C   0  0  0  0  0  0  0  0  0  0  0  0
   -1.4470   17.3940    4.1940 C   0  0  0  0  0  0  0  0  0  0  0  0
   -2.0260   17.3600   -0.7940 N   0  0  0  0  0  0  0  0  0  0  0  0
   -3.0260   18.2340   -1.4030 C   0  0  2  0  0  0  0  0  0  0  0  0
   -4.2570   18.1520   -0.5400 C   0  0  0  0  0  0  0  0  0  0  0  0
   -5.0360   17.1920   -0.5870 O   0  0  0  0  0  0  0  0  0  0  0  0
   -3.3090   17.8450   -2.8480 C   0  0  0  0  0  0  0  0  0  0  0  0
   -4.4210   19.1140    0.3720 N   0  0  0  0  0  0  0  0  0  0  0  0
   -5.4570   19.1330    1.3930 C   0  0  0  0  0  0  0  0  0  0  0  0
    5.9473   12.4467   -5.7078 H   0  0  0  0  0  0  0  0  0  0  0  0
    4.2529   12.6025   -5.3104 H   0  0  0  0  0  0  0  0  0  0  0  0
    5.1240   11.1534   -4.8694 H   0  0  0  0  0  0  0  0  0  0  0  0
    3.8807   12.1714   -2.7888 H   0  0  0  0  0  0  0  0  0  0  0  0
    6.1462   13.2444   -1.2919 H   0  0  0  0  0  0  0  0  0  0  0  0
    4.6937   12.4288   -0.6352 H   0  0  0  0  0  0  0  0  0  0  0  0
    3.3625   14.5526   -2.5938 H   0  0  0  0  0  0  0  0  0  0  0  0
    3.5296   16.8960   -0.8101 H   0  0  0  0  0  0  0  0  0  0  0  0
    4.0324   17.2097   -3.1938 H   0  0  0  0  0  0  0  0  0  0  0  0
    2.3930   16.5964   -3.5551 H   0  0  0  0  0  0  0  0  0  0  0  0
    1.4517   18.4733   -2.3702 H   0  0  0  0  0  0  0  0  0  0  0  0
    4.2056   19.5881   -2.2439 H   0  0  0  0  0  0  0  0  0  0  0  0
    3.2456   19.0441   -0.8891 H   0  0  0  0  0  0  0  0  0  0  0  0
    2.7296   20.4251   -1.8269 H   0  0  0  0  0  0  0  0  0  0  0  0
    3.3881   19.2331   -4.5807 H   0  0  0  0  0  0  0  0  0  0  0  0
    1.9565   20.1380   -4.1509 H   0  0  0  0  0  0  0  0  0  0  0  0
    1.8057   18.5366   -4.8334 H   0  0  0  0  0  0  0  0  0  0  0  0
    1.8783   17.2983    0.5467 H   0  0  0  0  0  0  0  0  0  0  0  0
   -0.5891   15.7540    0.3926 H   0  0  0  0  0  0  0  0  0  0  0  0
    0.4302   17.8195    2.3147 H   0  0  0  0  0  0  0  0  0  0  0  0
    0.3828   16.0697    2.5398 H   0  0  0  0  0  0  0  0  0  0  0  0
   -2.0732   17.8067    2.2396 H   0  0  0  0  0  0  0  0  0  0  0  0
   -1.7548   14.9319    2.9506 H   0  0  0  0  0  0  0  0  0  0  0  0
   -2.3444   15.5587    1.4299 H   0  0  0  0  0  0  0  0  0  0  0  0
   -3.2585   15.8201    2.8960 H   0  0  0  0  0  0  0  0  0  0  0  0
   -0.9071   16.6374    4.7240 H   0  0  0  0  0  0  0  0  0  0  0  0
   -2.4355   17.4745    4.5957 H   0  0  0  0  0  0  0  0  0  0  0  0
   -0.9422   18.3317    4.2983 H   0  0  0  0  0  0  0  0  0  0  0  0
   -2.1267   16.3898   -0.9276 H   0  0  0  0  0  0  0  0  0  0  0  0
   -2.6717   19.2426   -1.4488 H   0  0  0  0  0  0  0  0  0  0  0  0
   -3.6706   16.8385   -2.8821 H   0  0  0  0  0  0  0  0  0  0  0  0
   -2.4082   17.9200   -3.4205 H   0  0  0  0  0  0  0  0  0  0  0  0
   -4.0471   18.5032   -3.2565 H   0  0  0  0  0  0  0  0  0  0  0  0
   -3.7908   19.8701    0.3516 H   0  0  0  0  0  0  0  0  0  0  0  0
   -6.0658   18.2581    1.2997 H   0  0  0  0  0  0  0  0  0  0  0  0
   -6.0644   20.0051    1.2686 H   0  0  0  0  0  0  0  0  0  0  0  0
   -5.0028   19.1498    2.3617 H   0  0  0  0  0  0  0  0  0  0  0  0
  1  2  1  0  0  0  0
  1 31  1  0  0  0  0
  1 32  1  0  0  0  0
  1 33  1  0  0  0  0
  2  3  2  0  0  0  0
  2  4  1  0  0  0  0
  4  5  1  0  0  0  0
  4 34  1  0  0  0  0
  5  6  1  0  0  0  0
  5 35  1  0  0  0  0
  5 36  1  0  0  0  0
  6  7  2  0  0  0  0
  8  9  1  0  0  0  0
  8  6  1  0  0  0  0
  8 37  1  0  0  0  0
  9 10  1  0  0  0  0
  9 38  1  1  0  0  0
 10 16  1  0  0  0  0
 11 10  2  0  0  0  0
 12 13  1  0  0  0  0
 12  9  1  0  0  0  0
 12 39  1  0  0  0  0
 12 40  1  0  0  0  0
 13 14  1  0  0  0  0
 13 41  1  0  0  0  0
 14 42  1  0  0  0  0
 14 43  1  0  0  0  0
 14 44  1  0  0  0  0
 15 13  1  0  0  0  0
 15 45  1  0  0  0  0
 15 46  1  0  0  0  0
 15 47  1  0  0  0  0
 16 17  1  0  0  0  0
 16 48  1  0  0  0  0
 17 20  1  0  0  0  0
 17 49  1  6  0  0  0
 18 19  2  0  0  0  0
 18 17  1  0  0  0  0
 20 21  1  0  0  0  0
 20 50  1  0  0  0  0
 20 51  1  0  0  0  0
 21 23  1  0  0  0  0
 21 52  1  0  0  0  0
 22 21  1  0  0  0  0
 22 53  1  0  0  0  0
 22 54  1  0  0  0  0
 22 55  1  0  0  0  0
 23 56  1  0  0  0  0
 23 57  1  0  0  0  0
 23 58  1  0  0  0  0
 24 18  1  0  0  0  0
 24 59  1  0  0  0  0
 25 24  1  0  0  0  0
 25 26  1  0  0  0  0
 25 60  1  1  0  0  0
 26 29  1  0  0  0  0
 27 26  2  0  0  0  0
 28 25  1  0  0  0  0
 28 61  1  0  0  0  0
 28 62  1  0  0  0  0
 28 63  1  0  0  0  0
 29 30  1  0  0  0  0
 29 64  1  0  0  0  0
 30 65  1  0  0  0  0
 30 66  1  0  0  0  0
 30 67  1  0  0  0  0
M  END
>  <MODEL>
       0

$$$$
selected_4mers/GLLA/693_noH.pdb
 OpenBabel03042518233D

 67 66  0  0  1  0  0  0  0  0999 V2000
    3.3290   75.2070   -5.4850 C   0  0  0  0  0  0  0  0  0  0  0  0
    3.9250   73.8500   -5.8210 C   0  0  0  0  0  0  0  0  0  0  0  0
    4.8210   73.3830   -5.1180 O   0  0  0  0  0  0  0  0  0  0  0  0
    3.4150   73.2230   -6.8780 N   0  0  0  0  0  0  0  0  0  0  0  0
    3.9820   71.9840   -7.3780 C   0  0  0  0  0  0  0  0  0  0  0  0
    5.0910   72.3000   -8.3630 C   0  0  0  0  0  0  0  0  0  0  0  0
    4.8470   72.9400   -9.3890 O   0  0  0  0  0  0  0  0  0  0  0  0
    6.3130   71.8870   -8.0280 N   0  0  0  0  0  0  0  0  0  0  0  0
    7.4450   72.0310   -8.9340 C   0  0  2  0  0  0  0  0  0  0  0  0
    7.6650   70.7090   -9.6590 C   0  0  0  0  0  0  0  0  0  0  0  0
    8.0470   69.7130   -9.0360 O   0  0  0  0  0  0  0  0  0  0  0  0
    8.7080   72.4360   -8.1730 C   0  0  0  0  0  0  0  0  0  0  0  0
    9.9170   72.5960   -9.1100 C   0  0  0  0  0  0  0  0  0  0  0  0
    9.9050   73.9870   -9.7290 C   0  0  0  0  0  0  0  0  0  0  0  0
   11.2260   72.3190   -8.4070 C   0  0  0  0  0  0  0  0  0  0  0  0
    7.4030   70.7040  -10.9650 N   0  0  0  0  0  0  0  0  0  0  0  0
    7.5070   69.4960  -11.7670 C   0  0  2  0  0  0  0  0  0  0  0  0
    8.9410   69.3460  -12.2310 C   0  0  0  0  0  0  0  0  0  0  0  0
    9.4180   70.1160  -13.0720 O   0  0  0  0  0  0  0  0  0  0  0  0
    6.5420   69.5340  -12.9580 C   0  0  0  0  0  0  0  0  0  0  0  0
    5.0940   69.8950  -12.5920 C   0  0  0  0  0  0  0  0  0  0  0  0
    4.2120   69.8420  -13.8240 C   0  0  0  0  0  0  0  0  0  0  0  0
    4.5350   68.9780  -11.4900 C   0  0  0  0  0  0  0  0  0  0  0  0
    9.6230   68.3590  -11.6580 N   0  0  0  0  0  0  0  0  0  0  0  0
   11.0590   68.1800  -11.8850 C   0  0  2  0  0  0  0  0  0  0  0  0
   11.3840   66.8080  -12.4950 C   0  0  0  0  0  0  0  0  0  0  0  0
   10.4910   66.0270  -12.8430 O   0  0  0  0  0  0  0  0  0  0  0  0
   11.8200   68.4060  -10.5830 C   0  0  0  0  0  0  0  0  0  0  0  0
   12.6730   66.5230  -12.6590 N   0  0  0  0  0  0  0  0  0  0  0  0
   13.0860   65.2370  -13.2100 C   0  0  0  0  0  0  0  0  0  0  0  0
    2.5695   75.4496   -6.1986 H   0  0  0  0  0  0  0  0  0  0  0  0
    4.0972   75.9512   -5.5148 H   0  0  0  0  0  0  0  0  0  0  0  0
    2.9006   75.1756   -4.5050 H   0  0  0  0  0  0  0  0  0  0  0  0
    2.6323   73.6098   -7.3330 H   0  0  0  0  0  0  0  0  0  0  0  0
    4.3799   71.4183   -6.5616 H   0  0  0  0  0  0  0  0  0  0  0  0
    3.2203   71.4139   -7.8676 H   0  0  0  0  0  0  0  0  0  0  0  0
    6.4545   71.4740   -7.1456 H   0  0  0  0  0  0  0  0  0  0  0  0
    7.2320   72.8037   -9.6429 H   0  0  0  0  0  0  0  0  0  0  0  0
    8.5292   73.3672   -7.6772 H   0  0  0  0  0  0  0  0  0  0  0  0
    8.9339   71.6613   -7.4703 H   0  0  0  0  0  0  0  0  0  0  0  0
    9.8330   71.8663   -9.8881 H   0  0  0  0  0  0  0  0  0  0  0  0
    9.9887   74.7221   -8.9560 H   0  0  0  0  0  0  0  0  0  0  0  0
    8.9885   74.1324  -10.2618 H   0  0  0  0  0  0  0  0  0  0  0  0
   10.7293   74.0840  -10.4042 H   0  0  0  0  0  0  0  0  0  0  0  0
   11.3614   73.0247   -7.6142 H   0  0  0  0  0  0  0  0  0  0  0  0
   12.0318   72.4082   -9.1054 H   0  0  0  0  0  0  0  0  0  0  0  0
   11.2116   71.3280   -8.0038 H   0  0  0  0  0  0  0  0  0  0  0  0
    7.1306   71.5440  -11.4004 H   0  0  0  0  0  0  0  0  0  0  0  0
    7.2320   68.6497  -11.1727 H   0  0  0  0  0  0  0  0  0  0  0  0
    6.9014   70.2604  -13.6566 H   0  0  0  0  0  0  0  0  0  0  0  0
    6.5165   68.5433  -13.3614 H   0  0  0  0  0  0  0  0  0  0  0  0
    5.0971   70.8930  -12.2063 H   0  0  0  0  0  0  0  0  0  0  0  0
    4.2047   68.8460  -14.2148 H   0  0  0  0  0  0  0  0  0  0  0  0
    4.5935   70.5131  -14.5649 H   0  0  0  0  0  0  0  0  0  0  0  0
    3.2153   70.1296  -13.5617 H   0  0  0  0  0  0  0  0  0  0  0  0
    4.5171   67.9676  -11.8418 H   0  0  0  0  0  0  0  0  0  0  0  0
    3.5414   69.2861  -11.2396 H   0  0  0  0  0  0  0  0  0  0  0  0
    5.1578   69.0426  -10.6223 H   0  0  0  0  0  0  0  0  0  0  0  0
    9.1500   67.7314  -11.0650 H   0  0  0  0  0  0  0  0  0  0  0  0
   11.3749   68.9093  -12.6014 H   0  0  0  0  0  0  0  0  0  0  0  0
   11.5112   67.6812   -9.8590 H   0  0  0  0  0  0  0  0  0  0  0  0
   11.6125   69.3889  -10.2146 H   0  0  0  0  0  0  0  0  0  0  0  0
   12.8702   68.3065  -10.7618 H   0  0  0  0  0  0  0  0  0  0  0  0
   13.3549   67.1865  -12.4060 H   0  0  0  0  0  0  0  0  0  0  0  0
   12.2200   64.6468  -13.4259 H   0  0  0  0  0  0  0  0  0  0  0  0
   13.6987   64.7242  -12.4982 H   0  0  0  0  0  0  0  0  0  0  0  0
   13.6423   65.3967  -14.1100 H   0  0  0  0  0  0  0  0  0  0  0  0
  1 31  1  0  0  0  0
  1 32  1  0  0  0  0
  1 33  1  0  0  0  0
  2  1  1  0  0  0  0
  2  3  2  0  0  0  0
  4  2  1  0  0  0  0
  4 34  1  0  0  0  0
  5  4  1  0  0  0  0
  5 35  1  0  0  0  0
  5 36  1  0  0  0  0
  6  8  1  0  0  0  0
  6  5  1  0  0  0  0
  7  6  2  0  0  0  0
  8 37  1  0  0  0  0
  9 12  1  0  0  0  0
  9  8  1  0  0  0  0
  9 38  1  6  0  0  0
 10 11  2  0  0  0  0
 10  9  1  0  0  0  0
 12 39  1  0  0  0  0
 12 40  1  0  0  0  0
 13 15  1  0  0  0  0
 13 12  1  0  0  0  0
 13 41  1  0  0  0  0
 14 13  1  0  0  0  0
 14 42  1  0  0  0  0
 14 43  1  0  0  0  0
 14 44  1  0  0  0  0
 15 45  1  0  0  0  0
 15 46  1  0  0  0  0
 15 47  1  0  0  0  0
 16 10  1  0  0  0  0
 16 48  1  0  0  0  0
 17 16  1  0  0  0  0
 17 49  1  1  0  0  0
 18 17  1  0  0  0  0
 18 24  1  0  0  0  0
 19 18  2  0  0  0  0
 20 21  1  0  0  0  0
 20 17  1  0  0  0  0
 20 50  1  0  0  0  0
 20 51  1  0  0  0  0
 21 23  1  0  0  0  0
 21 52  1  0  0  0  0
 22 21  1  0  0  0  0
 22 53  1  0  0  0  0
 22 54  1  0  0  0  0
 22 55  1  0  0  0  0
 23 56  1  0  0  0  0
 23 57  1  0  0  0  0
 23 58  1  0  0  0  0
 24 59  1  0  0  0  0
 25 24  1  0  0  0  0
 25 28  1  0  0  0  0
 25 60  1  6  0  0  0
 26 25  1  0  0  0  0
 27 26  2  0  0  0  0
 28 61  1  0  0  0  0
 28 62  1  0  0  0  0
 28 63  1  0  0  0  0
 29 26  1  0  0  0  0
 29 64  1  0  0  0  0
 30 29  1  0  0  0  0
 30 65  1  0  0  0  0
 30 66  1  0  0  0  0
 30 67  1  0  0  0  0
M  END
>  <MODEL>
       0

$$$$
selected_4mers/GLLA/694_noH.pdb
 OpenBabel03042518233D

 67 66  0  0  1  0  0  0  0  0999 V2000
   26.5490   51.9950   22.6420 C   0  0  0  0  0  0  0  0  0  0  0  0
   27.1280   50.7250   23.2330 C   0  0  0  0  0  0  0  0  0  0  0  0
   26.4770   50.0590   24.0520 O   0  0  0  0  0  0  0  0  0  0  0  0
   28.3530   50.3800   22.8570 N   0  0  0  0  0  0  0  0  0  0  0  0
   28.9770   49.1820   23.3850 C   0  0  0  0  0  0  0  0  0  0  0  0
   29.1100   49.2270   24.8870 C   0  0  0  0  0  0  0  0  0  0  0  0
   29.0290   48.1840   25.5360 O   0  0  0  0  0  0  0  0  0  0  0  0
   29.3290   50.4200   25.4410 N   0  0  0  0  0  0  0  0  0  0  0  0
   29.5160   50.5810   26.8930 C   0  0  2  0  0  0  0  0  0  0  0  0
   28.2280   50.7800   27.6870 C   0  0  0  0  0  0  0  0  0  0  0  0
   28.1730   50.4300   28.8700 O   0  0  0  0  0  0  0  0  0  0  0  0
   30.4890   51.7280   27.2010 C   0  0  0  0  0  0  0  0  0  0  0  0
   31.9530   51.4330   26.8670 C   0  0  0  0  0  0  0  0  0  0  0  0
   32.7910   52.6890   26.8880 C   0  0  0  0  0  0  0  0  0  0  0  0
   32.5160   50.4230   27.8460 C   0  0  0  0  0  0  0  0  0  0  0  0
   27.1880   51.3000   27.0510 N   0  0  0  0  0  0  0  0  0  0  0  0
   25.9570   51.7160   27.7540 C   0  0  2  0  0  0  0  0  0  0  0  0
   24.7460   50.8300   27.4890 C   0  0  0  0  0  0  0  0  0  0  0  0
   23.8840   50.7020   28.3520 O   0  0  0  0  0  0  0  0  0  0  0  0
   25.5780   53.1550   27.3760 C   0  0  0  0  0  0  0  0  0  0  0  0
   26.1400   54.3230   28.1850 C   0  0  0  0  0  0  0  0  0  0  0  0
   27.6350   54.1530   28.4690 C   0  0  0  0  0  0  0  0  0  0  0  0
   25.8240   55.6290   27.4530 C   0  0  0  0  0  0  0  0  0  0  0  0
   24.6540   50.2400   26.3040 N   0  0  0  0  0  0  0  0  0  0  0  0
   23.4710   49.4620   25.9420 C   0  0  2  0  0  0  0  0  0  0  0  0
   23.2780   48.3010   26.9100 C   0  0  0  0  0  0  0  0  0  0  0  0
   24.2450   47.6460   27.2970 O   0  0  0  0  0  0  0  0  0  0  0  0
   23.5840   48.9230   24.5190 C   0  0  0  0  0  0  0  0  0  0  0  0
   22.0270   48.0430   27.2830 N   0  0  0  0  0  0  0  0  0  0  0  0
   21.6760   46.9030   28.1150 C   0  0  0  0  0  0  0  0  0  0  0  0
   27.2537   52.4252   21.9614 H   0  0  0  0  0  0  0  0  0  0  0  0
   26.3409   52.6913   23.4274 H   0  0  0  0  0  0  0  0  0  0  0  0
   25.6437   51.7650   22.1200 H   0  0  0  0  0  0  0  0  0  0  0  0
   28.8425   50.9422   22.2140 H   0  0  0  0  0  0  0  0  0  0  0  0
   29.9517   49.0824   22.9550 H   0  0  0  0  0  0  0  0  0  0  0  0
   28.3552   48.3482   23.1339 H   0  0  0  0  0  0  0  0  0  0  0  0
   29.3668   51.2160   24.8629 H   0  0  0  0  0  0  0  0  0  0  0  0
   29.9261   49.6467   27.2153 H   0  0  0  0  0  0  0  0  0  0  0  0
   30.1844   52.5840   26.6359 H   0  0  0  0  0  0  0  0  0  0  0  0
   30.4463   51.8842   28.2587 H   0  0  0  0  0  0  0  0  0  0  0  0
   31.9870   51.0294   25.8766 H   0  0  0  0  0  0  0  0  0  0  0  0
   32.7734   53.1131   27.8702 H   0  0  0  0  0  0  0  0  0  0  0  0
   32.3943   53.3942   26.1878 H   0  0  0  0  0  0  0  0  0  0  0  0
   33.7991   52.4497   26.6209 H   0  0  0  0  0  0  0  0  0  0  0  0
   32.4813   50.8280   28.8358 H   0  0  0  0  0  0  0  0  0  0  0  0
   33.5302   50.2018   27.5865 H   0  0  0  0  0  0  0  0  0  0  0  0
   31.9341   49.5259   27.8071 H   0  0  0  0  0  0  0  0  0  0  0  0
   27.2376   51.4132   26.0743 H   0  0  0  0  0  0  0  0  0  0  0  0
   26.1986   51.6300   28.7928 H   0  0  0  0  0  0  0  0  0  0  0  0
   24.5117   53.2209   27.4355 H   0  0  0  0  0  0  0  0  0  0  0  0
   26.0214   53.2842   26.4108 H   0  0  0  0  0  0  0  0  0  0  0  0
   25.6702   54.3486   29.1460 H   0  0  0  0  0  0  0  0  0  0  0  0
   28.1721   54.1191   27.5442 H   0  0  0  0  0  0  0  0  0  0  0  0
   27.7944   53.2423   29.0077 H   0  0  0  0  0  0  0  0  0  0  0  0
   27.9832   54.9788   29.0536 H   0  0  0  0  0  0  0  0  0  0  0  0
   26.2876   55.6186   26.4887 H   0  0  0  0  0  0  0  0  0  0  0  0
   26.1988   56.4554   28.0200 H   0  0  0  0  0  0  0  0  0  0  0  0
   24.7646   55.7263   27.3384 H   0  0  0  0  0  0  0  0  0  0  0  0
   25.3931   50.3276   25.6596 H   0  0  0  0  0  0  0  0  0  0  0  0
   22.6243   50.1139   25.9976 H   0  0  0  0  0  0  0  0  0  0  0  0
   24.4282   48.2691   24.4513 H   0  0  0  0  0  0  0  0  0  0  0  0
   23.7090   49.7385   23.8376 H   0  0  0  0  0  0  0  0  0  0  0  0
   22.6941   48.3835   24.2702 H   0  0  0  0  0  0  0  0  0  0  0  0
   21.3104   48.6481   26.9838 H   0  0  0  0  0  0  0  0  0  0  0  0
   22.5602   46.3493   28.3528 H   0  0  0  0  0  0  0  0  0  0  0  0
   20.9919   46.2727   27.5862 H   0  0  0  0  0  0  0  0  0  0  0  0
   21.2177   47.2482   29.0181 H   0  0  0  0  0  0  0  0  0  0  0  0
  1  2  1  0  0  0  0
  1 31  1  0  0  0  0
  1 32  1  0  0  0  0
  1 33  1  0  0  0  0
  2  3  2  0  0  0  0
  4  2  1  0  0  0  0
  4  5  1  0  0  0  0
  4 34  1  0  0  0  0
  5  6  1  0  0  0  0
  5 35  1  0  0  0  0
  5 36  1  0  0  0  0
  6  8  1  0  0  0  0
  6  7  2  0  0  0  0
  8  9  1  0  0  0  0
  8 37  1  0  0  0  0
  9 12  1  0  0  0  0
  9 10  1  0  0  0  0
  9 38  1  1  0  0  0
 10 11  2  0  0  0  0
 12 39  1  0  0  0  0
 12 40  1  0  0  0  0
 13 14  1  0  0  0  0
 13 12  1  0  0  0  0
 13 15  1  0  0  0  0
 13 41  1  0  0  0  0
 14 42  1  0  0  0  0
 14 43  1  0  0  0  0
 14 44  1  0  0  0  0
 15 45  1  0  0  0  0
 15 46  1  0  0  0  0
 15 47  1  0  0  0  0
 16 10  1  0  0  0  0
 16 17  1  0  0  0  0
 16 48  1  0  0  0  0
 17 49  1  1  0  0  0
 18 17  1  0  0  0  0
 18 19  2  0  0  0  0
 20 17  1  0  0  0  0
 20 21  1  0  0  0  0
 20 50  1  0  0  0  0
 20 51  1  0  0  0  0
 21 22  1  0  0  0  0
 21 52  1  0  0  0  0
 22 53  1  0  0  0  0
 22 54  1  0  0  0  0
 22 55  1  0  0  0  0
 23 21  1  0  0  0  0
 23 56  1  0  0  0  0
 23 57  1  0  0  0  0
 23 58  1  0  0  0  0
 24 18  1  0  0  0  0
 24 59  1  0  0  0  0
 25 24  1  0  0  0  0
 25 26  1  0  0  0  0
 25 60  1  1  0  0  0
 26 29  1  0  0  0  0
 26 27  2  0  0  0  0
 28 25  1  0  0  0  0
 28 61  1  0  0  0  0
 28 62  1  0  0  0  0
 28 63  1  0  0  0  0
 29 30  1  0  0  0  0
 29 64  1  0  0  0  0
 30 65  1  0  0  0  0
 30 66  1  0  0  0  0
 30 67  1  0  0  0  0
M  END
>  <MODEL>
       0

$$$$
