selected_4mers/GLLP/705_noH.pdb
 OpenBabel03042518233D

 71 71  0  0  1  0  0  0  0  0999 V2000
   17.7200   44.2050   34.3040 C   0  0  0  0  0  0  0  0  0  0  0  0
   18.2260   45.1110   33.1870 C   0  0  0  0  0  0  0  0  0  0  0  0
   19.4280   45.2810   33.0260 O   0  0  0  0  0  0  0  0  0  0  0  0
   17.2850   45.6410   32.4210 N   0  0  0  0  0  0  0  0  0  0  0  0
   17.6050   46.4070   31.2190 C   0  0  0  0  0  0  0  0  0  0  0  0
   17.3800   47.8970   31.3630 C   0  0  0  0  0  0  0  0  0  0  0  0
   17.3440   48.4360   32.4630 O   0  0  0  0  0  0  0  0  0  0  0  0
   17.2680   48.5780   30.2270 N   0  0  0  0  0  0  0  0  0  0  0  0
   17.1790   50.0330   30.1980 C   0  0  2  0  0  0  0  0  0  0  0  0
   15.8590   50.6050   29.6950 C   0  0  0  0  0  0  0  0  0  0  0  0
   15.6580   51.8210   29.7550 O   0  0  0  0  0  0  0  0  0  0  0  0
   18.3030   50.5780   29.3020 C   0  0  0  0  0  0  0  0  0  0  0  0
   19.7600   50.2840   29.6570 C   0  0  0  0  0  0  0  0  0  0  0  0
   20.7950   50.8730   28.6440 C   0  0  0  0  0  0  0  0  0  0  0  0
   20.0140   50.7870   31.1190 C   0  0  0  0  0  0  0  0  0  0  0  0
   14.9720   49.7560   29.1630 N   0  0  0  0  0  0  0  0  0  0  0  0
   13.7280   50.2290   28.5660 C   0  0  2  0  0  0  0  0  0  0  0  0
   12.4920   49.5470   29.1840 C   0  0  0  0  0  0  0  0  0  0  0  0
   11.7150   48.9190   28.4810 O   0  0  0  0  0  0  0  0  0  0  0  0
   13.7430   50.0230   27.0430 C   0  0  0  0  0  0  0  0  0  0  0  0
   14.8850   50.7340   26.2750 C   0  0  0  0  0  0  0  0  0  0  0  0
   16.0290   49.7850   26.0230 C   0  0  0  0  0  0  0  0  0  0  0  0
   14.3870   51.3520   24.9480 C   0  0  0  0  0  0  0  0  0  0  0  0
   12.2920   49.6890   30.5120 N   0  0  0  0  0  0  0  0  0  0  0  0
   11.1610   49.0080   31.1590 C   0  0  2  0  0  0  0  0  0  0  0  0
    9.7760   49.4350   30.6630 C   0  0  0  0  0  0  0  0  0  0  0  0
    8.7990   48.6910   30.8570 O   0  0  0  0  0  0  0  0  0  0  0  0
   11.3560   49.3760   32.6310 C   0  0  0  0  0  0  0  0  0  0  0  0
   12.1330   50.6570   32.6090 C   0  0  0  0  0  0  0  0  0  0  0  0
   13.0810   50.4790   31.4670 C   0  0  0  0  0  0  0  0  0  0  0  0
    9.6650   50.6270   30.0860 N   0  0  0  0  0  0  0  0  0  0  0  0
    8.4400   51.1190   29.4900 C   0  0  0  0  0  0  0  0  0  0  0  0
   16.6504   44.1812   34.2870 H   0  0  0  0  0  0  0  0  0  0  0  0
   18.0534   44.5825   35.2481 H   0  0  0  0  0  0  0  0  0  0  0  0
   18.1011   43.2155   34.1609 H   0  0  0  0  0  0  0  0  0  0  0  0
   16.3407   45.5150   32.6691 H   0  0  0  0  0  0  0  0  0  0  0  0
   18.6350   46.2434   30.9796 H   0  0  0  0  0  0  0  0  0  0  0  0
   16.9450   46.0663   30.4488 H   0  0  0  0  0  0  0  0  0  0  0  0
   17.2443   48.0831   29.3763 H   0  0  0  0  0  0  0  0  0  0  0  0
   17.2636   50.3397   31.2196 H   0  0  0  0  0  0  0  0  0  0  0  0
   18.1367   50.1849   28.3208 H   0  0  0  0  0  0  0  0  0  0  0  0
   18.2255   51.6386   29.4201 H   0  0  0  0  0  0  0  0  0  0  0  0
   19.9136   49.2269   29.5942 H   0  0  0  0  0  0  0  0  0  0  0  0
   20.7175   51.9402   28.6349 H   0  0  0  0  0  0  0  0  0  0  0  0
   20.5921   50.4923   27.6648 H   0  0  0  0  0  0  0  0  0  0  0  0
   21.7837   50.5897   28.9390 H   0  0  0  0  0  0  0  0  0  0  0  0
   19.8565   51.8444   31.1648 H   0  0  0  0  0  0  0  0  0  0  0  0
   21.0212   50.5638   31.4031 H   0  0  0  0  0  0  0  0  0  0  0  0
   19.3378   50.2964   31.7875 H   0  0  0  0  0  0  0  0  0  0  0  0
   15.1633   48.7903   29.1748 H   0  0  0  0  0  0  0  0  0  0  0  0
   13.6577   51.2759   28.7759 H   0  0  0  0  0  0  0  0  0  0  0  0
   13.8258   48.9729   26.8551 H   0  0  0  0  0  0  0  0  0  0  0  0
   12.8356   50.4609   26.6828 H   0  0  0  0  0  0  0  0  0  0  0  0
   15.2347   51.5357   26.8914 H   0  0  0  0  0  0  0  0  0  0  0  0
   15.6932   48.9771   25.4070 H   0  0  0  0  0  0  0  0  0  0  0  0
   16.3840   49.3987   26.9556 H   0  0  0  0  0  0  0  0  0  0  0  0
   16.8218   50.3056   25.5276 H   0  0  0  0  0  0  0  0  0  0  0  0
   14.0287   50.5753   24.3052 H   0  0  0  0  0  0  0  0  0  0  0  0
   15.1936   51.8672   24.4696 H   0  0  0  0  0  0  0  0  0  0  0  0
   13.5941   52.0412   25.1509 H   0  0  0  0  0  0  0  0  0  0  0  0
   11.1689   47.9592   30.9472 H   0  0  0  0  0  0  0  0  0  0  0  0
   11.9047   48.6117   33.1405 H   0  0  0  0  0  0  0  0  0  0  0  0
   10.4244   49.4790   33.1471 H   0  0  0  0  0  0  0  0  0  0  0  0
   11.4860   51.4925   32.4408 H   0  0  0  0  0  0  0  0  0  0  0  0
   12.6323   50.8542   33.5346 H   0  0  0  0  0  0  0  0  0  0  0  0
   13.3617   51.4227   31.0480 H   0  0  0  0  0  0  0  0  0  0  0  0
   14.0008   50.0101   31.7480 H   0  0  0  0  0  0  0  0  0  0  0  0
   10.4595   51.2079   30.0623 H   0  0  0  0  0  0  0  0  0  0  0  0
    7.6718   50.3813   29.5931 H   0  0  0  0  0  0  0  0  0  0  0  0
    8.6041   51.3203   28.4520 H   0  0  0  0  0  0  0  0  0  0  0  0
    8.1391   52.0188   29.9846 H   0  0  0  0  0  0  0  0  0  0  0  0
  1 33  1  0  0  0  0
  1 34  1  0  0  0  0
  1 35  1  0  0  0  0
  2  1  1  0  0  0  0
  3  2  2  0  0  0  0
  4  2  1  0  0  0  0
  4 36  1  0  0  0  0
  5  6  1  0  0  0  0
  5  4  1  0  0  0  0
  5 37  1  0  0  0  0
  5 38  1  0  0  0  0
  6  7  2  0  0  0  0
  8  6  1  0  0  0  0
  8 39  1  0  0  0  0
  9  8  1  0  0  0  0
  9 40  1  1  0  0  0
 10 11  2  0  0  0  0
 10  9  1  0  0  0  0
 12 13  1  0  0  0  0
 12  9  1  0  0  0  0
 12 41  1  0  0  0  0
 12 42  1  0  0  0  0
 13 15  1  0  0  0  0
 13 43  1  0  0  0  0
 14 13  1  0  0  0  0
 14 44  1  0  0  0  0
 14 45  1  0  0  0  0
 14 46  1  0  0  0  0
 15 47  1  0  0  0  0
 15 48  1  0  0  0  0
 15 49  1  0  0  0  0
 16 10  1  0  0  0  0
 16 50  1  0  0  0  0
 17 16  1  0  0  0  0
 17 18  1  0  0  0  0
 17 51  1  1  0  0  0
 18 24  1  0  0  0  0
 19 18  2  0  0  0  0
 20 17  1  0  0  0  0
 20 52  1  0  0  0  0
 20 53  1  0  0  0  0
 21 20  1  0  0  0  0
 21 54  1  0  0  0  0
 22 21  1  0  0  0  0
 22 55  1  0  0  0  0
 22 56  1  0  0  0  0
 22 57  1  0  0  0  0
 23 21  1  0  0  0  0
 23 58  1  0  0  0  0
 23 59  1  0  0  0  0
 23 60  1  0  0  0  0
 24 25  1  0  0  0  0
 24 30  1  0  0  0  0
 25 28  1  0  0  0  0
 25 61  1  6  0  0  0
 26 27  2  0  0  0  0
 26 25  1  0  0  0  0
 28 62  1  0  0  0  0
 28 63  1  0  0  0  0
 29 28  1  0  0  0  0
 29 64  1  0  0  0  0
 29 65  1  0  0  0  0
 30 29  1  0  0  0  0
 30 66  1  0  0  0  0
 30 67  1  0  0  0  0
 31 26  1  0  0  0  0
 31 68  1  0  0  0  0
 32 31  1  0  0  0  0
 32 69  1  0  0  0  0
 32 70  1  0  0  0  0
 32 71  1  0  0  0  0
M  END
>  <MODEL>
       0

$$$$
selected_4mers/GLLP/706_noH.pdb
 OpenBabel03042518233D

 71 71  0  0  1  0  0  0  0  0999 V2000
   -1.5020   -4.5660    9.1130 C   0  0  0  0  0  0  0  0  0  0  0  0
   -0.6460   -5.3340   10.0730 C   0  0  0  0  0  0  0  0  0  0  0  0
   -0.7000   -5.0830   11.2850 O   0  0  0  0  0  0  0  0  0  0  0  0
    0.1510   -6.2430    9.5430 N   0  0  0  0  0  0  0  0  0  0  0  0
    1.1640   -6.9060   10.3470 C   0  0  0  0  0  0  0  0  0  0  0  0
    1.2710   -8.3960   10.1480 C   0  0  0  0  0  0  0  0  0  0  0  0
    0.7280   -8.9590    9.1980 O   0  0  0  0  0  0  0  0  0  0  0  0
    1.9720   -9.0440   11.0640 N   0  0  0  0  0  0  0  0  0  0  0  0
    2.2320  -10.4660   10.9870 C   0  0  2  0  0  0  0  0  0  0  0  0
    0.9700  -11.3070   10.9160 C   0  0  0  0  0  0  0  0  0  0  0  0
   -0.0340  -10.9870   11.5770 O   0  0  0  0  0  0  0  0  0  0  0  0
    3.0460  -10.9170   12.2090 C   0  0  0  0  0  0  0  0  0  0  0  0
    4.4470  -10.3030   12.3130 C   0  0  0  0  0  0  0  0  0  0  0  0
    5.0220  -10.5820   13.6850 C   0  0  0  0  0  0  0  0  0  0  0  0
    5.3550  -10.8670   11.2390 C   0  0  0  0  0  0  0  0  0  0  0  0
    1.0620  -12.4070   10.1710 N   0  0  0  0  0  0  0  0  0  0  0  0
    0.0860  -13.4760   10.1920 C   0  0  2  0  0  0  0  0  0  0  0  0
    0.3960  -14.3090   11.4270 C   0  0  0  0  0  0  0  0  0  0  0  0
    1.4910  -14.2100   11.9950 O   0  0  0  0  0  0  0  0  0  0  0  0
    0.2550  -14.3760    8.9600 C   0  0  0  0  0  0  0  0  0  0  0  0
    0.0000  -13.6280    7.6410 C   0  0  0  0  0  0  0  0  0  0  0  0
    0.2770  -14.5610    6.4840 C   0  0  0  0  0  0  0  0  0  0  0  0
   -1.4170  -13.0590    7.5410 C   0  0  0  0  0  0  0  0  0  0  0  0
   -0.5120  -15.2060   11.8470 N   0  0  0  0  0  0  0  0  0  0  0  0
   -0.2010  -16.1100   12.9320 C   0  0  2  0  0  0  0  0  0  0  0  0
    0.9660  -17.0710   12.6460 C   0  0  0  0  0  0  0  0  0  0  0  0
    1.7400  -17.4130   13.5520 O   0  0  0  0  0  0  0  0  0  0  0  0
   -1.5000  -16.9190   13.1170 C   0  0  0  0  0  0  0  0  0  0  0  0
   -2.4890  -16.3330   12.2840 C   0  0  0  0  0  0  0  0  0  0  0  0
   -1.9110  -15.2810   11.4160 C   0  0  0  0  0  0  0  0  0  0  0  0
    1.0320  -17.5590   11.4090 N   0  0  0  0  0  0  0  0  0  0  0  0
    2.1010  -18.4700   10.9550 C   0  0  0  0  0  0  0  0  0  0  0  0
   -1.3239   -4.9160    8.1177 H   0  0  0  0  0  0  0  0  0  0  0  0
   -1.2606   -3.5254    9.1737 H   0  0  0  0  0  0  0  0  0  0  0  0
   -2.5329   -4.7081    9.3620 H   0  0  0  0  0  0  0  0  0  0  0  0
    0.0580   -6.4748    8.5907 H   0  0  0  0  0  0  0  0  0  0  0  0
    0.9386   -6.7255   11.3773 H   0  0  0  0  0  0  0  0  0  0  0  0
    2.1027   -6.4978   10.0355 H   0  0  0  0  0  0  0  0  0  0  0  0
    2.3313   -8.5388   11.8288 H   0  0  0  0  0  0  0  0  0  0  0  0
    2.7766  -10.6186   10.0787 H   0  0  0  0  0  0  0  0  0  0  0  0
    3.1517  -11.9808   12.1639 H   0  0  0  0  0  0  0  0  0  0  0  0
    2.5063  -10.5814   13.0699 H   0  0  0  0  0  0  0  0  0  0  0  0
    4.3748   -9.2451   12.1695 H   0  0  0  0  0  0  0  0  0  0  0  0
    5.0959  -11.6392   13.8325 H   0  0  0  0  0  0  0  0  0  0  0  0
    4.3819  -10.1615   14.4322 H   0  0  0  0  0  0  0  0  0  0  0  0
    5.9947  -10.1426   13.7602 H   0  0  0  0  0  0  0  0  0  0  0  0
    5.4410  -11.9261   11.3647 H   0  0  0  0  0  0  0  0  0  0  0  0
    6.3232  -10.4186   11.3189 H   0  0  0  0  0  0  0  0  0  0  0  0
    4.9420  -10.6545   10.2751 H   0  0  0  0  0  0  0  0  0  0  0  0
    1.8379  -12.4984    9.5719 H   0  0  0  0  0  0  0  0  0  0  0  0
   -0.9074  -13.0785   10.1975 H   0  0  0  0  0  0  0  0  0  0  0  0
    1.2544  -14.7582    8.9494 H   0  0  0  0  0  0  0  0  0  0  0  0
   -0.4677  -15.1619    9.0315 H   0  0  0  0  0  0  0  0  0  0  0  0
    0.6622  -12.7881    7.6098 H   0  0  0  0  0  0  0  0  0  0  0  0
   -0.3926  -15.3944    6.5297 H   0  0  0  0  0  0  0  0  0  0  0  0
    1.2865  -14.9110    6.5418 H   0  0  0  0  0  0  0  0  0  0  0  0
    0.1331  -14.0380    5.5617 H   0  0  0  0  0  0  0  0  0  0  0  0
   -2.1258  -13.8602    7.5675 H   0  0  0  0  0  0  0  0  0  0  0  0
   -1.5212  -12.5209    6.6221 H   0  0  0  0  0  0  0  0  0  0  0  0
   -1.5948  -12.3981    8.3635 H   0  0  0  0  0  0  0  0  0  0  0  0
    0.1144  -15.5574   13.7922 H   0  0  0  0  0  0  0  0  0  0  0  0
   -1.8170  -16.9030   14.1600 H   0  0  0  0  0  0  0  0  0  0  0  0
   -1.3370  -17.9570   12.8290 H   0  0  0  0  0  0  0  0  0  0  0  0
   -3.2450  -15.8740   12.9210 H   0  0  0  0  0  0  0  0  0  0  0  0
   -2.9300  -17.1080   11.6570 H   0  0  0  0  0  0  0  0  0  0  0  0
   -1.9783  -15.5576   10.3846 H   0  0  0  0  0  0  0  0  0  0  0  0
   -2.4224  -14.3450   11.5016 H   0  0  0  0  0  0  0  0  0  0  0  0
    0.3335  -17.2995   10.7655 H   0  0  0  0  0  0  0  0  0  0  0  0
    2.7780  -18.6559   11.7625 H   0  0  0  0  0  0  0  0  0  0  0  0
    2.6311  -18.0205   10.1414 H   0  0  0  0  0  0  0  0  0  0  0  0
    1.6689  -19.3940   10.6320 H   0  0  0  0  0  0  0  0  0  0  0  0
  1  2  1  0  0  0  0
  1 33  1  0  0  0  0
  1 34  1  0  0  0  0
  1 35  1  0  0  0  0
  2  3  2  0  0  0  0
  4  2  1  0  0  0  0
  4  5  1  0  0  0  0
  4 36  1  0  0  0  0
  5 37  1  0  0  0  0
  5 38  1  0  0  0  0
  6  5  1  0  0  0  0
  6  8  1  0  0  0  0
  7  6  2  0  0  0  0
  8 39  1  0  0  0  0
  9  8  1  0  0  0  0
  9 12  1  0  0  0  0
  9 40  1  6  0  0  0
 10  9  1  0  0  0  0
 10 11  2  0  0  0  0
 12 13  1  0  0  0  0
 12 41  1  0  0  0  0
 12 42  1  0  0  0  0
 13 14  1  0  0  0  0
 13 43  1  0  0  0  0
 14 44  1  0  0  0  0
 14 45  1  0  0  0  0
 14 46  1  0  0  0  0
 15 13  1  0  0  0  0
 15 47  1  0  0  0  0
 15 48  1  0  0  0  0
 15 49  1  0  0  0  0
 16 17  1  0  0  0  0
 16 10  1  0  0  0  0
 16 50  1  0  0  0  0
 17 18  1  0  0  0  0
 17 51  1  1  0  0  0
 18 24  1  0  0  0  0
 18 19  2  0  0  0  0
 20 17  1  0  0  0  0
 20 52  1  0  0  0  0
 20 53  1  0  0  0  0
 21 20  1  0  0  0  0
 21 54  1  0  0  0  0
 22 21  1  0  0  0  0
 22 55  1  0  0  0  0
 22 56  1  0  0  0  0
 22 57  1  0  0  0  0
 23 21  1  0  0  0  0
 23 58  1  0  0  0  0
 23 59  1  0  0  0  0
 23 60  1  0  0  0  0
 24 25  1  0  0  0  0
 25 28  1  0  0  0  0
 25 61  1  1  0  0  0
 26 25  1  0  0  0  0
 26 27  2  0  0  0  0
 28 62  1  0  0  0  0
 28 63  1  0  0  0  0
 29 28  1  0  0  0  0
 29 64  1  0  0  0  0
 29 65  1  0  0  0  0 
 30 24  1  0  0  0  0
 30 29  1  0  0  0  0
 30 66  1  0  0  0  0
 30 67  1  0  0  0  0
 31 26  1  0  0  0  0
 31 68  1  0  0  0  0
 32 31  1  0  0  0  0
 32 69  1  0  0  0  0
 32 70  1  0  0  0  0
 32 71  1  0  0  0  0
M  END
>  <MODEL>
       0

$$$$
selected_4mers/GLLP/707_noH.pdb
 OpenBabel03042518233D

 71 71  0  0  1  0  0  0  0  0999 V2000
   26.1260   93.0340   16.8250 C   0  0  0  0  0  0  0  0  0  0  0  0
   26.3610   91.6100   16.2810 C   0  0  0  0  0  0  0  0  0  0  0  0
   25.5910   90.6840   16.5970 O   0  0  0  0  0  0  0  0  0  0  0  0
   27.4620   91.4470   15.5280 N   0  0  0  0  0  0  0  0  0  0  0  0
   27.8310   90.1870   14.8690 C   0  0  0  0  0  0  0  0  0  0  0  0
   28.1600   89.0660   15.8410 C   0  0  0  0  0  0  0  0  0  0  0  0
   28.3330   87.9020   15.4440 O   0  0  0  0  0  0  0  0  0  0  0  0
   28.2670   89.4250   17.1160 N   0  0  0  0  0  0  0  0  0  0  0  0
   28.5800   88.4770   18.1810 C   0  0  2  0  0  0  0  0  0  0  0  0
   27.3090   87.9280   18.9110 C   0  0  0  0  0  0  0  0  0  0  0  0
   27.4260   86.9730   19.6620 O   0  0  0  0  0  0  0  0  0  0  0  0
   29.4750   89.1840   19.2130 C   0  0  0  0  0  0  0  0  0  0  0  0
   30.8450   89.6190   18.6990 C   0  0  0  0  0  0  0  0  0  0  0  0
   31.4300   90.6800   19.6050 C   0  0  0  0  0  0  0  0  0  0  0  0
   31.7660   88.3890   18.6080 C   0  0  0  0  0  0  0  0  0  0  0  0
   26.1360   88.5340   18.6980 N   0  0  0  0  0  0  0  0  0  0  0  0
   25.0080   88.4010   19.6180 C   0  0  2  0  0  0  0  0  0  0  0  0
   23.8630   87.5220   19.0940 C   0  0  0  0  0  0  0  0  0  0  0  0
   23.2160   87.9040   18.0950 O   0  0  0  0  0  0  0  0  0  0  0  0
   24.4250   89.7720   19.8920 C   0  0  0  0  0  0  0  0  0  0  0  0
   25.4200   90.7320   20.5710 C   0  0  0  0  0  0  0  0  0  0  0  0
   24.6370   91.9190   21.0590 C   0  0  0  0  0  0  0  0  0  0  0  0
   26.1650   90.0230   21.7440 C   0  0  0  0  0  0  0  0  0  0  0  0
   23.5810   86.4110   19.7780 N   0  0  0  0  0  0  0  0  0  0  0  0
   22.4330   85.5550   19.4300 C   0  0  2  0  0  0  0  0  0  0  0  0
   21.1200   85.9830   20.1100 C   0  0  0  0  0  0  0  0  0  0  0  0
   21.1160   86.7980   21.0160 O   0  0  0  0  0  0  0  0  0  0  0  0
   22.8570   84.2040   19.9760 C   0  0  0  0  0  0  0  0  0  0  0  0
   23.5760   84.5700   21.2150 C   0  0  0  0  0  0  0  0  0  0  0  0
   24.3480   85.8200   20.8960 C   0  0  0  0  0  0  0  0  0  0  0  0
   20.0040   85.4280   19.6460 N   0  0  0  0  0  0  0  0  0  0  0  0
   18.6740   85.7700   20.1640 C   0  0  0  0  0  0  0  0  0  0  0  0
   26.8829   93.6894   16.4476 H   0  0  0  0  0  0  0  0  0  0  0  0
   26.1680   93.0188   17.8941 H   0  0  0  0  0  0  0  0  0  0  0  0
   25.1641   93.3816   16.5108 H   0  0  0  0  0  0  0  0  0  0  0  0
   28.0591   92.2209   15.4105 H   0  0  0  0  0  0  0  0  0  0  0  0
   28.6890   90.3650   14.2549 H   0  0  0  0  0  0  0  0  0  0  0  0
   26.9821   89.8700   14.3000 H   0  0  0  0  0  0  0  0  0  0  0  0
   28.1293   90.3707   17.3524 H   0  0  0  0  0  0  0  0  0  0  0  0
   29.0709   87.6397   17.7307 H   0  0  0  0  0  0  0  0  0  0  0  0
   29.6271   88.5137   20.0330 H   0  0  0  0  0  0  0  0  0  0  0  0
   28.9614   90.0828   19.4837 H   0  0  0  0  0  0  0  0  0  0  0  0
   30.7475   90.0454   17.7225 H   0  0  0  0  0  0  0  0  0  0  0  0
   31.5407   90.2840   20.5928 H   0  0  0  0  0  0  0  0  0  0  0  0
   30.7762   91.5266   19.6313 H   0  0  0  0  0  0  0  0  0  0  0  0
   32.3869   90.9798   19.2316 H   0  0  0  0  0  0  0  0  0  0  0  0
   31.8733   87.9512   19.5784 H   0  0  0  0  0  0  0  0  0  0  0  0
   32.7264   88.6887   18.2438 H   0  0  0  0  0  0  0  0  0  0  0  0
   31.3385   87.6721   17.9385 H   0  0  0  0  0  0  0  0  0  0  0  0
   26.0284   89.0897   17.8925 H   0  0  0  0  0  0  0  0  0  0  0  0
   25.4056   87.9314   20.4934 H   0  0  0  0  0  0  0  0  0  0  0  0
   23.5738   89.6578   20.5302 H   0  0  0  0  0  0  0  0  0  0  0  0
   24.1653   90.2009   18.9467 H   0  0  0  0  0  0  0  0  0  0  0  0
   26.1718   91.0463   19.8776 H   0  0  0  0  0  0  0  0  0  0  0  0
   23.8890   91.5928   21.7510 H   0  0  0  0  0  0  0  0  0  0  0  0
   24.1675   92.4027   20.2280 H   0  0  0  0  0  0  0  0  0  0  0  0
   25.2973   92.6064   21.5453 H   0  0  0  0  0  0  0  0  0  0  0  0
   25.4524   89.6881   22.4685 H   0  0  0  0  0  0  0  0  0  0  0  0
   26.8439   90.7110   22.2030 H   0  0  0  0  0  0  0  0  0  0  0  0
   26.7097   89.1836   21.3650 H   0  0  0  0  0  0  0  0  0  0  0  0
   22.2253   85.5867   18.3808 H   0  0  0  0  0  0  0  0  0  0  0  0
   23.5022   83.6953   19.2906 H   0  0  0  0  0  0  0  0  0  0  0  0
   22.0385   83.5346   20.1401 H   0  0  0  0  0  0  0  0  0  0  0  0
   24.2434   83.7847   21.5027 H   0  0  0  0  0  0  0  0  0  0  0  0
   22.8984   84.7262   22.0283 H   0  0  0  0  0  0  0  0  0  0  0  0
   24.3729   86.4813   21.7368 H   0  0  0  0  0  0  0  0  0  0  0  0
   25.3721   85.6310   20.6503 H   0  0  0  0  0  0  0  0  0  0  0  0
   20.0728   84.7605   18.9256 H   0  0  0  0  0  0  0  0  0  0  0  0
   18.7700   86.5041   20.9365 H   0  0  0  0  0  0  0  0  0  0  0  0
   18.2097   84.8920   20.5621 H   0  0  0  0  0  0  0  0  0  0  0  0
   18.0727   86.1632   19.3711 H   0  0  0  0  0  0  0  0  0  0  0  0
  1 33  1  0  0  0  0
  1 34  1  0  0  0  0
  1 35  1  0  0  0  0
  2  3  2  0  0  0  0
  2  1  1  0  0  0  0
  4  2  1  0  0  0  0
  4 36  1  0  0  0  0
  5  4  1  0  0  0  0
  5  6  1  0  0  0  0
  5 37  1  0  0  0  0
  5 38  1  0  0  0  0
  6  8  1  0  0  0  0
  7  6  2  0  0  0  0
  8  9  1  0  0  0  0
  8 39  1  0  0  0  0
  9 10  1  0  0  0  0
  9 12  1  0  0  0  0
  9 40  1  6  0  0  0
 10 11  2  0  0  0  0
 12 41  1  0  0  0  0
 12 42  1  0  0  0  0
 13 12  1  0  0  0  0
 13 14  1  0  0  0  0
 13 43  1  0  0  0  0
 14 44  1  0  0  0  0
 14 45  1  0  0  0  0
 14 46  1  0  0  0  0
 15 13  1  0  0  0  0
 15 47  1  0  0  0  0
 15 48  1  0  0  0  0
 15 49  1  0  0  0  0
 16 10  1  0  0  0  0
 16 17  1  0  0  0  0
 16 50  1  0  0  0  0
 17 20  1  0  0  0  0
 17 51  1  1  0  0  0
 18 17  1  0  0  0  0
 18 24  1  0  0  0  0
 19 18  2  0  0  0  0
 20 21  1  0  0  0  0
 20 52  1  0  0  0  0
 20 53  1  0  0  0  0
 21 22  1  0  0  0  0
 21 23  1  0  0  0  0
 21 54  1  0  0  0  0
 22 55  1  0  0  0  0
 22 56  1  0  0  0  0
 22 57  1  0  0  0  0
 23 58  1  0  0  0  0
 23 59  1  0  0  0  0
 23 60  1  0  0  0  0
 24 30  1  0  0  0  0
 25 24  1  0  0  0  0
 25 28  1  0  0  0  0
 25 26  1  0  0  0  0
 25 61  1  6  0  0  0
 26 27  2  0  0  0  0
 28 29  1  0  0  0  0
 28 62  1  0  0  0  0
 28 63  1  0  0  0  0
 29 64  1  0  0  0  0
 29 65  1  0  0  0  0
 30 29  1  0  0  0  0
 30 66  1  0  0  0  0
 30 67  1  0  0  0  0
 31 26  1  0  0  0  0
 31 32  1  0  0  0  0
 31 68  1  0  0  0  0
 32 69  1  0  0  0  0
 32 70  1  0  0  0  0
 32 71  1  0  0  0  0
M  END
>  <MODEL>
       0

$$$$
selected_4mers/GLLP/708_noH.pdb
 OpenBabel03042518233D

 71 71  0  0  1  0  0  0  0  0999 V2000
   16.3730   12.2080   37.7120 C   0  0  0  0  0  0  0  0  0  0  0  0
   15.4340   12.3410   36.5230 C   0  0  0  0  0  0  0  0  0  0  0  0
   15.6170   13.2090   35.6630 O   0  0  0  0  0  0  0  0  0  0  0  0
   14.4250   11.4800   36.4890 N   0  0  0  0  0  0  0  0  0  0  0  0
   13.3880   11.5400   35.4500 C   0  0  0  0  0  0  0  0  0  0  0  0
   12.1240   10.8000   35.8480 C   0  0  0  0  0  0  0  0  0  0  0  0
   12.1440    9.9570   36.7490 O   0  0  0  0  0  0  0  0  0  0  0  0
   11.0200   11.1190   35.1740 N   0  0  0  0  0  0  0  0  0  0  0  0
    9.7850   10.3570   35.3010 C   0  0  2  0  0  0  0  0  0  0  0  0
    9.9100    9.2560   34.2660 C   0  0  0  0  0  0  0  0  0  0  0  0
    9.7720    9.5010   33.0580 O   0  0  0  0  0  0  0  0  0  0  0  0
    8.5730   11.2340   34.9940 C   0  0  0  0  0  0  0  0  0  0  0  0
    7.2790   11.1630   35.8080 C   0  0  0  0  0  0  0  0  0  0  0  0
    6.0910   11.6340   34.9550 C   0  0  0  0  0  0  0  0  0  0  0  0
    6.9690    9.8260   36.4630 C   0  0  0  0  0  0  0  0  0  0  0  0
   10.2240    8.0530   34.7390 N   0  0  0  0  0  0  0  0  0  0  0  0
   10.7570    6.9930   33.8750 C   0  0  2  0  0  0  0  0  0  0  0  0
    9.9780    5.6950   34.0750 C   0  0  0  0  0  0  0  0  0  0  0  0
    9.4470    5.4580   35.1610 O   0  0  0  0  0  0  0  0  0  0  0  0
   12.2370    6.7580   34.2120 C   0  0  0  0  0  0  0  0  0  0  0  0
   13.1730    7.8700   33.7570 C   0  0  0  0  0  0  0  0  0  0  0  0
   14.5030    7.8440   34.5170 C   0  0  0  0  0  0  0  0  0  0  0  0
   13.3970    7.7640   32.2620 C   0  0  0  0  0  0  0  0  0  0  0  0
    9.9000    4.8540   33.0220 N   0  0  0  0  0  0  0  0  0  0  0  0
    9.1720    3.5860   33.0900 C   0  0  2  0  0  0  0  0  0  0  0  0
   10.0100    2.4990   33.7950 C   0  0  0  0  0  0  0  0  0  0  0  0
   10.4030    1.4880   33.1890 O   0  0  0  0  0  0  0  0  0  0  0  0
    8.9140    3.2730   31.6040 C   0  0  0  0  0  0  0  0  0  0  0  0
   10.1330    3.8300   30.9060 C   0  0  0  0  0  0  0  0  0  0  0  0
   10.4690    5.0910   31.6720 C   0  0  0  0  0  0  0  0  0  0  0  0
   10.2610    2.7210   35.0850 N   0  0  0  0  0  0  0  0  0  0  0  0
   11.2260    1.9220   35.8430 C   0  0  0  0  0  0  0  0  0  0  0  0
   17.1452   12.9453   37.6409 H   0  0  0  0  0  0  0  0  0  0  0  0
   16.8110   11.2318   37.7131 H   0  0  0  0  0  0  0  0  0  0  0  0
   15.8234   12.3534   38.6185 H   0  0  0  0  0  0  0  0  0  0  0  0
   14.3696   10.7808   37.1799 H   0  0  0  0  0  0  0  0  0  0  0  0
   13.1427   12.5656   35.2687 H   0  0  0  0  0  0  0  0  0  0  0  0
   13.7787   11.0683   34.5727 H   0  0  0  0  0  0  0  0  0  0  0  0
   11.0395   11.8960   34.5697 H   0  0  0  0  0  0  0  0  0  0  0  0
    9.6455    9.9781   36.2919 H   0  0  0  0  0  0  0  0  0  0  0  0
    8.2996   11.0192   33.9821 H   0  0  0  0  0  0  0  0  0  0  0  0
    8.9375   12.2078   35.2463 H   0  0  0  0  0  0  0  0  0  0  0  0
    7.4442   11.8243   36.6328 H   0  0  0  0  0  0  0  0  0  0  0  0
    5.9473   10.9571   34.1389 H   0  0  0  0  0  0  0  0  0  0  0  0
    6.2913   12.6139   34.5747 H   0  0  0  0  0  0  0  0  0  0  0  0
    5.2071   11.6590   35.5574 H   0  0  0  0  0  0  0  0  0  0  0  0
    6.7872    9.0917   35.7062 H   0  0  0  0  0  0  0  0  0  0  0  0
    6.1008    9.9242   37.0806 H   0  0  0  0  0  0  0  0  0  0  0  0
    7.8009    9.5214   37.0630 H   0  0  0  0  0  0  0  0  0  0  0  0
   10.0950    7.8681   35.6973 H   0  0  0  0  0  0  0  0  0  0  0  0
   10.6589    7.2983   32.8542 H   0  0  0  0  0  0  0  0  0  0  0  0
   12.3264    6.6595   35.2737 H   0  0  0  0  0  0  0  0  0  0  0  0
   12.5330    5.8760   33.6834 H   0  0  0  0  0  0  0  0  0  0  0  0
   12.7113    8.8098   33.9775 H   0  0  0  0  0  0  0  0  0  0  0  0
   15.0044    6.9181   34.3268 H   0  0  0  0  0  0  0  0  0  0  0  0
   14.3162    7.9395   35.5662 H   0  0  0  0  0  0  0  0  0  0  0  0
   15.1173    8.6563   34.1888 H   0  0  0  0  0  0  0  0  0  0  0  0
   13.8587    6.8255   32.0362 H   0  0  0  0  0  0  0  0  0  0  0  0
   14.0334    8.5614   31.9393 H   0  0  0  0  0  0  0  0  0  0  0  0
   12.4571    7.8303   31.7549 H   0  0  0  0  0  0  0  0  0  0  0  0
    8.2694    3.6288   33.6631 H   0  0  0  0  0  0  0  0  0  0  0  0
    8.8313    2.2182   31.4446 H   0  0  0  0  0  0  0  0  0  0  0  0
    7.9994    3.6952   31.2432 H   0  0  0  0  0  0  0  0  0  0  0  0
    9.9124    4.0565   29.8838 H   0  0  0  0  0  0  0  0  0  0  0  0
   10.9461    3.1346   30.8928 H   0  0  0  0  0  0  0  0  0  0  0  0
   10.0174    5.9460   31.2138 H   0  0  0  0  0  0  0  0  0  0  0  0
   11.5201    5.2894   31.6974 H   0  0  0  0  0  0  0  0  0  0  0  0
    9.7809    3.4475   35.5443 H   0  0  0  0  0  0  0  0  0  0  0  0
   11.6565    1.1807   35.2026 H   0  0  0  0  0  0  0  0  0  0  0  0
   10.7284    1.4422   36.6598 H   0  0  0  0  0  0  0  0  0  0  0  0
   11.9983    2.5592   36.2205 H   0  0  0  0  0  0  0  0  0  0  0  0
  1 33  1  0  0  0  0
  1 34  1  0  0  0  0
  1 35  1  0  0  0  0
  2  1  1  0  0  0  0
  3  2  2  0  0  0  0
  4  2  1  0  0  0  0
  4 36  1  0  0  0  0
  5  6  1  0  0  0  0
  5  4  1  0  0  0  0
  5 37  1  0  0  0  0
  5 38  1  0  0  0  0
  6  7  2  0  0  0  0
  8  9  1  0  0  0  0
  8  6  1  0  0  0  0
  8 39  1  0  0  0  0
  9 40  1  1  0  0  0
 10 16  1  0  0  0  0
 10  9  1  0  0  0  0
 11 10  2  0  0  0  0
 12  9  1  0  0  0  0
 12 13  1  0  0  0  0
 12 41  1  0  0  0  0
 12 42  1  0  0  0  0
 13 15  1  0  0  0  0
 13 43  1  0  0  0  0
 14 13  1  0  0  0  0
 14 44  1  0  0  0  0
 14 45  1  0  0  0  0
 14 46  1  0  0  0  0
 15 47  1  0  0  0  0
 15 48  1  0  0  0  0
 15 49  1  0  0  0  0
 16 50  1  0  0  0  0
 17 18  1  0  0  0  0
 17 20  1  0  0  0  0
 17 16  1  0  0  0  0
 17 51  1  6  0  0  0
 18 19  2  0  0  0  0
 20 52  1  0  0  0  0
 20 53  1  0  0  0  0
 21 20  1  0  0  0  0
 21 22  1  0  0  0  0
 21 54  1  0  0  0  0
 22 55  1  0  0  0  0
 22 56  1  0  0  0  0
 22 57  1  0  0  0  0
 23 21  1  0  0  0  0
 23 58  1  0  0  0  0
 23 59  1  0  0  0  0
 23 60  1  0  0  0  0
 24 25  1  0  0  0  0
 24 18  1  0  0  0  0
 25 26  1  0  0  0  0
 25 61  1  1  0  0  0
 26 31  1  0  0  0  0
 27 26  2  0  0  0  0
 28 25  1  0  0  0  0
 28 62  1  0  0  0  0
 28 63  1  0  0  0  0
 29 28  1  0  0  0  0
 29 30  1  0  0  0  0
 29 64  1  0  0  0  0
 29 65  1  0  0  0  0
 30 24  1  0  0  0  0
 30 66  1  0  0  0  0
 30 67  1  0  0  0  0
 31 32  1  0  0  0  0
 31 68  1  0  0  0  0
 32 69  1  0  0  0  0
 32 70  1  0  0  0  0
 32 71  1  0  0  0  0
M  END
>  <MODEL>
       0

$$$$
selected_4mers/GLLP/709_noH.pdb
 OpenBabel03042518233D

 71 71  0  0  1  0  0  0  0  0999 V2000
   22.7770   11.7000   -4.5220 C   0  0  0  0  0  0  0  0  0  0  0  0
   22.3150   11.7260   -5.9700 C   0  0  0  0  0  0  0  0  0  0  0  0
   22.9390   12.3830   -6.7960 O   0  0  0  0  0  0  0  0  0  0  0  0
   21.2370   11.0000   -6.2810 N   0  0  0  0  0  0  0  0  0  0  0  0
   20.6210   11.0610   -7.5930 C   0  0  0  0  0  0  0  0  0  0  0  0
   20.6110    9.7640   -8.3950 C   0  0  0  0  0  0  0  0  0  0  0  0
   19.8260    9.6320   -9.3480 O   0  0  0  0  0  0  0  0  0  0  0  0
   21.4760    8.8060   -8.0390 N   0  0  0  0  0  0  0  0  0  0  0  0
   21.5670    7.5370   -8.7830 C   0  0  2  0  0  0  0  0  0  0  0  0
   20.5810    6.4580   -8.3200 C   0  0  0  0  0  0  0  0  0  0  0  0
   20.5090    5.3850   -8.9410 O   0  0  0  0  0  0  0  0  0  0  0  0
   22.9820    6.9600   -8.7290 C   0  0  0  0  0  0  0  0  0  0  0  0
   24.0830    7.8320   -9.2920 C   0  0  0  0  0  0  0  0  0  0  0  0
   25.4090    7.1990   -8.9750 C   0  0  0  0  0  0  0  0  0  0  0  0
   23.8910    8.0720  -10.8160 C   0  0  0  0  0  0  0  0  0  0  0  0
   19.8440    6.7100   -7.2400 N   0  0  0  0  0  0  0  0  0  0  0  0
   18.8870    5.7220   -6.7210 C   0  0  2  0  0  0  0  0  0  0  0  0
   17.9120    5.1630   -7.7730 C   0  0  0  0  0  0  0  0  0  0  0  0
   17.6610    3.9640   -7.7950 O   0  0  0  0  0  0  0  0  0  0  0  0
   18.0930    6.2900   -5.5270 C   0  0  0  0  0  0  0  0  0  0  0  0
   17.1170    5.3320   -4.8170 C   0  0  0  0  0  0  0  0  0  0  0  0
   17.7390    3.9360   -4.6160 C   0  0  0  0  0  0  0  0  0  0  0  0
   16.6720    5.9180   -3.5140 C   0  0  0  0  0  0  0  0  0  0  0  0
   17.3420    6.0210   -8.6310 N   0  0  0  0  0  0  0  0  0  0  0  0
   16.4290    5.4540   -9.6620 C   0  0  2  0  0  0  0  0  0  0  0  0
   17.0680    4.3650  -10.5470 C   0  0  0  0  0  0  0  0  0  0  0  0
   16.3860    3.4320  -10.9630 O   0  0  0  0  0  0  0  0  0  0  0  0
   16.0330    6.6700  -10.4930 C   0  0  0  0  0  0  0  0  0  0  0  0
   16.2320    7.8700   -9.5480 C   0  0  0  0  0  0  0  0  0  0  0  0
   17.3210    7.4990   -8.5980 C   0  0  0  0  0  0  0  0  0  0  0  0
   18.3750    4.4610  -10.8030 N   0  0  0  0  0  0  0  0  0  0  0  0
   19.0700    3.4200  -11.5530 C   0  0  0  0  0  0  0  0  0  0  0  0
   23.6428   12.3191   -4.4127 H   0  0  0  0  0  0  0  0  0  0  0  0
   23.0190   10.6958   -4.2428 H   0  0  0  0  0  0  0  0  0  0  0  0
   21.9943   12.0668   -3.8913 H   0  0  0  0  0  0  0  0  0  0  0  0
   20.8490   10.4056   -5.5988 H   0  0  0  0  0  0  0  0  0  0  0  0
   19.6054   11.3715   -7.4623 H   0  0  0  0  0  0  0  0  0  0  0  0
   21.2215   11.7421   -8.1590 H   0  0  0  0  0  0  0  0  0  0  0  0
   22.0642    8.9525   -7.2632 H   0  0  0  0  0  0  0  0  0  0  0  0
   21.3042    7.7993   -9.7865 H   0  0  0  0  0  0  0  0  0  0  0  0
   23.2147    6.7625   -7.7035 H   0  0  0  0  0  0  0  0  0  0  0  0
   22.9597    6.0904   -9.3521 H   0  0  0  0  0  0  0  0  0  0  0  0
   24.0474    8.7994   -8.8361 H   0  0  0  0  0  0  0  0  0  0  0  0
   25.4582    6.2297   -9.4254 H   0  0  0  0  0  0  0  0  0  0  0  0
   25.5150    7.1053   -7.9144 H   0  0  0  0  0  0  0  0  0  0  0  0
   26.1976    7.8115   -9.3595 H   0  0  0  0  0  0  0  0  0  0  0  0
   23.9173    7.1344  -11.3308 H   0  0  0  0  0  0  0  0  0  0  0  0
   24.6766    8.7008  -11.1798 H   0  0  0  0  0  0  0  0  0  0  0  0
   22.9469    8.5460  -10.9863 H   0  0  0  0  0  0  0  0  0  0  0  0
   19.9419    7.5749   -6.7800 H   0  0  0  0  0  0  0  0  0  0  0  0
   19.4915    4.8987   -6.4022 H   0  0  0  0  0  0  0  0  0  0  0  0
   17.5248    7.1233   -5.8843 H   0  0  0  0  0  0  0  0  0  0  0  0
   18.8316    6.5301   -4.7910 H   0  0  0  0  0  0  0  0  0  0  0  0
   16.2590    5.2071   -5.4440 H   0  0  0  0  0  0  0  0  0  0  0  0
   18.6040    4.0175   -3.9915 H   0  0  0  0  0  0  0  0  0  0  0  0
   18.0214    3.5313   -5.5654 H   0  0  0  0  0  0  0  0  0  0  0  0
   17.0234    3.2902   -4.1516 H   0  0  0  0  0  0  0  0  0  0  0  0
   17.5195    6.0496   -2.8742 H   0  0  0  0  0  0  0  0  0  0  0  0
   15.9714    5.2579   -3.0468 H   0  0  0  0  0  0  0  0  0  0  0  0
   16.2069    6.8655   -3.6894 H   0  0  0  0  0  0  0  0  0  0  0  0
   15.6050    4.9477   -9.2042 H   0  0  0  0  0  0  0  0  0  0  0  0
   15.0113    6.5989  -10.8029 H   0  0  0  0  0  0  0  0  0  0  0  0
   16.6151    6.7571  -11.3865 H   0  0  0  0  0  0  0  0  0  0  0  0
   15.3280    8.0694   -9.0114 H   0  0  0  0  0  0  0  0  0  0  0  0
   16.4878    8.7516  -10.0978 H   0  0  0  0  0  0  0  0  0  0  0  0
   17.1022    7.8536   -7.6125 H   0  0  0  0  0  0  0  0  0  0  0  0
   18.2635    7.9287   -8.8663 H   0  0  0  0  0  0  0  0  0  0  0  0
   18.8765    5.2448  -10.4814 H   0  0  0  0  0  0  0  0  0  0  0  0
   18.3767    2.6504  -11.8212 H   0  0  0  0  0  0  0  0  0  0  0  0
   19.8483    3.0039  -10.9481 H   0  0  0  0  0  0  0  0  0  0  0  0
   19.4946    3.8424  -12.4397 H   0  0  0  0  0  0  0  0  0  0  0  0
  1 33  1  0  0  0  0
  1 34  1  0  0  0  0
  1 35  1  0  0  0  0
  2  1  1  0  0  0  0
  3  2  2  0  0  0  0
  4  2  1  0  0  0  0
  4 36  1  0  0  0  0
  5  4  1  0  0  0  0
  5 37  1  0  0  0  0
  5 38  1  0  0  0  0
  6  8  1  0  0  0  0
  6  5  1  0  0  0  0
  7  6  2  0  0  0  0
  8 39  1  0  0  0  0
  9 12  1  0  0  0  0
  9 10  1  0  0  0  0
  9  8  1  0  0  0  0
  9 40  1  6  0  0  0
 10 16  1  0  0  0  0
 11 10  2  0  0  0  0
 12 41  1  0  0  0  0
 12 42  1  0  0  0  0
 13 14  1  0  0  0  0
 13 12  1  0  0  0  0
 13 43  1  0  0  0  0
 14 44  1  0  0  0  0
 14 45  1  0  0  0  0
 14 46  1  0  0  0  0
 15 13  1  0  0  0  0
 15 47  1  0  0  0  0
 15 48  1  0  0  0  0
 15 49  1  0  0  0  0
 16 17  1  0  0  0  0
 16 50  1  0  0  0  0
 17 20  1  0  0  0  0
 17 51  1  1  0  0  0
 18 17  1  0  0  0  0
 19 18  2  0  0  0  0
 20 21  1  0  0  0  0
 20 52  1  0  0  0  0
 20 53  1  0  0  0  0
 21 22  1  0  0  0  0
 21 23  1  0  0  0  0
 21 54  1  0  0  0  0
 22 55  1  0  0  0  0
 22 56  1  0  0  0  0
 22 57  1  0  0  0  0
 23 58  1  0  0  0  0
 23 59  1  0  0  0  0
 23 60  1  0  0  0  0
 24 30  1  0  0  0  0
 24 18  1  0  0  0  0
 25 24  1  0  0  0  0
 25 61  1  1  0  0  0
 26 25  1  0  0  0  0
 27 26  2  0  0  0  0
 28 25  1  0  0  0  0
 28 29  1  0  0  0  0
 28 62  1  0  0  0  0
 28 63  1  0  0  0  0
 29 30  1  0  0  0  0
 29 64  1  0  0  0  0
 29 65  1  0  0  0  0
 30 66  1  0  0  0  0
 30 67  1  0  0  0  0
 31 26  1  0  0  0  0
 31 68  1  0  0  0  0
 32 31  1  0  0  0  0
 32 69  1  0  0  0  0
 32 70  1  0  0  0  0
 32 71  1  0  0  0  0
M  END
>  <MODEL>
       0

$$$$
