selected_4mers/GPAL/740_noH.pdb
 OpenBabel03042518353D

 62 62  0  0  1  0  0  0  0  0999 V2000
    8.5480   58.8710   27.6560 C   0  0  0  0  0  0  0  0  0  0  0  0
    7.7120   57.7910   26.9570 C   0  0  0  0  0  0  0  0  0  0  0  0
    7.7870   56.6120   27.3040 O   0  0  0  0  0  0  0  0  0  0  0  0
    6.9280   58.2020   25.9690 N   0  0  0  0  0  0  0  0  0  0  0  0
    6.0840   57.2660   25.2520 C   0  0  0  0  0  0  0  0  0  0  0  0
    6.7890   56.0400   24.7060 C   0  0  0  0  0  0  0  0  0  0  0  0
    6.3910   54.9150   25.0160 O   0  0  0  0  0  0  0  0  0  0  0  0
    7.8320   56.2130   23.8780 N   0  0  0  0  0  0  0  0  0  0  0  0
    8.5610   55.0710   23.3140 C   0  0  2  0  0  0  0  0  0  0  0  0
    9.1830   54.1730   24.3920 C   0  0  0  0  0  0  0  0  0  0  0  0
    9.2230   52.9490   24.2450 O   0  0  0  0  0  0  0  0  0  0  0  0
    9.6130   55.7420   22.4290 C   0  0  0  0  0  0  0  0  0  0  0  0
    8.9040   56.9850   21.9650 C   0  0  0  0  0  0  0  0  0  0  0  0
    8.2550   57.4740   23.2420 C   0  0  0  0  0  0  0  0  0  0  0  0
    9.6680   54.7750   25.4750 N   0  0  0  0  0  0  0  0  0  0  0  0
   10.2740   53.9900   26.5460 C   0  0  2  0  0  0  0  0  0  0  0  0
    9.2290   53.1260   27.2450 C   0  0  0  0  0  0  0  0  0  0  0  0
    9.4730   51.9510   27.5160 O   0  0  0  0  0  0  0  0  0  0  0  0
   10.9670   54.9100   27.5540 C   0  0  0  0  0  0  0  0  0  0  0  0
    8.0670   53.7090   27.5380 N   0  0  0  0  0  0  0  0  0  0  0  0
    6.9910   52.9690   28.1950 C   0  0  2  0  0  0  0  0  0  0  0  0
    6.4910   51.8370   27.2990 C   0  0  0  0  0  0  0  0  0  0  0  0
    6.2080   50.7320   27.7740 O   0  0  0  0  0  0  0  0  0  0  0  0
    5.8350   53.9010   28.5400 C   0  0  0  0  0  0  0  0  0  0  0  0
    6.1090   54.9150   29.6520 C   0  0  0  0  0  0  0  0  0  0  0  0
    4.9230   55.8600   29.7670 C   0  0  0  0  0  0  0  0  0  0  0  0
    6.3650   54.1920   30.9770 C   0  0  0  0  0  0  0  0  0  0  0  0
    6.3770   52.1000   26.0020 N   0  0  0  0  0  0  0  0  0  0  0  0
    5.9300   51.0450   25.1050 C   0  0  0  0  0  0  0  0  0  0  0  0
    8.3427   59.8232   27.2131 H   0  0  0  0  0  0  0  0  0  0  0  0
    9.5878   58.6435   27.5467 H   0  0  0  0  0  0  0  0  0  0  0  0
    8.2965   58.8995   28.6956 H   0  0  0  0  0  0  0  0  0  0  0  0
    6.9191   59.1543   25.7195 H   0  0  0  0  0  0  0  0  0  0  0  0
    5.3165   56.9351   25.9201 H   0  0  0  0  0  0  0  0  0  0  0  0
    5.7136   57.7966   24.3999 H   0  0  0  0  0  0  0  0  0  0  0  0
    7.9271   54.3994   22.7737 H   0  0  0  0  0  0  0  0  0  0  0  0
   10.4918   55.9845   22.9892 H   0  0  0  0  0  0  0  0  0  0  0  0
    9.9542   55.1213   21.6270 H   0  0  0  0  0  0  0  0  0  0  0  0
    8.1713   56.7588   21.2187 H   0  0  0  0  0  0  0  0  0  0  0  0
    9.5505   57.7044   21.5073 H   0  0  0  0  0  0  0  0  0  0  0  0
    7.4158   58.1044   23.0341 H   0  0  0  0  0  0  0  0  0  0  0  0
    8.9023   58.0677   23.8531 H   0  0  0  0  0  0  0  0  0  0  0  0
    9.6178   55.7550   25.5543 H   0  0  0  0  0  0  0  0  0  0  0  0
   11.0068   53.3420   26.1125 H   0  0  0  0  0  0  0  0  0  0  0  0
   10.2443   55.5641   27.9954 H   0  0  0  0  0  0  0  0  0  0  0  0
   11.7138   55.4898   27.0530 H   0  0  0  0  0  0  0  0  0  0  0  0
   11.4273   54.3193   28.3182 H   0  0  0  0  0  0  0  0  0  0  0  0
    7.9306   54.6564   27.3075 H   0  0  0  0  0  0  0  0  0  0  0  0
    7.3810   52.5487   29.0984 H   0  0  0  0  0  0  0  0  0  0  0  0
    5.0052   53.2972   28.8430 H   0  0  0  0  0  0  0  0  0  0  0  0
    5.6527   54.4782   27.6577 H   0  0  0  0  0  0  0  0  0  0  0  0
    6.9844   55.4830   29.4153 H   0  0  0  0  0  0  0  0  0  0  0  0
    4.0425   55.3001   30.0037 H   0  0  0  0  0  0  0  0  0  0  0  0
    4.7820   56.3702   28.8371 H   0  0  0  0  0  0  0  0  0  0  0  0
    5.1101   56.5746   30.5411 H   0  0  0  0  0  0  0  0  0  0  0  0
    5.5039   53.6140   31.2401 H   0  0  0  0  0  0  0  0  0  0  0  0
    6.5594   54.9119   31.7444 H   0  0  0  0  0  0  0  0  0  0  0  0
    7.2107   53.5448   30.8726 H   0  0  0  0  0  0  0  0  0  0  0  0
    6.5917   52.9951   25.6529 H   0  0  0  0  0  0  0  0  0  0  0  0
    5.7477   50.1527   25.6667 H   0  0  0  0  0  0  0  0  0  0  0  0
    6.6858   50.8565   24.3715 H   0  0  0  0  0  0  0  0  0  0  0  0
    5.0278   51.3500   24.6173 H   0  0  0  0  0  0  0  0  0  0  0  0
  1 30  1  0  0  0  0
  1 31  1  0  0  0  0
  1 32  1  0  0  0  0
  2  3  2  0  0  0  0
  2  1  1  0  0  0  0
  4  2  1  0  0  0  0
  4 33  1  0  0  0  0
  5  4  1  0  0  0  0
  5 34  1  0  0  0  0
  5 35  1  0  0  0  0
  6  7  2  0  0  0  0
  6  5  1  0  0  0  0
  8  6  1  0  0  0  0
  9  8  1  0  0  0  0
  9 10  1  0  0  0  0
  9 36  1  6  0  0  0
 10 15  1  0  0  0  0
 11 10  2  0  0  0  0
 12  9  1  0  0  0  0
 12 37  1  0  0  0  0
 12 38  1  0  0  0  0
 13 12  1  0  0  0  0
 13 14  1  0  0  0  0
 13 39  1  0  0  0  0
 13 40  1  0  0  0  0
 14  8  1  0  0  0  0
 14 41  1  0  0  0  0
 14 42  1  0  0  0  0
 15 16  1  0  0  0  0
 15 43  1  0  0  0  0
 16 17  1  0  0  0  0
 16 19  1  0  0  0  0
 16 44  1  6  0  0  0
 17 18  2  0  0  0  0
 17 20  1  0  0  0  0
 19 45  1  0  0  0  0
 19 46  1  0  0  0  0
 19 47  1  0  0  0  0
 20 21  1  0  0  0  0
 20 48  1  0  0  0  0
 21 24  1  0  0  0  0
 21 49  1  1  0  0  0
 22 23  2  0  0  0  0
 22 21  1  0  0  0  0
 24 25  1  0  0  0  0
 24 50  1  0  0  0  0
 24 51  1  0  0  0  0
 25 26  1  0  0  0  0
 25 27  1  0  0  0  0
 25 52  1  0  0  0  0
 26 53  1  0  0  0  0
 26 54  1  0  0  0  0
 26 55  1  0  0  0  0
 27 56  1  0  0  0  0
 27 57  1  0  0  0  0
 27 58  1  0  0  0  0
 28 22  1  0  0  0  0
 28 59  1  0  0  0  0
 29 28  1  0  0  0  0
 29 60  1  0  0  0  0
 29 61  1  0  0  0  0
 29 62  1  0  0  0  0
M  END
>  <MODEL>
       0

$$$$
selected_4mers/GPAL/741_noH.pdb
 OpenBabel03042518353D

 62 62  0  0  1  0  0  0  0  0999 V2000
   -3.9520   72.1770   45.2480 C   0  0  0  0  0  0  0  0  0  0  0  0
   -2.6610   71.5250   45.6980 C   0  0  0  0  0  0  0  0  0  0  0  0
   -2.6540   70.7290   46.6180 O   0  0  0  0  0  0  0  0  0  0  0  0
   -1.5580   71.9160   45.0740 N   0  0  0  0  0  0  0  0  0  0  0  0
   -0.2520   71.3370   45.3350 C   0  0  0  0  0  0  0  0  0  0  0  0
    0.0740   70.8480   46.7210 C   0  0  0  0  0  0  0  0  0  0  0  0
    0.2840   69.6790   46.9180 O   0  0  0  0  0  0  0  0  0  0  0  0
    0.2020   71.7730   47.6930 N   0  0  0  0  0  0  0  0  0  0  0  0
    0.5470   71.4020   49.0720 C   0  0  2  0  0  0  0  0  0  0  0  0
   -0.4400   70.4330   49.7250 C   0  0  0  0  0  0  0  0  0  0  0  0
   -0.0860   69.7520   50.6780 O   0  0  0  0  0  0  0  0  0  0  0  0
    0.5220   72.7610   49.7990 C   0  0  0  0  0  0  0  0  0  0  0  0
    0.7180   73.7260   48.7760 C   0  0  0  0  0  0  0  0  0  0  0  0
    0.1090   73.2290   47.5380 C   0  0  0  0  0  0  0  0  0  0  0  0
   -1.6720   70.3960   49.2180 N   0  0  0  0  0  0  0  0  0  0  0  0
   -2.7150   69.5060   49.7200 C   0  0  2  0  0  0  0  0  0  0  0  0
   -2.6280   68.0890   49.1370 C   0  0  0  0  0  0  0  0  0  0  0  0
   -3.2980   67.1700   49.6350 O   0  0  0  0  0  0  0  0  0  0  0  0
   -4.0880   70.0910   49.4490 C   0  0  0  0  0  0  0  0  0  0  0  0
   -1.8070   67.9160   48.0950 N   0  0  0  0  0  0  0  0  0  0  0  0
   -1.6650   66.6280   47.4240 C   0  0  2  0  0  0  0  0  0  0  0  0
   -0.5660   65.8060   48.0860 C   0  0  0  0  0  0  0  0  0  0  0  0
    0.4600   66.3310   48.4490 O   0  0  0  0  0  0  0  0  0  0  0  0
   -1.3210   66.8320   45.9380 C   0  0  0  0  0  0  0  0  0  0  0  0
   -2.3120   67.6490   45.0650 C   0  0  0  0  0  0  0  0  0  0  0  0
   -1.7090   67.7670   43.6360 C   0  0  0  0  0  0  0  0  0  0  0  0
   -3.6230   66.9080   45.0410 C   0  0  0  0  0  0  0  0  0  0  0  0
   -0.7960   64.5050   48.2480 N   0  0  0  0  0  0  0  0  0  0  0  0
    0.2120   63.6230   48.7750 C   0  0  0  0  0  0  0  0  0  0  0  0
   -3.7513   72.8402   44.4327 H   0  0  0  0  0  0  0  0  0  0  0  0
   -4.3750   72.7291   46.0611 H   0  0  0  0  0  0  0  0  0  0  0  0
   -4.6416   71.4222   44.9324 H   0  0  0  0  0  0  0  0  0  0  0  0
   -1.6278   72.6324   44.4023 H   0  0  0  0  0  0  0  0  0  0  0  0
    0.4748   72.0824   45.0881 H   0  0  0  0  0  0  0  0  0  0  0  0
   -0.2480   70.4448   44.7443 H   0  0  0  0  0  0  0  0  0  0  0  0
    1.4804   70.8806   49.1138 H   0  0  0  0  0  0  0  0  0  0  0  0
   -0.4202   72.9117   50.2832 H   0  0  0  0  0  0  0  0  0  0  0  0
    1.2704   72.8241   50.5611 H   0  0  0  0  0  0  0  0  0  0  0  0
    0.2569   74.6492   49.0587 H   0  0  0  0  0  0  0  0  0  0  0  0
    1.7645   73.8916   48.6266 H   0  0  0  0  0  0  0  0  0  0  0  0
   -0.9104   73.5437   47.4564 H   0  0  0  0  0  0  0  0  0  0  0  0
    0.5889   73.5928   46.6536 H   0  0  0  0  0  0  0  0  0  0  0  0
   -1.8892   70.9974   48.4694 H   0  0  0  0  0  0  0  0  0  0  0  0
   -2.5581   69.4219   50.7751 H   0  0  0  0  0  0  0  0  0  0  0  0
   -4.2388   70.1725   48.3928 H   0  0  0  0  0  0  0  0  0  0  0  0
   -4.1567   71.0612   49.8951 H   0  0  0  0  0  0  0  0  0  0  0  0
   -4.8370   69.4520   49.8680 H   0  0  0  0  0  0  0  0  0  0  0  0
   -1.2815   68.6826   47.7703 H   0  0  0  0  0  0  0  0  0  0  0  0
   -2.5955   66.1056   47.5023 H   0  0  0  0  0  0  0  0  0  0  0  0
   -0.3750   67.3302   45.8960 H   0  0  0  0  0  0  0  0  0  0  0  0
   -1.3468   65.8472   45.5204 H   0  0  0  0  0  0  0  0  0  0  0  0
   -2.4742   68.6326   45.4538 H   0  0  0  0  0  0  0  0  0  0  0  0
   -1.5426   66.7882   43.2372 H   0  0  0  0  0  0  0  0  0  0  0  0
   -0.7798   68.2955   43.6835 H   0  0  0  0  0  0  0  0  0  0  0  0
   -2.3898   68.2985   43.0044 H   0  0  0  0  0  0  0  0  0  0  0  0
   -3.4688   65.9228   44.6531 H   0  0  0  0  0  0  0  0  0  0  0  0
   -4.3175   67.4319   44.4180 H   0  0  0  0  0  0  0  0  0  0  0  0
   -4.0141   66.8428   46.0348 H   0  0  0  0  0  0  0  0  0  0  0  0
   -1.6756   64.1377   48.0018 H   0  0  0  0  0  0  0  0  0  0  0  0
    1.0991   64.1821   48.9879 H   0  0  0  0  0  0  0  0  0  0  0  0
    0.4334   62.8635   48.0546 H   0  0  0  0  0  0  0  0  0  0  0  0
   -0.1472   63.1678   49.6743 H   0  0  0  0  0  0  0  0  0  0  0  0
  1  2  1  0  0  0  0
  1 30  1  0  0  0  0
  1 31  1  0  0  0  0
  1 32  1  0  0  0  0
  2  3  2  0  0  0  0
  4  5  1  0  0  0  0
  4  2  1  0  0  0  0
  4 33  1  0  0  0  0
  5  6  1  0  0  0  0
  5 34  1  0  0  0  0
  5 35  1  0  0  0  0
  6  7  2  0  0  0  0
  6  8  1  0  0  0  0
  8  9  1  0  0  0  0
  9 10  1  0  0  0  0
  9 12  1  0  0  0  0
  9 36  1  1  0  0  0
 10 11  2  0  0  0  0
 12 37  1  0  0  0  0
 12 38  1  0  0  0  0
 13 12  1  0  0  0  0
 13 39  1  0  0  0  0
 13 40  1  0  0  0  0
 14  8  1  0  0  0  0
 14 13  1  0  0  0  0
 14 41  1  0  0  0  0
 14 42  1  0  0  0  0
 15 16  1  0  0  0  0
 15 10  1  0  0  0  0
 15 43  1  0  0  0  0
 16 44  1  1  0  0  0
 17 18  2  0  0  0  0
 17 16  1  0  0  0  0
 19 16  1  0  0  0  0
 19 45  1  0  0  0  0
 19 46  1  0  0  0  0
 19 47  1  0  0  0  0
 20 17  1  0  0  0  0
 20 48  1  0  0  0  0
 21 22  1  0  0  0  0
 21 20  1  0  0  0  0
 21 49  1  1  0  0  0
 22 28  1  0  0  0  0
 22 23  2  0  0  0  0
 24 21  1  0  0  0  0
 24 50  1  0  0  0  0
 24 51  1  0  0  0  0
 25 24  1  0  0  0  0
 25 52  1  0  0  0  0
 26 25  1  0  0  0  0
 26 53  1  0  0  0  0
 26 54  1  0  0  0  0
 26 55  1  0  0  0  0
 27 25  1  0  0  0  0
 27 56  1  0  0  0  0
 27 57  1  0  0  0  0
 27 58  1  0  0  0  0
 28 29  1  0  0  0  0
 28 59  1  0  0  0  0
 29 60  1  0  0  0  0
 29 61  1  0  0  0  0
 29 62  1  0  0  0  0
M  END
>  <MODEL>
       0

$$$$
selected_4mers/GPAL/742_noH.pdb
 OpenBabel03042518353D

 62 62  0  0  1  0  0  0  0  0999 V2000
   36.3660   20.1750   30.5630 C   0  0  0  0  0  0  0  0  0  0  0  0
   37.3950   19.4040   29.7520 C   0  0  0  0  0  0  0  0  0  0  0  0
   38.2580   18.7330   30.3200 O   0  0  0  0  0  0  0  0  0  0  0  0
   37.3120   19.5020   28.4300 N   0  0  0  0  0  0  0  0  0  0  0  0
   38.2650   18.7890   27.5910 C   0  0  0  0  0  0  0  0  0  0  0  0
   37.8480   18.7650   26.1320 C   0  0  0  0  0  0  0  0  0  0  0  0
   36.6920   19.0170   25.8150 O   0  0  0  0  0  0  0  0  0  0  0  0
   38.7660   18.4390   25.2160 N   0  0  0  0  0  0  0  0  0  0  0  0
   38.4250   18.4070   23.7950 C   0  0  2  0  0  0  0  0  0  0  0  0
   37.7950   17.0930   23.3420 C   0  0  0  0  0  0  0  0  0  0  0  0
   37.6980   16.1330   24.1090 O   0  0  0  0  0  0  0  0  0  0  0  0
   39.7730   18.6490   23.1320 C   0  0  0  0  0  0  0  0  0  0  0  0
   40.6850   17.8540   24.0190 C   0  0  0  0  0  0  0  0  0  0  0  0
   40.2110   18.2230   25.4140 C   0  0  0  0  0  0  0  0  0  0  0  0
   37.3670   17.0690   22.0860 N   0  0  0  0  0  0  0  0  0  0  0  0
   36.7790   15.8810   21.4990 C   0  0  2  0  0  0  0  0  0  0  0  0
   37.9230   14.9140   21.2300 C   0  0  0  0  0  0  0  0  0  0  0  0
   39.0490   15.3410   20.9620 O   0  0  0  0  0  0  0  0  0  0  0  0
   36.0930   16.2340   20.2020 C   0  0  0  0  0  0  0  0  0  0  0  0
   37.6400   13.6190   21.3120 N   0  0  0  0  0  0  0  0  0  0  0  0
   38.6570   12.6140   21.0530 C   0  0  2  0  0  0  0  0  0  0  0  0
   38.7790   12.4700   19.5440 C   0  0  0  0  0  0  0  0  0  0  0  0
   37.8480   12.8010   18.8120 O   0  0  0  0  0  0  0  0  0  0  0  0
   38.2600   11.2780   21.6870 C   0  0  0  0  0  0  0  0  0  0  0  0
   38.1390   11.3060   23.2150 C   0  0  0  0  0  0  0  0  0  0  0  0
   37.7760    9.9210   23.7200 C   0  0  0  0  0  0  0  0  0  0  0  0
   39.4490   11.7870   23.8330 C   0  0  0  0  0  0  0  0  0  0  0  0
   39.9270   11.9870   19.0790 N   0  0  0  0  0  0  0  0  0  0  0  0
   40.1450   11.8120   17.6490 C   0  0  0  0  0  0  0  0  0  0  0  0
   35.7051   20.6934   29.9002 H   0  0  0  0  0  0  0  0  0  0  0  0
   36.8650   20.8811   31.1934 H   0  0  0  0  0  0  0  0  0  0  0  0
   35.8037   19.4932   31.1663 H   0  0  0  0  0  0  0  0  0  0  0  0
   36.6087   20.0547   28.0188 H   0  0  0  0  0  0  0  0  0  0  0  0
   39.2176   19.2701   27.6681 H   0  0  0  0  0  0  0  0  0  0  0  0
   38.3077   17.7765   27.9344 H   0  0  0  0  0  0  0  0  0  0  0  0
   37.6762   19.1280   23.5410 H   0  0  0  0  0  0  0  0  0  0  0  0
   40.0304   19.6876   23.1360 H   0  0  0  0  0  0  0  0  0  0  0  0
   39.8104   18.3671   22.1005 H   0  0  0  0  0  0  0  0  0  0  0  0
   41.7066   18.1366   23.8725 H   0  0  0  0  0  0  0  0  0  0  0  0
   40.6498   16.8021   23.8260 H   0  0  0  0  0  0  0  0  0  0  0  0
   40.6906   19.1140   25.7618 H   0  0  0  0  0  0  0  0  0  0  0  0
   40.4332   17.4786   26.1498 H   0  0  0  0  0  0  0  0  0  0  0  0
   37.4513   17.8817   21.5368 H   0  0  0  0  0  0  0  0  0  0  0  0
   36.0511   15.4480   22.1529 H   0  0  0  0  0  0  0  0  0  0  0  0
   36.8027   16.6698   19.5302 H   0  0  0  0  0  0  0  0  0  0  0  0
   35.3067   16.9340   20.3934 H   0  0  0  0  0  0  0  0  0  0  0  0
   35.6832   15.3485   19.7628 H   0  0  0  0  0  0  0  0  0  0  0  0
   36.7281   13.3359   21.5517 H   0  0  0  0  0  0  0  0  0  0  0  0
   39.5935   12.9076   21.4792 H   0  0  0  0  0  0  0  0  0  0  0  0
   39.0001   10.5513   21.4244 H   0  0  0  0  0  0  0  0  0  0  0  0
   37.2866   11.0418   21.3106 H   0  0  0  0  0  0  0  0  0  0  0  0
   37.3657   11.9876   23.5021 H   0  0  0  0  0  0  0  0  0  0  0  0
   38.5412    9.2274   23.4401 H   0  0  0  0  0  0  0  0  0  0  0  0
   36.8446    9.6173   23.2898 H   0  0  0  0  0  0  0  0  0  0  0  0
   37.6864    9.9422   24.7860 H   0  0  0  0  0  0  0  0  0  0  0  0
   40.2389   11.1193   23.5590 H   0  0  0  0  0  0  0  0  0  0  0  0
   39.3539   11.8088   24.8985 H   0  0  0  0  0  0  0  0  0  0  0  0
   39.6726   12.7701   23.4747 H   0  0  0  0  0  0  0  0  0  0  0  0
   40.6414   11.7436   19.7111 H   0  0  0  0  0  0  0  0  0  0  0  0
   39.2723   12.1241   17.1144 H   0  0  0  0  0  0  0  0  0  0  0  0
   40.3406   10.7807   17.4416 H   0  0  0  0  0  0  0  0  0  0  0  0
   40.9823   12.4028   17.3409 H   0  0  0  0  0  0  0  0  0  0  0  0
  1 30  1  0  0  0  0
  1 31  1  0  0  0  0
  1 32  1  0  0  0  0
  2  3  2  0  0  0  0
  2  1  1  0  0  0  0
  4  2  1  0  0  0  0
  4 33  1  0  0  0  0
  5  4  1  0  0  0  0
  5 34  1  0  0  0  0
  5 35  1  0  0  0  0
  6  5  1  0  0  0  0
  7  6  2  0  0  0  0
  8 14  1  0  0  0  0
  8  6  1  0  0  0  0
  9  8  1  0  0  0  0
  9 36  1  6  0  0  0
 10  9  1  0  0  0  0
 10 11  2  0  0  0  0
 12  9  1  0  0  0  0
 12 13  1  0  0  0  0
 12 37  1  0  0  0  0
 12 38  1  0  0  0  0
 13 14  1  0  0  0  0
 13 39  1  0  0  0  0
 13 40  1  0  0  0  0
 14 41  1  0  0  0  0
 14 42  1  0  0  0  0
 15 10  1  0  0  0  0
 15 43  1  0  0  0  0
 16 15  1  0  0  0  0
 16 44  1  1  0  0  0
 17 20  1  0  0  0  0
 17 16  1  0  0  0  0
 18 17  2  0  0  0  0
 19 16  1  0  0  0  0
 19 45  1  0  0  0  0
 19 46  1  0  0  0  0
 19 47  1  0  0  0  0
 20 48  1  0  0  0  0
 21 20  1  0  0  0  0
 21 24  1  0  0  0  0
 21 49  1  1  0  0  0
 22 21  1  0  0  0  0
 23 22  2  0  0  0  0
 24 25  1  0  0  0  0
 24 50  1  0  0  0  0
 24 51  1  0  0  0  0
 25 26  1  0  0  0  0
 25 27  1  0  0  0  0
 25 52  1  0  0  0  0
 26 53  1  0  0  0  0
 26 54  1  0  0  0  0
 26 55  1  0  0  0  0
 27 56  1  0  0  0  0
 27 57  1  0  0  0  0
 27 58  1  0  0  0  0
 28 22  1  0  0  0  0
 28 59  1  0  0  0  0
 29 28  1  0  0  0  0
 29 60  1  0  0  0  0
 29 61  1  0  0  0  0
 29 62  1  0  0  0  0
M  END
>  <MODEL>
       0

$$$$
selected_4mers/GPAL/743_noH.pdb
 OpenBabel03042518353D

 62 62  0  0  1  0  0  0  0  0999 V2000
  -14.3060   44.4480   45.3920 C   0  0  0  0  0  0  0  0  0  0  0  0
  -14.3600   43.9460   46.8310 C   0  0  0  0  0  0  0  0  0  0  0  0
  -15.2560   43.1670   47.2100 O   0  0  0  0  0  0  0  0  0  0  0  0
  -13.4190   44.4230   47.6410 N   0  0  0  0  0  0  0  0  0  0  0  0
  -13.3880   44.1160   49.0650 C   0  0  0  0  0  0  0  0  0  0  0  0
  -12.1470   44.7870   49.6680 C   0  0  0  0  0  0  0  0  0  0  0  0
  -11.2890   45.2760   48.9400 O   0  0  0  0  0  0  0  0  0  0  0  0
  -12.0500   44.8410   50.9990 N   0  0  0  0  0  0  0  0  0  0  0  0
  -13.0260   44.3070   51.9570 C   0  0  2  0  0  0  0  0  0  0  0  0
  -14.2650   45.2060   52.0600 C   0  0  0  0  0  0  0  0  0  0  0  0
  -14.3350   46.2700   51.4180 O   0  0  0  0  0  0  0  0  0  0  0  0
  -12.2620   44.3490   53.2710 C   0  0  0  0  0  0  0  0  0  0  0  0
  -11.3670   45.5900   53.1220 C   0  0  0  0  0  0  0  0  0  0  0  0
  -10.9270   45.5390   51.6650 C   0  0  0  0  0  0  0  0  0  0  0  0
  -15.2300   44.7930   52.8710 N   0  0  0  0  0  0  0  0  0  0  0  0
  -16.4920   45.5320   52.9940 C   0  0  2  0  0  0  0  0  0  0  0  0
  -16.2770   47.0250   53.2490 C   0  0  0  0  0  0  0  0  0  0  0  0
  -15.4190   47.4010   54.0320 O   0  0  0  0  0  0  0  0  0  0  0  0
  -17.3530   44.9300   54.1160 C   0  0  0  0  0  0  0  0  0  0  0  0
  -17.0750   47.8620   52.5870 N   0  0  0  0  0  0  0  0  0  0  0  0
  -17.0580   49.3030   52.8100 C   0  0  2  0  0  0  0  0  0  0  0  0
  -17.8320   49.6990   54.0590 C   0  0  0  0  0  0  0  0  0  0  0  0
  -18.7850   49.0400   54.4170 O   0  0  0  0  0  0  0  0  0  0  0  0
  -17.6700   50.0240   51.6080 C   0  0  0  0  0  0  0  0  0  0  0  0
  -16.7440   50.2500   50.4060 C   0  0  0  0  0  0  0  0  0  0  0  0
  -16.2600   48.9480   49.8330 C   0  0  0  0  0  0  0  0  0  0  0  0
  -17.4500   51.0750   49.3450 C   0  0  0  0  0  0  0  0  0  0  0  0
  -17.4140   50.7760   54.7200 N   0  0  0  0  0  0  0  0  0  0  0  0
  -18.1830   51.3380   55.8300 C   0  0  0  0  0  0  0  0  0  0  0  0
  -15.1016   44.0055   44.8298 H   0  0  0  0  0  0  0  0  0  0  0  0
  -13.3674   44.1779   44.9550 H   0  0  0  0  0  0  0  0  0  0  0  0
  -14.4111   45.5128   45.3815 H   0  0  0  0  0  0  0  0  0  0  0  0
  -12.7187   45.0040   47.2651 H   0  0  0  0  0  0  0  0  0  0  0  0
  -13.3332   43.0569   49.2070 H   0  0  0  0  0  0  0  0  0  0  0  0
  -14.2748   44.4773   49.5424 H   0  0  0  0  0  0  0  0  0  0  0  0
  -13.3830   43.3370   51.6803 H   0  0  0  0  0  0  0  0  0  0  0  0
  -11.6729   43.4651   53.4000 H   0  0  0  0  0  0  0  0  0  0  0  0
  -12.9033   44.3962   54.1262 H   0  0  0  0  0  0  0  0  0  0  0  0
  -11.9176   46.4850   53.3240 H   0  0  0  0  0  0  0  0  0  0  0  0
  -10.5439   45.5944   53.8057 H   0  0  0  0  0  0  0  0  0  0  0  0
  -10.7977   46.5242   51.2682 H   0  0  0  0  0  0  0  0  0  0  0  0
   -9.9860   45.0487   51.5269 H   0  0  0  0  0  0  0  0  0  0  0  0
  -15.0970   43.9742   53.4011 H   0  0  0  0  0  0  0  0  0  0  0  0
  -16.9997   45.4389   52.0567 H   0  0  0  0  0  0  0  0  0  0  0  0
  -16.8399   45.0263   55.0500 H   0  0  0  0  0  0  0  0  0  0  0  0
  -17.5316   43.8949   53.9122 H   0  0  0  0  0  0  0  0  0  0  0  0
  -18.2869   45.4498   54.1669 H   0  0  0  0  0  0  0  0  0  0  0  0
  -17.7001   47.4934   51.9217 H   0  0  0  0  0  0  0  0  0  0  0  0
  -16.0351   49.5881   52.9412 H   0  0  0  0  0  0  0  0  0  0  0  0
  -18.5051   49.4457   51.2717 H   0  0  0  0  0  0  0  0  0  0  0  0
  -17.9226   51.0021   51.9608 H   0  0  0  0  0  0  0  0  0  0  0  0
  -15.8859   50.7907   50.7470 H   0  0  0  0  0  0  0  0  0  0  0  0
  -17.0961   48.3804   49.4813 H   0  0  0  0  0  0  0  0  0  0  0  0
  -15.7461   48.3940   50.5906 H   0  0  0  0  0  0  0  0  0  0  0  0
  -15.5932   49.1425   49.0191 H   0  0  0  0  0  0  0  0  0  0  0  0
  -18.3110   50.5447   48.9953 H   0  0  0  0  0  0  0  0  0  0  0  0
  -16.7827   51.2506   48.5272 H   0  0  0  0  0  0  0  0  0  0  0  0
  -17.7538   52.0112   49.7647 H   0  0  0  0  0  0  0  0  0  0  0  0
  -16.5678   51.2042   54.4557 H   0  0  0  0  0  0  0  0  0  0  0  0
  -19.0673   50.7552   55.9824 H   0  0  0  0  0  0  0  0  0  0  0  0
  -18.4559   52.3468   55.6002 H   0  0  0  0  0  0  0  0  0  0  0  0
  -17.5884   51.3232   56.7194 H   0  0  0  0  0  0  0  0  0  0  0  0
  1  2  1  0  0  0  0
  1 30  1  0  0  0  0
  1 31  1  0  0  0  0
  1 32  1  0  0  0  0
  2  3  2  0  0  0  0
  2  4  1  0  0  0  0
  4  5  1  0  0  0  0
  4 33  1  0  0  0  0
  5  6  1  0  0  0  0
  5 34  1  0  0  0  0
  5 35  1  0  0  0  0
  6  8  1  0  0  0  0
  7  6  2  0  0  0  0
  8 14  1  0  0  0  0
  8  9  1  0  0  0  0
  9 10  1  0  0  0  0
  9 12  1  0  0  0  0
  9 36  1  6  0  0  0
 10 15  1  0  0  0  0
 11 10  2  0  0  0  0
 12 37  1  0  0  0  0
 12 38  1  0  0  0  0
 13 12  1  0  0  0  0
 13 39  1  0  0  0  0
 13 40  1  0  0  0  0
 14 13  1  0  0  0  0
 14 41  1  0  0  0  0
 14 42  1  0  0  0  0
 15 16  1  0  0  0  0
 15 43  1  0  0  0  0
 16 17  1  0  0  0  0
 16 19  1  0  0  0  0
 16 44  1  6  0  0  0
 17 18  2  0  0  0  0
 19 45  1  0  0  0  0
 19 46  1  0  0  0  0
 19 47  1  0  0  0  0
 20 21  1  0  0  0  0
 20 17  1  0  0  0  0
 20 48  1  0  0  0  0
 21 22  1  0  0  0  0
 21 49  1  1  0  0  0
 22 23  2  0  0  0  0
 22 28  1  0  0  0  0
 24 21  1  0  0  0  0
 24 50  1  0  0  0  0
 24 51  1  0  0  0  0
 25 24  1  0  0  0  0
 25 52  1  0  0  0  0
 26 25  1  0  0  0  0
 26 53  1  0  0  0  0
 26 54  1  0  0  0  0
 26 55  1  0  0  0  0
 27 25  1  0  0  0  0
 27 56  1  0  0  0  0
 27 57  1  0  0  0  0
 27 58  1  0  0  0  0
 28 29  1  0  0  0  0
 28 59  1  0  0  0  0
 29 60  1  0  0  0  0
 29 61  1  0  0  0  0
 29 62  1  0  0  0  0
M  END
>  <MODEL>
       0

$$$$
selected_4mers/GPAL/744_noH.pdb
 OpenBabel03042518353D

 62 62  0  0  1  0  0  0  0  0999 V2000
    6.0860   15.5400  -24.9190 C   0  0  0  0  0  0  0  0  0  0  0  0
    4.6980   16.0930  -24.5970 C   0  0  0  0  0  0  0  0  0  0  0  0
    4.5620   17.1890  -24.0440 O   0  0  0  0  0  0  0  0  0  0  0  0
    3.6770   15.3230  -24.9620 N   0  0  0  0  0  0  0  0  0  0  0  0
    2.2970   15.7160  -24.7330 C   0  0  0  0  0  0  0  0  0  0  0  0
    1.3780   14.5120  -24.5990 C   0  0  0  0  0  0  0  0  0  0  0  0
    1.8400   13.3780  -24.6810 O   0  0  0  0  0  0  0  0  0  0  0  0
    0.0620   14.7250  -24.4250 N   0  0  0  0  0  0  0  0  0  0  0  0
   -0.9630   13.6830  -24.2680 C   0  0  2  0  0  0  0  0  0  0  0  0
   -1.3140   12.8300  -25.4930 C   0  0  0  0  0  0  0  0  0  0  0  0
   -2.2460   12.0240  -25.4410 O   0  0  0  0  0  0  0  0  0  0  0  0
   -2.1680   14.4780  -23.7880 C   0  0  0  0  0  0  0  0  0  0  0  0
   -2.0390   15.7300  -24.5980 C   0  0  0  0  0  0  0  0  0  0  0  0
   -0.5650   16.0610  -24.4460 C   0  0  0  0  0  0  0  0  0  0  0  0
   -0.5750   12.9930  -26.5820 N   0  0  0  0  0  0  0  0  0  0  0  0
   -0.8450   12.2550  -27.8130 C   0  0  2  0  0  0  0  0  0  0  0  0
   -0.6880   10.7350  -27.7370 C   0  0  0  0  0  0  0  0  0  0  0  0
    0.2330   10.2200  -27.1040 O   0  0  0  0  0  0  0  0  0  0  0  0
    0.0280   12.8040  -28.9310 C   0  0  0  0  0  0  0  0  0  0  0  0
   -1.6000   10.0230  -28.3930 N   0  0  0  0  0  0  0  0  0  0  0  0
   -1.5570    8.5640  -28.4330 C   0  0  2  0  0  0  0  0  0  0  0  0
   -0.2960    8.1220  -29.1610 C   0  0  0  0  0  0  0  0  0  0  0  0
    0.2430    7.0480  -28.8980 O   0  0  0  0  0  0  0  0  0  0  0  0
   -2.7750    8.0090  -29.1800 C   0  0  0  0  0  0  0  0  0  0  0  0
   -4.1370    8.0280  -28.4850 C   0  0  0  0  0  0  0  0  0  0  0  0
   -5.2270    7.6870  -29.4860 C   0  0  0  0  0  0  0  0  0  0  0  0
   -4.1340    7.0390  -27.3380 C   0  0  0  0  0  0  0  0  0  0  0  0
    0.1650    8.9680  -30.0770 N   0  0  0  0  0  0  0  0  0  0  0  0
    1.3470    8.6850  -30.8800 C   0  0  0  0  0  0  0  0  0  0  0  0
    5.9886   14.5859  -25.3934 H   0  0  0  0  0  0  0  0  0  0  0  0
    6.6460   15.4326  -24.0136 H   0  0  0  0  0  0  0  0  0  0  0  0
    6.5951   16.2144  -25.5754 H   0  0  0  0  0  0  0  0  0  0  0  0
    3.8617   14.4611  -25.4004 H   0  0  0  0  0  0  0  0  0  0  0  0
    1.9664   16.3132  -25.5569 H   0  0  0  0  0  0  0  0  0  0  0  0
    2.2573   16.2664  -23.8163 H   0  0  0  0  0  0  0  0  0  0  0  0
   -0.5997   12.9253  -23.6056 H   0  0  0  0  0  0  0  0  0  0  0  0
   -3.0837   13.9670  -24.0008 H   0  0  0  0  0  0  0  0  0  0  0  0
   -2.1905   14.6419  -22.7309 H   0  0  0  0  0  0  0  0  0  0  0  0
   -2.2939   15.5570  -25.6227 H   0  0  0  0  0  0  0  0  0  0  0  0
   -2.6906   16.5165  -24.2791 H   0  0  0  0  0  0  0  0  0  0  0  0
   -0.3794   16.5896  -23.5344 H   0  0  0  0  0  0  0  0  0  0  0  0
   -0.1886   16.6967  -25.2200 H   0  0  0  0  0  0  0  0  0  0  0  0
    0.1762   13.6289  -26.5600 H   0  0  0  0  0  0  0  0  0  0  0  0
   -1.8866   12.4088  -28.0035 H   0  0  0  0  0  0  0  0  0  0  0  0
    1.0576   12.6285  -28.6985 H   0  0  0  0  0  0  0  0  0  0  0  0
   -0.1407   13.8558  -29.0314 H   0  0  0  0  0  0  0  0  0  0  0  0
   -0.2188   12.3139  -29.8496 H   0  0  0  0  0  0  0  0  0  0  0  0
   -2.3248   10.4931  -28.8651 H   0  0  0  0  0  0  0  0  0  0  0  0
   -1.5620    8.1932  -27.4293 H   0  0  0  0  0  0  0  0  0  0  0  0
   -2.8747    8.5745  -30.0828 H   0  0  0  0  0  0  0  0  0  0  0  0
   -2.5567    6.9676  -29.2931 H   0  0  0  0  0  0  0  0  0  0  0  0
   -4.3291    9.0052  -28.0938 H   0  0  0  0  0  0  0  0  0  0  0  0
   -5.0499    6.7112  -29.8876 H   0  0  0  0  0  0  0  0  0  0  0  0
   -5.2206    8.4055  -30.2788 H   0  0  0  0  0  0  0  0  0  0  0  0
   -6.1785    7.7041  -28.9968 H   0  0  0  0  0  0  0  0  0  0  0  0
   -3.9428    6.0561  -27.7151 H   0  0  0  0  0  0  0  0  0  0  0  0
   -5.0865    7.0551  -26.8507 H   0  0  0  0  0  0  0  0  0  0  0  0
   -3.3706    7.3071  -26.6379 H   0  0  0  0  0  0  0  0  0  0  0  0
   -0.3107    9.8183  -30.2181 H   0  0  0  0  0  0  0  0  0  0  0  0
    1.7434    7.7294  -30.6068 H   0  0  0  0  0  0  0  0  0  0  0  0
    2.0851    9.4401  -30.7067 H   0  0  0  0  0  0  0  0  0  0  0  0
    1.0808    8.6776  -31.9163 H   0  0  0  0  0  0  0  0  0  0  0  0
  1  2  1  0  0  0  0
  1 30  1  0  0  0  0
  1 31  1  0  0  0  0
  1 32  1  0  0  0  0
  2  3  2  0  0  0  0
  4  5  1  0  0  0  0
  4  2  1  0  0  0  0
  4 33  1  0  0  0  0
  5  6  1  0  0  0  0
  5 34  1  0  0  0  0
  5 35  1  0  0  0  0
  6  8  1  0  0  0  0
  7  6  2  0  0  0  0
  8  9  1  0  0  0  0
  9 12  1  0  0  0  0
  9 36  1  1  0  0  0
 10 11  2  0  0  0  0
 10  9  1  0  0  0  0
 12 37  1  0  0  0  0
 12 38  1  0  0  0  0
 13 14  1  0  0  0  0
 13 12  1  0  0  0  0
 13 39  1  0  0  0  0
 13 40  1  0  0  0  0
 14  8  1  0  0  0  0
 14 41  1  0  0  0  0
 14 42  1  0  0  0  0
 15 10  1  0  0  0  0
 15 43  1  0  0  0  0
 16 17  1  0  0  0  0
 16 15  1  0  0  0  0
 16 44  1  6  0  0  0
 17 18  2  0  0  0  0
 19 16  1  0  0  0  0
 19 45  1  0  0  0  0
 19 46  1  0  0  0  0
 19 47  1  0  0  0  0
 20 17  1  0  0  0  0
 20 48  1  0  0  0  0
 21 20  1  0  0  0  0
 21 49  1  1  0  0  0
 22 23  2  0  0  0  0
 22 21  1  0  0  0  0
 24 25  1  0  0  0  0
 24 21  1  0  0  0  0
 24 50  1  0  0  0  0
 24 51  1  0  0  0  0
 25 27  1  0  0  0  0
 25 52  1  0  0  0  0
 26 25  1  0  0  0  0
 26 53  1  0  0  0  0
 26 54  1  0  0  0  0
 26 55  1  0  0  0  0
 27 56  1  0  0  0  0
 27 57  1  0  0  0  0
 27 58  1  0  0  0  0
 28 22  1  0  0  0  0
 28 59  1  0  0  0  0
 29 28  1  0  0  0  0
 29 60  1  0  0  0  0
 29 61  1  0  0  0  0
 29 62  1  0  0  0  0
M  END
>  <MODEL>
       0

$$$$
