selected_4mers/GSGS/715_noH.pdb
 OpenBabel03042518353D

 48 47  0  0  1  0  0  0  0  0999 V2000
  -24.7810   36.9650    1.9680 C   0  0  0  0  0  0  0  0  0  0  0  0
  -25.0130   36.3680    3.3510 C   0  0  0  0  0  0  0  0  0  0  0  0
  -24.1000   36.3190    4.1910 O   0  0  0  0  0  0  0  0  0  0  0  0
  -26.2290   35.9090    3.5750 N   0  0  0  0  0  0  0  0  0  0  0  0
  -26.6550   35.2820    4.8280 C   0  0  0  0  0  0  0  0  0  0  0  0
  -26.9220   36.3230    5.9140 C   0  0  0  0  0  0  0  0  0  0  0  0
  -27.4960   37.3950    5.6890 O   0  0  0  0  0  0  0  0  0  0  0  0
  -26.4890   35.9720    7.1110 N   0  0  0  0  0  0  0  0  0  0  0  0
  -26.6690   36.7710    8.3210 C   0  0  2  0  0  0  0  0  0  0  0  0
  -25.4270   37.6040    8.6490 C   0  0  0  0  0  0  0  0  0  0  0  0
  -24.4090   37.5950    7.9470 O   0  0  0  0  0  0  0  0  0  0  0  0
  -26.8780   35.8120    9.5170 C   0  0  0  0  0  0  0  0  0  0  0  0
  -25.6210   35.2150    9.8420 O   0  0  0  0  0  0  0  0  0  0  0  0
  -25.5620   38.2700    9.7810 N   0  0  0  0  0  0  0  0  0  0  0  0
  -24.5130   39.0900   10.3870 C   0  0  0  0  0  0  0  0  0  0  0  0
  -23.6420   38.1930   11.2790 C   0  0  0  0  0  0  0  0  0  0  0  0
  -23.7070   36.9580   11.1700 O   0  0  0  0  0  0  0  0  0  0  0  0
  -22.8670   38.8530   12.1160 N   0  0  0  0  0  0  0  0  0  0  0  0
  -21.9270   38.1520   13.0260 C   0  0  2  0  0  0  0  0  0  0  0  0
  -22.7840   37.4790   14.1000 C   0  0  0  0  0  0  0  0  0  0  0  0
  -23.6660   38.1450   14.6660 O   0  0  0  0  0  0  0  0  0  0  0  0
  -20.8990   39.0900   13.6020 C   0  0  0  0  0  0  0  0  0  0  0  0
  -20.2110   38.5200   14.7010 O   0  0  0  0  0  0  0  0  0  0  0  0
  -22.5170   36.2080   14.3050 N   0  0  0  0  0  0  0  0  0  0  0  0
  -23.2740   35.3810   15.2550 C   0  0  0  0  0  0  0  0  0  0  0  0
  -25.6865   36.9123    1.4003 H   0  0  0  0  0  0  0  0  0  0  0  0
  -24.0128   36.4145    1.4662 H   0  0  0  0  0  0  0  0  0  0  0  0
  -24.4808   37.9873    2.0666 H   0  0  0  0  0  0  0  0  0  0  0  0
  -26.8932   35.9933    2.8532 H   0  0  0  0  0  0  0  0  0  0  0  0
  -25.8853   34.6189    5.1640 H   0  0  0  0  0  0  0  0  0  0  0  0
  -27.5643   34.7489    4.6439 H   0  0  0  0  0  0  0  0  0  0  0  0
  -26.0129   35.1143    7.1938 H   0  0  0  0  0  0  0  0  0  0  0  0
  -27.5029   37.4205    8.1550 H   0  0  0  0  0  0  0  0  0  0  0  0
  -27.5815   35.0509    9.2511 H   0  0  0  0  0  0  0  0  0  0  0  0
  -27.2570   36.3522   10.3593 H   0  0  0  0  0  0  0  0  0  0  0  0
  -25.2859   34.7280    9.0730 H   0  0  0  0  0  0  0  0  0  0  0  0
  -26.4264   38.2108   10.2485 H   0  0  0  0  0  0  0  0  0  0  0  0
  -24.9568   39.8636   10.9781 H   0  0  0  0  0  0  0  0  0  0  0  0
  -23.9127   39.5380    9.6229 H   0  0  0  0  0  0  0  0  0  0  0  0
  -22.9127   39.8362   12.1383 H   0  0  0  0  0  0  0  0  0  0  0  0
  -21.3547   37.4181   12.4980 H   0  0  0  0  0  0  0  0  0  0  0  0
  -21.3912   39.9821   13.9287 H   0  0  0  0  0  0  0  0  0  0  0  0
  -20.1804   39.2995   12.8374 H   0  0  0  0  0  0  0  0  0  0  0  0
  -20.8426   38.3205   15.4096 H   0  0  0  0  0  0  0  0  0  0  0  0
  -21.7797   35.7933   13.8014 H   0  0  0  0  0  0  0  0  0  0  0  0
  -24.0348   35.9747   15.7173 H   0  0  0  0  0  0  0  0  0  0  0  0
  -22.6115   35.0028   16.0053 H   0  0  0  0  0  0  0  0  0  0  0  0
  -23.7269   34.5634   14.7341 H   0  0  0  0  0  0  0  0  0  0  0  0
  1  2  1  0  0  0  0
  1 26  1  0  0  0  0
  1 27  1  0  0  0  0
  1 28  1  0  0  0  0
  2  4  1  0  0  0  0
  2  3  2  0  0  0  0
  4  5  1  0  0  0  0
  4 29  1  0  0  0  0
  5  6  1  0  0  0  0
  5 30  1  0  0  0  0
  5 31  1  0  0  0  0
  6  8  1  0  0  0  0
  7  6  2  0  0  0  0
  8  9  1  0  0  0  0
  8 32  1  0  0  0  0
  9 10  1  0  0  0  0
  9 12  1  0  0  0  0
  9 33  1  6  0  0  0
 10 14  1  0  0  0  0
 11 10  2  0  0  0  0
 12 13  1  0  0  0  0
 12 34  1  0  0  0  0
 12 35  1  0  0  0  0
 13 36  1  0  0  0  0
 14 15  1  0  0  0  0
 14 37  1  0  0  0  0
 15 16  1  0  0  0  0
 15 38  1  0  0  0  0
 15 39  1  0  0  0  0
 16 18  1  0  0  0  0
 17 16  2  0  0  0  0
 18 19  1  0  0  0  0
 18 40  1  0  0  0  0
 19 22  1  0  0  0  0
 19 20  1  0  0  0  0
 19 41  1  6  0  0  0
 20 24  1  0  0  0  0
 20 21  2  0  0  0  0
 22 23  1  0  0  0  0
 22 42  1  0  0  0  0
 22 43  1  0  0  0  0
 23 44  1  0  0  0  0
 24 25  1  0  0  0  0
 24 45  1  0  0  0  0
 25 46  1  0  0  0  0
 25 47  1  0  0  0  0
 25 48  1  0  0  0  0
M  END
>  <MODEL>
       0

$$$$
selected_4mers/GSGS/716_noH.pdb
 OpenBabel03042518353D

 48 47  0  0  1  0  0  0  0  0999 V2000
   45.6650    4.0410   23.8850 C   0  0  0  0  0  0  0  0  0  0  0  0
   44.7890    5.1130   24.5010 C   0  0  0  0  0  0  0  0  0  0  0  0
   43.9290    5.6930   23.8330 O   0  0  0  0  0  0  0  0  0  0  0  0
   45.0040    5.3790   25.7820 N   0  0  0  0  0  0  0  0  0  0  0  0
   44.1940    6.3630   26.4640 C   0  0  0  0  0  0  0  0  0  0  0  0
   45.0980    7.3700   27.1270 C   0  0  0  0  0  0  0  0  0  0  0  0
   46.2110    7.0360   27.5330 O   0  0  0  0  0  0  0  0  0  0  0  0
   44.6330    8.6070   27.2210 N   0  0  0  0  0  0  0  0  0  0  0  0
   45.3860    9.6220   27.9530 C   0  0  2  0  0  0  0  0  0  0  0  0
   44.4670   10.5410   28.7440 C   0  0  0  0  0  0  0  0  0  0  0  0
   43.2450   10.4960   28.5920 O   0  0  0  0  0  0  0  0  0  0  0  0
   46.2470   10.4460   26.9930 C   0  0  0  0  0  0  0  0  0  0  0  0
   45.4300   11.1570   26.0790 O   0  0  0  0  0  0  0  0  0  0  0  0
   45.0610   11.3730   29.5970 N   0  0  0  0  0  0  0  0  0  0  0  0
   44.2990   12.3740   30.3170 C   0  0  0  0  0  0  0  0  0  0  0  0
   44.2840   12.1680   31.8190 C   0  0  0  0  0  0  0  0  0  0  0  0
   44.7070   11.1290   32.3320 O   0  0  0  0  0  0  0  0  0  0  0  0
   43.7800   13.1740   32.5230 N   0  0  0  0  0  0  0  0  0  0  0  0
   43.6810   13.1430   33.9710 C   0  0  2  0  0  0  0  0  0  0  0  0
   42.7480   14.2720   34.3850 C   0  0  0  0  0  0  0  0  0  0  0  0
   42.5560   15.2270   33.6290 O   0  0  0  0  0  0  0  0  0  0  0  0
   45.0610   13.3310   34.5980 C   0  0  0  0  0  0  0  0  0  0  0  0
   45.0660   12.9480   35.9660 O   0  0  0  0  0  0  0  0  0  0  0  0
   42.1530   14.1560   35.5690 N   0  0  0  0  0  0  0  0  0  0  0  0
   41.2620   15.1850   36.0710 C   0  0  0  0  0  0  0  0  0  0  0  0
   45.4024    3.9138   22.8556 H   0  0  0  0  0  0  0  0  0  0  0  0
   45.5196    3.1182   24.4068 H   0  0  0  0  0  0  0  0  0  0  0  0
   46.6915    4.3340   23.9577 H   0  0  0  0  0  0  0  0  0  0  0  0
   45.7164    4.9056   26.2694 H   0  0  0  0  0  0  0  0  0  0  0  0
   43.5911    5.8802   27.2045 H   0  0  0  0  0  0  0  0  0  0  0  0
   43.5577    6.8574   25.7601 H   0  0  0  0  0  0  0  0  0  0  0  0
   43.7769    8.8428   26.7959 H   0  0  0  0  0  0  0  0  0  0  0  0
   46.0210    9.1118   28.6468 H   0  0  0  0  0  0  0  0  0  0  0  0
   46.8340   11.1417   27.5554 H   0  0  0  0  0  0  0  0  0  0  0  0
   46.8843    9.7840   26.4448 H   0  0  0  0  0  0  0  0  0  0  0  0
   44.8482   11.7604   26.5671 H   0  0  0  0  0  0  0  0  0  0  0  0
   46.0327   11.3073   29.7409 H   0  0  0  0  0  0  0  0  0  0  0  0
   43.2896   12.3488   29.9629 H   0  0  0  0  0  0  0  0  0  0  0  0
   44.7729   13.3161   30.1363 H   0  0  0  0  0  0  0  0  0  0  0  0
   43.4607   13.9728   32.0443 H   0  0  0  0  0  0  0  0  0  0  0  0
   43.2997   12.2010   34.3058 H   0  0  0  0  0  0  0  0  0  0  0  0
   45.3394   14.3615   34.5241 H   0  0  0  0  0  0  0  0  0  0  0  0
   45.7567   12.7108   34.0724 H   0  0  0  0  0  0  0  0  0  0  0  0
   44.4397   13.5009   36.4589 H   0  0  0  0  0  0  0  0  0  0  0  0
   42.3208   13.3550   36.1162 H   0  0  0  0  0  0  0  0  0  0  0  0
   41.1935   15.9776   35.3555 H   0  0  0  0  0  0  0  0  0  0  0  0
   41.6447   15.5692   36.9934 H   0  0  0  0  0  0  0  0  0  0  0  0
   40.2906   14.7671   36.2344 H   0  0  0  0  0  0  0  0  0  0  0  0
  1  2  1  0  0  0  0
  1 26  1  0  0  0  0
  1 27  1  0  0  0  0
  1 28  1  0  0  0  0
  2  4  1  0  0  0  0
  3  2  2  0  0  0  0
  4  5  1  0  0  0  0
  4 29  1  0  0  0  0
  5  6  1  0  0  0  0
  5 30  1  0  0  0  0
  5 31  1  0  0  0  0
  6  8  1  0  0  0  0
  6  7  2  0  0  0  0
  8  9  1  0  0  0  0
  8 32  1  0  0  0  0
  9 10  1  0  0  0  0
  9 33  1  1  0  0  0
 10 14  1  0  0  0  0
 11 10  2  0  0  0  0
 12  9  1  0  0  0  0
 12 34  1  0  0  0  0
 12 35  1  0  0  0  0
 13 12  1  0  0  0  0
 13 36  1  0  0  0  0
 14 15  1  0  0  0  0
 14 37  1  0  0  0  0
 15 16  1  0  0  0  0
 15 38  1  0  0  0  0
 15 39  1  0  0  0  0
 16 17  2  0  0  0  0
 16 18  1  0  0  0  0
 18 19  1  0  0  0  0
 18 40  1  0  0  0  0
 19 20  1  0  0  0  0
 19 22  1  0  0  0  0
 19 41  1  1  0  0  0
 20 24  1  0  0  0  0
 21 20  2  0  0  0  0
 22 23  1  0  0  0  0
 22 42  1  0  0  0  0
 22 43  1  0  0  0  0
 23 44  1  0  0  0  0
 24 25  1  0  0  0  0
 24 45  1  0  0  0  0
 25 46  1  0  0  0  0
 25 47  1  0  0  0  0
 25 48  1  0  0  0  0
M  END
>  <MODEL>
       0

$$$$
selected_4mers/GSGS/717_noH.pdb
 OpenBabel03042518353D

 48 47  0  0  1  0  0  0  0  0999 V2000
   11.9330   78.1630  -15.3140 C   0  0  0  0  0  0  0  0  0  0  0  0
   12.8960   77.6760  -16.3820 C   0  0  0  0  0  0  0  0  0  0  0  0
   12.8960   76.4900  -16.7260 O   0  0  0  0  0  0  0  0  0  0  0  0
   13.7290   78.5860  -16.8930 N   0  0  0  0  0  0  0  0  0  0  0  0
   14.7190   78.2340  -17.9100 C   0  0  0  0  0  0  0  0  0  0  0  0
   14.0980   77.5310  -19.0990 C   0  0  0  0  0  0  0  0  0  0  0  0
   13.0640   77.9630  -19.6170 O   0  0  0  0  0  0  0  0  0  0  0  0
   14.7170   76.4290  -19.5240 N   0  0  0  0  0  0  0  0  0  0  0  0
   14.2100   75.6580  -20.6550 C   0  0  2  0  0  0  0  0  0  0  0  0
   12.9160   74.9020  -20.3340 C   0  0  0  0  0  0  0  0  0  0  0  0
   12.3290   74.2700  -21.2160 O   0  0  0  0  0  0  0  0  0  0  0  0
   15.2780   74.7060  -21.1970 C   0  0  0  0  0  0  0  0  0  0  0  0
   16.1710   75.4010  -22.0680 O   0  0  0  0  0  0  0  0  0  0  0  0
   12.4800   74.9640  -19.0750 N   0  0  0  0  0  0  0  0  0  0  0  0
   11.1450   74.4860  -18.6900 C   0  0  0  0  0  0  0  0  0  0  0  0
   10.0540   75.1200  -19.5440 C   0  0  0  0  0  0  0  0  0  0  0  0
    9.0000   74.5320  -19.7680 O   0  0  0  0  0  0  0  0  0  0  0  0
   10.3210   76.3190  -20.0610 N   0  0  0  0  0  0  0  0  0  0  0  0
    9.3390   77.0020  -20.8990 C   0  0  2  0  0  0  0  0  0  0  0  0
    8.9880   76.2210  -22.1840 C   0  0  0  0  0  0  0  0  0  0  0  0
    7.9290   76.4420  -22.7580 O   0  0  0  0  0  0  0  0  0  0  0  0
    9.7810   78.4400  -21.2020 C   0  0  0  0  0  0  0  0  0  0  0  0
   10.9370   78.4380  -22.0170 O   0  0  0  0  0  0  0  0  0  0  0  0
    9.8660   75.3080  -22.6200 N   0  0  0  0  0  0  0  0  0  0  0  0
    9.5490   74.4080  -23.7460 C   0  0  0  0  0  0  0  0  0  0  0  0
   12.0802   79.2104  -15.1518 H   0  0  0  0  0  0  0  0  0  0  0  0
   12.1131   77.6322  -14.4026 H   0  0  0  0  0  0  0  0  0  0  0  0
   10.9271   77.9897  -15.6349 H   0  0  0  0  0  0  0  0  0  0  0  0
   13.6753   79.5169  -16.5772 H   0  0  0  0  0  0  0  0  0  0  0  0
   15.1957   79.1294  -18.2504 H   0  0  0  0  0  0  0  0  0  0  0  0
   15.4218   77.5621  -17.4634 H   0  0  0  0  0  0  0  0  0  0  0  0
   15.5343   76.1287  -19.0646 H   0  0  0  0  0  0  0  0  0  0  0  0
   13.9667   76.3685  -21.4172 H   0  0  0  0  0  0  0  0  0  0  0  0
   15.8321   74.2957  -20.3788 H   0  0  0  0  0  0  0  0  0  0  0  0
   14.7977   73.9233  -21.7462 H   0  0  0  0  0  0  0  0  0  0  0  0
   16.6114   76.1132  -21.5783 H   0  0  0  0  0  0  0  0  0  0  0  0
   13.0702   75.3412  -18.3832 H   0  0  0  0  0  0  0  0  0  0  0  0
   11.1081   73.4236  -18.8121 H   0  0  0  0  0  0  0  0  0  0  0  0
   10.9729   74.7598  -17.6700 H   0  0  0  0  0  0  0  0  0  0  0  0
   11.1877   76.7480  -19.8764 H   0  0  0  0  0  0  0  0  0  0  0  0
    8.4311   77.0471  -20.3345 H   0  0  0  0  0  0  0  0  0  0  0  0
    8.9913   78.9519  -21.7111 H   0  0  0  0  0  0  0  0  0  0  0  0
   10.0060   78.9358  -20.2809 H   0  0  0  0  0  0  0  0  0  0  0  0
   10.7412   77.9899  -22.8547 H   0  0  0  0  0  0  0  0  0  0  0  0
   10.7432   75.2357  -22.1790 H   0  0  0  0  0  0  0  0  0  0  0  0
    8.5636   74.6197  -24.1053 H   0  0  0  0  0  0  0  0  0  0  0  0
    9.5972   73.3917  -23.4148 H   0  0  0  0  0  0  0  0  0  0  0  0
   10.2564   74.5602  -24.5343 H   0  0  0  0  0  0  0  0  0  0  0  0
  1 26  1  0  0  0  0
  1 27  1  0  0  0  0
  1 28  1  0  0  0  0
  2  1  1  0  0  0  0
  3  2  2  0  0  0  0
  4  2  1  0  0  0  0
  4 29  1  0  0  0  0
  5  4  1  0  0  0  0
  5 30  1  0  0  0  0
  5 31  1  0  0  0  0
  6  5  1  0  0  0  0
  7  6  2  0  0  0  0
  8  6  1  0  0  0  0
  8 32  1  0  0  0  0
  9 10  1  0  0  0  0
  9  8  1  0  0  0  0
  9 33  1  6  0  0  0
 10 14  1  0  0  0  0
 11 10  2  0  0  0  0
 12  9  1  0  0  0  0
 12 34  1  0  0  0  0
 12 35  1  0  0  0  0
 13 12  1  0  0  0  0
 13 36  1  0  0  0  0
 14 15  1  0  0  0  0
 14 37  1  0  0  0  0
 15 38  1  0  0  0  0
 15 39  1  0  0  0  0
 16 15  1  0  0  0  0
 17 16  2  0  0  0  0
 18 16  1  0  0  0  0
 18 40  1  0  0  0  0
 19 18  1  0  0  0  0
 19 41  1  1  0  0  0
 20 19  1  0  0  0  0
 21 20  2  0  0  0  0
 22 19  1  0  0  0  0
 22 42  1  0  0  0  0
 22 43  1  0  0  0  0
 23 22  1  0  0  0  0
 23 44  1  0  0  0  0
 24 20  1  0  0  0  0
 24 45  1  0  0  0  0
 25 24  1  0  0  0  0
 25 46  1  0  0  0  0
 25 47  1  0  0  0  0
 25 48  1  0  0  0  0
M  END
>  <MODEL>
       0

$$$$
selected_4mers/GSGS/718_noH.pdb
 OpenBabel03042518353D

 48 47  0  0  1  0  0  0  0  0999 V2000
    3.6910   46.6770  110.4540 C   0  0  0  0  0  0  0  0  0  0  0  0
    4.5880   47.7740  109.9070 C   0  0  0  0  0  0  0  0  0  0  0  0
    5.5830   48.1490  110.5310 O   0  0  0  0  0  0  0  0  0  0  0  0
    4.2160   48.2700  108.7330 N   0  0  0  0  0  0  0  0  0  0  0  0
    4.9210   49.3680  108.0990 C   0  0  0  0  0  0  0  0  0  0  0  0
    3.8580   50.2420  107.4540 C   0  0  0  0  0  0  0  0  0  0  0  0
    3.0120   49.7410  106.7220 O   0  0  0  0  0  0  0  0  0  0  0  0
    3.8670   51.5440  107.7310 N   0  0  0  0  0  0  0  0  0  0  0  0
    2.8730   52.4180  107.1200 C   0  0  2  0  0  0  0  0  0  0  0  0
    2.9890   52.3790  105.6010 C   0  0  0  0  0  0  0  0  0  0  0  0
    4.0520   52.0670  105.0570 O   0  0  0  0  0  0  0  0  0  0  0  0
    3.0600   53.8570  107.6020 C   0  0  0  0  0  0  0  0  0  0  0  0
    2.5720   54.0100  108.9230 O   0  0  0  0  0  0  0  0  0  0  0  0
    1.8950   52.6740  104.9060 N   0  0  0  0  0  0  0  0  0  0  0  0
    1.9770   52.6750  103.4590 C   0  0  0  0  0  0  0  0  0  0  0  0
    1.0910   51.7820  102.6030 C   0  0  0  0  0  0  0  0  0  0  0  0
    0.6910   52.2320  101.5350 O   0  0  0  0  0  0  0  0  0  0  0  0
    0.7850   50.5410  102.9950 N   0  0  0  0  0  0  0  0  0  0  0  0
    1.2250   49.8960  104.2290 C   0  0  2  0  0  0  0  0  0  0  0  0
    1.4530   48.4090  103.9390 C   0  0  0  0  0  0  0  0  0  0  0  0
    0.9080   47.8650  102.9760 O   0  0  0  0  0  0  0  0  0  0  0  0
    0.1350   50.0110  105.2960 C   0  0  0  0  0  0  0  0  0  0  0  0
   -0.9930   49.2180  104.9450 O   0  0  0  0  0  0  0  0  0  0  0  0
    2.2450   47.7590  104.7830 N   0  0  0  0  0  0  0  0  0  0  0  0
    2.5240   46.3320  104.6490 C   0  0  0  0  0  0  0  0  0  0  0  0
    2.8882   46.4983  109.7695 H   0  0  0  0  0  0  0  0  0  0  0  0
    3.2926   46.9804  111.3996 H   0  0  0  0  0  0  0  0  0  0  0  0
    4.2603   45.7796  110.5782 H   0  0  0  0  0  0  0  0  0  0  0  0
    3.4355   47.8795  108.2774 H   0  0  0  0  0  0  0  0  0  0  0  0
    5.4680   49.9276  108.8288 H   0  0  0  0  0  0  0  0  0  0  0  0
    5.6238   49.0123  107.3748 H   0  0  0  0  0  0  0  0  0  0  0  0
    4.5413   51.9147  108.3452 H   0  0  0  0  0  0  0  0  0  0  0  0
    1.9034   52.0699  107.4091 H   0  0  0  0  0  0  0  0  0  0  0  0
    2.5257   54.5175  106.9515 H   0  0  0  0  0  0  0  0  0  0  0  0
    4.1042   54.0902  107.5919 H   0  0  0  0  0  0  0  0  0  0  0  0
    1.6250   53.8009  108.9441 H   0  0  0  0  0  0  0  0  0  0  0  0
    1.0494   52.8867  105.3632 H   0  0  0  0  0  0  0  0  0  0  0  0
    1.7800   53.6797  103.1480 H   0  0  0  0  0  0  0  0  0  0  0  0
    2.9484   52.2603  103.2876 H   0  0  0  0  0  0  0  0  0  0  0  0
    0.2094   50.0128  102.3959 H   0  0  0  0  0  0  0  0  0  0  0  0
    2.1208   50.3658  104.5778 H   0  0  0  0  0  0  0  0  0  0  0  0
   -0.1669   51.0339  105.3818 H   0  0  0  0  0  0  0  0  0  0  0  0
    0.5262   49.6618  106.2287 H   0  0  0  0  0  0  0  0  0  0  0  0
   -1.3552   49.5271  104.0999 H   0  0  0  0  0  0  0  0  0  0  0  0
    2.6587   48.2564  105.5251 H   0  0  0  0  0  0  0  0  0  0  0  0
    2.0020   45.9448  103.7990 H   0  0  0  0  0  0  0  0  0  0  0  0
    2.1986   45.8206  105.5308 H   0  0  0  0  0  0  0  0  0  0  0  0
    3.5758   46.1849  104.5190 H   0  0  0  0  0  0  0  0  0  0  0  0
  1 26  1  0  0  0  0
  1 27  1  0  0  0  0
  1 28  1  0  0  0  0
  2  1  1  0  0  0  0
  2  3  2  0  0  0  0
  4  2  1  0  0  0  0
  4 29  1  0  0  0  0
  5  4  1  0  0  0  0
  5 30  1  0  0  0  0
  5 31  1  0  0  0  0
  6  8  1  0  0  0  0
  6  5  1  0  0  0  0
  7  6  2  0  0  0  0
  8 32  1  0  0  0  0
  9 12  1  0  0  0  0
  9  8  1  0  0  0  0
  9 33  1  1  0  0  0
 10  9  1  0  0  0  0
 11 10  2  0  0  0  0
 12 13  1  0  0  0  0
 12 34  1  0  0  0  0
 12 35  1  0  0  0  0
 13 36  1  0  0  0  0
 14 10  1  0  0  0  0
 14 37  1  0  0  0  0
 15 14  1  0  0  0  0
 15 38  1  0  0  0  0
 15 39  1  0  0  0  0
 16 18  1  0  0  0  0
 16 15  1  0  0  0  0
 17 16  2  0  0  0  0
 18 19  1  0  0  0  0
 18 40  1  0  0  0  0
 19 22  1  0  0  0  0
 19 41  1  1  0  0  0
 20 19  1  0  0  0  0
 20 24  1  0  0  0  0
 21 20  2  0  0  0  0
 22 42  1  0  0  0  0
 22 43  1  0  0  0  0
 23 22  1  0  0  0  0
 23 44  1  0  0  0  0
 24 45  1  0  0  0  0
 25 24  1  0  0  0  0
 25 46  1  0  0  0  0
 25 47  1  0  0  0  0
 25 48  1  0  0  0  0
M  END
>  <MODEL>
       0

$$$$
selected_4mers/GSGS/719_noH.pdb
 OpenBabel03042518353D

 48 47  0  0  1  0  0  0  0  0999 V2000
   56.8290   17.4120   23.7640 C   0  0  0  0  0  0  0  0  0  0  0  0
   56.4970   16.1540   24.5650 C   0  0  0  0  0  0  0  0  0  0  0  0
   55.3170   15.8610   24.8380 O   0  0  0  0  0  0  0  0  0  0  0  0
   57.5470   15.4210   24.9530 N   0  0  0  0  0  0  0  0  0  0  0  0
   57.4080   14.1130   25.5810 C   0  0  0  0  0  0  0  0  0  0  0  0
   57.3120   12.9990   24.5550 C   0  0  0  0  0  0  0  0  0  0  0  0
   57.8390   13.1210   23.4480 O   0  0  0  0  0  0  0  0  0  0  0  0
   56.6470   11.9070   24.9220 N   0  0  0  0  0  0  0  0  0  0  0  0
   56.5180   10.7480   24.0280 C   0  0  2  0  0  0  0  0  0  0  0  0
   55.4690   10.9210   22.9180 C   0  0  0  0  0  0  0  0  0  0  0  0
   55.4740   10.1570   21.9410 O   0  0  0  0  0  0  0  0  0  0  0  0
   56.1500    9.5020   24.8290 C   0  0  0  0  0  0  0  0  0  0  0  0
   54.8040    9.5940   25.2530 O   0  0  0  0  0  0  0  0  0  0  0  0
   54.5650   11.8870   23.0730 N   0  0  0  0  0  0  0  0  0  0  0  0
   53.4230   12.0380   22.1630 C   0  0  0  0  0  0  0  0  0  0  0  0
   52.2180   11.1260   22.4060 C   0  0  0  0  0  0  0  0  0  0  0  0
   51.2650   11.1590   21.6220 O   0  0  0  0  0  0  0  0  0  0  0  0
   52.2350   10.3370   23.4910 N   0  0  0  0  0  0  0  0  0  0  0  0
   51.0960    9.4870   23.8530 C   0  0  2  0  0  0  0  0  0  0  0  0
   49.9450   10.2340   24.5470 C   0  0  0  0  0  0  0  0  0  0  0  0
   48.8410    9.6960   24.6750 O   0  0  0  0  0  0  0  0  0  0  0  0
   51.5660    8.3330   24.7530 C   0  0  0  0  0  0  0  0  0  0  0  0
   51.9920    8.7970   26.0320 O   0  0  0  0  0  0  0  0  0  0  0  0
   50.1840   11.4610   25.0050 N   0  0  0  0  0  0  0  0  0  0  0  0
   49.1130   12.2820   25.5880 C   0  0  0  0  0  0  0  0  0  0  0  0
   55.9233   17.9201   23.5063 H   0  0  0  0  0  0  0  0  0  0  0  0
   57.3512   17.1387   22.8709 H   0  0  0  0  0  0  0  0  0  0  0  0
   57.4450   18.0581   24.3538 H   0  0  0  0  0  0  0  0  0  0  0  0
   58.4520   15.7804   24.8081 H   0  0  0  0  0  0  0  0  0  0  0  0
   58.2596   13.9365   26.2044 H   0  0  0  0  0  0  0  0  0  0  0  0
   56.5040   14.1148   26.1535 H   0  0  0  0  0  0  0  0  0  0  0  0
   56.2313   11.8745   25.8139 H   0  0  0  0  0  0  0  0  0  0  0  0
   57.4742   10.6508   23.5578 H   0  0  0  0  0  0  0  0  0  0  0  0
   56.7888    9.4262   25.6840 H   0  0  0  0  0  0  0  0  0  0  0  0
   56.2716    8.6345   24.2146 H   0  0  0  0  0  0  0  0  0  0  0  0
   54.6935   10.3804   25.8100 H   0  0  0  0  0  0  0  0  0  0  0  0
   54.6659   12.5192   23.8209 H   0  0  0  0  0  0  0  0  0  0  0  0
   53.0826   13.0497   22.2367 H   0  0  0  0  0  0  0  0  0  0  0  0
   53.7951   11.7575   21.1998 H   0  0  0  0  0  0  0  0  0  0  0  0
   53.0370   10.3284   24.0619 H   0  0  0  0  0  0  0  0  0  0  0  0
   50.7049    9.1185   22.9277 H   0  0  0  0  0  0  0  0  0  0  0  0
   52.3832    7.8331   24.2764 H   0  0  0  0  0  0  0  0  0  0  0  0
   50.7402    7.6684   24.8991 H   0  0  0  0  0  0  0  0  0  0  0  0
   52.7418    9.4026   25.9230 H   0  0  0  0  0  0  0  0  0  0  0  0
   51.0968   11.8260   24.9522 H   0  0  0  0  0  0  0  0  0  0  0  0
   48.1932   11.7357   25.5668 H   0  0  0  0  0  0  0  0  0  0  0  0
   49.0057   13.1832   25.0212 H   0  0  0  0  0  0  0  0  0  0  0  0
   49.3605   12.5247   26.6003 H   0  0  0  0  0  0  0  0  0  0  0  0
  1  2  1  0  0  0  0
  1 26  1  0  0  0  0
  1 27  1  0  0  0  0
  1 28  1  0  0  0  0
  2  3  2  0  0  0  0
  2  4  1  0  0  0  0
  4  5  1  0  0  0  0
  4 29  1  0  0  0  0
  5 30  1  0  0  0  0
  5 31  1  0  0  0  0
  6  8  1  0  0  0  0
  6  5  1  0  0  0  0
  7  6  2  0  0  0  0
  8 32  1  0  0  0  0
  9 12  1  0  0  0  0
  9  8  1  0  0  0  0
  9 33  1  6  0  0  0
 10 14  1  0  0  0  0
 10  9  1  0  0  0  0
 11 10  2  0  0  0  0
 12 13  1  0  0  0  0
 12 34  1  0  0  0  0
 12 35  1  0  0  0  0
 13 36  1  0  0  0  0
 14 37  1  0  0  0  0
 15 16  1  0  0  0  0
 15 14  1  0  0  0  0
 15 38  1  0  0  0  0
 15 39  1  0  0  0  0
 16 18  1  0  0  0  0
 17 16  2  0  0  0  0
 18 19  1  0  0  0  0
 18 40  1  0  0  0  0
 19 20  1  0  0  0  0
 19 22  1  0  0  0  0
 19 41  1  6  0  0  0
 20 21  2  0  0  0  0
 20 24  1  0  0  0  0
 22 23  1  0  0  0  0
 22 42  1  0  0  0  0
 22 43  1  0  0  0  0
 23 44  1  0  0  0  0
 24 25  1  0  0  0  0
 24 45  1  0  0  0  0
 25 46  1  0  0  0  0
 25 47  1  0  0  0  0
 25 48  1  0  0  0  0
M  END
>  <MODEL>
       0

$$$$
