selected_4mers/GTKL/745_noH.pdb
 OpenBabel03042518353D

 73 72  0  0  1  0  0  0  0  0999 V2000
   -4.3710   27.7120   44.9230 C   0  0  0  0  0  0  0  0  0  0  0  0
   -3.1690   27.5420   44.0130 C   0  0  0  0  0  0  0  0  0  0  0  0
   -3.3090   27.1030   42.8690 O   0  0  0  0  0  0  0  0  0  0  0  0
   -1.9930   27.8940   44.5170 N   0  0  0  0  0  0  0  0  0  0  0  0
   -0.7530   27.7150   43.7780 C   0  0  0  0  0  0  0  0  0  0  0  0
   -0.2900   28.9630   43.0560 C   0  0  0  0  0  0  0  0  0  0  0  0
   -1.1010   29.8070   42.6420 O   0  0  0  0  0  0  0  0  0  0  0  0
    1.0350   29.0610   42.9260 N   0  0  0  0  0  0  0  0  0  0  0  0
    1.7010   30.0400   42.0740 C   0  0  2  0  0  0  0  0  0  0  0  0
    2.4880   29.2600   41.0320 C   0  0  0  0  0  0  0  0  0  0  0  0
    3.3770   28.4850   41.3850 O   0  0  0  0  0  0  0  0  0  0  0  0
    2.6900   30.9180   42.8680 C   0  0  2  0  0  0  0  0  0  0  0  0
    1.9690   31.7860   43.7570 O   0  0  0  0  0  0  0  0  0  0  0  0
    3.5610   31.7440   41.9320 C   0  0  0  0  0  0  0  0  0  0  0  0
    2.1620   29.4700   39.7610 N   0  0  0  0  0  0  0  0  0  0  0  0
    2.8650   28.8210   38.6540 C   0  0  2  0  0  0  0  0  0  0  0  0
    4.0070   29.7310   38.2220 C   0  0  0  0  0  0  0  0  0  0  0  0
    3.7770   30.8530   37.7750 O   0  0  0  0  0  0  0  0  0  0  0  0
    1.9280   28.5600   37.4730 C   0  0  0  0  0  0  0  0  0  0  0  0
    2.5930   27.8800   36.2850 C   0  0  0  0  0  0  0  0  0  0  0  0
    1.5600   27.4620   35.2520 C   0  0  0  0  0  0  0  0  0  0  0  0
    2.0980   26.4130   34.2930 C   0  0  0  0  0  0  0  0  0  0  0  0
    0.9810   25.6530   33.6510 N   0  0  0  0  0  0  0  0  0  0  0  0
    5.2300   29.2360   38.3680 N   0  0  0  0  0  0  0  0  0  0  0  0
    6.4290   30.0120   38.0900 C   0  0  2  0  0  0  0  0  0  0  0  0
    7.0810   29.5140   36.8130 C   0  0  0  0  0  0  0  0  0  0  0  0
    7.3480   28.3130   36.6660 O   0  0  0  0  0  0  0  0  0  0  0  0
    7.4180   29.8870   39.2480 C   0  0  0  0  0  0  0  0  0  0  0  0
    8.6940   30.7110   39.1460 C   0  0  0  0  0  0  0  0  0  0  0  0
    8.3780   32.1950   39.0740 C   0  0  0  0  0  0  0  0  0  0  0  0
    9.5730   30.3770   40.3470 C   0  0  0  0  0  0  0  0  0  0  0  0
    7.3240   30.4460   35.9010 N   0  0  0  0  0  0  0  0  0  0  0  0
    8.0400   30.1780   34.6720 C   0  0  0  0  0  0  0  0  0  0  0  0
   -5.2550   27.3971   44.4088 H   0  0  0  0  0  0  0  0  0  0  0  0
   -4.4666   28.7413   45.1991 H   0  0  0  0  0  0  0  0  0  0  0  0
   -4.2392   27.1175   45.8028 H   0  0  0  0  0  0  0  0  0  0  0  0
   -1.9588   28.2883   45.4185 H   0  0  0  0  0  0  0  0  0  0  0  0
    0.0111   27.4197   44.4664 H   0  0  0  0  0  0  0  0  0  0  0  0
   -0.9383   26.9717   43.0309 H   0  0  0  0  0  0  0  0  0  0  0  0
    1.5970   28.4342   43.4364 H   0  0  0  0  0  0  0  0  0  0  0  0
    0.9651   30.6844   41.6403 H   0  0  0  0  0  0  0  0  0  0  0  0
    3.3266   30.2737   43.4377 H   0  0  0  0  0  0  0  0  0  0  0  0
    1.3917   32.3702   43.2409 H   0  0  0  0  0  0  0  0  0  0  0  0
    2.9423   32.3964   41.3520 H   0  0  0  0  0  0  0  0  0  0  0  0
    4.1016   31.0912   41.2790 H   0  0  0  0  0  0  0  0  0  0  0  0
    4.2513   32.3250   42.5071 H   0  0  0  0  0  0  0  0  0  0  0  0
    1.4205   30.0846   39.5568 H   0  0  0  0  0  0  0  0  0  0  0  0
    3.2386   27.8727   38.9797 H   0  0  0  0  0  0  0  0  0  0  0  0
    1.1277   27.9358   37.8117 H   0  0  0  0  0  0  0  0  0  0  0  0
    1.5926   29.5166   37.1305 H   0  0  0  0  0  0  0  0  0  0  0  0
    3.2844   28.5605   35.8336 H   0  0  0  0  0  0  0  0  0  0  0  0
    3.1025   27.0056   36.6325 H   0  0  0  0  0  0  0  0  0  0  0  0
    0.7082   27.0600   35.7597 H   0  0  0  0  0  0  0  0  0  0  0  0
    1.2997   28.3275   34.6793 H   0  0  0  0  0  0  0  0  0  0  0  0
    2.6750   26.8966   33.5327 H   0  0  0  0  0  0  0  0  0  0  0  0
    2.7061   25.7263   34.8439 H   0  0  0  0  0  0  0  0  0  0  0  0
    0.3923   26.2962   33.1216 H   0  0  0  0  0  0  0  0  0  0  0  0
    0.4225   25.1958   34.3717 H   0  0  0  0  0  0  0  0  0  0  0  0
    5.3298   28.3065   38.6768 H   0  0  0  0  0  0  0  0  0  0  0  0
    6.1537   31.0393   37.9728 H   0  0  0  0  0  0  0  0  0  0  0  0
    7.7012   28.8579   39.3235 H   0  0  0  0  0  0  0  0  0  0  0  0
    6.9016   30.2709   40.1029 H   0  0  0  0  0  0  0  0  0  0  0  0
    9.2185   30.4691   38.2453 H   0  0  0  0  0  0  0  0  0  0  0  0
    7.8501   32.4905   39.9566 H   0  0  0  0  0  0  0  0  0  0  0  0
    7.7718   32.3893   38.2140 H   0  0  0  0  0  0  0  0  0  0  0  0
    9.2895   32.7506   39.0007 H   0  0  0  0  0  0  0  0  0  0  0  0
    9.0507   30.6180   41.2492 H   0  0  0  0  0  0  0  0  0  0  0  0
   10.4779   30.9458   40.2959 H   0  0  0  0  0  0  0  0  0  0  0  0
    9.8070   29.3329   40.3384 H   0  0  0  0  0  0  0  0  0  0  0  0
    7.0028   31.3616   36.0676 H   0  0  0  0  0  0  0  0  0  0  0  0
    8.3200   29.1458   34.6402 H   0  0  0  0  0  0  0  0  0  0  0  0
    8.9186   30.7873   34.6310 H   0  0  0  0  0  0  0  0  0  0  0  0
    7.4107   30.4028   33.8363 H   0  0  0  0  0  0  0  0  0  0  0  0
  1 34  1  0  0  0  0
  1 35  1  0  0  0  0
  1 36  1  0  0  0  0
  2  4  1  0  0  0  0
  2  1  1  0  0  0  0
  3  2  2  0  0  0  0
  4 37  1  0  0  0  0
  5  4  1  0  0  0  0
  5 38  1  0  0  0  0
  5 39  1  0  0  0  0
  6  5  1  0  0  0  0
  7  6  2  0  0  0  0
  8  6  1  0  0  0  0
  8 40  1  0  0  0  0
  9 12  1  0  0  0  0
  9  8  1  0  0  0  0
  9 41  1  6  0  0  0
 10 11  2  0  0  0  0
 10  9  1  0  0  0  0
 12 13  1  0  0  0  0
 12 42  1  1  0  0  0
 13 43  1  0  0  0  0
 14 12  1  0  0  0  0
 14 44  1  0  0  0  0
 14 45  1  0  0  0  0
 14 46  1  0  0  0  0
 15 10  1  0  0  0  0
 15 47  1  0  0  0  0
 16 15  1  0  0  0  0
 16 48  1  1  0  0  0
 17 24  1  0  0  0  0
 17 16  1  0  0  0  0
 18 17  2  0  0  0  0
 19 16  1  0  0  0  0
 19 49  1  0  0  0  0
 19 50  1  0  0  0  0
 20 19  1  0  0  0  0
 20 51  1  0  0  0  0
 20 52  1  0  0  0  0
 21 20  1  0  0  0  0
 21 53  1  0  0  0  0
 21 54  1  0  0  0  0
 22 21  1  0  0  0  0
 22 55  1  0  0  0  0
 22 56  1  0  0  0  0
 23 22  1  0  0  0  0
 23 57  1  0  0  0  0
 23 58  1  0  0  0  0
 24 59  1  0  0  0  0
 25 24  1  0  0  0  0
 25 28  1  0  0  0  0
 25 60  1  6  0  0  0
 26 25  1  0  0  0  0
 27 26  2  0  0  0  0
 28 61  1  0  0  0  0
 28 62  1  0  0  0  0
 29 28  1  0  0  0  0
 29 31  1  0  0  0  0
 29 63  1  0  0  0  0
 30 29  1  0  0  0  0
 30 64  1  0  0  0  0
 30 65  1  0  0  0  0
 30 66  1  0  0  0  0
 31 67  1  0  0  0  0
 31 68  1  0  0  0  0
 31 69  1  0  0  0  0
 32 26  1  0  0  0  0
 32 70  1  0  0  0  0
 33 32  1  0  0  0  0
 33 71  1  0  0  0  0
 33 72  1  0  0  0  0
 33 73  1  0  0  0  0
M  END
>  <MODEL>
       0

$$$$
selected_4mers/GTKL/746_noH.pdb
 OpenBabel03042518353D

 73 72  0  0  1  0  0  0  0  0999 V2000
   71.2050   30.4910   27.5100 C   0  0  0  0  0  0  0  0  0  0  0  0
   70.9970   29.8440   26.1640 C   0  0  0  0  0  0  0  0  0  0  0  0
   71.2140   30.4860   25.1100 O   0  0  0  0  0  0  0  0  0  0  0  0
   70.5650   28.5860   26.1300 N   0  0  0  0  0  0  0  0  0  0  0  0
   70.2450   27.9680   24.8560 C   0  0  0  0  0  0  0  0  0  0  0  0
   71.3670   27.1200   24.2920 C   0  0  0  0  0  0  0  0  0  0  0  0
   72.5510   27.4360   24.4320 O   0  0  0  0  0  0  0  0  0  0  0  0
   70.9870   26.0140   23.6630 N   0  0  0  0  0  0  0  0  0  0  0  0
   71.9150   25.1610   22.9230 C   0  0  2  0  0  0  0  0  0  0  0  0
   71.3760   25.0380   21.5040 C   0  0  0  0  0  0  0  0  0  0  0  0
   70.2210   24.5970   21.3310 O   0  0  0  0  0  0  0  0  0  0  0  0
   72.0420   23.7430   23.5150 C   0  0  2  0  0  0  0  0  0  0  0  0
   72.7080   23.8520   24.7760 O   0  0  0  0  0  0  0  0  0  0  0  0
   72.8130   22.8070   22.6030 C   0  0  0  0  0  0  0  0  0  0  0  0
   72.1670   25.4570   20.5160 N   0  0  0  0  0  0  0  0  0  0  0  0
   71.6660   25.3700   19.1410 C   0  0  2  0  0  0  0  0  0  0  0  0
   71.9960   24.0270   18.5000 C   0  0  0  0  0  0  0  0  0  0  0  0
   73.1790   23.6900   18.4470 O   0  0  0  0  0  0  0  0  0  0  0  0
   72.2770   26.5150   18.3540 C   0  0  0  0  0  0  0  0  0  0  0  0
   71.7560   26.5830   16.9290 C   0  0  0  0  0  0  0  0  0  0  0  0
   72.3410   27.8490   16.2650 C   0  0  0  0  0  0  0  0  0  0  0  0
   72.7040   27.4420   14.8510 C   0  0  0  0  0  0  0  0  0  0  0  0
   71.4700   27.6170   14.0050 N   0  0  0  0  0  0  0  0  0  0  0  0
   70.9930   23.3070   18.0220 N   0  0  0  0  0  0  0  0  0  0  0  0
   71.1460   22.0430   17.3090 C   0  0  2  0  0  0  0  0  0  0  0  0
   71.2110   22.3520   15.8190 C   0  0  0  0  0  0  0  0  0  0  0  0
   70.2530   22.8960   15.2490 O   0  0  0  0  0  0  0  0  0  0  0  0
   69.9870   21.0700   17.5710 C   0  0  0  0  0  0  0  0  0  0  0  0
   70.0600   19.7130   16.8460 C   0  0  0  0  0  0  0  0  0  0  0  0
   71.2510   18.8830   17.3230 C   0  0  0  0  0  0  0  0  0  0  0  0
   68.7950   18.9120   17.0960 C   0  0  0  0  0  0  0  0  0  0  0  0
   72.3340   22.0080   15.1920 N   0  0  0  0  0  0  0  0  0  0  0  0
   72.5000   22.1190   13.7550 C   0  0  0  0  0  0  0  0  0  0  0  0
   71.5513   31.4942   27.3738 H   0  0  0  0  0  0  0  0  0  0  0  0
   71.9318   29.9350   28.0645 H   0  0  0  0  0  0  0  0  0  0  0  0
   70.2795   30.5029   28.0469 H   0  0  0  0  0  0  0  0  0  0  0  0
   70.4627   28.0761   26.9659 H   0  0  0  0  0  0  0  0  0  0  0  0
   69.3850   27.3454   24.9890 H   0  0  0  0  0  0  0  0  0  0  0  0
   70.0710   28.7607   24.1587 H   0  0  0  0  0  0  0  0  0  0  0  0
   70.0373   25.7569   23.6966 H   0  0  0  0  0  0  0  0  0  0  0  0
   72.8863   25.6077   22.9675 H   0  0  0  0  0  0  0  0  0  0  0  0
   71.0629   23.3267   23.6285 H   0  0  0  0  0  0  0  0  0  0  0  0
   73.5909   24.2313   24.6436 H   0  0  0  0  0  0  0  0  0  0  0  0
   73.8038   23.1846   22.4597 H   0  0  0  0  0  0  0  0  0  0  0  0
   72.3163   22.7409   21.6576 H   0  0  0  0  0  0  0  0  0  0  0  0
   72.8625   21.8355   23.0486 H   0  0  0  0  0  0  0  0  0  0  0  0
   73.0642   25.8155   20.7049 H   0  0  0  0  0  0  0  0  0  0  0  0
   70.5986   25.4448   19.1422 H   0  0  0  0  0  0  0  0  0  0  0  0
   72.0441   27.4346   18.8490 H   0  0  0  0  0  0  0  0  0  0  0  0
   73.3333   26.3507   18.3070 H   0  0  0  0  0  0  0  0  0  0  0  0
   72.0654   25.7134   16.3877 H   0  0  0  0  0  0  0  0  0  0  0  0
   70.6868   26.6230   16.9264 H   0  0  0  0  0  0  0  0  0  0  0  0
   71.6133   28.6333   16.2520 H   0  0  0  0  0  0  0  0  0  0  0  0
   73.1913   28.2176   16.7998 H   0  0  0  0  0  0  0  0  0  0  0  0
   73.4926   28.0639   14.4818 H   0  0  0  0  0  0  0  0  0  0  0  0
   73.0420   26.4272   14.8234 H   0  0  0  0  0  0  0  0  0  0  0  0
   71.1652   28.5896   14.0454 H   0  0  0  0  0  0  0  0  0  0  0  0
   70.7275   27.0131   14.3577 H   0  0  0  0  0  0  0  0  0  0  0  0
   70.0795   23.6484   18.1571 H   0  0  0  0  0  0  0  0  0  0  0  0
   72.0386   21.5671   17.6577 H   0  0  0  0  0  0  0  0  0  0  0  0
   69.9548   20.8766   18.6229 H   0  0  0  0  0  0  0  0  0  0  0  0
   69.1144   21.5540   17.1847 H   0  0  0  0  0  0  0  0  0  0  0  0
   70.1715   19.9220   15.8026 H   0  0  0  0  0  0  0  0  0  0  0  0
   71.1434   18.6716   18.3664 H   0  0  0  0  0  0  0  0  0  0  0  0
   72.1555   19.4315   17.1616 H   0  0  0  0  0  0  0  0  0  0  0  0
   71.2881   17.9647   16.7750 H   0  0  0  0  0  0  0  0  0  0  0  0
   68.7002   18.7126   18.1430 H   0  0  0  0  0  0  0  0  0  0  0  0
   68.8466   17.9873   16.5601 H   0  0  0  0  0  0  0  0  0  0  0  0
   67.9466   19.4714   16.7612 H   0  0  0  0  0  0  0  0  0  0  0  0
   73.0849   21.6631   15.7271 H   0  0  0  0  0  0  0  0  0  0  0  0
   71.6020   22.5067   13.3211 H   0  0  0  0  0  0  0  0  0  0  0  0
   72.7064   21.1528   13.3441 H   0  0  0  0  0  0  0  0  0  0  0  0
   73.3140   22.7794   13.5399 H   0  0  0  0  0  0  0  0  0  0  0  0
  1 34  1  0  0  0  0
  1 35  1  0  0  0  0
  1 36  1  0  0  0  0
  2  1  1  0  0  0  0
  3  2  2  0  0  0  0
  4  2  1  0  0  0  0
  4 37  1  0  0  0  0
  5  4  1  0  0  0  0
  5 38  1  0  0  0  0
  5 39  1  0  0  0  0
  6  7  2  0  0  0  0
  6  5  1  0  0  0  0
  8  6  1  0  0  0  0
  8 40  1  0  0  0  0
  9 12  1  0  0  0  0
  9  8  1  0  0  0  0
  9 41  1  6  0  0  0
 10  9  1  0  0  0  0
 11 10  2  0  0  0  0
 12 13  1  0  0  0  0
 12 42  1  1  0  0  0
 13 43  1  0  0  0  0
 14 12  1  0  0  0  0
 14 44  1  0  0  0  0
 14 45  1  0  0  0  0
 14 46  1  0  0  0  0
 15 10  1  0  0  0  0
 15 47  1  0  0  0  0
 16 15  1  0  0  0  0
 16 48  1  1  0  0  0
 17 16  1  0  0  0  0
 18 17  2  0  0  0  0
 19 16  1  0  0  0  0
 19 49  1  0  0  0  0
 19 50  1  0  0  0  0
 20 19  1  0  0  0  0
 20 51  1  0  0  0  0
 20 52  1  0  0  0  0
 21 20  1  0  0  0  0
 21 53  1  0  0  0  0
 21 54  1  0  0  0  0
 22 21  1  0  0  0  0
 22 55  1  0  0  0  0
 22 56  1  0  0  0  0
 23 22  1  0  0  0  0
 23 57  1  0  0  0  0
 23 58  1  0  0  0  0
 24 17  1  0  0  0  0
 24 59  1  0  0  0  0
 25 28  1  0  0  0  0
 25 24  1  0  0  0  0
 25 60  1  1  0  0  0
 26 25  1  0  0  0  0
 27 26  2  0  0  0  0
 28 61  1  0  0  0  0
 28 62  1  0  0  0  0
 29 31  1  0  0  0  0
 29 30  1  0  0  0  0
 29 28  1  0  0  0  0
 29 63  1  0  0  0  0
 30 64  1  0  0  0  0
 30 65  1  0  0  0  0
 30 66  1  0  0  0  0
 31 67  1  0  0  0  0
 31 68  1  0  0  0  0
 31 69  1  0  0  0  0
 32 26  1  0  0  0  0
 32 70  1  0  0  0  0
 33 32  1  0  0  0  0
 33 71  1  0  0  0  0
 33 72  1  0  0  0  0
 33 73  1  0  0  0  0
M  END
>  <MODEL>
       0

$$$$
selected_4mers/GTKL/747_noH.pdb
 OpenBabel03042518353D

 73 72  0  0  1  0  0  0  0  0999 V2000
   13.5450   18.3170   -2.3190 C   0  0  0  0  0  0  0  0  0  0  0  0
   14.2720   16.9740   -2.3260 C   0  0  0  0  0  0  0  0  0  0  0  0
   13.8250   16.0050   -2.9530 O   0  0  0  0  0  0  0  0  0  0  0  0
   15.4330   16.9190   -1.6710 N   0  0  0  0  0  0  0  0  0  0  0  0
   16.1970   15.6770   -1.6740 C   0  0  0  0  0  0  0  0  0  0  0  0
   17.4980   15.8860   -0.9170 C   0  0  0  0  0  0  0  0  0  0  0  0
   18.0390   16.9960   -0.8610 O   0  0  0  0  0  0  0  0  0  0  0  0
   17.9940   14.8020   -0.3490 N   0  0  0  0  0  0  0  0  0  0  0  0
   19.3090   14.7820    0.2860 C   0  0  2  0  0  0  0  0  0  0  0  0
   20.0930   13.6020   -0.2280 C   0  0  0  0  0  0  0  0  0  0  0  0
   19.5510   12.5700   -0.6270 O   0  0  0  0  0  0  0  0  0  0  0  0
   19.2230   14.6800    1.8210 C   0  0  2  0  0  0  0  0  0  0  0  0
   18.5650   13.4680    2.1800 O   0  0  0  0  0  0  0  0  0  0  0  0
   18.4360   15.8410    2.4180 C   0  0  0  0  0  0  0  0  0  0  0  0
   21.4050   13.7700   -0.2180 N   0  0  0  0  0  0  0  0  0  0  0  0
   22.3000   12.6730   -0.5270 C   0  0  2  0  0  0  0  0  0  0  0  0
   23.5270   12.8040    0.3580 C   0  0  0  0  0  0  0  0  0  0  0  0
   24.1140   13.8980    0.4680 O   0  0  0  0  0  0  0  0  0  0  0  0
   22.6860   12.6770   -2.0100 C   0  0  0  0  0  0  0  0  0  0  0  0
   23.6480   11.5500   -2.3740 C   0  0  0  0  0  0  0  0  0  0  0  0
   22.9760   10.2420   -2.5980 C   0  0  0  0  0  0  0  0  0  0  0  0
   22.4200   10.2090   -4.0280 C   0  0  0  0  0  0  0  0  0  0  0  0
   21.1910    9.3930   -4.1820 N   0  0  0  0  0  0  0  0  0  0  0  0
   23.8850   11.7070    1.0040 N   0  0  0  0  0  0  0  0  0  0  0  0
   25.0400   11.6580    1.9230 C   0  0  2  0  0  0  0  0  0  0  0  0
   26.0810   10.6600    1.4200 C   0  0  0  0  0  0  0  0  0  0  0  0
   25.7200    9.5740    0.9320 O   0  0  0  0  0  0  0  0  0  0  0  0
   24.5770   11.2460    3.3230 C   0  0  0  0  0  0  0  0  0  0  0  0
   23.3590   11.9820    3.8690 C   0  0  0  0  0  0  0  0  0  0  0  0
   23.0650   11.4390    5.2650 C   0  0  0  0  0  0  0  0  0  0  0  0
   23.5370   13.5460    3.8460 C   0  0  0  0  0  0  0  0  0  0  0  0
   27.3600   11.0030    1.5430 N   0  0  0  0  0  0  0  0  0  0  0  0
   28.4420   10.1180    1.1410 C   0  0  0  0  0  0  0  0  0  0  0  0
   12.6340   18.2323   -2.8737 H   0  0  0  0  0  0  0  0  0  0  0  0
   14.1680   19.0622   -2.7679 H   0  0  0  0  0  0  0  0  0  0  0  0
   13.3237   18.5975   -1.3104 H   0  0  0  0  0  0  0  0  0  0  0  0
   15.7706   17.7091   -1.1904 H   0  0  0  0  0  0  0  0  0  0  0  0
   16.4122   15.3921   -2.6827 H   0  0  0  0  0  0  0  0  0  0  0  0
   15.6273   14.9045   -1.2012 H   0  0  0  0  0  0  0  0  0  0  0  0
   17.4574   13.9766   -0.3538 H   0  0  0  0  0  0  0  0  0  0  0  0
   19.7910   15.7057    0.0424 H   0  0  0  0  0  0  0  0  0  0  0  0
   20.2221   14.7046    2.2031 H   0  0  0  0  0  0  0  0  0  0  0  0
   17.6634   13.4713    1.8222 H   0  0  0  0  0  0  0  0  0  0  0  0
   17.4347   15.8243    2.0411 H   0  0  0  0  0  0  0  0  0  0  0  0
   18.9034   16.7649    2.1481 H   0  0  0  0  0  0  0  0  0  0  0  0
   18.4175   15.7487    3.4838 H   0  0  0  0  0  0  0  0  0  0  0  0
   21.7790   14.6535    0.0027 H   0  0  0  0  0  0  0  0  0  0  0  0
   21.8120   11.7398   -0.3376 H   0  0  0  0  0  0  0  0  0  0  0  0
   21.7965   12.5695   -2.5950 H   0  0  0  0  0  0  0  0  0  0  0  0
   23.1838   13.6027   -2.2107 H   0  0  0  0  0  0  0  0  0  0  0  0
   24.1647   11.8227   -3.2704 H   0  0  0  0  0  0  0  0  0  0  0  0
   24.3114   11.4237   -1.5441 H   0  0  0  0  0  0  0  0  0  0  0  0
   23.6819    9.4484   -2.4684 H   0  0  0  0  0  0  0  0  0  0  0  0
   22.1786   10.1184   -1.8954 H   0  0  0  0  0  0  0  0  0  0  0  0
   22.1963   11.2124   -4.3246 H   0  0  0  0  0  0  0  0  0  0  0  0
   23.1706    9.7543   -4.6401 H   0  0  0  0  0  0  0  0  0  0  0  0
   20.4445    9.7919   -3.6128 H   0  0  0  0  0  0  0  0  0  0  0  0
   21.3770    8.4374   -3.8777 H   0  0  0  0  0  0  0  0  0  0  0  0
   23.3583   10.8868    0.8662 H   0  0  0  0  0  0  0  0  0  0  0  0
   25.4812   12.6319    1.9638 H   0  0  0  0  0  0  0  0  0  0  0  0
   25.3899   11.4126    3.9986 H   0  0  0  0  0  0  0  0  0  0  0  0
   24.2801   10.2215    3.2381 H   0  0  0  0  0  0  0  0  0  0  0  0
   22.5165   11.8006    3.2348 H   0  0  0  0  0  0  0  0  0  0  0  0
   23.9057   11.6188    5.9020 H   0  0  0  0  0  0  0  0  0  0  0  0
   22.8802   10.3867    5.2068 H   0  0  0  0  0  0  0  0  0  0  0  0
   22.2030   11.9309    5.6648 H   0  0  0  0  0  0  0  0  0  0  0  0
   24.3681   13.8195    4.4620 H   0  0  0  0  0  0  0  0  0  0  0  0
   22.6485   14.0116    4.2185 H   0  0  0  0  0  0  0  0  0  0  0  0
   23.7154   13.8699    2.8419 H   0  0  0  0  0  0  0  0  0  0  0  0
   27.5819   11.8855    1.9187 H   0  0  0  0  0  0  0  0  0  0  0  0
   28.0334    9.2069    0.7565 H   0  0  0  0  0  0  0  0  0  0  0  0
   29.0598    9.9025    1.9876 H   0  0  0  0  0  0  0  0  0  0  0  0
   29.0288   10.5935    0.3831 H   0  0  0  0  0  0  0  0  0  0  0  0
  1 34  1  0  0  0  0
  1 35  1  0  0  0  0
  1 36  1  0  0  0  0
  2  1  1  0  0  0  0
  2  4  1  0  0  0  0
  3  2  2  0  0  0  0
  4 37  1  0  0  0  0
  5  4  1  0  0  0  0
  5  6  1  0  0  0  0
  5 38  1  0  0  0  0
  5 39  1  0  0  0  0
  6  7  2  0  0  0  0
  6  8  1  0  0  0  0
  8  9  1  0  0  0  0
  8 40  1  0  0  0  0
  9 12  1  0  0  0  0
  9 41  1  6  0  0  0
 10 15  1  0  0  0  0
 10  9  1  0  0  0  0
 11 10  2  0  0  0  0
 12 13  1  0  0  0  0
 12 14  1  0  0  0  0
 12 42  1  1  0  0  0
 13 43  1  0  0  0  0
 14 44  1  0  0  0  0
 14 45  1  0  0  0  0
 14 46  1  0  0  0  0
 15 47  1  0  0  0  0
 16 15  1  0  0  0  0
 16 17  1  0  0  0  0
 16 48  1  1  0  0  0
 17 18  2  0  0  0  0
 17 24  1  0  0  0  0
 19 16  1  0  0  0  0
 19 49  1  0  0  0  0
 19 50  1  0  0  0  0
 20 19  1  0  0  0  0
 20 51  1  0  0  0  0
 20 52  1  0  0  0  0
 21 20  1  0  0  0  0
 21 53  1  0  0  0  0
 21 54  1  0  0  0  0
 22 21  1  0  0  0  0
 22 55  1  0  0  0  0
 22 56  1  0  0  0  0
 23 22  1  0  0  0  0
 23 57  1  0  0  0  0
 23 58  1  0  0  0  0
 24 25  1  0  0  0  0
 24 59  1  0  0  0  0
 25 28  1  0  0  0  0
 25 60  1  1  0  0  0
 26 32  1  0  0  0  0
 26 25  1  0  0  0  0
 27 26  2  0  0  0  0
 28 29  1  0  0  0  0
 28 61  1  0  0  0  0
 28 62  1  0  0  0  0
 29 30  1  0  0  0  0
 29 63  1  0  0  0  0
 30 64  1  0  0  0  0
 30 65  1  0  0  0  0
 30 66  1  0  0  0  0
 31 29  1  0  0  0  0
 31 67  1  0  0  0  0
 31 68  1  0  0  0  0
 31 69  1  0  0  0  0
 32 70  1  0  0  0  0
 33 32  1  0  0  0  0
 33 71  1  0  0  0  0
 33 72  1  0  0  0  0
 33 73  1  0  0  0  0
M  END
>  <MODEL>
       0

$$$$
selected_4mers/GTKL/748_noH.pdb
 OpenBabel03042518353D

 73 72  0  0  1  0  0  0  0  0999 V2000
   13.2050   -4.4250   25.5380 C   0  0  0  0  0  0  0  0  0  0  0  0
   13.5330   -3.0180   25.0200 C   0  0  0  0  0  0  0  0  0  0  0  0
   14.6730   -2.5490   25.1520 O   0  0  0  0  0  0  0  0  0  0  0  0
   12.5450   -2.3610   24.4170 N   0  0  0  0  0  0  0  0  0  0  0  0
   12.7210   -0.9810   23.9440 C   0  0  0  0  0  0  0  0  0  0  0  0
   12.9920   -0.0190   25.0990 C   0  0  0  0  0  0  0  0  0  0  0  0
   13.8710    0.8430   25.0050 O   0  0  0  0  0  0  0  0  0  0  0  0
   12.2550   -0.1780   26.2010 N   0  0  0  0  0  0  0  0  0  0  0  0
   12.5100    0.6130   27.4110 C   0  0  2  0  0  0  0  0  0  0  0  0
   13.9540    0.3840   27.9230 C   0  0  0  0  0  0  0  0  0  0  0  0
   14.6650    1.3480   28.2310 O   0  0  0  0  0  0  0  0  0  0  0  0
   11.4390    0.3190   28.5060 C   0  0  2  0  0  0  0  0  0  0  0  0
   10.1470    0.6780   27.9960 O   0  0  0  0  0  0  0  0  0  0  0  0
   11.6930    1.1490   29.7510 C   0  0  0  0  0  0  0  0  0  0  0  0
   14.3940   -0.8700   27.9850 N   0  0  0  0  0  0  0  0  0  0  0  0
   15.7940   -1.1720   28.3500 C   0  0  2  0  0  0  0  0  0  0  0  0
   16.8150   -0.4850   27.4320 C   0  0  0  0  0  0  0  0  0  0  0  0
   17.8000    0.0880   27.8960 O   0  0  0  0  0  0  0  0  0  0  0  0
   16.0270   -2.6820   28.3330 C   0  0  0  0  0  0  0  0  0  0  0  0
   15.4160   -3.3570   29.5140 C   0  0  0  0  0  0  0  0  0  0  0  0
   15.4680   -4.8580   29.3670 C   0  0  0  0  0  0  0  0  0  0  0  0
   14.7460   -5.5190   30.5240 C   0  0  0  0  0  0  0  0  0  0  0  0
   15.6650   -5.6210   31.6910 N   0  0  0  0  0  0  0  0  0  0  0  0
   16.5580   -0.5650   26.1260 N   0  0  0  0  0  0  0  0  0  0  0  0
   17.4280    0.0510   25.1320 C   0  0  2  0  0  0  0  0  0  0  0  0
   17.4980    1.5690   25.3710 C   0  0  0  0  0  0  0  0  0  0  0  0
   18.5950    2.1520   25.4640 O   0  0  0  0  0  0  0  0  0  0  0  0
   16.9160   -0.2810   23.7210 C   0  0  0  0  0  0  0  0  0  0  0  0
   17.7680    0.1170   22.5150 C   0  0  0  0  0  0  0  0  0  0  0  0
   17.2170   -0.5780   21.2760 C   0  0  0  0  0  0  0  0  0  0  0  0
   17.7860    1.6490   22.3140 C   0  0  0  0  0  0  0  0  0  0  0  0
   16.3330    2.2130   25.4960 N   0  0  0  0  0  0  0  0  0  0  0  0
   16.2950    3.6560   25.7290 C   0  0  0  0  0  0  0  0  0  0  0  0
   12.1792   -4.6503   25.3333 H   0  0  0  0  0  0  0  0  0  0  0  0
   13.3751   -4.4651   26.5936 H   0  0  0  0  0  0  0  0  0  0  0  0
   13.8320   -5.1405   25.0483 H   0  0  0  0  0  0  0  0  0  0  0  0
   11.6783   -2.8089   24.2851 H   0  0  0  0  0  0  0  0  0  0  0  0
   11.8310   -0.6720   23.4367 H   0  0  0  0  0  0  0  0  0  0  0  0
   13.5644   -0.9586   23.2859 H   0  0  0  0  0  0  0  0  0  0  0  0
   11.5256   -0.8393   26.2020 H   0  0  0  0  0  0  0  0  0  0  0  0
   12.4249    1.6506   27.1640 H   0  0  0  0  0  0  0  0  0  0  0  0
   11.4880   -0.7202   28.7561 H   0  0  0  0  0  0  0  0  0  0  0  0
   10.1361    1.6235   27.7796 H   0  0  0  0  0  0  0  0  0  0  0  0
   11.6443    2.1886   29.5026 H   0  0  0  0  0  0  0  0  0  0  0  0
   12.6631    0.9203   30.1403 H   0  0  0  0  0  0  0  0  0  0  0  0
   10.9507    0.9232   30.4878 H   0  0  0  0  0  0  0  0  0  0  0  0
   13.7762   -1.6098   27.7842 H   0  0  0  0  0  0  0  0  0  0  0  0
   15.9434   -0.7844   29.3361 H   0  0  0  0  0  0  0  0  0  0  0  0
   17.0806   -2.8686   28.3357 H   0  0  0  0  0  0  0  0  0  0  0  0
   15.5652   -3.0768   27.4523 H   0  0  0  0  0  0  0  0  0  0  0  0
   14.3950   -3.0495   29.6032 H   0  0  0  0  0  0  0  0  0  0  0  0
   15.9687   -3.0811   30.3876 H   0  0  0  0  0  0  0  0  0  0  0  0
   16.4891   -5.1777   29.3578 H   0  0  0  0  0  0  0  0  0  0  0  0
   14.9912   -5.1373   28.4507 H   0  0  0  0  0  0  0  0  0  0  0  0
   14.4289   -6.4987   30.2333 H   0  0  0  0  0  0  0  0  0  0  0  0
   13.8925   -4.9324   30.7930 H   0  0  0  0  0  0  0  0  0  0  0  0
   16.4788   -6.1801   31.4351 H   0  0  0  0  0  0  0  0  0  0  0  0
   15.1782   -6.0656   32.4693 H   0  0  0  0  0  0  0  0  0  0  0  0
   15.7583   -1.0538   25.8248 H   0  0  0  0  0  0  0  0  0  0  0  0
   18.4201   -0.3396   25.2223 H   0  0  0  0  0  0  0  0  0  0  0  0
   16.7837   -1.3418   23.6761 H   0  0  0  0  0  0  0  0  0  0  0  0
   16.0319    0.3132   23.6203 H   0  0  0  0  0  0  0  0  0  0  0  0
   18.7786   -0.1895   22.6873 H   0  0  0  0  0  0  0  0  0  0  0  0
   16.2068   -0.2659   21.1115 H   0  0  0  0  0  0  0  0  0  0  0  0
   17.2438   -1.6379   21.4200 H   0  0  0  0  0  0  0  0  0  0  0  0
   17.8134   -0.3182   20.4264 H   0  0  0  0  0  0  0  0  0  0  0  0
   16.7897    1.9974   22.1380 H   0  0  0  0  0  0  0  0  0  0  0  0
   18.4022    1.8912   21.4735 H   0  0  0  0  0  0  0  0  0  0  0  0
   18.1785    2.1192   23.1913 H   0  0  0  0  0  0  0  0  0  0  0  0
   15.4898    1.7091   25.4303 H   0  0  0  0  0  0  0  0  0  0  0  0
   17.2940    4.0368   25.7720 H   0  0  0  0  0  0  0  0  0  0  0  0
   15.7974    3.8548   26.6552 H   0  0  0  0  0  0  0  0  0  0  0  0
   15.7658    4.1324   24.9303 H   0  0  0  0  0  0  0  0  0  0  0  0
  1 34  1  0  0  0  0
  1 35  1  0  0  0  0
  1 36  1  0  0  0  0
  2  3  2  0  0  0  0
  2  1  1  0  0  0  0
  4  2  1  0  0  0  0
  4 37  1  0  0  0  0
  5  4  1  0  0  0  0
  5  6  1  0  0  0  0
  5 38  1  0  0  0  0
  5 39  1  0  0  0  0
  6  8  1  0  0  0  0
  7  6  2  0  0  0  0
  8  9  1  0  0  0  0
  8 40  1  0  0  0  0
  9 10  1  0  0  0  0
  9 12  1  0  0  0  0
  9 41  1  6  0  0  0
 10 15  1  0  0  0  0
 10 11  2  0  0  0  0
 12 14  1  0  0  0  0
 12 42  1  1  0  0  0
 13 12  1  0  0  0  0
 13 43  1  0  0  0  0
 14 44  1  0  0  0  0
 14 45  1  0  0  0  0
 14 46  1  0  0  0  0
 15 16  1  0  0  0  0
 15 47  1  0  0  0  0
 16 48  1  1  0  0  0
 17 18  2  0  0  0  0
 17 16  1  0  0  0  0
 19 16  1  0  0  0  0
 19 20  1  0  0  0  0
 19 49  1  0  0  0  0
 19 50  1  0  0  0  0
 20 51  1  0  0  0  0
 20 52  1  0  0  0  0
 21 20  1  0  0  0  0
 21 22  1  0  0  0  0
 21 53  1  0  0  0  0
 21 54  1  0  0  0  0
 22 23  1  0  0  0  0
 22 55  1  0  0  0  0
 22 56  1  0  0  0  0
 23 57  1  0  0  0  0
 23 58  1  0  0  0  0
 24 17  1  0  0  0  0
 24 59  1  0  0  0  0
 25 26  1  0  0  0  0
 25 24  1  0  0  0  0
 25 60  1  1  0  0  0
 26 27  2  0  0  0  0
 26 32  1  0  0  0  0
 28 25  1  0  0  0  0
 28 61  1  0  0  0  0
 28 62  1  0  0  0  0
 29 28  1  0  0  0  0
 29 63  1  0  0  0  0
 30 29  1  0  0  0  0
 30 64  1  0  0  0  0
 30 65  1  0  0  0  0
 30 66  1  0  0  0  0
 31 29  1  0  0  0  0
 31 67  1  0  0  0  0
 31 68  1  0  0  0  0
 31 69  1  0  0  0  0
 32 33  1  0  0  0  0
 32 70  1  0  0  0  0
 33 71  1  0  0  0  0
 33 72  1  0  0  0  0
 33 73  1  0  0  0  0
M  END
>  <MODEL>
       0

$$$$
selected_4mers/GTKL/749_noH.pdb
 OpenBabel03042518353D

 73 72  0  0  1  0  0  0  0  0999 V2000
  -16.6590   16.7710   -3.2600 C   0  0  0  0  0  0  0  0  0  0  0  0
  -16.6380   15.4090   -2.6020 C   0  0  0  0  0  0  0  0  0  0  0  0
  -16.0850   14.4550   -3.1510 O   0  0  0  0  0  0  0  0  0  0  0  0
  -17.2330   15.3250   -1.4140 N   0  0  0  0  0  0  0  0  0  0  0  0
  -17.5430   14.0460   -0.7810 C   0  0  0  0  0  0  0  0  0  0  0  0
  -18.8870   13.5020   -1.2460 C   0  0  0  0  0  0  0  0  0  0  0  0
  -19.9200   14.1380   -1.0690 O   0  0  0  0  0  0  0  0  0  0  0  0
  -18.8610   12.2960   -1.7990 N   0  0  0  0  0  0  0  0  0  0  0  0
  -20.0220   11.6410   -2.3930 C   0  0  2  0  0  0  0  0  0  0  0  0
  -20.6060   10.5730   -1.4580 C   0  0  0  0  0  0  0  0  0  0  0  0
  -20.0170   10.2010   -0.4280 O   0  0  0  0  0  0  0  0  0  0  0  0
  -19.6320   10.9900   -3.7270 C   0  0  2  0  0  0  0  0  0  0  0  0
  -18.6490    9.9870   -3.4640 O   0  0  0  0  0  0  0  0  0  0  0  0
  -19.0650   11.9920   -4.7020 C   0  0  0  0  0  0  0  0  0  0  0  0
  -21.7570   10.0380   -1.8590 N   0  0  0  0  0  0  0  0  0  0  0  0
  -22.4730    8.9970   -1.1070 C   0  0  2  0  0  0  0  0  0  0  0  0
  -22.8210    9.4230    0.3300 C   0  0  0  0  0  0  0  0  0  0  0  0
  -22.8150    8.6210    1.2440 O   0  0  0  0  0  0  0  0  0  0  0  0
  -21.6990    7.6700   -1.1350 C   0  0  0  0  0  0  0  0  0  0  0  0
  -21.3180    7.2270   -2.5570 C   0  0  0  0  0  0  0  0  0  0  0  0
  -20.9680    5.7430   -2.6550 C   0  0  0  0  0  0  0  0  0  0  0  0
  -20.3230    5.4680   -4.0080 C   0  0  0  0  0  0  0  0  0  0  0  0
  -19.7560    4.0740   -4.1390 N   0  0  0  0  0  0  0  0  0  0  0  0
  -23.1700   10.6950    0.5020 N   0  0  0  0  0  0  0  0  0  0  0  0
  -23.5680   11.2380    1.7990 C   0  0  2  0  0  0  0  0  0  0  0  0
  -24.6510   10.4000    2.4760 C   0  0  0  0  0  0  0  0  0  0  0  0
  -24.6510   10.2570    3.6940 O   0  0  0  0  0  0  0  0  0  0  0  0
  -24.0310   12.6890    1.6300 C   0  0  0  0  0  0  0  0  0  0  0  0
  -24.5290   13.4570    2.8540 C   0  0  0  0  0  0  0  0  0  0  0  0
  -23.4210   13.5600    3.9220 C   0  0  0  0  0  0  0  0  0  0  0  0
  -24.9950   14.8420    2.4070 C   0  0  0  0  0  0  0  0  0  0  0  0
  -25.5530    9.8260    1.6790 N   0  0  0  0  0  0  0  0  0  0  0  0
  -26.6380    8.9940    2.1870 C   0  0  0  0  0  0  0  0  0  0  0  0
  -16.1554   16.7195   -4.2027 H   0  0  0  0  0  0  0  0  0  0  0  0
  -16.1638   17.4795   -2.6293 H   0  0  0  0  0  0  0  0  0  0  0  0
  -17.6726   17.0774   -3.4134 H   0  0  0  0  0  0  0  0  0  0  0  0
  -17.4730   16.1564   -0.9446 H   0  0  0  0  0  0  0  0  0  0  0  0
  -17.5715   14.1815    0.2800 H   0  0  0  0  0  0  0  0  0  0  0  0
  -16.7842   13.3436   -1.0562 H   0  0  0  0  0  0  0  0  0  0  0  0
  -18.0036   11.8122   -1.8092 H   0  0  0  0  0  0  0  0  0  0  0  0
  -20.7686   12.3898   -2.5570 H   0  0  0  0  0  0  0  0  0  0  0  0
  -20.5114   10.5704   -4.1691 H   0  0  0  0  0  0  0  0  0  0  0  0
  -17.8664   10.3981   -3.0647 H   0  0  0  0  0  0  0  0  0  0  0  0
  -18.1814   12.4314   -4.2885 H   0  0  0  0  0  0  0  0  0  0  0  0
  -19.7895   12.7568   -4.8893 H   0  0  0  0  0  0  0  0  0  0  0  0
  -18.8220   11.4985   -5.6198 H   0  0  0  0  0  0  0  0  0  0  0  0
  -22.1497   10.3562   -2.7039 H   0  0  0  0  0  0  0  0  0  0  0  0
  -23.4098    8.8485   -1.6023 H   0  0  0  0  0  0  0  0  0  0  0  0
  -20.8027    7.7859   -0.5623 H   0  0  0  0  0  0  0  0  0  0  0  0
  -22.3397    6.9170   -0.7259 H   0  0  0  0  0  0  0  0  0  0  0  0
  -22.1446    7.4245   -3.2070 H   0  0  0  0  0  0  0  0  0  0  0  0
  -20.4442    7.7775   -2.8367 H   0  0  0  0  0  0  0  0  0  0  0  0
  -20.2844    5.4843   -1.8736 H   0  0  0  0  0  0  0  0  0  0  0  0
  -21.8575    5.1567   -2.5553 H   0  0  0  0  0  0  0  0  0  0  0  0
  -21.0629    5.6045   -4.7688 H   0  0  0  0  0  0  0  0  0  0  0  0
  -19.5038    6.1491   -4.1078 H   0  0  0  0  0  0  0  0  0  0  0  0
  -20.5083    3.3911   -4.0492 H   0  0  0  0  0  0  0  0  0  0  0  0
  -19.0654    3.9175   -3.4049 H   0  0  0  0  0  0  0  0  0  0  0  0
  -23.1597   11.2961   -0.2776 H   0  0  0  0  0  0  0  0  0  0  0  0
  -22.7127   11.2071    2.4412 H   0  0  0  0  0  0  0  0  0  0  0  0
  -24.8299   12.6820    0.9183 H   0  0  0  0  0  0  0  0  0  0  0  0
  -23.1408   13.2101    1.3458 H   0  0  0  0  0  0  0  0  0  0  0  0
  -25.3498   12.9345    3.2991 H   0  0  0  0  0  0  0  0  0  0  0  0
  -22.5790   14.0787    3.5135 H   0  0  0  0  0  0  0  0  0  0  0  0
  -23.1230   12.5773    4.2227 H   0  0  0  0  0  0  0  0  0  0  0  0
  -23.7923   14.0955    4.7707 H   0  0  0  0  0  0  0  0  0  0  0  0
  -24.1762   15.3672    1.9613 H   0  0  0  0  0  0  0  0  0  0  0  0
  -25.3508   15.3894    3.2547 H   0  0  0  0  0  0  0  0  0  0  0  0
  -25.7843   14.7392    1.6920 H   0  0  0  0  0  0  0  0  0  0  0  0
  -25.4837    9.9698    0.7075 H   0  0  0  0  0  0  0  0  0  0  0  0
  -26.5744    8.9370    3.2536 H   0  0  0  0  0  0  0  0  0  0  0  0
  -26.5581    8.0111    1.7719 H   0  0  0  0  0  0  0  0  0  0  0  0
  -27.5775    9.4236    1.9082 H   0  0  0  0  0  0  0  0  0  0  0  0
  1  2  1  0  0  0  0
  1 34  1  0  0  0  0
  1 35  1  0  0  0  0
  1 36  1  0  0  0  0
  2  4  1  0  0  0  0
  3  2  2  0  0  0  0
  4  5  1  0  0  0  0
  4 37  1  0  0  0  0
  5 38  1  0  0  0  0
  5 39  1  0  0  0  0
  6  7  2  0  0  0  0
  6  5  1  0  0  0  0
  8  6  1  0  0  0  0
  8 40  1  0  0  0  0
  9  8  1  0  0  0  0
  9 10  1  0  0  0  0
  9 41  1  6  0  0  0
 10 11  2  0  0  0  0
 12 13  1  0  0  0  0
 12  9  1  0  0  0  0
 12 42  1  6  0  0  0
 13 43  1  0  0  0  0
 14 12  1  0  0  0  0
 14 44  1  0  0  0  0
 14 45  1  0  0  0  0
 14 46  1  0  0  0  0
 15 10  1  0  0  0  0
 15 16  1  0  0  0  0
 15 47  1  0  0  0  0
 16 17  1  0  0  0  0
 16 48  1  6  0  0  0
 17 24  1  0  0  0  0
 17 18  2  0  0  0  0
 19 16  1  0  0  0  0
 19 49  1  0  0  0  0
 19 50  1  0  0  0  0
 20 19  1  0  0  0  0
 20 51  1  0  0  0  0
 20 52  1  0  0  0  0
 21 20  1  0  0  0  0
 21 53  1  0  0  0  0
 21 54  1  0  0  0  0
 22 21  1  0  0  0  0
 22 55  1  0  0  0  0
 22 56  1  0  0  0  0
 23 22  1  0  0  0  0
 23 57  1  0  0  0  0
 23 58  1  0  0  0  0
 24 25  1  0  0  0  0
 24 59  1  0  0  0  0
 25 26  1  0  0  0  0
 25 60  1  1  0  0  0
 26 27  2  0  0  0  0
 28 25  1  0  0  0  0
 28 29  1  0  0  0  0
 28 61  1  0  0  0  0
 28 62  1  0  0  0  0
 29 30  1  0  0  0  0
 29 63  1  0  0  0  0
 30 64  1  0  0  0  0
 30 65  1  0  0  0  0
 30 66  1  0  0  0  0
 31 29  1  0  0  0  0
 31 67  1  0  0  0  0
 31 68  1  0  0  0  0
 31 69  1  0  0  0  0
 32 33  1  0  0  0  0
 32 26  1  0  0  0  0
 32 70  1  0  0  0  0
 33 71  1  0  0  0  0
 33 72  1  0  0  0  0
 33 73  1  0  0  0  0
M  END
>  <MODEL>
       0

$$$$
