selected_4mers/GTLV/750_noH.pdb
 OpenBabel03042518353D

 68 67  0  0  1  0  0  0  0  0999 V2000
   -6.2860   -2.1820   17.1130 C   0  0  0  0  0  0  0  0  0  0  0  0
   -7.6630   -1.9860   17.7290 C   0  0  0  0  0  0  0  0  0  0  0  0
   -7.8410   -1.1550   18.6350 O   0  0  0  0  0  0  0  0  0  0  0  0
   -8.6480   -2.7230   17.2210 N   0  0  0  0  0  0  0  0  0  0  0  0
   -9.9970   -2.6120   17.7550 C   0  0  0  0  0  0  0  0  0  0  0  0
  -10.8340   -1.5770   17.0180 C   0  0  0  0  0  0  0  0  0  0  0  0
  -10.3280   -0.5320   16.6130 O   0  0  0  0  0  0  0  0  0  0  0  0
  -12.1100   -1.8800   16.8190 N   0  0  0  0  0  0  0  0  0  0  0  0
  -13.0390   -0.9370   16.1670 C   0  0  2  0  0  0  0  0  0  0  0  0
  -14.0560   -0.4940   17.2120 C   0  0  0  0  0  0  0  0  0  0  0  0
  -14.7120   -1.3460   17.8260 O   0  0  0  0  0  0  0  0  0  0  0  0
  -13.8310   -1.5930   14.9970 C   0  0  2  0  0  0  0  0  0  0  0  0
  -12.9360   -1.9920   13.9420 O   0  0  0  0  0  0  0  0  0  0  0  0
  -14.8470   -0.5930   14.4450 C   0  0  0  0  0  0  0  0  0  0  0  0
  -14.1910    0.8230   17.4120 N   0  0  0  0  0  0  0  0  0  0  0  0
  -15.1600    1.3650   18.3860 C   0  0  2  0  0  0  0  0  0  0  0  0
  -16.5010    1.5740   17.6960 C   0  0  0  0  0  0  0  0  0  0  0  0
  -16.6330    2.4390   16.8320 O   0  0  0  0  0  0  0  0  0  0  0  0
  -14.6950    2.7220   18.9690 C   0  0  0  0  0  0  0  0  0  0  0  0
  -15.7120    3.4060   19.9240 C   0  0  0  0  0  0  0  0  0  0  0  0
  -15.9190    2.5770   21.1930 C   0  0  0  0  0  0  0  0  0  0  0  0
  -15.2250    4.8070   20.2930 C   0  0  0  0  0  0  0  0  0  0  0  0
  -17.4860    0.7630   18.0710 N   0  0  0  0  0  0  0  0  0  0  0  0
  -18.8090    0.8810   17.4810 C   0  0  2  0  0  0  0  0  0  0  0  0
  -19.6350    1.7800   18.4010 C   0  0  0  0  0  0  0  0  0  0  0  0
  -19.6960    1.5280   19.6050 O   0  0  0  0  0  0  0  0  0  0  0  0
  -19.4870   -0.5110   17.3880 C   0  0  0  0  0  0  0  0  0  0  0  0
  -20.9300   -0.3570   16.9280 C   0  0  0  0  0  0  0  0  0  0  0  0
  -18.6800   -1.4350   16.3890 C   0  0  0  0  0  0  0  0  0  0  0  0
  -20.2280    2.8310   17.8440 N   0  0  0  0  0  0  0  0  0  0  0  0
  -21.1170    3.7050   18.6030 C   0  0  0  0  0  0  0  0  0  0  0  0
   -6.3382   -2.9359   16.3555 H   0  0  0  0  0  0  0  0  0  0  0  0
   -5.5958   -2.4862   17.8719 H   0  0  0  0  0  0  0  0  0  0  0  0
   -5.9555   -1.2618   16.6783 H   0  0  0  0  0  0  0  0  0  0  0  0
   -8.4632   -3.3456   16.4811 H   0  0  0  0  0  0  0  0  0  0  0  0
  -10.4780   -3.5642   17.6719 H   0  0  0  0  0  0  0  0  0  0  0  0
   -9.9173   -2.2982   18.7748 H   0  0  0  0  0  0  0  0  0  0  0  0
  -12.4460   -2.7571   17.1141 H   0  0  0  0  0  0  0  0  0  0  0  0
  -12.4638   -0.1266   15.7705 H   0  0  0  0  0  0  0  0  0  0  0  0
  -14.3363   -2.4596   15.3691 H   0  0  0  0  0  0  0  0  0  0  0  0
  -12.4731   -1.2119   13.5984 H   0  0  0  0  0  0  0  0  0  0  0  0
  -14.3335    0.2699   14.0753 H   0  0  0  0  0  0  0  0  0  0  0  0
  -15.5197   -0.3011   15.2242 H   0  0  0  0  0  0  0  0  0  0  0  0
  -15.3989   -1.0478   13.6491 H   0  0  0  0  0  0  0  0  0  0  0  0
  -13.6298    1.4463   16.8964 H   0  0  0  0  0  0  0  0  0  0  0  0
  -15.2423    0.6609   19.1875 H   0  0  0  0  0  0  0  0  0  0  0  0
  -14.5061    3.3874   18.1526 H   0  0  0  0  0  0  0  0  0  0  0  0
  -13.8247    2.5144   19.5559 H   0  0  0  0  0  0  0  0  0  0  0  0
  -16.6495    3.4793   19.4135 H   0  0  0  0  0  0  0  0  0  0  0  0
  -14.9910    2.4920   21.7188 H   0  0  0  0  0  0  0  0  0  0  0  0
  -16.2697    1.6014   20.9284 H   0  0  0  0  0  0  0  0  0  0  0  0
  -16.6411    3.0579   21.8193 H   0  0  0  0  0  0  0  0  0  0  0  0
  -14.2875    4.7357   20.8037 H   0  0  0  0  0  0  0  0  0  0  0  0
  -15.9436    5.2779   20.9307 H   0  0  0  0  0  0  0  0  0  0  0  0
  -15.1030    5.3881   19.4029 H   0  0  0  0  0  0  0  0  0  0  0  0
  -17.3173    0.0756   18.7553 H   0  0  0  0  0  0  0  0  0  0  0  0
  -18.7391    1.2877   16.4938 H   0  0  0  0  0  0  0  0  0  0  0  0
  -19.4862   -0.9697   18.3547 H   0  0  0  0  0  0  0  0  0  0  0  0
  -20.9492    0.1009   15.9611 H   0  0  0  0  0  0  0  0  0  0  0  0
  -21.4626    0.2568   17.6240 H   0  0  0  0  0  0  0  0  0  0  0  0
  -21.3924   -1.3205   16.8755 H   0  0  0  0  0  0  0  0  0  0  0  0
  -18.6725   -0.9881   15.4168 H   0  0  0  0  0  0  0  0  0  0  0  0
  -19.1470   -2.3963   16.3360 H   0  0  0  0  0  0  0  0  0  0  0  0
  -17.6748   -1.5456   16.7385 H   0  0  0  0  0  0  0  0  0  0  0  0
  -20.0630    3.0254   16.8931 H   0  0  0  0  0  0  0  0  0  0  0  0
  -21.1859    3.3546   19.6117 H   0  0  0  0  0  0  0  0  0  0  0  0
  -22.0893    3.6995   18.1563 H   0  0  0  0  0  0  0  0  0  0  0  0
  -20.7276    4.7016   18.5974 H   0  0  0  0  0  0  0  0  0  0  0  0
  1  2  1  0  0  0  0
  1 32  1  0  0  0  0
  1 33  1  0  0  0  0
  1 34  1  0  0  0  0
  2  3  2  0  0  0  0
  4  2  1  0  0  0  0
  4  5  1  0  0  0  0
  4 35  1  0  0  0  0
  5 36  1  0  0  0  0
  5 37  1  0  0  0  0
  6  5  1  0  0  0  0
  7  6  2  0  0  0  0
  8  6  1  0  0  0  0
  8 38  1  0  0  0  0
  9  8  1  0  0  0  0
  9 10  1  0  0  0  0
  9 39  1  6  0  0  0
 10 15  1  0  0  0  0
 10 11  2  0  0  0  0
 12  9  1  0  0  0  0
 12 40  1  1  0  0  0
 13 12  1  0  0  0  0
 13 41  1  0  0  0  0
 14 12  1  0  0  0  0
 14 42  1  0  0  0  0
 14 43  1  0  0  0  0
 14 44  1  0  0  0  0
 15 16  1  0  0  0  0
 15 45  1  0  0  0  0
 16 19  1  0  0  0  0
 16 46  1  1  0  0  0
 17 23  1  0  0  0  0
 17 16  1  0  0  0  0
 18 17  2  0  0  0  0
 19 20  1  0  0  0  0
 19 47  1  0  0  0  0
 19 48  1  0  0  0  0
 20 22  1  0  0  0  0
 20 21  1  0  0  0  0
 20 49  1  0  0  0  0
 21 50  1  0  0  0  0
 21 51  1  0  0  0  0
 21 52  1  0  0  0  0
 22 53  1  0  0  0  0
 22 54  1  0  0  0  0
 22 55  1  0  0  0  0
 23 56  1  0  0  0  0
 24 23  1  0  0  0  0
 24 25  1  0  0  0  0
 24 57  1  6  0  0  0
 25 26  2  0  0  0  0
 27 24  1  0  0  0  0
 27 58  1  0  0  0  0
 28 27  1  0  0  0  0
 28 59  1  0  0  0  0
 28 60  1  0  0  0  0
 28 61  1  0  0  0  0
 29 27  1  0  0  0  0
 29 62  1  0  0  0  0
 29 63  1  0  0  0  0
 29 64  1  0  0  0  0
 30 25  1  0  0  0  0
 30 31  1  0  0  0  0
 30 65  1  0  0  0  0
 31 66  1  0  0  0  0
 31 67  1  0  0  0  0
 31 68  1  0  0  0  0
M  END
>  <MODEL>
       0

$$$$
selected_4mers/GTLV/751_noH.pdb
 OpenBabel03042518353D

 68 67  0  0  1  0  0  0  0  0999 V2000
  -14.6630   41.5970  -12.8350 C   0  0  0  0  0  0  0  0  0  0  0  0
  -15.1250   41.5260  -11.4040 C   0  0  0  0  0  0  0  0  0  0  0  0
  -14.3440   41.7370  -10.5100 O   0  0  0  0  0  0  0  0  0  0  0  0
  -16.3930   41.2230  -11.2030 N   0  0  0  0  0  0  0  0  0  0  0  0
  -16.9620   40.9980   -9.8830 C   0  0  0  0  0  0  0  0  0  0  0  0
  -17.4970   42.2320   -9.1660 C   0  0  0  0  0  0  0  0  0  0  0  0
  -17.9640   42.1310   -8.0140 O   0  0  0  0  0  0  0  0  0  0  0  0
  -17.4350   43.3820   -9.8510 N   0  0  0  0  0  0  0  0  0  0  0  0
  -17.9560   44.6660   -9.3730 C   0  0  2  0  0  0  0  0  0  0  0  0
  -18.9690   45.2170  -10.3750 C   0  0  0  0  0  0  0  0  0  0  0  0
  -20.1490   45.4170  -10.0410 O   0  0  0  0  0  0  0  0  0  0  0  0
  -16.7980   45.6790   -9.1150 C   0  0  2  0  0  0  0  0  0  0  0  0
  -16.0630   45.2660   -7.9510 O   0  0  0  0  0  0  0  0  0  0  0  0
  -17.3560   47.1160   -8.9220 C   0  0  0  0  0  0  0  0  0  0  0  0
  -18.5330   45.4060  -11.6180 N   0  0  0  0  0  0  0  0  0  0  0  0
  -19.4290   45.8830  -12.7020 C   0  0  2  0  0  0  0  0  0  0  0  0
  -20.0550   44.7140  -13.4730 C   0  0  0  0  0  0  0  0  0  0  0  0
  -21.2490   44.7280  -13.7800 O   0  0  0  0  0  0  0  0  0  0  0  0
  -18.6250   46.7680  -13.6850 C   0  0  0  0  0  0  0  0  0  0  0  0
  -18.0280   48.0320  -13.0970 C   0  0  0  0  0  0  0  0  0  0  0  0
  -17.1800   48.7670  -14.1350 C   0  0  0  0  0  0  0  0  0  0  0  0
  -19.1440   48.9320  -12.5170 C   0  0  0  0  0  0  0  0  0  0  0  0
  -19.2110   43.7320  -13.7880 N   0  0  0  0  0  0  0  0  0  0  0  0
  -19.5540   42.5930  -14.6600 C   0  0  2  0  0  0  0  0  0  0  0  0
  -19.2960   41.2750  -13.9230 C   0  0  0  0  0  0  0  0  0  0  0  0
  -18.2130   41.0190  -13.3950 O   0  0  0  0  0  0  0  0  0  0  0  0
  -18.7450   42.5770  -15.9860 C   0  0  0  0  0  0  0  0  0  0  0  0
  -19.2100   41.4320  -16.9520 C   0  0  0  0  0  0  0  0  0  0  0  0
  -18.8860   43.9130  -16.7380 C   0  0  0  0  0  0  0  0  0  0  0  0
  -20.2940   40.4220  -13.9660 N   0  0  0  0  0  0  0  0  0  0  0  0
  -20.1710   39.0500  -13.5240 C   0  0  0  0  0  0  0  0  0  0  0  0
  -15.4847   41.3830  -13.4861 H   0  0  0  0  0  0  0  0  0  0  0  0
  -13.8852   40.8798  -12.9947 H   0  0  0  0  0  0  0  0  0  0  0  0
  -14.2908   42.5787  -13.0413 H   0  0  0  0  0  0  0  0  0  0  0  0
  -16.9845   41.1451  -11.9861 H   0  0  0  0  0  0  0  0  0  0  0  0
  -16.2004   40.5664   -9.2676 H   0  0  0  0  0  0  0  0  0  0  0  0
  -17.8104   40.3650  -10.0390 H   0  0  0  0  0  0  0  0  0  0  0  0
  -17.0092   43.3632  -10.7385 H   0  0  0  0  0  0  0  0  0  0  0  0
  -18.4535   44.5125   -8.4382 H   0  0  0  0  0  0  0  0  0  0  0  0
  -16.1465   45.6920   -9.9637 H   0  0  0  0  0  0  0  0  0  0  0  0
  -16.6545   45.2546   -7.1823 H   0  0  0  0  0  0  0  0  0  0  0  0
  -18.0128   47.1331   -8.0775 H   0  0  0  0  0  0  0  0  0  0  0  0
  -17.8944   47.4103   -9.7986 H   0  0  0  0  0  0  0  0  0  0  0  0
  -16.5451   47.7943   -8.7570 H   0  0  0  0  0  0  0  0  0  0  0  0
  -17.5879   45.2241  -11.8252 H   0  0  0  0  0  0  0  0  0  0  0  0
  -20.2183   46.4480  -12.2517 H   0  0  0  0  0  0  0  0  0  0  0  0
  -17.8233   46.1780  -14.0776 H   0  0  0  0  0  0  0  0  0  0  0  0
  -19.3271   47.0942  -14.4236 H   0  0  0  0  0  0  0  0  0  0  0  0
  -17.3756   47.7652  -12.2919 H   0  0  0  0  0  0  0  0  0  0  0  0
  -17.7966   49.0532  -14.9613 H   0  0  0  0  0  0  0  0  0  0  0  0
  -16.3991   48.1216  -14.4793 H   0  0  0  0  0  0  0  0  0  0  0  0
  -16.7507   49.6407  -13.6909 H   0  0  0  0  0  0  0  0  0  0  0  0
  -19.8154   49.2169  -13.2999 H   0  0  0  0  0  0  0  0  0  0  0  0
  -18.7073   49.8082  -12.0852 H   0  0  0  0  0  0  0  0  0  0  0  0
  -19.6815   48.3936  -11.7646 H   0  0  0  0  0  0  0  0  0  0  0  0
  -18.3007   43.7692  -13.4149 H   0  0  0  0  0  0  0  0  0  0  0  0
  -20.5895   42.7035  -14.9057 H   0  0  0  0  0  0  0  0  0  0  0  0
  -17.7260   42.4109  -15.7049 H   0  0  0  0  0  0  0  0  0  0  0  0
  -20.2289   41.5957  -17.2347 H   0  0  0  0  0  0  0  0  0  0  0  0
  -19.1251   40.4888  -16.4540 H   0  0  0  0  0  0  0  0  0  0  0  0
  -18.5931   41.4305  -17.8263 H   0  0  0  0  0  0  0  0  0  0  0  0
  -19.9098   44.0624  -17.0109 H   0  0  0  0  0  0  0  0  0  0  0  0
  -18.2812   43.8912  -17.6204 H   0  0  0  0  0  0  0  0  0  0  0  0
  -18.5650   44.7140  -16.1053 H   0  0  0  0  0  0  0  0  0  0  0  0
  -21.1623   40.7293  -14.3137 H   0  0  0  0  0  0  0  0  0  0  0  0
  -19.1740   38.8750  -13.1774 H   0  0  0  0  0  0  0  0  0  0  0  0
  -20.3856   38.3918  -14.3399 H   0  0  0  0  0  0  0  0  0  0  0  0
  -20.8624   38.8684  -12.7279 H   0  0  0  0  0  0  0  0  0  0  0  0
  1  2  1  0  0  0  0
  1 32  1  0  0  0  0
  1 33  1  0  0  0  0
  1 34  1  0  0  0  0
  2  4  1  0  0  0  0
  2  3  2  0  0  0  0
  4  5  1  0  0  0  0
  4 35  1  0  0  0  0
  5  6  1  0  0  0  0
  5 36  1  0  0  0  0
  5 37  1  0  0  0  0
  6  7  2  0  0  0  0
  8  9  1  0  0  0  0
  8  6  1  0  0  0  0
  8 38  1  0  0  0  0
  9 12  1  0  0  0  0
  9 39  1  1  0  0  0
 10 11  2  0  0  0  0
 10  9  1  0  0  0  0
 12 14  1  0  0  0  0
 12 13  1  0  0  0  0
 12 40  1  6  0  0  0
 13 41  1  0  0  0  0
 14 42  1  0  0  0  0
 14 43  1  0  0  0  0
 14 44  1  0  0  0  0
 15 10  1  0  0  0  0
 15 45  1  0  0  0  0
 16 15  1  0  0  0  0
 16 46  1  1  0  0  0
 17 16  1  0  0  0  0
 18 17  2  0  0  0  0
 19 20  1  0  0  0  0
 19 16  1  0  0  0  0
 19 47  1  0  0  0  0
 19 48  1  0  0  0  0
 20 22  1  0  0  0  0
 20 49  1  0  0  0  0
 21 20  1  0  0  0  0
 21 50  1  0  0  0  0
 21 51  1  0  0  0  0
 21 52  1  0  0  0  0
 22 53  1  0  0  0  0
 22 54  1  0  0  0  0
 22 55  1  0  0  0  0
 23 17  1  0  0  0  0
 23 56  1  0  0  0  0
 24 25  1  0  0  0  0
 24 23  1  0  0  0  0
 24 57  1  6  0  0  0
 25 26  2  0  0  0  0
 27 24  1  0  0  0  0
 27 58  1  0  0  0  0
 28 27  1  0  0  0  0
 28 59  1  0  0  0  0
 28 60  1  0  0  0  0
 28 61  1  0  0  0  0
 29 27  1  0  0  0  0
 29 62  1  0  0  0  0
 29 63  1  0  0  0  0
 29 64  1  0  0  0  0
 30 25  1  0  0  0  0
 30 31  1  0  0  0  0
 30 65  1  0  0  0  0
 31 66  1  0  0  0  0
 31 67  1  0  0  0  0
 31 68  1  0  0  0  0
M  END
>  <MODEL>
       0

$$$$
selected_4mers/GTLV/752_noH.pdb
 OpenBabel03042518353D

 68 67  0  0  1  0  0  0  0  0999 V2000
   -7.7640   25.8440    4.2990 C   0  0  0  0  0  0  0  0  0  0  0  0
   -8.3220   26.4970    3.0380 C   0  0  0  0  0  0  0  0  0  0  0  0
   -8.8080   25.7780    2.1550 O   0  0  0  0  0  0  0  0  0  0  0  0
   -8.2330   27.8220    2.8940 N   0  0  0  0  0  0  0  0  0  0  0  0
   -8.5870   28.4490    1.6250 C   0  0  0  0  0  0  0  0  0  0  0  0
   -7.7440   27.8550    0.5100 C   0  0  0  0  0  0  0  0  0  0  0  0
   -8.1940   27.4980   -0.5780 O   0  0  0  0  0  0  0  0  0  0  0  0
   -6.4470   27.7180    0.7940 N   0  0  0  0  0  0  0  0  0  0  0  0
   -5.5000   27.1480   -0.1660 C   0  0  2  0  0  0  0  0  0  0  0  0
   -5.7580   25.6590   -0.3840 C   0  0  0  0  0  0  0  0  0  0  0  0
   -5.7100   25.2080   -1.5520 O   0  0  0  0  0  0  0  0  0  0  0  0
   -4.0610   27.4180    0.3280 C   0  0  2  0  0  0  0  0  0  0  0  0
   -3.8670   28.8360    0.1500 O   0  0  0  0  0  0  0  0  0  0  0  0
   -2.9920   26.7170   -0.4970 C   0  0  0  0  0  0  0  0  0  0  0  0
   -6.0150   24.8780    0.6680 N   0  0  0  0  0  0  0  0  0  0  0  0
   -6.2650   23.4420    0.4350 C   0  0  2  0  0  0  0  0  0  0  0  0
   -7.5510   23.2110   -0.3270 C   0  0  0  0  0  0  0  0  0  0  0  0
   -7.6110   22.2940   -1.1460 O   0  0  0  0  0  0  0  0  0  0  0  0
   -6.2550   22.7220    1.7750 C   0  0  0  0  0  0  0  0  0  0  0  0
   -4.8940   22.7230    2.5000 C   0  0  0  0  0  0  0  0  0  0  0  0
   -5.0210   22.0400    3.8630 C   0  0  0  0  0  0  0  0  0  0  0  0
   -3.7920   22.0560    1.6910 C   0  0  0  0  0  0  0  0  0  0  0  0
   -8.5770   24.0550   -0.1410 N   0  0  0  0  0  0  0  0  0  0  0  0
   -9.7720   23.9770   -0.9900 C   0  0  2  0  0  0  0  0  0  0  0  0
   -9.4500   24.3500   -2.4400 C   0  0  0  0  0  0  0  0  0  0  0  0
   -9.9200   23.6760   -3.3720 O   0  0  0  0  0  0  0  0  0  0  0  0
  -10.8920   24.8700   -0.4600 C   0  0  0  0  0  0  0  0  0  0  0  0
  -12.0870   24.9020   -1.4180 C   0  0  0  0  0  0  0  0  0  0  0  0
  -11.3560   24.2740    0.8780 C   0  0  0  0  0  0  0  0  0  0  0  0
   -8.6410   25.3680   -2.6660 N   0  0  0  0  0  0  0  0  0  0  0  0
   -8.2190   25.6970   -4.0380 C   0  0  0  0  0  0  0  0  0  0  0  0
   -7.9176   24.7862    4.2507 H   0  0  0  0  0  0  0  0  0  0  0  0
   -8.2666   26.2386    5.1573 H   0  0  0  0  0  0  0  0  0  0  0  0
   -6.7165   26.0493    4.3733 H   0  0  0  0  0  0  0  0  0  0  0  0
   -7.9274   28.3776    3.6471 H   0  0  0  0  0  0  0  0  0  0  0  0
   -9.6227   28.2760    1.4191 H   0  0  0  0  0  0  0  0  0  0  0  0
   -8.4046   29.5016    1.6859 H   0  0  0  0  0  0  0  0  0  0  0  0
   -6.1175   28.0088    1.6750 H   0  0  0  0  0  0  0  0  0  0  0  0
   -5.6320   27.6181   -1.1181 H   0  0  0  0  0  0  0  0  0  0  0  0
   -3.9650   27.0634    1.3330 H   0  0  0  0  0  0  0  0  0  0  0  0
   -3.9729   29.0617   -0.7874 H   0  0  0  0  0  0  0  0  0  0  0  0
   -3.0537   27.0451   -1.5136 H   0  0  0  0  0  0  0  0  0  0  0  0
   -3.1450   25.6589   -0.4539 H   0  0  0  0  0  0  0  0  0  0  0  0
   -2.0255   26.9540   -0.1038 H   0  0  0  0  0  0  0  0  0  0  0  0
   -6.0373   25.2515    1.5786 H   0  0  0  0  0  0  0  0  0  0  0  0
   -5.4875   23.0421   -0.1818 H   0  0  0  0  0  0  0  0  0  0  0  0
   -6.5426   21.7049    1.6084 H   0  0  0  0  0  0  0  0  0  0  0  0
   -6.9336   23.2546    2.4080 H   0  0  0  0  0  0  0  0  0  0  0  0
   -4.6149   23.7479    2.6285 H   0  0  0  0  0  0  0  0  0  0  0  0
   -5.3001   21.0164    3.7244 H   0  0  0  0  0  0  0  0  0  0  0  0
   -5.7692   22.5383    4.4433 H   0  0  0  0  0  0  0  0  0  0  0  0
   -4.0825   22.0876    4.3746 H   0  0  0  0  0  0  0  0  0  0  0  0
   -4.0346   21.0248    1.5401 H   0  0  0  0  0  0  0  0  0  0  0  0
   -2.8655   22.1306    2.2210 H   0  0  0  0  0  0  0  0  0  0  0  0
   -3.7008   22.5434    0.7428 H   0  0  0  0  0  0  0  0  0  0  0  0
   -8.5281   24.7328    0.5713 H   0  0  0  0  0  0  0  0  0  0  0  0
  -10.1074   22.9612   -0.9653 H   0  0  0  0  0  0  0  0  0  0  0  0
  -10.5257   25.8697   -0.3533 H   0  0  0  0  0  0  0  0  0  0  0  0
  -12.4720   23.9113   -1.5412 H   0  0  0  0  0  0  0  0  0  0  0  0
  -11.7731   25.2832   -2.3672 H   0  0  0  0  0  0  0  0  0  0  0  0
  -12.8506   25.5338   -1.0147 H   0  0  0  0  0  0  0  0  0  0  0  0
  -11.7122   23.2774    0.7201 H   0  0  0  0  0  0  0  0  0  0  0  0
  -12.1441   24.8746    1.2818 H   0  0  0  0  0  0  0  0  0  0  0  0
  -10.5349   24.2549    1.5638 H   0  0  0  0  0  0  0  0  0  0  0  0
   -8.3172   25.9115   -1.9117 H   0  0  0  0  0  0  0  0  0  0  0  0
   -8.6642   25.0064   -4.7234 H   0  0  0  0  0  0  0  0  0  0  0  0
   -7.1533   25.6326   -4.1085 H   0  0  0  0  0  0  0  0  0  0  0  0
   -8.5329   26.6911   -4.2790 H   0  0  0  0  0  0  0  0  0  0  0  0
  1 32  1  0  0  0  0
  1 33  1  0  0  0  0
  1 34  1  0  0  0  0
  2  1  1  0  0  0  0
  3  2  2  0  0  0  0
  4  2  1  0  0  0  0
  4 35  1  0  0  0  0
  5  4  1  0  0  0  0
  5 36  1  0  0  0  0
  5 37  1  0  0  0  0
  6  8  1  0  0  0  0
  6  5  1  0  0  0  0
  7  6  2  0  0  0  0
  8 38  1  0  0  0  0
  9 12  1  0  0  0  0
  9  8  1  0  0  0  0
  9 39  1  6  0  0  0
 10  9  1  0  0  0  0
 10 15  1  0  0  0  0
 11 10  2  0  0  0  0
 12 40  1  1  0  0  0
 13 12  1  0  0  0  0
 13 41  1  0  0  0  0
 14 12  1  0  0  0  0
 14 42  1  0  0  0  0
 14 43  1  0  0  0  0
 14 44  1  0  0  0  0
 15 45  1  0  0  0  0
 16 15  1  0  0  0  0
 16 19  1  0  0  0  0
 16 46  1  6  0  0  0
 17 23  1  0  0  0  0
 17 16  1  0  0  0  0
 18 17  2  0  0  0  0
 19 20  1  0  0  0  0
 19 47  1  0  0  0  0
 19 48  1  0  0  0  0
 20 21  1  0  0  0  0
 20 49  1  0  0  0  0
 21 50  1  0  0  0  0
 21 51  1  0  0  0  0
 21 52  1  0  0  0  0
 22 20  1  0  0  0  0
 22 53  1  0  0  0  0
 22 54  1  0  0  0  0
 22 55  1  0  0  0  0
 23 56  1  0  0  0  0
 24 27  1  0  0  0  0
 24 23  1  0  0  0  0
 24 57  1  1  0  0  0
 25 24  1  0  0  0  0
 26 25  2  0  0  0  0
 27 29  1  0  0  0  0
 27 58  1  0  0  0  0
 28 27  1  0  0  0  0
 28 59  1  0  0  0  0
 28 60  1  0  0  0  0
 28 61  1  0  0  0  0
 29 62  1  0  0  0  0
 29 63  1  0  0  0  0
 29 64  1  0  0  0  0
 30 25  1  0  0  0  0
 30 65  1  0  0  0  0
 31 30  1  0  0  0  0
 31 66  1  0  0  0  0
 31 67  1  0  0  0  0
 31 68  1  0  0  0  0
M  END
>  <MODEL>
       0

$$$$
selected_4mers/GTLV/753_noH.pdb
 OpenBabel03042518353D

 68 67  0  0  1  0  0  0  0  0999 V2000
   77.5870    2.8320    9.2160 C   0  0  0  0  0  0  0  0  0  0  0  0
   77.3880    3.8000    8.0650 C   0  0  0  0  0  0  0  0  0  0  0  0
   76.4340    3.6720    7.2990 O   0  0  0  0  0  0  0  0  0  0  0  0
   78.3010    4.7620    7.9380 N   0  0  0  0  0  0  0  0  0  0  0  0
   78.2000    5.7450    6.8720 C   0  0  0  0  0  0  0  0  0  0  0  0
   78.7500    5.2720    5.5400 C   0  0  0  0  0  0  0  0  0  0  0  0
   79.1010    4.1000    5.3730 O   0  0  0  0  0  0  0  0  0  0  0  0
   78.8400    6.1940    4.5860 N   0  0  0  0  0  0  0  0  0  0  0  0
   79.3330    5.8600    3.2590 C   0  0  2  0  0  0  0  0  0  0  0  0
   80.3960    6.8120    2.7250 C   0  0  0  0  0  0  0  0  0  0  0  0
   80.2610    8.0340    2.7980 O   0  0  0  0  0  0  0  0  0  0  0  0
   78.1840    5.8280    2.2270 C   0  0  2  0  0  0  0  0  0  0  0  0
   77.2300    4.8270    2.6000 O   0  0  0  0  0  0  0  0  0  0  0  0
   78.7240    5.5080    0.8360 C   0  0  0  0  0  0  0  0  0  0  0  0
   81.4560    6.2240    2.1870 N   0  0  0  0  0  0  0  0  0  0  0  0
   82.5410    6.9650    1.5740 C   0  0  2  0  0  0  0  0  0  0  0  0
   82.3960    6.7000    0.0750 C   0  0  0  0  0  0  0  0  0  0  0  0
   82.5310    5.5600   -0.3750 O   0  0  0  0  0  0  0  0  0  0  0  0
   83.8930    6.4440    2.0660 C   0  0  0  0  0  0  0  0  0  0  0  0
   85.1110    6.8690    1.2370 C   0  0  0  0  0  0  0  0  0  0  0  0
   85.1710    8.3900    1.1330 C   0  0  0  0  0  0  0  0  0  0  0  0
   86.3830    6.3100    1.8800 C   0  0  0  0  0  0  0  0  0  0  0  0
   82.0950    7.7460   -0.6880 N   0  0  0  0  0  0  0  0  0  0  0  0
   81.9320    7.6160   -2.1290 C   0  0  2  0  0  0  0  0  0  0  0  0
   83.2200    8.0400   -2.8290 C   0  0  0  0  0  0  0  0  0  0  0  0
   83.7420    9.1320   -2.5800 O   0  0  0  0  0  0  0  0  0  0  0  0
   80.7720    8.5080   -2.6330 C   0  0  0  0  0  0  0  0  0  0  0  0
   80.5440    8.2890   -4.1190 C   0  0  0  0  0  0  0  0  0  0  0  0
   79.5110    8.2100   -1.8400 C   0  0  0  0  0  0  0  0  0  0  0  0
   83.7310    7.1780   -3.7040 N   0  0  0  0  0  0  0  0  0  0  0  0
   84.9560    7.4690   -4.4350 C   0  0  0  0  0  0  0  0  0  0  0  0
   76.7972    2.1101    9.2155 H   0  0  0  0  0  0  0  0  0  0  0  0
   77.5775    3.3705   10.1406 H   0  0  0  0  0  0  0  0  0  0  0  0
   78.5267    2.3327    9.1037 H   0  0  0  0  0  0  0  0  0  0  0  0
   79.0520    4.8075    8.5729 H   0  0  0  0  0  0  0  0  0  0  0  0
   77.1675    5.9931    6.7403 H   0  0  0  0  0  0  0  0  0  0  0  0
   78.7920    6.5852    7.1697 H   0  0  0  0  0  0  0  0  0  0  0  0
   78.5679    7.1197    4.7815 H   0  0  0  0  0  0  0  0  0  0  0  0
   79.7787    4.8950    3.3819 H   0  0  0  0  0  0  0  0  0  0  0  0
   77.7163    6.7902    2.2086 H   0  0  0  0  0  0  0  0  0  0  0  0
   77.6616    3.9584    2.6143 H   0  0  0  0  0  0  0  0  0  0  0  0
   79.1931    4.5464    0.8480 H   0  0  0  0  0  0  0  0  0  0  0  0
   79.4400    6.2506    0.5518 H   0  0  0  0  0  0  0  0  0  0  0  0
   77.9175    5.5026    0.1328 H   0  0  0  0  0  0  0  0  0  0  0  0
   81.5084    5.2411    2.2046 H   0  0  0  0  0  0  0  0  0  0  0  0
   82.4999    8.0070    1.8139 H   0  0  0  0  0  0  0  0  0  0  0  0
   84.0369    6.7962    3.0661 H   0  0  0  0  0  0  0  0  0  0  0  0
   83.8421    5.3783    1.9844 H   0  0  0  0  0  0  0  0  0  0  0  0
   85.0267    6.4751    0.2457 H   0  0  0  0  0  0  0  0  0  0  0  0
   85.2557    8.8114    2.1129 H   0  0  0  0  0  0  0  0  0  0  0  0
   84.2789    8.7510    0.6654 H   0  0  0  0  0  0  0  0  0  0  0  0
   86.0205    8.6743    0.5478 H   0  0  0  0  0  0  0  0  0  0  0  0
   86.4800    6.6962    2.8731 H   0  0  0  0  0  0  0  0  0  0  0  0
   87.2335    6.6009    1.2996 H   0  0  0  0  0  0  0  0  0  0  0  0
   86.3245    5.2422    1.9167 H   0  0  0  0  0  0  0  0  0  0  0  0
   81.9796    8.6293   -0.2689 H   0  0  0  0  0  0  0  0  0  0  0  0
   81.7083    6.5936   -2.3515 H   0  0  0  0  0  0  0  0  0  0  0  0
   81.0306    9.5359   -2.4867 H   0  0  0  0  0  0  0  0  0  0  0  0
   80.2832    7.2659   -4.2929 H   0  0  0  0  0  0  0  0  0  0  0  0
   81.4390    8.5251   -4.6558 H   0  0  0  0  0  0  0  0  0  0  0  0
   79.7492    8.9217   -4.4549 H   0  0  0  0  0  0  0  0  0  0  0  0
   79.2384    7.1843   -1.9757 H   0  0  0  0  0  0  0  0  0  0  0  0
   78.7165    8.8387   -2.1839 H   0  0  0  0  0  0  0  0  0  0  0  0
   79.6900    8.3971   -0.8018 H   0  0  0  0  0  0  0  0  0  0  0  0
   83.2696    6.3226   -3.8610 H   0  0  0  0  0  0  0  0  0  0  0  0
   85.3233    8.4317   -4.1466 H   0  0  0  0  0  0  0  0  0  0  0  0
   84.7540    7.4644   -5.4857 H   0  0  0  0  0  0  0  0  0  0  0  0
   85.6910    6.7247   -4.2099 H   0  0  0  0  0  0  0  0  0  0  0  0
  1 32  1  0  0  0  0
  1 33  1  0  0  0  0
  1 34  1  0  0  0  0
  2  1  1  0  0  0  0
  3  2  2  0  0  0  0
  4  2  1  0  0  0  0
  4 35  1  0  0  0  0
  5  4  1  0  0  0  0
  5 36  1  0  0  0  0
  5 37  1  0  0  0  0
  6  5  1  0  0  0  0
  7  6  2  0  0  0  0
  8  6  1  0  0  0  0
  8 38  1  0  0  0  0
  9  8  1  0  0  0  0
  9 39  1  1  0  0  0
 10 11  2  0  0  0  0
 10  9  1  0  0  0  0
 12 13  1  0  0  0  0
 12  9  1  0  0  0  0
 12 40  1  6  0  0  0
 13 41  1  0  0  0  0
 14 12  1  0  0  0  0
 14 42  1  0  0  0  0
 14 43  1  0  0  0  0
 14 44  1  0  0  0  0
 15 10  1  0  0  0  0
 15 45  1  0  0  0  0
 16 19  1  0  0  0  0
 16 15  1  0  0  0  0
 16 46  1  1  0  0  0
 17 16  1  0  0  0  0
 18 17  2  0  0  0  0
 19 47  1  0  0  0  0
 19 48  1  0  0  0  0
 20 22  1  0  0  0  0
 20 19  1  0  0  0  0
 20 49  1  0  0  0  0
 21 20  1  0  0  0  0
 21 50  1  0  0  0  0
 21 51  1  0  0  0  0
 21 52  1  0  0  0  0
 22 53  1  0  0  0  0
 22 54  1  0  0  0  0
 22 55  1  0  0  0  0
 23 17  1  0  0  0  0
 23 56  1  0  0  0  0
 24 23  1  0  0  0  0
 24 57  1  6  0  0  0
 25 26  2  0  0  0  0
 25 24  1  0  0  0  0
 27 24  1  0  0  0  0
 27 29  1  0  0  0  0
 27 58  1  0  0  0  0
 28 27  1  0  0  0  0
 28 59  1  0  0  0  0
 28 60  1  0  0  0  0
 28 61  1  0  0  0  0
 29 62  1  0  0  0  0
 29 63  1  0  0  0  0
 29 64  1  0  0  0  0
 30 25  1  0  0  0  0
 30 65  1  0  0  0  0
 31 30  1  0  0  0  0
 31 66  1  0  0  0  0
 31 67  1  0  0  0  0
 31 68  1  0  0  0  0
M  END
>  <MODEL>
       0

$$$$
selected_4mers/GTLV/754_noH.pdb
 OpenBabel03042518353D

 68 67  0  0  1  0  0  0  0  0999 V2000
   33.2660   11.7420    6.4790 C   0  0  0  0  0  0  0  0  0  0  0  0
   34.2800   11.1470    7.4570 C   0  0  0  0  0  0  0  0  0  0  0  0
   34.1420   10.0260    7.9020 O   0  0  0  0  0  0  0  0  0  0  0  0
   35.2980   11.9120    7.7810 N   0  0  0  0  0  0  0  0  0  0  0  0
   36.3860   11.4610    8.6240 C   0  0  0  0  0  0  0  0  0  0  0  0
   37.5350   10.8990    7.8040 C   0  0  0  0  0  0  0  0  0  0  0  0
   37.2920   10.2050    6.7830 O   0  0  0  0  0  0  0  0  0  0  0  0
   38.7720   11.1610    8.2340 N   0  0  0  0  0  0  0  0  0  0  0  0
   39.9080   10.5820    7.5670 C   0  0  2  0  0  0  0  0  0  0  0  0
   41.0420   10.2330    8.5400 C   0  0  0  0  0  0  0  0  0  0  0  0
   41.2720   10.9180    9.5430 O   0  0  0  0  0  0  0  0  0  0  0  0
   40.3380   11.4820    6.3850 C   0  0  2  0  0  0  0  0  0  0  0  0
   41.0380   10.6850    5.4130 O   0  0  0  0  0  0  0  0  0  0  0  0
   41.2540   12.5890    6.8370 C   0  0  0  0  0  0  0  0  0  0  0  0
   41.7530    9.1550    8.2300 N   0  0  0  0  0  0  0  0  0  0  0  0
   42.7710    8.6290    9.1150 C   0  0  2  0  0  0  0  0  0  0  0  0
   44.0480    9.4320    9.1260 C   0  0  0  0  0  0  0  0  0  0  0  0
   44.5380    9.8580    8.0780 O   0  0  0  0  0  0  0  0  0  0  0  0
   43.1050    7.1870    8.7250 C   0  0  0  0  0  0  0  0  0  0  0  0
   44.0530    6.3710    9.5890 C   0  0  0  0  0  0  0  0  0  0  0  0
   43.5010    6.2310   10.9990 C   0  0  0  0  0  0  0  0  0  0  0  0
   44.2180    5.0000    8.9040 C   0  0  0  0  0  0  0  0  0  0  0  0
   44.5770    9.6370   10.3370 N   0  0  0  0  0  0  0  0  0  0  0  0
   45.9320   10.1050   10.5460 C   0  0  2  0  0  0  0  0  0  0  0  0
   46.5540    9.0660   11.4400 C   0  0  0  0  0  0  0  0  0  0  0  0
   46.0820    8.8300   12.5600 O   0  0  0  0  0  0  0  0  0  0  0  0
   45.9810   11.4610   11.2390 C   0  0  0  0  0  0  0  0  0  0  0  0
   47.4050   11.8120   11.7020 C   0  0  0  0  0  0  0  0  0  0  0  0
   45.3790   12.5240   10.3380 C   0  0  0  0  0  0  0  0  0  0  0  0
   47.6400    8.4760   10.9670 N   0  0  0  0  0  0  0  0  0  0  0  0
   48.2650    7.3940   11.7070 C   0  0  0  0  0  0  0  0  0  0  0  0
   33.5690   12.7322    6.2095 H   0  0  0  0  0  0  0  0  0  0  0  0
   32.3022   11.7776    6.9423 H   0  0  0  0  0  0  0  0  0  0  0  0
   33.2173   11.1325    5.6009 H   0  0  0  0  0  0  0  0  0  0  0  0
   35.3223   12.8334    7.4351 H   0  0  0  0  0  0  0  0  0  0  0  0
   36.0229   10.6983    9.2808 H   0  0  0  0  0  0  0  0  0  0  0  0
   36.7502   12.3013    9.1774 H   0  0  0  0  0  0  0  0  0  0  0  0
   38.9070   11.7521    9.0097 H   0  0  0  0  0  0  0  0  0  0  0  0
   39.6241    9.6379    7.1511 H   0  0  0  0  0  0  0  0  0  0  0  0
   39.4548   11.9156    5.9646 H   0  0  0  0  0  0  0  0  0  0  0  0
   41.8326   10.3044    5.8187 H   0  0  0  0  0  0  0  0  0  0  0  0
   42.1418   12.1671    7.2598 H   0  0  0  0  0  0  0  0  0  0  0  0
   40.7567   13.1851    7.5734 H   0  0  0  0  0  0  0  0  0  0  0  0
   41.5142   13.2012    5.9989 H   0  0  0  0  0  0  0  0  0  0  0  0
   41.5829    8.7003    7.3735 H   0  0  0  0  0  0  0  0  0  0  0  0
   42.3563    8.6823   10.0999 H   0  0  0  0  0  0  0  0  0  0  0  0
   43.5320    7.2222    7.7445 H   0  0  0  0  0  0  0  0  0  0  0  0
   42.1702    6.6778    8.8333 H   0  0  0  0  0  0  0  0  0  0  0  0
   45.0043    6.8520    9.6815 H   0  0  0  0  0  0  0  0  0  0  0  0
   42.5446    5.7527   10.9617 H   0  0  0  0  0  0  0  0  0  0  0  0
   43.3980    7.2006   11.4396 H   0  0  0  0  0  0  0  0  0  0  0  0
   44.1720    5.6412   11.5878 H   0  0  0  0  0  0  0  0  0  0  0  0
   43.2619    4.5277    8.8164 H   0  0  0  0  0  0  0  0  0  0  0  0
   44.8676    4.3842    9.4903 H   0  0  0  0  0  0  0  0  0  0  0  0
   44.6390    5.1364    7.9298 H   0  0  0  0  0  0  0  0  0  0  0  0
   44.0168    9.4608   11.1272 H   0  0  0  0  0  0  0  0  0  0  0  0
   46.4380   10.2324    9.6118 H   0  0  0  0  0  0  0  0  0  0  0  0
   45.3889   11.4151   12.1291 H   0  0  0  0  0  0  0  0  0  0  0  0
   48.0516   11.8733   10.8517 H   0  0  0  0  0  0  0  0  0  0  0  0
   47.7611   11.0530   12.3668 H   0  0  0  0  0  0  0  0  0  0  0  0
   47.3930   12.7538   12.2096 H   0  0  0  0  0  0  0  0  0  0  0  0
   45.9514   12.5935    9.4366 H   0  0  0  0  0  0  0  0  0  0  0  0
   45.3916   13.4677   10.8421 H   0  0  0  0  0  0  0  0  0  0  0  0
   44.3697   12.2601   10.1001 H   0  0  0  0  0  0  0  0  0  0  0  0
   48.0255    8.7715   10.1107 H   0  0  0  0  0  0  0  0  0  0  0  0
   47.7133    7.2110   12.6054 H   0  0  0  0  0  0  0  0  0  0  0  0
   49.2700    7.6652   11.9546 H   0  0  0  0  0  0  0  0  0  0  0  0
   48.2722    6.5086   11.1063 H   0  0  0  0  0  0  0  0  0  0  0  0
  1  2  1  0  0  0  0
  1 32  1  0  0  0  0
  1 33  1  0  0  0  0
  1 34  1  0  0  0  0
  2  4  1  0  0  0  0
  2  3  2  0  0  0  0
  4  5  1  0  0  0  0
  4 35  1  0  0  0  0
  5 36  1  0  0  0  0
  5 37  1  0  0  0  0
  6  8  1  0  0  0  0
  6  5  1  0  0  0  0
  7  6  2  0  0  0  0
  8 38  1  0  0  0  0
  9  8  1  0  0  0  0
  9 10  1  0  0  0  0
  9 39  1  6  0  0  0
 10 11  2  0  0  0  0
 12 14  1  0  0  0  0
 12  9  1  0  0  0  0
 12 40  1  6  0  0  0
 13 12  1  0  0  0  0
 13 41  1  0  0  0  0
 14 42  1  0  0  0  0
 14 43  1  0  0  0  0
 14 44  1  0  0  0  0
 15 10  1  0  0  0  0
 15 16  1  0  0  0  0
 15 45  1  0  0  0  0
 16 17  1  0  0  0  0
 16 46  1  1  0  0  0
 17 23  1  0  0  0  0
 18 17  2  0  0  0  0
 19 16  1  0  0  0  0
 19 20  1  0  0  0  0
 19 47  1  0  0  0  0
 19 48  1  0  0  0  0
 20 21  1  0  0  0  0
 20 49  1  0  0  0  0
 21 50  1  0  0  0  0
 21 51  1  0  0  0  0
 21 52  1  0  0  0  0
 22 20  1  0  0  0  0
 22 53  1  0  0  0  0
 22 54  1  0  0  0  0
 22 55  1  0  0  0  0
 23 24  1  0  0  0  0
 23 56  1  0  0  0  0
 24 27  1  0  0  0  0
 24 25  1  0  0  0  0
 24 57  1  6  0  0  0
 25 26  2  0  0  0  0
 27 28  1  0  0  0  0
 27 58  1  0  0  0  0
 28 59  1  0  0  0  0
 28 60  1  0  0  0  0
 28 61  1  0  0  0  0
 29 27  1  0  0  0  0
 29 62  1  0  0  0  0
 29 63  1  0  0  0  0
 29 64  1  0  0  0  0
 30 25  1  0  0  0  0
 30 31  1  0  0  0  0
 30 65  1  0  0  0  0
 31 66  1  0  0  0  0
 31 67  1  0  0  0  0
 31 68  1  0  0  0  0
M  END
>  <MODEL>
       0

$$$$
