selected_4mers/GTVL/755_noH.pdb
 OpenBabel03042518353D

 68 67  0  0  1  0  0  0  0  0999 V2000
   52.7890    9.6310   24.6570 C   0  0  0  0  0  0  0  0  0  0  0  0
   53.1510   10.7930   25.5880 C   0  0  0  0  0  0  0  0  0  0  0  0
   52.2780   11.5320   26.0540 O   0  0  0  0  0  0  0  0  0  0  0  0
   54.4530   10.9550   25.8560 N   0  0  0  0  0  0  0  0  0  0  0  0
   54.9050   12.0480   26.6980 C   0  0  0  0  0  0  0  0  0  0  0  0
   54.5720   13.3910   26.0830 C   0  0  0  0  0  0  0  0  0  0  0  0
   54.1130   14.3110   26.7660 O   0  0  0  0  0  0  0  0  0  0  0  0
   54.7850   13.5050   24.7830 N   0  0  0  0  0  0  0  0  0  0  0  0
   54.4640   14.7330   24.0740 C   0  0  2  0  0  0  0  0  0  0  0  0
   52.9490   14.9920   24.0800 C   0  0  0  0  0  0  0  0  0  0  0  0
   52.5100   16.1160   24.3160 O   0  0  0  0  0  0  0  0  0  0  0  0
   54.9750   14.6550   22.6180 C   0  0  2  0  0  0  0  0  0  0  0  0
   56.4000   14.5050   22.6390 O   0  0  0  0  0  0  0  0  0  0  0  0
   54.6010   15.9070   21.8260 C   0  0  0  0  0  0  0  0  0  0  0  0
   52.1520   13.9560   23.8380 N   0  0  0  0  0  0  0  0  0  0  0  0
   50.6860   14.1350   23.8100 C   0  0  2  0  0  0  0  0  0  0  0  0
   50.1550   14.5900   25.1730 C   0  0  0  0  0  0  0  0  0  0  0  0
   49.3210   15.4830   25.2480 O   0  0  0  0  0  0  0  0  0  0  0  0
   49.9620   12.8350   23.3350 C   0  0  0  0  0  0  0  0  0  0  0  0
   48.4670   12.9060   23.6050 C   0  0  0  0  0  0  0  0  0  0  0  0
   50.1710   12.6490   21.8430 C   0  0  0  0  0  0  0  0  0  0  0  0
   50.6880   14.0150   26.2440 N   0  0  0  0  0  0  0  0  0  0  0  0
   50.2830   14.3530   27.6050 C   0  0  2  0  0  0  0  0  0  0  0  0
   51.0470   15.5660   28.1570 C   0  0  0  0  0  0  0  0  0  0  0  0
   50.7100   16.0770   29.2260 O   0  0  0  0  0  0  0  0  0  0  0  0
   50.5190   13.1610   28.5310 C   0  0  0  0  0  0  0  0  0  0  0  0
   49.8710   11.8410   28.1220 C   0  0  0  0  0  0  0  0  0  0  0  0
   50.2330   10.7580   29.1210 C   0  0  0  0  0  0  0  0  0  0  0  0
   48.3480   12.0070   28.0340 C   0  0  0  0  0  0  0  0  0  0  0  0
   52.0540   16.0480   27.4110 N   0  0  0  0  0  0  0  0  0  0  0  0
   52.9290   17.1140   27.9120 C   0  0  0  0  0  0  0  0  0  0  0  0
   53.6807    9.1167   24.3652 H   0  0  0  0  0  0  0  0  0  0  0  0
   52.2957   10.0114   23.7870 H   0  0  0  0  0  0  0  0  0  0  0  0
   52.1378    8.9535   25.1687 H   0  0  0  0  0  0  0  0  0  0  0  0
   55.1102   10.3267   25.4783 H   0  0  0  0  0  0  0  0  0  0  0  0
   55.9651   11.9756   26.8238 H   0  0  0  0  0  0  0  0  0  0  0  0
   54.4058   11.9758   27.6416 H   0  0  0  0  0  0  0  0  0  0  0  0
   55.1674   12.7455   24.2868 H   0  0  0  0  0  0  0  0  0  0  0  0
   54.9484   15.5437   24.5770 H   0  0  0  0  0  0  0  0  0  0  0  0
   54.5160   13.8165   22.1373 H   0  0  0  0  0  0  0  0  0  0  0  0
   56.7995   15.2725   23.0775 H   0  0  0  0  0  0  0  0  0  0  0  0
   55.0469   16.7651   22.2839 H   0  0  0  0  0  0  0  0  0  0  0  0
   53.5369   16.0194   21.8180 H   0  0  0  0  0  0  0  0  0  0  0  0
   54.9573   15.8132   20.8214 H   0  0  0  0  0  0  0  0  0  0  0  0
   52.5404   13.0658   23.6768 H   0  0  0  0  0  0  0  0  0  0  0  0
   50.4718   14.9061   23.0998 H   0  0  0  0  0  0  0  0  0  0  0  0
   50.3770   12.0129   23.8798 H   0  0  0  0  0  0  0  0  0  0  0  0
   48.0452   13.7265   23.0630 H   0  0  0  0  0  0  0  0  0  0  0  0
   48.3000   13.0470   24.6524 H   0  0  0  0  0  0  0  0  0  0  0  0
   48.0039   11.9944   23.2896 H   0  0  0  0  0  0  0  0  0  0  0  0
   49.7496   13.4803   21.3175 H   0  0  0  0  0  0  0  0  0  0  0  0
   49.6920   11.7464   21.5255 H   0  0  0  0  0  0  0  0  0  0  0  0
   51.2188   12.5892   21.6343 H   0  0  0  0  0  0  0  0  0  0  0  0
   51.3854   13.3322   26.1151 H   0  0  0  0  0  0  0  0  0  0  0  0
   49.2429   14.6016   27.5680 H   0  0  0  0  0  0  0  0  0  0  0  0
   50.1430   13.4216   29.4983 H   0  0  0  0  0  0  0  0  0  0  0  0
   51.5732   12.9810   28.4971 H   0  0  0  0  0  0  0  0  0  0  0  0
   50.2362   11.5535   27.1582 H   0  0  0  0  0  0  0  0  0  0  0  0
   49.8734   11.0326   30.0906 H   0  0  0  0  0  0  0  0  0  0  0  0
   51.2964   10.6442   29.1540 H   0  0  0  0  0  0  0  0  0  0  0  0
   49.7845    9.8334   28.8229 H   0  0  0  0  0  0  0  0  0  0  0  0
   47.9647   12.2949   28.9906 H   0  0  0  0  0  0  0  0  0  0  0  0
   47.9047   11.0797   27.7365 H   0  0  0  0  0  0  0  0  0  0  0  0
   48.1126   12.7622   27.3135 H   0  0  0  0  0  0  0  0  0  0  0  0
   52.2081   15.6793   26.5112 H   0  0  0  0  0  0  0  0  0  0  0  0
   52.6216   17.3939   28.8979 H   0  0  0  0  0  0  0  0  0  0  0  0
   52.8642   17.9628   27.2638 H   0  0  0  0  0  0  0  0  0  0  0  0
   53.9393   16.7627   27.9396 H   0  0  0  0  0  0  0  0  0  0  0  0
  1  2  1  0  0  0  0
  1 32  1  0  0  0  0
  1 33  1  0  0  0  0
  1 34  1  0  0  0  0
  2  4  1  0  0  0  0
  2  3  2  0  0  0  0
  4  5  1  0  0  0  0
  4 35  1  0  0  0  0
  5 36  1  0  0  0  0
  5 37  1  0  0  0  0
  6  5  1  0  0  0  0
  6  7  2  0  0  0  0
  8  6  1  0  0  0  0
  8 38  1  0  0  0  0
  9 10  1  0  0  0  0
  9  8  1  0  0  0  0
  9 39  1  1  0  0  0
 10 11  2  0  0  0  0
 12 13  1  0  0  0  0
 12  9  1  0  0  0  0
 12 40  1  6  0  0  0
 13 41  1  0  0  0  0
 14 12  1  0  0  0  0
 14 42  1  0  0  0  0
 14 43  1  0  0  0  0
 14 44  1  0  0  0  0
 15 10  1  0  0  0  0
 15 45  1  0  0  0  0
 16 15  1  0  0  0  0
 16 17  1  0  0  0  0
 16 46  1  6  0  0  0
 17 18  2  0  0  0  0
 17 22  1  0  0  0  0
 19 20  1  0  0  0  0
 19 16  1  0  0  0  0
 19 47  1  0  0  0  0
 20 48  1  0  0  0  0
 20 49  1  0  0  0  0
 20 50  1  0  0  0  0
 21 19  1  0  0  0  0
 21 51  1  0  0  0  0
 21 52  1  0  0  0  0
 21 53  1  0  0  0  0
 22 23  1  0  0  0  0
 22 54  1  0  0  0  0
 23 24  1  0  0  0  0
 23 26  1  0  0  0  0
 23 55  1  6  0  0  0
 24 25  2  0  0  0  0
 26 56  1  0  0  0  0
 26 57  1  0  0  0  0
 27 26  1  0  0  0  0
 27 28  1  0  0  0  0
 27 58  1  0  0  0  0
 28 59  1  0  0  0  0
 28 60  1  0  0  0  0
 28 61  1  0  0  0  0
 29 27  1  0  0  0  0
 29 62  1  0  0  0  0
 29 63  1  0  0  0  0
 29 64  1  0  0  0  0
 30 31  1  0  0  0  0
 30 24  1  0  0  0  0
 30 65  1  0  0  0  0
 31 66  1  0  0  0  0
 31 67  1  0  0  0  0
 31 68  1  0  0  0  0
M  END
>  <MODEL>
       0

$$$$
selected_4mers/GTVL/756_noH.pdb
 OpenBabel03042518353D

 68 67  0  0  1  0  0  0  0  0999 V2000
   -3.3500   45.4060   52.0120 C   0  0  0  0  0  0  0  0  0  0  0  0
   -2.5410   44.1720   52.4710 C   0  0  0  0  0  0  0  0  0  0  0  0
   -2.3470   43.9480   53.6760 O   0  0  0  0  0  0  0  0  0  0  0  0
   -2.0990   43.3700   51.5040 N   0  0  0  0  0  0  0  0  0  0  0  0
   -1.4190   42.1110   51.7840 C   0  0  0  0  0  0  0  0  0  0  0  0
   -0.0300   42.2810   52.3690 C   0  0  0  0  0  0  0  0  0  0  0  0
    0.4810   41.3740   53.0330 O   0  0  0  0  0  0  0  0  0  0  0  0
    0.5810   43.4360   52.1110 N   0  0  0  0  0  0  0  0  0  0  0  0
    1.8990   43.7590   52.6440 C   0  0  2  0  0  0  0  0  0  0  0  0
    1.7850   44.0970   54.1320 C   0  0  0  0  0  0  0  0  0  0  0  0
    2.5780   43.6180   54.9460 O   0  0  0  0  0  0  0  0  0  0  0  0
    2.5480   44.9130   51.8450 C   0  0  2  0  0  0  0  0  0  0  0  0
    2.6740   44.5160   50.4720 O   0  0  0  0  0  0  0  0  0  0  0  0
    3.9270   45.2660   52.3800 C   0  0  0  0  0  0  0  0  0  0  0  0
    0.7730   44.8960   54.4790 N   0  0  0  0  0  0  0  0  0  0  0  0
    0.6070   45.4030   55.8400 C   0  0  2  0  0  0  0  0  0  0  0  0
   -0.1780   44.4440   56.7490 C   0  0  0  0  0  0  0  0  0  0  0  0
    0.0460   44.3970   57.9610 O   0  0  0  0  0  0  0  0  0  0  0  0
   -0.0200   46.8300   55.8460 C   0  0  0  0  0  0  0  0  0  0  0  0
   -1.4340   46.7980   55.3150 C   0  0  0  0  0  0  0  0  0  0  0  0
    0.0070   47.4370   57.2460 C   0  0  0  0  0  0  0  0  0  0  0  0
   -1.0880   43.6700   56.1710 N   0  0  0  0  0  0  0  0  0  0  0  0
   -1.8650   42.7210   56.9620 C   0  0  2  0  0  0  0  0  0  0  0  0
   -1.7790   41.3070   56.3740 C   0  0  0  0  0  0  0  0  0  0  0  0
   -2.8020   40.7170   56.0220 O   0  0  0  0  0  0  0  0  0  0  0  0
   -3.3230   43.1990   57.1030 C   0  0  0  0  0  0  0  0  0  0  0  0
   -3.6050   44.4570   57.9430 C   0  0  0  0  0  0  0  0  0  0  0  0
   -4.9950   45.0130   57.6510 C   0  0  0  0  0  0  0  0  0  0  0  0
   -3.4520   44.1870   59.4330 C   0  0  0  0  0  0  0  0  0  0  0  0
   -0.5490   40.7440   56.2950 N   0  0  0  0  0  0  0  0  0  0  0  0
   -0.3730   39.4640   55.5980 C   0  0  0  0  0  0  0  0  0  0  0  0
   -3.4038   45.4199   50.9434 H   0  0  0  0  0  0  0  0  0  0  0  0
   -2.8678   46.2969   52.3565 H   0  0  0  0  0  0  0  0  0  0  0  0
   -4.3386   45.3557   52.4183 H   0  0  0  0  0  0  0  0  0  0  0  0
   -2.2364   43.6368   50.5664 H   0  0  0  0  0  0  0  0  0  0  0  0
   -1.3347   41.5626   50.8691 H   0  0  0  0  0  0  0  0  0  0  0  0
   -2.0048   41.5974   52.5175 H   0  0  0  0  0  0  0  0  0  0  0  0
    0.1259   44.0959   51.5394 H   0  0  0  0  0  0  0  0  0  0  0  0
    2.5378   42.9068   52.5409 H   0  0  0  0  0  0  0  0  0  0  0  0
    1.9213   45.7749   51.9414 H   0  0  0  0  0  0  0  0  0  0  0  0
    3.2456   43.7345   50.4125 H   0  0  0  0  0  0  0  0  0  0  0  0
    4.5715   44.4163   52.2931 H   0  0  0  0  0  0  0  0  0  0  0  0
    3.8485   45.5504   53.4085 H   0  0  0  0  0  0  0  0  0  0  0  0
    4.3313   46.0796   51.8148 H   0  0  0  0  0  0  0  0  0  0  0  0
    0.1148   45.1530   53.7934 H   0  0  0  0  0  0  0  0  0  0  0  0
    1.5915   45.4711   56.2535 H   0  0  0  0  0  0  0  0  0  0  0  0
    0.5711   47.4474   55.2023 H   0  0  0  0  0  0  0  0  0  0  0  0
   -2.0391   46.1837   55.9486 H   0  0  0  0  0  0  0  0  0  0  0  0
   -1.4336   46.3961   54.3234 H   0  0  0  0  0  0  0  0  0  0  0  0
   -1.8308   47.7915   55.2970 H   0  0  0  0  0  0  0  0  0  0  0  0
   -0.5792   46.8340   57.9075 H   0  0  0  0  0  0  0  0  0  0  0  0
   -0.3973   48.4271   57.2133 H   0  0  0  0  0  0  0  0  0  0  0  0
    1.0165   47.4754   57.5987 H   0  0  0  0  0  0  0  0  0  0  0  0
   -1.2402   43.7365   55.2006 H   0  0  0  0  0  0  0  0  0  0  0  0
   -1.4435   42.6756   57.9444 H   0  0  0  0  0  0  0  0  0  0  0  0
   -3.8778   42.3958   57.5410 H   0  0  0  0  0  0  0  0  0  0  0  0
   -3.6042   43.4790   56.1093 H   0  0  0  0  0  0  0  0  0  0  0  0
   -2.8766   45.1888   57.6625 H   0  0  0  0  0  0  0  0  0  0  0  0
   -5.7337   44.2899   57.9274 H   0  0  0  0  0  0  0  0  0  0  0  0
   -5.0806   45.2290   56.6065 H   0  0  0  0  0  0  0  0  0  0  0  0
   -5.1458   45.9102   58.2142 H   0  0  0  0  0  0  0  0  0  0  0  0
   -4.1714   43.4564   59.7388 H   0  0  0  0  0  0  0  0  0  0  0  0
   -3.6110   45.0940   59.9780 H   0  0  0  0  0  0  0  0  0  0  0  0
   -2.4660   43.8208   59.6297 H   0  0  0  0  0  0  0  0  0  0  0  0
    0.2257   41.1928   56.7045 H   0  0  0  0  0  0  0  0  0  0  0  0
   -1.3172   39.1305   55.2209 H   0  0  0  0  0  0  0  0  0  0  0  0
    0.0156   38.7369   56.2801 H   0  0  0  0  0  0  0  0  0  0  0  0
    0.3108   39.5917   54.7850 H   0  0  0  0  0  0  0  0  0  0  0  0
  1  2  1  0  0  0  0
  1 32  1  0  0  0  0
  1 33  1  0  0  0  0
  1 34  1  0  0  0  0
  2  3  2  0  0  0  0
  4  5  1  0  0  0  0
  4  2  1  0  0  0  0
  4 35  1  0  0  0  0
  5  6  1  0  0  0  0
  5 36  1  0  0  0  0
  5 37  1  0  0  0  0
  6  7  2  0  0  0  0
  8  6  1  0  0  0  0
  8  9  1  0  0  0  0
  8 38  1  0  0  0  0
  9 10  1  0  0  0  0
  9 39  1  6  0  0  0
 10 15  1  0  0  0  0
 10 11  2  0  0  0  0
 12 14  1  0  0  0  0
 12  9  1  0  0  0  0
 12 40  1  1  0  0  0
 13 12  1  0  0  0  0
 13 41  1  0  0  0  0
 14 42  1  0  0  0  0
 14 43  1  0  0  0  0
 14 44  1  0  0  0  0
 15 16  1  0  0  0  0
 15 45  1  0  0  0  0
 16 19  1  0  0  0  0
 16 17  1  0  0  0  0
 16 46  1  1  0  0  0
 17 18  2  0  0  0  0
 19 21  1  0  0  0  0
 19 47  1  0  0  0  0
 20 19  1  0  0  0  0
 20 48  1  0  0  0  0
 20 49  1  0  0  0  0
 20 50  1  0  0  0  0
 21 51  1  0  0  0  0
 21 52  1  0  0  0  0
 21 53  1  0  0  0  0
 22 17  1  0  0  0  0
 22 23  1  0  0  0  0
 22 54  1  0  0  0  0
 23 26  1  0  0  0  0
 23 55  1  1  0  0  0
 24 23  1  0  0  0  0
 25 24  2  0  0  0  0
 26 27  1  0  0  0  0
 26 56  1  0  0  0  0
 26 57  1  0  0  0  0
 27 29  1  0  0  0  0
 27 58  1  0  0  0  0
 28 27  1  0  0  0  0
 28 59  1  0  0  0  0
 28 60  1  0  0  0  0
 28 61  1  0  0  0  0
 29 62  1  0  0  0  0
 29 63  1  0  0  0  0
 29 64  1  0  0  0  0
 30 24  1  0  0  0  0
 30 65  1  0  0  0  0
 31 30  1  0  0  0  0
 31 66  1  0  0  0  0
 31 67  1  0  0  0  0
 31 68  1  0  0  0  0
M  END
>  <MODEL>
       0

$$$$
selected_4mers/GTVL/757_noH.pdb
 OpenBabel03042518353D

 68 67  0  0  1  0  0  0  0  0999 V2000
    3.6190   15.9140   25.8130 C   0  0  0  0  0  0  0  0  0  0  0  0
    3.6410   16.0340   27.3290 C   0  0  0  0  0  0  0  0  0  0  0  0
    2.6170   15.8930   27.9830 O   0  0  0  0  0  0  0  0  0  0  0  0
    4.8220   16.2970   27.8710 N   0  0  0  0  0  0  0  0  0  0  0  0
    5.0220   16.3840   29.3140 C   0  0  0  0  0  0  0  0  0  0  0  0
    6.4410   16.8090   29.6110 C   0  0  0  0  0  0  0  0  0  0  0  0
    7.2450   17.0090   28.7030 O   0  0  0  0  0  0  0  0  0  0  0  0
    6.7390   16.9830   30.8920 N   0  0  0  0  0  0  0  0  0  0  0  0
    8.0160   17.4740   31.3460 C   0  0  2  0  0  0  0  0  0  0  0  0
    8.3590   16.7980   32.6510 C   0  0  0  0  0  0  0  0  0  0  0  0
    7.4600   16.3880   33.3820 O   0  0  0  0  0  0  0  0  0  0  0  0
    8.0090   19.0490   31.5460 C   0  0  2  0  0  0  0  0  0  0  0  0
    9.3410   19.4990   31.8080 O   0  0  0  0  0  0  0  0  0  0  0  0
    7.0640   19.5140   32.6940 C   0  0  0  0  0  0  0  0  0  0  0  0
    9.6420   16.7100   32.9640 N   0  0  0  0  0  0  0  0  0  0  0  0
   10.0370   16.4930   34.3670 C   0  0  2  0  0  0  0  0  0  0  0  0
   10.1520   17.8940   34.9930 C   0  0  0  0  0  0  0  0  0  0  0  0
   10.5540   18.8570   34.3290 O   0  0  0  0  0  0  0  0  0  0  0  0
   11.3680   15.7060   34.4990 C   0  0  0  0  0  0  0  0  0  0  0  0
   11.8560   15.6680   35.9690 C   0  0  0  0  0  0  0  0  0  0  0  0
   11.2290   14.2750   33.9620 C   0  0  0  0  0  0  0  0  0  0  0  0
    9.7660   18.0260   36.2620 N   0  0  0  0  0  0  0  0  0  0  0  0
    9.9800   19.2680   36.9910 C   0  0  2  0  0  0  0  0  0  0  0  0
   10.5870   18.8720   38.3230 C   0  0  0  0  0  0  0  0  0  0  0  0
    9.9290   18.2320   39.1500 O   0  0  0  0  0  0  0  0  0  0  0  0
    8.6650   20.0590   37.1900 C   0  0  0  0  0  0  0  0  0  0  0  0
    8.7430   21.3390   38.0460 C   0  0  0  0  0  0  0  0  0  0  0  0
    9.6490   22.3490   37.3830 C   0  0  0  0  0  0  0  0  0  0  0  0
    7.3400   21.9410   38.3220 C   0  0  0  0  0  0  0  0  0  0  0  0
   11.8530   19.2070   38.5140 N   0  0  0  0  0  0  0  0  0  0  0  0
   12.5360   18.8620   39.7570 C   0  0  0  0  0  0  0  0  0  0  0  0
    4.6055   16.0686   25.4286 H   0  0  0  0  0  0  0  0  0  0  0  0
    2.9583   16.6509   25.4064 H   0  0  0  0  0  0  0  0  0  0  0  0
    3.2777   14.9381   25.5374 H   0  0  0  0  0  0  0  0  0  0  0  0
    5.5941   16.4391   27.2769 H   0  0  0  0  0  0  0  0  0  0  0  0
    4.8382   15.4271   29.7561 H   0  0  0  0  0  0  0  0  0  0  0  0
    4.3452   17.1060   29.7208 H   0  0  0  0  0  0  0  0  0  0  0  0
    6.0545   16.7662   31.5655 H   0  0  0  0  0  0  0  0  0  0  0  0
    8.7487   17.2491   30.5993 H   0  0  0  0  0  0  0  0  0  0  0  0
    7.6340   19.4806   30.6415 H   0  0  0  0  0  0  0  0  0  0  0  0
    9.6621   19.0973   32.6304 H   0  0  0  0  0  0  0  0  0  0  0  0
    7.4024   19.1041   33.6226 H   0  0  0  0  0  0  0  0  0  0  0  0
    6.0687   19.1749   32.4961 H   0  0  0  0  0  0  0  0  0  0  0  0
    7.0719   20.5824   32.7518 H   0  0  0  0  0  0  0  0  0  0  0  0
   10.3289   16.7891   32.2631 H   0  0  0  0  0  0  0  0  0  0  0  0
    9.3101   15.8906   34.8706 H   0  0  0  0  0  0  0  0  0  0  0  0
   12.0956   16.2228   33.9087 H   0  0  0  0  0  0  0  0  0  0  0  0
   11.1363   15.1532   36.5705 H   0  0  0  0  0  0  0  0  0  0  0  0
   11.9741   16.6678   36.3316 H   0  0  0  0  0  0  0  0  0  0  0  0
   12.7946   15.1568   36.0201 H   0  0  0  0  0  0  0  0  0  0  0  0
   10.5037   13.7448   34.5432 H   0  0  0  0  0  0  0  0  0  0  0  0
   12.1731   13.7759   34.0283 H   0  0  0  0  0  0  0  0  0  0  0  0
   10.9132   14.3066   32.9401 H   0  0  0  0  0  0  0  0  0  0  0  0
    9.3280   17.2695   36.7148 H   0  0  0  0  0  0  0  0  0  0  0  0
   10.6261   19.9212   36.4426 H   0  0  0  0  0  0  0  0  0  0  0  0
    7.9598   19.4020   37.6547 H   0  0  0  0  0  0  0  0  0  0  0  0
    8.3907   20.3943   36.2116 H   0  0  0  0  0  0  0  0  0  0  0  0
    9.1565   21.0750   38.9969 H   0  0  0  0  0  0  0  0  0  0  0  0
    9.2442   22.6200   36.4303 H   0  0  0  0  0  0  0  0  0  0  0  0
   10.6211   21.9224   37.2492 H   0  0  0  0  0  0  0  0  0  0  0  0
    9.7236   23.2202   37.9997 H   0  0  0  0  0  0  0  0  0  0  0  0
    6.8839   22.2219   37.3957 H   0  0  0  0  0  0  0  0  0  0  0  0
    7.4388   22.8038   38.9471 H   0  0  0  0  0  0  0  0  0  0  0  0
    6.7297   21.2124   38.8136 H   0  0  0  0  0  0  0  0  0  0  0  0
   12.3393   19.6941   37.8101 H   0  0  0  0  0  0  0  0  0  0  0  0
   11.8608   18.3391   40.4017 H   0  0  0  0  0  0  0  0  0  0  0  0
   12.8702   19.7562   40.2404 H   0  0  0  0  0  0  0  0  0  0  0  0
   13.3776   18.2379   39.5401 H   0  0  0  0  0  0  0  0  0  0  0  0
  1  2  1  0  0  0  0
  1 32  1  0  0  0  0
  1 33  1  0  0  0  0
  1 34  1  0  0  0  0
  2  4  1  0  0  0  0
  2  3  2  0  0  0  0
  4  5  1  0  0  0  0
  4 35  1  0  0  0  0
  5  6  1  0  0  0  0
  5 36  1  0  0  0  0
  5 37  1  0  0  0  0
  6  8  1  0  0  0  0
  7  6  2  0  0  0  0
  8  9  1  0  0  0  0
  8 38  1  0  0  0  0
  9 12  1  0  0  0  0
  9 10  1  0  0  0  0
  9 39  1  6  0  0  0
 10 15  1  0  0  0  0
 10 11  2  0  0  0  0
 12 13  1  0  0  0  0
 12 14  1  0  0  0  0
 12 40  1  6  0  0  0
 13 41  1  0  0  0  0
 14 42  1  0  0  0  0
 14 43  1  0  0  0  0
 14 44  1  0  0  0  0
 15 16  1  0  0  0  0
 15 45  1  0  0  0  0
 16 19  1  0  0  0  0
 16 17  1  0  0  0  0
 16 46  1  1  0  0  0
 17 22  1  0  0  0  0
 18 17  2  0  0  0  0
 19 20  1  0  0  0  0
 19 47  1  0  0  0  0
 20 48  1  0  0  0  0
 20 49  1  0  0  0  0
 20 50  1  0  0  0  0
 21 19  1  0  0  0  0
 21 51  1  0  0  0  0
 21 52  1  0  0  0  0
 21 53  1  0  0  0  0
 22 23  1  0  0  0  0
 22 54  1  0  0  0  0
 23 26  1  0  0  0  0
 23 24  1  0  0  0  0
 23 55  1  6  0  0  0
 24 30  1  0  0  0  0
 24 25  2  0  0  0  0
 26 27  1  0  0  0  0
 26 56  1  0  0  0  0
 26 57  1  0  0  0  0
 27 29  1  0  0  0  0
 27 58  1  0  0  0  0
 28 27  1  0  0  0  0
 28 59  1  0  0  0  0
 28 60  1  0  0  0  0
 28 61  1  0  0  0  0
 29 62  1  0  0  0  0
 29 63  1  0  0  0  0
 29 64  1  0  0  0  0
 30 31  1  0  0  0  0
 30 65  1  0  0  0  0
 31 66  1  0  0  0  0
 31 67  1  0  0  0  0
 31 68  1  0  0  0  0
M  END
>  <MODEL>
       0

$$$$
selected_4mers/GTVL/758_noH.pdb
 OpenBabel03042518353D

 68 67  0  0  1  0  0  0  0  0999 V2000
   73.0240   13.8470   63.0550 C   0  0  0  0  0  0  0  0  0  0  0  0
   71.9900   14.7480   63.7030 C   0  0  0  0  0  0  0  0  0  0  0  0
   70.7860   14.7540   63.2450 O   0  0  0  0  0  0  0  0  0  0  0  0
   72.3380   15.5880   64.6820 N   0  0  0  0  0  0  0  0  0  0  0  0
   71.3750   16.4150   65.3750 C   0  0  0  0  0  0  0  0  0  0  0  0
   71.4510   17.8930   65.0150 C   0  0  0  0  0  0  0  0  0  0  0  0
   72.4570   18.3870   64.4510 O   0  0  0  0  0  0  0  0  0  0  0  0
   70.4530   18.6460   65.4250 N   0  0  0  0  0  0  0  0  0  0  0  0
   70.2860   20.0650   65.1580 C   0  0  2  0  0  0  0  0  0  0  0  0
   70.4660   20.3470   63.6590 C   0  0  0  0  0  0  0  0  0  0  0  0
   71.0570   21.3770   63.2570 O   0  0  0  0  0  0  0  0  0  0  0  0
   71.2740   20.9460   65.9550 C   0  0  2  0  0  0  0  0  0  0  0  0
   71.3950   20.4560   67.3220 O   0  0  0  0  0  0  0  0  0  0  0  0
   70.8140   22.4000   66.0480 C   0  0  0  0  0  0  0  0  0  0  0  0
   69.8660   19.5610   62.7990 N   0  0  0  0  0  0  0  0  0  0  0  0
   69.8840   19.7050   61.3280 C   0  0  2  0  0  0  0  0  0  0  0  0
   68.8090   20.7080   60.9290 C   0  0  0  0  0  0  0  0  0  0  0  0
   67.6140   20.4950   61.2090 O   0  0  0  0  0  0  0  0  0  0  0  0
   69.6770   18.3170   60.7020 C   0  0  0  0  0  0  0  0  0  0  0  0
   69.3810   18.3650   59.1990 C   0  0  0  0  0  0  0  0  0  0  0  0
   70.9260   17.4560   60.9260 C   0  0  0  0  0  0  0  0  0  0  0  0
   69.1920   21.8930   60.4210 N   0  0  0  0  0  0  0  0  0  0  0  0
   68.2170   22.9170   60.0530 C   0  0  2  0  0  0  0  0  0  0  0  0
   68.1210   23.1900   58.5380 C   0  0  0  0  0  0  0  0  0  0  0  0
   67.1110   23.8390   58.1270 O   0  0  0  0  0  0  0  0  0  0  0  0
   68.5170   24.2620   60.7400 C   0  0  0  0  0  0  0  0  0  0  0  0
   68.7240   24.1620   62.2900 C   0  0  0  0  0  0  0  0  0  0  0  0
   69.1340   25.5500   62.8210 C   0  0  0  0  0  0  0  0  0  0  0  0
   67.4170   23.7460   62.9760 C   0  0  0  0  0  0  0  0  0  0  0  0
   69.0440   22.7260   57.7480 N   0  0  0  0  0  0  0  0  0  0  0  0
   69.0340   23.0390   56.3000 C   0  0  0  0  0  0  0  0  0  0  0  0
   72.5553   13.2526   62.2987 H   0  0  0  0  0  0  0  0  0  0  0  0
   73.4539   13.2065   63.7966 H   0  0  0  0  0  0  0  0  0  0  0  0
   73.7922   14.4463   62.6126 H   0  0  0  0  0  0  0  0  0  0  0  0
   73.2859   15.6462   64.9415 H   0  0  0  0  0  0  0  0  0  0  0  0
   71.5429   16.3164   66.4271 H   0  0  0  0  0  0  0  0  0  0  0  0
   70.4052   16.0745   65.0775 H   0  0  0  0  0  0  0  0  0  0  0  0
   69.7544   18.2076   65.9626 H   0  0  0  0  0  0  0  0  0  0  0  0
   69.2950   20.3180   65.4724 H   0  0  0  0  0  0  0  0  0  0  0  0
   72.2052   20.8969   65.4303 H   0  0  0  0  0  0  0  0  0  0  0  0
   70.5338   20.5159   67.7644 H   0  0  0  0  0  0  0  0  0  0  0  0
   69.8828   22.4466   66.5730 H   0  0  0  0  0  0  0  0  0  0  0  0
   70.6883   22.7980   65.0628 H   0  0  0  0  0  0  0  0  0  0  0  0
   71.5487   22.9736   66.5734 H   0  0  0  0  0  0  0  0  0  0  0  0
   69.3556   18.8039   63.1671 H   0  0  0  0  0  0  0  0  0  0  0  0
   70.8198   20.0807   60.9703 H   0  0  0  0  0  0  0  0  0  0  0  0
   68.8211   17.8946   61.1856 H   0  0  0  0  0  0  0  0  0  0  0  0
   70.2199   18.7838   58.6835 H   0  0  0  0  0  0  0  0  0  0  0  0
   68.5165   18.9710   59.0249 H   0  0  0  0  0  0  0  0  0  0  0  0
   69.1999   17.3737   58.8393 H   0  0  0  0  0  0  0  0  0  0  0  0
   71.7619   17.9045   60.4310 H   0  0  0  0  0  0  0  0  0  0  0  0
   70.7599   16.4764   60.5288 H   0  0  0  0  0  0  0  0  0  0  0  0
   71.1278   17.3862   61.9745 H   0  0  0  0  0  0  0  0  0  0  0  0
   70.1513   22.0745   60.2942 H   0  0  0  0  0  0  0  0  0  0  0  0
   67.2847   22.5095   60.3842 H   0  0  0  0  0  0  0  0  0  0  0  0
   67.6973   24.9239   60.5534 H   0  0  0  0  0  0  0  0  0  0  0  0
   69.4394   24.6167   60.3298 H   0  0  0  0  0  0  0  0  0  0  0  0
   69.4795   23.4333   62.4976 H   0  0  0  0  0  0  0  0  0  0  0  0
   68.3628   26.2582   62.6007 H   0  0  0  0  0  0  0  0  0  0  0  0
   70.0449   25.8569   62.3510 H   0  0  0  0  0  0  0  0  0  0  0  0
   69.2789   25.4983   63.8799 H   0  0  0  0  0  0  0  0  0  0  0  0
   66.6592   24.4728   62.7703 H   0  0  0  0  0  0  0  0  0  0  0  0
   67.5732   23.6828   64.0327 H   0  0  0  0  0  0  0  0  0  0  0  0
   67.1067   22.7921   62.6037 H   0  0  0  0  0  0  0  0  0  0  0  0
   69.7591   22.1590   58.1173 H   0  0  0  0  0  0  0  0  0  0  0  0
   68.1931   23.6614   56.0754 H   0  0  0  0  0  0  0  0  0  0  0  0
   68.9651   22.1304   55.7392 H   0  0  0  0  0  0  0  0  0  0  0  0
   69.9366   23.5513   56.0396 H   0  0  0  0  0  0  0  0  0  0  0  0
  1  2  1  0  0  0  0
  1 32  1  0  0  0  0
  1 33  1  0  0  0  0
  1 34  1  0  0  0  0
  2  4  1  0  0  0  0
  3  2  2  0  0  0  0
  4  5  1  0  0  0  0
  4 35  1  0  0  0  0
  5 36  1  0  0  0  0
  5 37  1  0  0  0  0
  6  5  1  0  0  0  0
  6  8  1  0  0  0  0
  7  6  2  0  0  0  0
  8 38  1  0  0  0  0
  9  8  1  0  0  0  0
  9 12  1  0  0  0  0
  9 39  1  1  0  0  0
 10  9  1  0  0  0  0
 11 10  2  0  0  0  0
 12 14  1  0  0  0  0
 12 13  1  0  0  0  0
 12 40  1  6  0  0  0
 13 41  1  0  0  0  0
 14 42  1  0  0  0  0
 14 43  1  0  0  0  0
 14 44  1  0  0  0  0
 15 10  1  0  0  0  0
 15 45  1  0  0  0  0
 16 15  1  0  0  0  0
 16 46  1  6  0  0  0
 17 18  2  0  0  0  0
 17 16  1  0  0  0  0
 19 21  1  0  0  0  0
 19 16  1  0  0  0  0
 19 47  1  0  0  0  0
 20 19  1  0  0  0  0
 20 48  1  0  0  0  0
 20 49  1  0  0  0  0
 20 50  1  0  0  0  0
 21 51  1  0  0  0  0
 21 52  1  0  0  0  0
 21 53  1  0  0  0  0
 22 17  1  0  0  0  0
 22 54  1  0  0  0  0
 23 22  1  0  0  0  0
 23 26  1  0  0  0  0
 23 55  1  1  0  0  0
 24 23  1  0  0  0  0
 25 24  2  0  0  0  0
 26 27  1  0  0  0  0
 26 56  1  0  0  0  0
 26 57  1  0  0  0  0
 27 28  1  0  0  0  0
 27 29  1  0  0  0  0
 27 58  1  0  0  0  0
 28 59  1  0  0  0  0
 28 60  1  0  0  0  0
 28 61  1  0  0  0  0
 29 62  1  0  0  0  0
 29 63  1  0  0  0  0
 29 64  1  0  0  0  0
 30 24  1  0  0  0  0
 30 65  1  0  0  0  0
 31 30  1  0  0  0  0
 31 66  1  0  0  0  0
 31 67  1  0  0  0  0
 31 68  1  0  0  0  0
M  END
>  <MODEL>
       0

$$$$
selected_4mers/GTVL/759_noH.pdb
 OpenBabel03042518353D

 68 67  0  0  1  0  0  0  0  0999 V2000
   52.7760   42.4230  -17.2910 C   0  0  0  0  0  0  0  0  0  0  0  0
   52.7040   41.2420  -16.3730 C   0  0  0  0  0  0  0  0  0  0  0  0
   53.5690   41.0510  -15.5330 O   0  0  0  0  0  0  0  0  0  0  0  0
   51.6770   40.4180  -16.5250 N   0  0  0  0  0  0  0  0  0  0  0  0
   51.5260   39.2890  -15.6620 C   0  0  0  0  0  0  0  0  0  0  0  0
   50.2790   38.4930  -15.9930 C   0  0  0  0  0  0  0  0  0  0  0  0
   49.6010   38.7320  -17.0080 O   0  0  0  0  0  0  0  0  0  0  0  0
   49.9670   37.5580  -15.1150 N   0  0  0  0  0  0  0  0  0  0  0  0
   48.8080   36.6880  -15.3020 C   0  0  2  0  0  0  0  0  0  0  0  0
   47.5370   37.3870  -14.9660 C   0  0  0  0  0  0  0  0  0  0  0  0
   47.4280   38.0160  -13.8930 O   0  0  0  0  0  0  0  0  0  0  0  0
   49.0290   35.4150  -14.4410 C   0  0  2  0  0  0  0  0  0  0  0  0
   50.1940   34.7420  -14.9230 O   0  0  0  0  0  0  0  0  0  0  0  0
   47.8420   34.5170  -14.5010 C   0  0  0  0  0  0  0  0  0  0  0  0
   46.5450   37.1990  -15.8280 N   0  0  0  0  0  0  0  0  0  0  0  0
   45.2050   37.6640  -15.5550 C   0  0  2  0  0  0  0  0  0  0  0  0
   44.2590   36.4570  -15.5910 C   0  0  0  0  0  0  0  0  0  0  0  0
   44.2650   35.6980  -16.5630 O   0  0  0  0  0  0  0  0  0  0  0  0
   44.7500   38.7510  -16.5270 C   0  0  0  0  0  0  0  0  0  0  0  0
   43.3120   39.1050  -16.3020 C   0  0  0  0  0  0  0  0  0  0  0  0
   45.6720   39.9720  -16.3960 C   0  0  0  0  0  0  0  0  0  0  0  0
   43.4940   36.2870  -14.5280 N   0  0  0  0  0  0  0  0  0  0  0  0
   42.4630   35.2420  -14.4850 C   0  0  2  0  0  0  0  0  0  0  0  0
   41.1610   35.8880  -14.8940 C   0  0  0  0  0  0  0  0  0  0  0  0
   40.7830   36.9330  -14.3820 O   0  0  0  0  0  0  0  0  0  0  0  0
   42.3290   34.6980  -13.0800 C   0  0  0  0  0  0  0  0  0  0  0  0
   43.6510   34.2300  -12.4490 C   0  0  0  0  0  0  0  0  0  0  0  0
   43.3800   33.6820  -11.0620 C   0  0  0  0  0  0  0  0  0  0  0  0
   44.3590   33.2130  -13.3360 C   0  0  0  0  0  0  0  0  0  0  0  0
   40.4580   35.2570  -15.8320 N   0  0  0  0  0  0  0  0  0  0  0  0
   39.2110   35.7740  -16.3360 C   0  0  0  0  0  0  0  0  0  0  0  0
   51.9327   42.4148  -17.9495 H   0  0  0  0  0  0  0  0  0  0  0  0
   53.6775   42.3739  -17.8653 H   0  0  0  0  0  0  0  0  0  0  0  0
   52.7693   43.3241  -16.7141 H   0  0  0  0  0  0  0  0  0  0  0  0
   51.0157   40.5844  -17.2351 H   0  0  0  0  0  0  0  0  0  0  0  0
   51.4601   39.6320  -14.6506 H   0  0  0  0  0  0  0  0  0  0  0  0
   52.3744   38.6509  -15.7960 H   0  0  0  0  0  0  0  0  0  0  0  0
   50.5289   37.4440  -14.3147 H   0  0  0  0  0  0  0  0  0  0  0  0
   48.7152   36.4104  -16.3312 H   0  0  0  0  0  0  0  0  0  0  0  0
   49.1652   35.6939  -13.4170 H   0  0  0  0  0  0  0  0  0  0  0  0
   50.0626   34.4927  -15.8512 H   0  0  0  0  0  0  0  0  0  0  0  0
   47.6734   34.2159  -15.5138 H   0  0  0  0  0  0  0  0  0  0  0  0
   46.9817   35.0381  -14.1359 H   0  0  0  0  0  0  0  0  0  0  0  0
   48.0182   33.6520  -13.8963 H   0  0  0  0  0  0  0  0  0  0  0  0
   46.7273   36.7308  -16.6747 H   0  0  0  0  0  0  0  0  0  0  0  0
   45.1900   38.1174  -14.5859 H   0  0  0  0  0  0  0  0  0  0  0  0
   44.8210   38.3833  -17.5293 H   0  0  0  0  0  0  0  0  0  0  0  0
   43.1884   39.4800  -15.3075 H   0  0  0  0  0  0  0  0  0  0  0  0
   42.7055   38.2332  -16.4324 H   0  0  0  0  0  0  0  0  0  0  0  0
   43.0150   39.8546  -17.0054 H   0  0  0  0  0  0  0  0  0  0  0  0
   45.6158   40.3560  -15.3989 H   0  0  0  0  0  0  0  0  0  0  0  0
   45.3630   40.7280  -17.0873 H   0  0  0  0  0  0  0  0  0  0  0  0
   46.6796   39.6828  -16.6106 H   0  0  0  0  0  0  0  0  0  0  0  0
   43.6176   36.8737  -13.7472 H   0  0  0  0  0  0  0  0  0  0  0  0
   42.7210   34.4336  -15.1368 H   0  0  0  0  0  0  0  0  0  0  0  0
   41.6580   33.8650  -13.1067 H   0  0  0  0  0  0  0  0  0  0  0  0
   41.9710   35.5041  -12.4742 H   0  0  0  0  0  0  0  0  0  0  0  0
   44.3130   35.0659  -12.3598 H   0  0  0  0  0  0  0  0  0  0  0  0
   42.7184   32.8440  -11.1326 H   0  0  0  0  0  0  0  0  0  0  0  0
   42.9290   34.4428  -10.4598 H   0  0  0  0  0  0  0  0  0  0  0  0
   44.3013   33.3724  -10.6145 H   0  0  0  0  0  0  0  0  0  0  0  0
   43.7361   32.3517  -13.4584 H   0  0  0  0  0  0  0  0  0  0  0  0
   45.2824   32.9234  -12.8796 H   0  0  0  0  0  0  0  0  0  0  0  0
   44.5556   33.6499  -14.2928 H   0  0  0  0  0  0  0  0  0  0  0  0
   40.8018   34.4083  -16.1936 H   0  0  0  0  0  0  0  0  0  0  0  0
   38.9816   36.6955  -15.8429 H   0  0  0  0  0  0  0  0  0  0  0  0
   38.4304   35.0662  -16.1503 H   0  0  0  0  0  0  0  0  0  0  0  0
   39.2950   35.9442  -17.3890 H   0  0  0  0  0  0  0  0  0  0  0  0
  1  2  1  0  0  0  0
  1 32  1  0  0  0  0
  1 33  1  0  0  0  0
  1 34  1  0  0  0  0
  2  3  2  0  0  0  0
  4  2  1  0  0  0  0
  4  5  1  0  0  0  0
  4 35  1  0  0  0  0
  5 36  1  0  0  0  0
  5 37  1  0  0  0  0
  6  5  1  0  0  0  0
  6  8  1  0  0  0  0
  7  6  2  0  0  0  0
  8 38  1  0  0  0  0
  9  8  1  0  0  0  0
  9 10  1  0  0  0  0
  9 12  1  0  0  0  0
  9 39  1  6  0  0  0
 10 11  2  0  0  0  0
 12 40  1  1  0  0  0
 13 12  1  0  0  0  0
 13 41  1  0  0  0  0
 14 12  1  0  0  0  0
 14 42  1  0  0  0  0
 14 43  1  0  0  0  0
 14 44  1  0  0  0  0
 15 16  1  0  0  0  0
 15 10  1  0  0  0  0
 15 45  1  0  0  0  0
 16 46  1  1  0  0  0
 17 16  1  0  0  0  0
 17 22  1  0  0  0  0
 18 17  2  0  0  0  0
 19 21  1  0  0  0  0
 19 20  1  0  0  0  0
 19 16  1  0  0  0  0
 19 47  1  0  0  0  0
 20 48  1  0  0  0  0
 20 49  1  0  0  0  0
 20 50  1  0  0  0  0
 21 51  1  0  0  0  0
 21 52  1  0  0  0  0
 21 53  1  0  0  0  0
 22 23  1  0  0  0  0
 22 54  1  0  0  0  0
 23 26  1  0  0  0  0
 23 55  1  6  0  0  0
 24 23  1  0  0  0  0
 24 25  2  0  0  0  0
 26 27  1  0  0  0  0
 26 56  1  0  0  0  0
 26 57  1  0  0  0  0
 27 28  1  0  0  0  0
 27 58  1  0  0  0  0
 28 59  1  0  0  0  0
 28 60  1  0  0  0  0
 28 61  1  0  0  0  0
 29 27  1  0  0  0  0
 29 62  1  0  0  0  0
 29 63  1  0  0  0  0
 29 64  1  0  0  0  0
 30 24  1  0  0  0  0
 30 65  1  0  0  0  0
 31 30  1  0  0  0  0
 31 66  1  0  0  0  0
 31 67  1  0  0  0  0
 31 68  1  0  0  0  0
M  END
>  <MODEL>
       0

$$$$
