selected_4mers/HTFP/620_noH.pdb
 OpenBabel03042518233D

 77 79  0  0  1  0  0  0  0  0999 V2000
    7.9720    2.6790  -18.9280 C   0  0  0  0  0  0  0  0  0  0  0  0
    7.2790    1.5580  -18.1530 C   0  0  0  0  0  0  0  0  0  0  0  0
    6.4210    1.8260  -17.3030 O   0  0  0  0  0  0  0  0  0  0  0  0
    7.6510    0.3160  -18.4460 N   0  0  0  0  0  0  0  0  0  0  0  0
    7.2610   -0.8390  -17.6270 C   0  0  2  0  0  0  0  0  0  0  0  0
    8.5050   -1.6290  -17.2370 C   0  0  0  0  0  0  0  0  0  0  0  0
    9.1440   -2.2650  -18.0880 O   0  0  0  0  0  0  0  0  0  0  0  0
    6.2830   -1.7680  -18.3660 C   0  0  0  0  0  0  0  0  0  0  0  0
    4.9590   -1.1410  -18.6800 C   0  0  0  0  0  0  0  0  0  0  0  0
    4.1310   -0.6190  -17.7090 N   0  0  0  0  0  0  0  0  0  0  0  0
    4.3200   -0.9540  -19.8590 C   0  0  0  0  0  0  0  0  0  0  0  0
    3.0390   -0.1370  -18.2760 C   0  0  0  0  0  0  0  0  0  0  0  0
    3.1290   -0.3280  -19.5800 N   0  0  0  0  0  0  0  0  0  0  0  0
    8.8470   -1.5850  -15.9530 N   0  0  0  0  0  0  0  0  0  0  0  0
    9.8950   -2.4520  -15.4230 C   0  0  2  0  0  0  0  0  0  0  0  0
    9.2520   -3.6590  -14.7310 C   0  0  0  0  0  0  0  0  0  0  0  0
    8.5040   -3.5110  -13.7630 O   0  0  0  0  0  0  0  0  0  0  0  0
   10.8350   -1.6680  -14.4860 C   0  0  2  0  0  0  0  0  0  0  0  0
   11.4460   -0.5990  -15.2210 O   0  0  0  0  0  0  0  0  0  0  0  0
   11.9260   -2.5830  -13.9250 C   0  0  0  0  0  0  0  0  0  0  0  0
    9.5460   -4.8540  -15.2330 N   0  0  0  0  0  0  0  0  0  0  0  0
    8.8660   -6.0660  -14.7720 C   0  0  2  0  0  0  0  0  0  0  0  0
    9.4570   -6.5880  -13.4690 C   0  0  0  0  0  0  0  0  0  0  0  0
   10.6460   -6.3980  -13.2120 O   0  0  0  0  0  0  0  0  0  0  0  0
    8.9290   -7.1470  -15.8360 C   0  0  0  0  0  0  0  0  0  0  0  0
    8.0950   -6.8310  -17.0380 C   0  0  0  0  0  0  0  0  0  0  0  0
    6.7610   -7.2410  -17.0830 C   0  0  0  0  0  0  0  0  0  0  0  0
    8.6290   -6.1290  -18.1190 C   0  0  0  0  0  0  0  0  0  0  0  0
    5.9700   -6.9600  -18.1830 C   0  0  0  0  0  0  0  0  0  0  0  0
    7.8310   -5.8370  -19.2440 C   0  0  0  0  0  0  0  0  0  0  0  0
    6.5090   -6.2530  -19.2710 C   0  0  0  0  0  0  0  0  0  0  0  0
    8.6220   -7.2460  -12.6480 N   0  0  0  0  0  0  0  0  0  0  0  0
    9.1530   -7.9510  -11.4910 C   0  0  2  0  0  0  0  0  0  0  0  0
   10.1600   -9.0060  -11.9360 C   0  0  0  0  0  0  0  0  0  0  0  0
    9.9950   -9.6480  -12.9880 O   0  0  0  0  0  0  0  0  0  0  0  0
    7.9190   -8.6320  -10.8940 C   0  0  0  0  0  0  0  0  0  0  0  0
    6.7550   -7.8460  -11.4030 C   0  0  0  0  0  0  0  0  0  0  0  0
    7.1530   -7.3690  -12.7520 C   0  0  0  0  0  0  0  0  0  0  0  0
   11.2020   -9.1790  -11.1350 N   0  0  0  0  0  0  0  0  0  0  0  0
   12.2260  -10.1590  -11.4490 C   0  0  0  0  0  0  0  0  0  0  0  0
    8.6769    2.2561  -19.6129 H   0  0  0  0  0  0  0  0  0  0  0  0
    8.4826    3.3233  -18.2431 H   0  0  0  0  0  0  0  0  0  0  0  0
    7.2415    3.2421  -19.4703 H   0  0  0  0  0  0  0  0  0  0  0  0
    8.2094    0.1645  -19.2426 H   0  0  0  0  0  0  0  0  0  0  0  0
    6.7647   -0.4651  -16.7559 H   0  0  0  0  0  0  0  0  0  0  0  0
    6.7378   -2.0704  -19.2861 H   0  0  0  0  0  0  0  0  0  0  0  0
    6.0860   -2.5908  -17.7110 H   0  0  0  0  0  0  0  0  0  0  0  0
    4.3234   -0.6072  -16.7435 H   0  0  0  0  0  0  0  0  0  0  0  0
    4.6632   -1.2299  -20.7923 H   0  0  0  0  0  0  0  0  0  0  0  0
    2.2506    0.3119  -17.7841 H   0  0  0  0  0  0  0  0  0  0  0  0
    8.3862   -0.9578  -15.3501 H   0  0  0  0  0  0  0  0  0  0  0  0
   10.5029   -2.8150  -16.2252 H   0  0  0  0  0  0  0  0  0  0  0  0
   10.2626   -1.2775  -13.6706 H   0  0  0  0  0  0  0  0  0  0  0  0
   11.9613   -0.9655  -15.9565 H   0  0  0  0  0  0  0  0  0  0  0  0
   12.5068   -2.9810  -14.7307 H   0  0  0  0  0  0  0  0  0  0  0  0
   11.4735   -3.3857  -13.3811 H   0  0  0  0  0  0  0  0  0  0  0  0
   12.5605   -2.0221  -13.2710 H   0  0  0  0  0  0  0  0  0  0  0  0
   10.2368   -4.9259  -15.9308 H   0  0  0  0  0  0  0  0  0  0  0  0
    7.8442   -5.8065  -14.5889 H   0  0  0  0  0  0  0  0  0  0  0  0
    9.9465   -7.2610  -16.1469 H   0  0  0  0  0  0  0  0  0  0  0  0
    8.5414   -8.0458  -15.4037 H   0  0  0  0  0  0  0  0  0  0  0  0
    6.3601   -7.7599  -16.2861 H   0  0  0  0  0  0  0  0  0  0  0  0
    9.6139   -5.8217  -18.0950 H   0  0  0  0  0  0  0  0  0  0  0  0
    4.9857   -7.2692  -18.2042 H   0  0  0  0  0  0  0  0  0  0  0  0
    8.2284   -5.3171  -20.0420 H   0  0  0  0  0  0  0  0  0  0  0  0
    5.9196   -6.0430  -20.0917 H   0  0  0  0  0  0  0  0  0  0  0  0
    9.6577   -7.3063  -10.8022 H   0  0  0  0  0  0  0  0  0  0  0  0
    7.9538   -8.6018   -9.8250 H   0  0  0  0  0  0  0  0  0  0  0  0
    7.8575   -9.6637  -11.1710 H   0  0  0  0  0  0  0  0  0  0  0  0
    5.8855   -8.4662  -11.4678 H   0  0  0  0  0  0  0  0  0  0  0  0
    6.5119   -7.0326  -10.7517 H   0  0  0  0  0  0  0  0  0  0  0  0
    6.8799   -8.0779  -13.5055 H   0  0  0  0  0  0  0  0  0  0  0  0
    6.6744   -6.4536  -13.0310 H   0  0  0  0  0  0  0  0  0  0  0  0
   11.2824   -8.6364  -10.3174 H   0  0  0  0  0  0  0  0  0  0  0  0
   11.9785  -10.6523  -12.3657 H   0  0  0  0  0  0  0  0  0  0  0  0
   12.2836  -10.8799  -10.6604 H   0  0  0  0  0  0  0  0  0  0  0  0
   13.1706   -9.6672  -11.5524 H   0  0  0  0  0  0  0  0  0  0  0  0
  1  2  1  0  0  0  0
  1 41  1  0  0  0  0
  1 42  1  0  0  0  0
  1 43  1  0  0  0  0
  2  3  2  0  0  0  0
  4  2  1  0  0  0  0
  4  5  1  0  0  0  0
  4 44  1  0  0  0  0
  5  6  1  0  0  0  0
  5 45  1  1  0  0  0
  6 14  1  0  0  0  0
  7  6  2  0  0  0  0
  8  5  1  0  0  0  0
  8 46  1  0  0  0  0
  8 47  1  0  0  0  0
  9  8  1  0  0  0  0
  9 10  1  0  0  0  0
 10 48  1  0  0  0  0
 11 13  1  0  0  0  0
 11  9  2  0  0  0  0
 11 49  1  0  0  0  0
 12 10  1  0  0  0  0
 12 50  1  0  0  0  0
 13 12  2  0  0  0  0
 14 15  1  0  0  0  0
 14 51  1  0  0  0  0
 15 16  1  0  0  0  0
 15 18  1  0  0  0  0
 15 52  1  6  0  0  0
 16 17  2  0  0  0  0
 18 20  1  0  0  0  0
 18 53  1  1  0  0  0
 19 18  1  0  0  0  0
 19 54  1  0  0  0  0
 20 55  1  0  0  0  0
 20 56  1  0  0  0  0
 20 57  1  0  0  0  0
 21 22  1  0  0  0  0
 21 16  1  0  0  0  0
 21 58  1  0  0  0  0
 22 23  1  0  0  0  0
 22 59  1  1  0  0  0
 23 24  2  0  0  0  0
 23 32  1  0  0  0  0
 25 22  1  0  0  0  0
 25 60  1  0  0  0  0
 25 61  1  0  0  0  0
 26 25  1  0  0  0  0
 27 26  1  0  0  0  0
 27 62  1  0  0  0  0
 28 26  2  0  0  0  0
 28 63  1  0  0  0  0
 29 27  2  0  0  0  0
 29 64  1  0  0  0  0
 30 28  1  0  0  0  0
 30 65  1  0  0  0  0
 31 30  2  0  0  0  0
 31 29  1  0  0  0  0
 31 66  1  0  0  0  0
 32 33  1  0  0  0  0
 33 36  1  0  0  0  0
 33 67  1  1  0  0  0
 34 33  1  0  0  0  0
 34 39  1  0  0  0  0
 35 34  2  0  0  0  0
 36 68  1  0  0  0  0
 36 69  1  0  0  0  0
 37 36  1  0  0  0  0
 37 70  1  0  0  0  0
 37 71  1  0  0  0  0
 38 32  1  0  0  0  0
 38 37  1  0  0  0  0
 38 72  1  0  0  0  0
 38 73  1  0  0  0  0
 39 74  1  0  0  0  0
 40 39  1  0  0  0  0
 40 75  1  0  0  0  0
 40 76  1  0  0  0  0
 40 77  1  0  0  0  0
M  END
>  <MODEL>
       0

$$$$
selected_4mers/HTFP/621_noH.pdb
 OpenBabel03042518233D

 77 79  0  0  1  0  0  0  0  0999 V2000
    6.6150   -6.6950   53.6630 C   0  0  0  0  0  0  0  0  0  0  0  0
    6.8040   -6.5040   52.1730 C   0  0  0  0  0  0  0  0  0  0  0  0
    7.0380   -7.4660   51.4700 O   0  0  0  0  0  0  0  0  0  0  0  0
    6.7650   -5.2660   51.7090 N   0  0  0  0  0  0  0  0  0  0  0  0
    7.4610   -4.9510   50.4710 C   0  0  2  0  0  0  0  0  0  0  0  0
    7.9280   -3.5150   50.4450 C   0  0  0  0  0  0  0  0  0  0  0  0
    7.4030   -2.6180   51.1250 O   0  0  0  0  0  0  0  0  0  0  0  0
    6.6610   -5.2920   49.2340 C   0  0  0  0  0  0  0  0  0  0  0  0
    5.3120   -4.6560   49.2120 C   0  0  0  0  0  0  0  0  0  0  0  0
    4.1460   -5.3710   49.3850 N   0  0  0  0  0  0  0  0  0  0  0  0
    4.9470   -3.3670   49.0320 C   0  0  0  0  0  0  0  0  0  0  0  0
    3.1170   -4.5470   49.3030 C   0  0  0  0  0  0  0  0  0  0  0  0
    3.5750   -3.3250   49.0950 N   0  0  0  0  0  0  0  0  0  0  0  0
    8.9760   -3.3280   49.6610 N   0  0  0  0  0  0  0  0  0  0  0  0
    9.6460   -2.0650   49.5670 C   0  0  2  0  0  0  0  0  0  0  0  0
    9.6330   -1.6240   48.1190 C   0  0  0  0  0  0  0  0  0  0  0  0
    9.9270   -2.3900   47.2170 O   0  0  0  0  0  0  0  0  0  0  0  0
   11.0770   -2.1700   50.1080 C   0  0  2  0  0  0  0  0  0  0  0  0
   11.0230   -2.5810   51.4850 O   0  0  0  0  0  0  0  0  0  0  0  0
   11.7580   -0.8040   49.9820 C   0  0  0  0  0  0  0  0  0  0  0  0
    9.2180   -0.3890   47.9130 N   0  0  0  0  0  0  0  0  0  0  0  0
    8.9710    0.1180   46.5800 C   0  0  2  0  0  0  0  0  0  0  0  0
   10.2710    0.6520   46.0020 C   0  0  0  0  0  0  0  0  0  0  0  0
   11.1370    1.1050   46.7370 O   0  0  0  0  0  0  0  0  0  0  0  0
    7.9240    1.2430   46.6340 C   0  0  0  0  0  0  0  0  0  0  0  0
    6.5680    0.7510   47.0520 C   0  0  0  0  0  0  0  0  0  0  0  0
    5.6980    0.2090   46.1210 C   0  0  0  0  0  0  0  0  0  0  0  0
    6.1900    0.7690   48.3810 C   0  0  0  0  0  0  0  0  0  0  0  0
    4.4700   -0.2880   46.5290 C   0  0  0  0  0  0  0  0  0  0  0  0
    4.9750    0.2620   48.7860 C   0  0  0  0  0  0  0  0  0  0  0  0
    4.1140   -0.2710   47.8670 C   0  0  0  0  0  0  0  0  0  0  0  0
   10.4170    0.5550   44.6810 N   0  0  0  0  0  0  0  0  0  0  0  0
   11.6140    1.0870   44.0560 C   0  0  2  0  0  0  0  0  0  0  0  0
   11.7840    2.5750   44.3280 C   0  0  0  0  0  0  0  0  0  0  0  0
   10.7980    3.3150   44.3850 O   0  0  0  0  0  0  0  0  0  0  0  0
   11.3710    0.8350   42.5580 C   0  0  0  0  0  0  0  0  0  0  0  0
   10.3510   -0.2300   42.5060 C   0  0  0  0  0  0  0  0  0  0  0  0
    9.5230   -0.1100   43.7260 C   0  0  0  0  0  0  0  0  0  0  0  0
   13.0340    2.9990   44.4590 N   0  0  0  0  0  0  0  0  0  0  0  0
   13.3560    4.4250   44.6440 C   0  0  0  0  0  0  0  0  0  0  0  0
    6.6691   -7.7373   53.8987 H   0  0  0  0  0  0  0  0  0  0  0  0
    5.6585   -6.3130   53.9531 H   0  0  0  0  0  0  0  0  0  0  0  0
    7.3837   -6.1697   54.1903 H   0  0  0  0  0  0  0  0  0  0  0  0
    6.2713   -4.5667   52.1952 H   0  0  0  0  0  0  0  0  0  0  0  0
    8.3256   -5.5810   50.4515 H   0  0  0  0  0  0  0  0  0  0  0  0
    7.2065   -4.9619   48.3747 H   0  0  0  0  0  0  0  0  0  0  0  0
    6.5126   -6.3517   49.2337 H   0  0  0  0  0  0  0  0  0  0  0  0
    4.0894   -6.3409   49.5442 H   0  0  0  0  0  0  0  0  0  0  0  0
    5.5791   -2.5661   48.8767 H   0  0  0  0  0  0  0  0  0  0  0  0
    2.1233   -4.8126   49.3871 H   0  0  0  0  0  0  0  0  0  0  0  0
    9.3076   -4.0829   49.1230 H   0  0  0  0  0  0  0  0  0  0  0  0
    9.1396   -1.3351   50.1634 H   0  0  0  0  0  0  0  0  0  0  0  0
   11.6386   -2.8901   49.5503 H   0  0  0  0  0  0  0  0  0  0  0  0
   10.5149   -1.9320   51.9964 H   0  0  0  0  0  0  0  0  0  0  0  0
   11.2033   -0.0764   50.5369 H   0  0  0  0  0  0  0  0  0  0  0  0
   11.7928   -0.5165   48.9519 H   0  0  0  0  0  0  0  0  0  0  0  0
   12.7537   -0.8648   50.3692 H   0  0  0  0  0  0  0  0  0  0  0  0
    9.0725    0.2032   48.6859 H   0  0  0  0  0  0  0  0  0  0  0  0
    8.5992   -0.6709   45.9601 H   0  0  0  0  0  0  0  0  0  0  0  0
    7.8440    1.6835   45.6622 H   0  0  0  0  0  0  0  0  0  0  0  0
    8.2499    1.9539   47.3643 H   0  0  0  0  0  0  0  0  0  0  0  0
    5.9636    0.1751   45.1243 H   0  0  0  0  0  0  0  0  0  0  0  0
    6.8305    1.1701   49.0838 H   0  0  0  0  0  0  0  0  0  0  0  0
    3.8160   -0.6737   45.8301 H   0  0  0  0  0  0  0  0  0  0  0  0
    4.7141    0.2844   49.7842 H   0  0  0  0  0  0  0  0  0  0  0  0
    3.2059   -0.6576   48.1684 H   0  0  0  0  0  0  0  0  0  0  0  0
   12.5061    0.6290   44.4293 H   0  0  0  0  0  0  0  0  0  0  0  0
   11.0112    1.7229   42.0816 H   0  0  0  0  0  0  0  0  0  0  0  0
   12.2691    0.5542   42.0486 H   0  0  0  0  0  0  0  0  0  0  0  0
   10.8247   -1.1890   42.4785 H   0  0  0  0  0  0  0  0  0  0  0  0
    9.7468   -0.1317   41.6284 H   0  0  0  0  0  0  0  0  0  0  0  0
    9.2284   -1.0740   44.0849 H   0  0  0  0  0  0  0  0  0  0  0  0
    8.6131    0.4285   43.5615 H   0  0  0  0  0  0  0  0  0  0  0  0
   13.7672    2.3426   44.4319 H   0  0  0  0  0  0  0  0  0  0  0  0
   12.4517    4.9970   44.6502 H   0  0  0  0  0  0  0  0  0  0  0  0
   13.9821    4.7562   43.8420 H   0  0  0  0  0  0  0  0  0  0  0  0
   13.8680    4.5573   45.5742 H   0  0  0  0  0  0  0  0  0  0  0  0
  1 41  1  0  0  0  0
  1 42  1  0  0  0  0
  1 43  1  0  0  0  0
  2  1  1  0  0  0  0
  3  2  2  0  0  0  0
  4  2  1  0  0  0  0
  4 44  1  0  0  0  0
  5  4  1  0  0  0  0
  5 45  1  6  0  0  0
  6  5  1  0  0  0  0
  6  7  2  0  0  0  0
  8  5  1  0  0  0  0
  8 46  1  0  0  0  0
  8 47  1  0  0  0  0
  9  8  1  0  0  0  0
  9 10  1  0  0  0  0
 10 48  1  0  0  0  0
 11 13  1  0  0  0  0
 11  9  2  0  0  0  0
 11 49  1  0  0  0  0
 12 10  1  0  0  0  0
 12 50  1  0  0  0  0
 13 12  2  0  0  0  0
 14  6  1  0  0  0  0
 14 51  1  0  0  0  0
 15 14  1  0  0  0  0
 15 18  1  0  0  0  0
 15 52  1  1  0  0  0
 16 15  1  0  0  0  0
 17 16  2  0  0  0  0
 18 19  1  0  0  0  0
 18 53  1  6  0  0  0
 19 54  1  0  0  0  0
 20 18  1  0  0  0  0
 20 55  1  0  0  0  0
 20 56  1  0  0  0  0
 20 57  1  0  0  0  0
 21 16  1  0  0  0  0
 21 58  1  0  0  0  0
 22 25  1  0  0  0  0
 22 21  1  0  0  0  0
 22 59  1  6  0  0  0
 23 22  1  0  0  0  0
 23 24  2  0  0  0  0
 25 26  1  0  0  0  0
 25 60  1  0  0  0  0
 25 61  1  0  0  0  0
 26 28  1  0  0  0  0
 27 29  1  0  0  0  0
 27 26  2  0  0  0  0
 27 62  1  0  0  0  0
 28 30  2  0  0  0  0
 28 63  1  0  0  0  0
 29 31  2  0  0  0  0
 29 64  1  0  0  0  0
 30 65  1  0  0  0  0
 31 30  1  0  0  0  0
 31 66  1  0  0  0  0
 32 23  1  0  0  0  0
 33 34  1  0  0  0  0
 33 32  1  0  0  0  0
 33 67  1  1  0  0  0
 34 35  2  0  0  0  0
 34 39  1  0  0  0  0
 36 33  1  0  0  0  0
 36 68  1  0  0  0  0
 36 69  1  0  0  0  0
 37 36  1  0  0  0  0
 37 38  1  0  0  0  0
 37 70  1  0  0  0  0
 37 71  1  0  0  0  0
 38 32  1  0  0  0  0
 38 72  1  0  0  0  0
 38 73  1  0  0  0  0
 39 40  1  0  0  0  0
 39 74  1  0  0  0  0
 40 75  1  0  0  0  0
 40 76  1  0  0  0  0
 40 77  1  0  0  0  0
M  END
>  <MODEL>
       0

$$$$
selected_4mers/HTFP/622_noH.pdb
 OpenBabel03042518233D

 77 79  0  0  1  0  0  0  0  0999 V2000
   38.7800   15.2470   67.9020 C   0  0  0  0  0  0  0  0  0  0  0  0
   37.5430   14.7550   67.1460 C   0  0  0  0  0  0  0  0  0  0  0  0
   37.6580   14.0670   66.1310 O   0  0  0  0  0  0  0  0  0  0  0  0
   36.3650   15.0860   67.6690 N   0  0  0  0  0  0  0  0  0  0  0  0
   35.1060   14.7380   67.0160 C   0  0  2  0  0  0  0  0  0  0  0  0
   34.2850   16.0090   66.8890 C   0  0  0  0  0  0  0  0  0  0  0  0
   33.8750   16.5820   67.8930 O   0  0  0  0  0  0  0  0  0  0  0  0
   34.2930   13.7160   67.8280 C   0  0  0  0  0  0  0  0  0  0  0  0
   34.8490   12.3270   67.7920 C   0  0  0  0  0  0  0  0  0  0  0  0
   35.0840   11.6500   66.6150 N   0  0  0  0  0  0  0  0  0  0  0  0
   35.2120   11.4860   68.7880 C   0  0  0  0  0  0  0  0  0  0  0  0
   35.5690   10.4510   66.8880 C   0  0  0  0  0  0  0  0  0  0  0  0
   35.6550   10.3260   68.2000 N   0  0  0  0  0  0  0  0  0  0  0  0
   34.0940   16.4810   65.6640 N   0  0  0  0  0  0  0  0  0  0  0  0
   33.2760   17.6640   65.4530 C   0  0  2  0  0  0  0  0  0  0  0  0
   31.9950   17.1960   64.7700 C   0  0  0  0  0  0  0  0  0  0  0  0
   32.0240   16.5970   63.6910 O   0  0  0  0  0  0  0  0  0  0  0  0
   34.0040   18.7360   64.6340 C   0  0  2  0  0  0  0  0  0  0  0  0
   35.1480   19.1850   65.3700 O   0  0  0  0  0  0  0  0  0  0  0  0
   33.0810   19.9250   64.3830 C   0  0  0  0  0  0  0  0  0  0  0  0
   30.8760   17.4440   65.4340 N   0  0  0  0  0  0  0  0  0  0  0  0
   29.5710   17.0100   64.9580 C   0  0  2  0  0  0  0  0  0  0  0  0
   28.8570   17.9840   64.0320 C   0  0  0  0  0  0  0  0  0  0  0  0
   28.9860   19.2020   64.1730 O   0  0  0  0  0  0  0  0  0  0  0  0
   28.6910   16.6780   66.1620 C   0  0  0  0  0  0  0  0  0  0  0  0
   29.3240   15.6980   67.1080 C   0  0  0  0  0  0  0  0  0  0  0  0
   29.1090   14.3290   66.9600 C   0  0  0  0  0  0  0  0  0  0  0  0
   30.1740   16.1390   68.1190 C   0  0  0  0  0  0  0  0  0  0  0  0
   29.7330   13.4100   67.8010 C   0  0  0  0  0  0  0  0  0  0  0  0
   30.8090   15.2290   68.9720 C   0  0  0  0  0  0  0  0  0  0  0  0
   30.5860   13.8590   68.8090 C   0  0  0  0  0  0  0  0  0  0  0  0
   28.1360   17.4500   63.0310 N   0  0  0  0  0  0  0  0  0  0  0  0
   27.3860   18.2520   62.0620 C   0  0  2  0  0  0  0  0  0  0  0  0
   26.4200   19.1650   62.8070 C   0  0  0  0  0  0  0  0  0  0  0  0
   25.8490   18.7770   63.8290 O   0  0  0  0  0  0  0  0  0  0  0  0
   26.6140   17.1910   61.2730 C   0  0  0  0  0  0  0  0  0  0  0  0
   27.5520   16.0370   61.2720 C   0  0  0  0  0  0  0  0  0  0  0  0
   28.0300   16.0130   62.7120 C   0  0  0  0  0  0  0  0  0  0  0  0
   26.2330   20.3750   62.2960 N   0  0  0  0  0  0  0  0  0  0  0  0
   25.3340   21.3190   62.9390 C   0  0  0  0  0  0  0  0  0  0  0  0
   39.6625   14.9226   67.3913 H   0  0  0  0  0  0  0  0  0  0  0  0
   38.7744   14.8464   68.8942 H   0  0  0  0  0  0  0  0  0  0  0  0
   38.7676   16.3159   67.9489 H   0  0  0  0  0  0  0  0  0  0  0  0
   36.3416   15.5796   68.5205 H   0  0  0  0  0  0  0  0  0  0  0  0
   35.3270   14.2999   66.0651 H   0  0  0  0  0  0  0  0  0  0  0  0
   33.2979   13.6901   67.4357 H   0  0  0  0  0  0  0  0  0  0  0  0
   34.3261   14.0357   68.8486 H   0  0  0  0  0  0  0  0  0  0  0  0
   34.3720   11.2799   69.4180 H   0  0  0  0  0  0  0  0  0  0  0  0
   35.9797   11.9224   69.3923 H   0  0  0  0  0  0  0  0  0  0  0  0
   35.8351    9.7348   66.1943 H   0  0  0  0  0  0  0  0  0  0  0  0
   34.5082   16.0280   64.8943 H   0  0  0  0  0  0  0  0  0  0  0  0
   33.0550   18.1348   66.3881 H   0  0  0  0  0  0  0  0  0  0  0  0
   34.3027   18.3182   63.6953 H   0  0  0  0  0  0  0  0  0  0  0  0
   34.8606   19.5604   66.2170 H   0  0  0  0  0  0  0  0  0  0  0  0
   32.7795   20.3464   65.3192 H   0  0  0  0  0  0  0  0  0  0  0  0
   32.2164   19.5978   63.8442 H   0  0  0  0  0  0  0  0  0  0  0  0
   33.5999   20.6645   63.8096 H   0  0  0  0  0  0  0  0  0  0  0  0
   30.9292   17.9410   66.2822 H   0  0  0  0  0  0  0  0  0  0  0  0
   29.7488   16.1467   64.3513 H   0  0  0  0  0  0  0  0  0  0  0  0
   27.7718   16.2615   65.8063 H   0  0  0  0  0  0  0  0  0  0  0  0
   28.5383   17.5881   66.7036 H   0  0  0  0  0  0  0  0  0  0  0  0
   28.4782   13.9909   66.2164 H   0  0  0  0  0  0  0  0  0  0  0  0
   30.3380   17.1506   68.2410 H   0  0  0  0  0  0  0  0  0  0  0  0
   29.5644   12.3993   67.6783 H   0  0  0  0  0  0  0  0  0  0  0  0
   31.4380   15.5676   69.7168 H   0  0  0  0  0  0  0  0  0  0  0  0
   31.0513   13.1813   69.4329 H   0  0  0  0  0  0  0  0  0  0  0  0
   27.9957   18.8767   61.4433 H   0  0  0  0  0  0  0  0  0  0  0  0
   25.6949   16.9407   61.7603 H   0  0  0  0  0  0  0  0  0  0  0  0
   26.3347   17.5118   60.2912 H   0  0  0  0  0  0  0  0  0  0  0  0
   28.3653   16.1984   60.5957 H   0  0  0  0  0  0  0  0  0  0  0  0
   27.1044   15.1193   60.9521 H   0  0  0  0  0  0  0  0  0  0  0  0
   28.9789   15.5259   62.7974 H   0  0  0  0  0  0  0  0  0  0  0  0
   27.3810   15.4743   63.3704 H   0  0  0  0  0  0  0  0  0  0  0  0
   26.7075   20.6359   61.4738 H   0  0  0  0  0  0  0  0  0  0  0  0
   24.9096   20.8692   63.8122 H   0  0  0  0  0  0  0  0  0  0  0  0
   24.5519   21.5863   62.2594 H   0  0  0  0  0  0  0  0  0  0  0  0
   25.8788   22.1964   63.2187 H   0  0  0  0  0  0  0  0  0  0  0  0
  1 41  1  0  0  0  0
  1 42  1  0  0  0  0
  1 43  1  0  0  0  0
  2  4  1  0  0  0  0
  2  1  1  0  0  0  0
  3  2  2  0  0  0  0
  4 44  1  0  0  0  0
  5  4  1  0  0  0  0
  5  8  1  0  0  0  0
  5 45  1  6  0  0  0
  6  5  1  0  0  0  0
  6  7  2  0  0  0  0
  8 46  1  0  0  0  0
  8 47  1  0  0  0  0
  9  8  1  0  0  0  0
  9 11  1  0  0  0  0
 10 12  1  0  0  0  0
 10  9  2  0  0  0  0
 11 48  1  0  0  0  0
 11 49  1  0  0  0  0
 12 13  2  0  0  0  0
 12 50  1  0  0  0  0
 13 11  1  0  0  0  0
 14  6  1  0  0  0  0
 14 51  1  0  0  0  0
 15 14  1  0  0  0  0
 15 52  1  1  0  0  0
 16 21  1  0  0  0  0
 16 15  1  0  0  0  0
 17 16  2  0  0  0  0
 18 19  1  0  0  0  0
 18 15  1  0  0  0  0
 18 53  1  6  0  0  0
 19 54  1  0  0  0  0
 20 18  1  0  0  0  0
 20 55  1  0  0  0  0
 20 56  1  0  0  0  0
 20 57  1  0  0  0  0
 21 58  1  0  0  0  0
 22 21  1  0  0  0  0
 22 25  1  0  0  0  0
 22 59  1  6  0  0  0
 23 24  2  0  0  0  0
 23 22  1  0  0  0  0
 25 26  1  0  0  0  0
 25 60  1  0  0  0  0
 25 61  1  0  0  0  0
 26 28  1  0  0  0  0
 27 26  2  0  0  0  0
 27 29  1  0  0  0  0
 27 62  1  0  0  0  0
 28 30  2  0  0  0  0
 28 63  1  0  0  0  0
 29 31  2  0  0  0  0
 29 64  1  0  0  0  0
 30 65  1  0  0  0  0
 31 30  1  0  0  0  0
 31 66  1  0  0  0  0
 32 23  1  0  0  0  0
 33 34  1  0  0  0  0
 33 32  1  0  0  0  0
 33 67  1  6  0  0  0
 34 35  2  0  0  0  0
 36 33  1  0  0  0  0
 36 68  1  0  0  0  0
 36 69  1  0  0  0  0
 37 36  1  0  0  0  0
 37 38  1  0  0  0  0
 37 70  1  0  0  0  0
 37 71  1  0  0  0  0
 38 32  1  0  0  0  0
 38 72  1  0  0  0  0
 38 73  1  0  0  0  0
 39 34  1  0  0  0  0
 39 40  1  0  0  0  0
 39 74  1  0  0  0  0
 40 75  1  0  0  0  0
 40 76  1  0  0  0  0
 40 77  1  0  0  0  0
M  END
>  <MODEL>
       0

$$$$
selected_4mers/HTFP/623_noH.pdb
 OpenBabel03042518233D

 77 79  0  0  1  0  0  0  0  0999 V2000
   19.7900  -17.6130   15.7460 C   0  0  0  0  0  0  0  0  0  0  0  0
   20.1020  -16.1840   16.1800 C   0  0  0  0  0  0  0  0  0  0  0  0
   20.5220  -15.3550   15.3670 O   0  0  0  0  0  0  0  0  0  0  0  0
   19.8980  -15.8970   17.4620 N   0  0  0  0  0  0  0  0  0  0  0  0
   20.2330  -14.5910   18.0030 C   0  0  2  0  0  0  0  0  0  0  0  0
   21.7480  -14.4280   18.1340 C   0  0  0  0  0  0  0  0  0  0  0  0
   22.3550  -14.8850   19.1020 O   0  0  0  0  0  0  0  0  0  0  0  0
   19.5810  -14.4060   19.3690 C   0  0  0  0  0  0  0  0  0  0  0  0
   19.5380  -12.9810   19.8160 C   0  0  0  0  0  0  0  0  0  0  0  0
   18.7190  -12.0420   19.2240 N   0  0  0  0  0  0  0  0  0  0  0  0
   20.2380  -12.3230   20.7690 C   0  0  0  0  0  0  0  0  0  0  0  0
   18.9190  -10.8670   19.7940 C   0  0  0  0  0  0  0  0  0  0  0  0
   19.8360  -11.0110   20.7340 N   0  0  0  0  0  0  0  0  0  0  0  0
   22.3490  -13.7690   17.1500 N   0  0  0  0  0  0  0  0  0  0  0  0
   23.7920  -13.5920   17.1000 C   0  0  2  0  0  0  0  0  0  0  0  0
   24.0710  -12.5660   16.0050 C   0  0  0  0  0  0  0  0  0  0  0  0
   23.2210  -12.3450   15.1380 O   0  0  0  0  0  0  0  0  0  0  0  0
   24.4880  -14.9310   16.7530 C   0  0  2  0  0  0  0  0  0  0  0  0
   25.8990  -14.8150   16.9770 O   0  0  0  0  0  0  0  0  0  0  0  0
   24.2410  -15.2990   15.2940 C   0  0  0  0  0  0  0  0  0  0  0  0
   25.2370  -11.9270   16.0410 N   0  0  0  0  0  0  0  0  0  0  0  0
   25.5940  -11.0030   14.9680 C   0  0  2  0  0  0  0  0  0  0  0  0
   26.0830  -11.7980   13.7610 C   0  0  0  0  0  0  0  0  0  0  0  0
   27.0270  -12.5750   13.8690 O   0  0  0  0  0  0  0  0  0  0  0  0
   26.6940  -10.0350   15.4070 C   0  0  0  0  0  0  0  0  0  0  0  0
   26.8260   -8.8450   14.5030 C   0  0  0  0  0  0  0  0  0  0  0  0
   26.1970   -7.6450   14.8170 C   0  0  0  0  0  0  0  0  0  0  0  0
   27.5190   -8.9440   13.3020 C   0  0  0  0  0  0  0  0  0  0  0  0
   26.2520   -6.5640   13.9470 C   0  0  0  0  0  0  0  0  0  0  0  0
   27.5790   -7.8640   12.4210 C   0  0  0  0  0  0  0  0  0  0  0  0
   26.9410   -6.6700   12.7480 C   0  0  0  0  0  0  0  0  0  0  0  0
   25.4540  -11.6010   12.5910 N   0  0  0  0  0  0  0  0  0  0  0  0
   25.8420  -12.3190   11.3720 C   0  0  2  0  0  0  0  0  0  0  0  0
   27.0600  -11.7610   10.6330 C   0  0  0  0  0  0  0  0  0  0  0  0
   27.0500  -10.6160   10.1820 O   0  0  0  0  0  0  0  0  0  0  0  0
   24.5810  -12.2410   10.5230 C   0  0  0  0  0  0  0  0  0  0  0  0
   24.0790  -10.8580   10.8430 C   0  0  0  0  0  0  0  0  0  0  0  0
   24.2550  -10.7700   12.3560 C   0  0  0  0  0  0  0  0  0  0  0  0
   28.0980  -12.5840   10.4980 N   0  0  0  0  0  0  0  0  0  0  0  0
   29.2280  -12.2440    9.6340 C   0  0  0  0  0  0  0  0  0  0  0  0
   19.9925  -17.7206   14.7009 H   0  0  0  0  0  0  0  0  0  0  0  0
   18.7581  -17.8253   15.9331 H   0  0  0  0  0  0  0  0  0  0  0  0
   20.4006  -18.2953   16.2997 H   0  0  0  0  0  0  0  0  0  0  0  0
   19.5130  -16.5818   18.0554 H   0  0  0  0  0  0  0  0  0  0  0  0
   19.8645  -13.8471   17.3279 H   0  0  0  0  0  0  0  0  0  0  0  0
   20.1352  -14.9711   20.0890 H   0  0  0  0  0  0  0  0  0  0  0  0
   18.5686  -14.7421   19.2847 H   0  0  0  0  0  0  0  0  0  0  0  0
   21.2865  -12.3908   20.5664 H   0  0  0  0  0  0  0  0  0  0  0  0
   20.0598  -12.7495   21.7340 H   0  0  0  0  0  0  0  0  0  0  0  0
   18.4404   -9.9867   19.5470 H   0  0  0  0  0  0  0  0  0  0  0  0
   21.7984  -13.3867   16.4289 H   0  0  0  0  0  0  0  0  0  0  0  0
   24.1674  -13.2641   18.0468 H   0  0  0  0  0  0  0  0  0  0  0  0
   24.0823  -15.6972   17.3801 H   0  0  0  0  0  0  0  0  0  0  0  0
   26.2609  -14.1193   16.4061 H   0  0  0  0  0  0  0  0  0  0  0  0
   24.6444  -14.5367   14.6607 H   0  0  0  0  0  0  0  0  0  0  0  0
   23.1886  -15.3862   15.1214 H   0  0  0  0  0  0  0  0  0  0  0  0
   24.7167  -16.2323   15.0761 H   0  0  0  0  0  0  0  0  0  0  0  0
   25.8584  -12.0767   16.7898 H   0  0  0  0  0  0  0  0  0  0  0  0
   24.7242  -10.4332   14.7157 H   0  0  0  0  0  0  0  0  0  0  0  0
   26.4693   -9.6893   16.3944 H   0  0  0  0  0  0  0  0  0  0  0  0
   27.6212  -10.5679   15.3704 H   0  0  0  0  0  0  0  0  0  0  0  0
   25.6830   -7.5568   15.7075 H   0  0  0  0  0  0  0  0  0  0  0  0
   27.9948   -9.8270   13.0592 H   0  0  0  0  0  0  0  0  0  0  0  0
   25.7794   -5.6802   14.1931 H   0  0  0  0  0  0  0  0  0  0  0  0
   28.0940   -7.9495   11.5308 H   0  0  0  0  0  0  0  0  0  0  0  0
   26.9808   -5.8672   12.1007 H   0  0  0  0  0  0  0  0  0  0  0  0
   26.1676  -13.3120   11.6021 H   0  0  0  0  0  0  0  0  0  0  0  0
   24.8055  -12.3427    9.4818 H   0  0  0  0  0  0  0  0  0  0  0  0
   23.8729  -13.0168   10.7268 H   0  0  0  0  0  0  0  0  0  0  0  0
   23.0505  -10.7492   10.5686 H   0  0  0  0  0  0  0  0  0  0  0  0
   24.5989  -10.0877   10.3127 H   0  0  0  0  0  0  0  0  0  0  0  0
   23.4034  -11.1676   12.8675 H   0  0  0  0  0  0  0  0  0  0  0  0
   24.3559   -9.7670   12.7146 H   0  0  0  0  0  0  0  0  0  0  0  0
   28.1049  -13.4373   10.9890 H   0  0  0  0  0  0  0  0  0  0  0  0
   29.0565  -11.2897    9.1815 H   0  0  0  0  0  0  0  0  0  0  0  0
   29.3299  -12.9873    8.8711 H   0  0  0  0  0  0  0  0  0  0  0  0
   30.1243  -12.2063   10.2173 H   0  0  0  0  0  0  0  0  0  0  0  0
  1  2  1  0  0  0  0
  1 41  1  0  0  0  0
  1 42  1  0  0  0  0
  1 43  1  0  0  0  0
  2  4  1  0  0  0  0
  3  2  2  0  0  0  0
  4  5  1  0  0  0  0
  4 44  1  0  0  0  0
  5  6  1  0  0  0  0
  5  8  1  0  0  0  0
  5 45  1  6  0  0  0
  6  7  2  0  0  0  0
  8  9  1  0  0  0  0
  8 46  1  0  0  0  0
  8 47  1  0  0  0  0
  9 11  1  0  0  0  0
 10 12  1  0  0  0  0
 10  9  2  0  0  0  0
 11 48  1  0  0  0  0
 11 49  1  0  0  0  0
 12 13  2  0  0  0  0
 12 50  1  0  0  0  0
 13 11  1  0  0  0  0
 14  6  1  0  0  0  0
 14 51  1  0  0  0  0
 15 14  1  0  0  0  0
 15 52  1  1  0  0  0
 16 21  1  0  0  0  0
 16 15  1  0  0  0  0
 17 16  2  0  0  0  0
 18 19  1  0  0  0  0
 18 15  1  0  0  0  0
 18 53  1  1  0  0  0
 19 54  1  0  0  0  0
 20 18  1  0  0  0  0
 20 55  1  0  0  0  0
 20 56  1  0  0  0  0
 20 57  1  0  0  0  0
 21 58  1  0  0  0  0
 22 25  1  0  0  0  0
 22 21  1  0  0  0  0
 22 59  1  6  0  0  0
 23 24  2  0  0  0  0
 23 22  1  0  0  0  0
 25 60  1  0  0  0  0
 25 61  1  0  0  0  0
 26 27  1  0  0  0  0
 26 25  1  0  0  0  0
 27 62  1  0  0  0  0
 28 26  2  0  0  0  0
 28 63  1  0  0  0  0
 29 27  2  0  0  0  0
 29 64  1  0  0  0  0
 30 31  2  0  0  0  0
 30 28  1  0  0  0  0
 30 65  1  0  0  0  0
 31 29  1  0  0  0  0
 31 66  1  0  0  0  0
 32 23  1  0  0  0  0
 33 32  1  0  0  0  0
 33 67  1  1  0  0  0
 34 33  1  0  0  0  0
 35 34  2  0  0  0  0
 36 37  1  0  0  0  0
 36 33  1  0  0  0  0
 36 68  1  0  0  0  0
 36 69  1  0  0  0  0
 37 38  1  0  0  0  0
 37 70  1  0  0  0  0
 37 71  1  0  0  0  0
 38 32  1  0  0  0  0
 38 72  1  0  0  0  0
 38 73  1  0  0  0  0
 39 34  1  0  0  0  0
 39 74  1  0  0  0  0
 40 39  1  0  0  0  0
 40 75  1  0  0  0  0
 40 76  1  0  0  0  0
 40 77  1  0  0  0  0
M  END
>  <MODEL>
       0

$$$$
selected_4mers/HTFP/624_noH.pdb
 OpenBabel03042518233D

 77 79  0  0  1  0  0  0  0  0999 V2000
   -0.7380   -2.4450  -14.9820 C   0  0  0  0  0  0  0  0  0  0  0  0
   -0.7620   -1.9810  -13.5360 C   0  0  0  0  0  0  0  0  0  0  0  0
   -1.6600   -1.2570  -13.1010 O   0  0  0  0  0  0  0  0  0  0  0  0
    0.2460   -2.4450  -12.8090 N   0  0  0  0  0  0  0  0  0  0  0  0
    0.5020   -2.0830  -11.4230 C   0  0  2  0  0  0  0  0  0  0  0  0
    2.0240   -1.9720  -11.4570 C   0  0  0  0  0  0  0  0  0  0  0  0
    2.6360   -2.3260  -12.4660 O   0  0  0  0  0  0  0  0  0  0  0  0
    0.0380   -3.1770  -10.4540 C   0  0  0  0  0  0  0  0  0  0  0  0
    0.5790   -4.5320  -10.7720 C   0  0  0  0  0  0  0  0  0  0  0  0
    1.9120   -4.8540  -10.6300 N   0  0  0  0  0  0  0  0  0  0  0  0
   -0.0220   -5.6300  -11.2870 C   0  0  0  0  0  0  0  0  0  0  0  0
    2.1090   -6.0900  -11.0500 C   0  0  0  0  0  0  0  0  0  0  0  0
    0.9530   -6.5830  -11.4540 N   0  0  0  0  0  0  0  0  0  0  0  0
    2.6490   -1.4930  -10.3890 N   0  0  0  0  0  0  0  0  0  0  0  0
    4.0990   -1.3260  -10.4200 C   0  0  2  0  0  0  0  0  0  0  0  0
    4.9390   -2.3940   -9.7270 C   0  0  0  0  0  0  0  0  0  0  0  0
    6.1620   -2.2750   -9.6660 O   0  0  0  0  0  0  0  0  0  0  0  0
    4.4980    0.0450   -9.8540 C   0  0  2  0  0  0  0  0  0  0  0  0
    4.2040    0.0850   -8.4540 O   0  0  0  0  0  0  0  0  0  0  0  0
    3.7340    1.1590  -10.5650 C   0  0  0  0  0  0  0  0  0  0  0  0
    4.2970   -3.4360   -9.2120 N   0  0  0  0  0  0  0  0  0  0  0  0
    5.0240   -4.5150   -8.5470 C   0  0  2  0  0  0  0  0  0  0  0  0
    4.0780   -5.6830   -8.3230 C   0  0  0  0  0  0  0  0  0  0  0  0
    3.0220   -5.5310   -7.7160 O   0  0  0  0  0  0  0  0  0  0  0  0
    5.5890   -4.0490   -7.2060 C   0  0  0  0  0  0  0  0  0  0  0  0
    6.6850   -4.9290   -6.6840 C   0  0  0  0  0  0  0  0  0  0  0  0
    7.9590   -4.8710   -7.2390 C   0  0  0  0  0  0  0  0  0  0  0  0
    6.4370   -5.8450   -5.6680 C   0  0  0  0  0  0  0  0  0  0  0  0
    8.9740   -5.7160   -6.7930 C   0  0  0  0  0  0  0  0  0  0  0  0
    7.4440   -6.6960   -5.2140 C   0  0  0  0  0  0  0  0  0  0  0  0
    8.7180   -6.6300   -5.7800 C   0  0  0  0  0  0  0  0  0  0  0  0
    4.4560   -6.8790   -8.7880 N   0  0  0  0  0  0  0  0  0  0  0  0
    3.5740   -8.0320   -8.6100 C   0  0  2  0  0  0  0  0  0  0  0  0
    3.4160   -8.6010   -7.2060 C   0  0  0  0  0  0  0  0  0  0  0  0
    4.2900   -8.4640   -6.3490 O   0  0  0  0  0  0  0  0  0  0  0  0
    4.1710   -9.0590   -9.5660 C   0  0  0  0  0  0  0  0  0  0  0  0
    5.6400   -8.7890   -9.4430 C   0  0  0  0  0  0  0  0  0  0  0  0
    5.7040   -7.2670   -9.4750 C   0  0  0  0  0  0  0  0  0  0  0  0
    2.2610   -9.2240   -6.9900 N   0  0  0  0  0  0  0  0  0  0  0  0
    1.9330   -9.9240   -5.7530 C   0  0  0  0  0  0  0  0  0  0  0  0
   -1.5769   -2.0328  -15.5028 H   0  0  0  0  0  0  0  0  0  0  0  0
   -0.7878   -3.5133  -15.0146 H   0  0  0  0  0  0  0  0  0  0  0  0
    0.1676   -2.1158  -15.4472 H   0  0  0  0  0  0  0  0  0  0  0  0
    0.8649   -3.0794  -13.2377 H   0  0  0  0  0  0  0  0  0  0  0  0
   -0.0093   -1.2059  -11.0850 H   0  0  0  0  0  0  0  0  0  0  0  0
   -1.0305   -3.2244  -10.4852 H   0  0  0  0  0  0  0  0  0  0  0  0
    0.4078   -2.9130   -9.4853 H   0  0  0  0  0  0  0  0  0  0  0  0
    2.6075   -4.2563  -10.2718 H   0  0  0  0  0  0  0  0  0  0  0  0
   -1.0240   -5.7320  -11.5118 H   0  0  0  0  0  0  0  0  0  0  0  0
    3.0136   -6.5867  -11.0607 H   0  0  0  0  0  0  0  0  0  0  0  0
    2.1390   -1.2521   -9.5821 H   0  0  0  0  0  0  0  0  0  0  0  0
    4.3245   -1.4223  -11.4615 H   0  0  0  0  0  0  0  0  0  0  0  0
    5.5463    0.1914  -10.0103 H   0  0  0  0  0  0  0  0  0  0  0  0
    3.2527   -0.0483   -8.3195 H   0  0  0  0  0  0  0  0  0  0  0  0
    2.6833    1.0227  -10.4154 H   0  0  0  0  0  0  0  0  0  0  0  0
    3.9520    1.1289  -11.6121 H   0  0  0  0  0  0  0  0  0  0  0  0
    4.0312    2.1063  -10.1659 H   0  0  0  0  0  0  0  0  0  0  0  0
    3.3159   -3.4823   -9.2793 H   0  0  0  0  0  0  0  0  0  0  0  0
    5.8420   -4.8146   -9.1683 H   0  0  0  0  0  0  0  0  0  0  0  0
    4.7945   -4.0354   -6.4894 H   0  0  0  0  0  0  0  0  0  0  0  0
    6.0103   -3.0777   -7.3609 H   0  0  0  0  0  0  0  0  0  0  0  0
    8.1556   -4.1928   -7.9916 H   0  0  0  0  0  0  0  0  0  0  0  0
    5.4970   -5.8957   -5.2450 H   0  0  0  0  0  0  0  0  0  0  0  0
    9.9142   -5.6622   -7.2152 H   0  0  0  0  0  0  0  0  0  0  0  0
    7.2475   -7.3735   -4.4607 H   0  0  0  0  0  0  0  0  0  0  0  0
    9.4663   -7.2578   -5.4470 H   0  0  0  0  0  0  0  0  0  0  0  0
    2.5639   -7.7386   -8.8063 H   0  0  0  0  0  0  0  0  0  0  0  0
    3.9331  -10.0568   -9.2616 H   0  0  0  0  0  0  0  0  0  0  0  0
    3.8019   -8.9796  -10.5672 H   0  0  0  0  0  0  0  0  0  0  0  0
    6.1807   -9.2153  -10.2620 H   0  0  0  0  0  0  0  0  0  0  0  0
    6.0780   -9.2143   -8.5642 H   0  0  0  0  0  0  0  0  0  0  0  0
    5.7211   -6.9020  -10.4807 H   0  0  0  0  0  0  0  0  0  0  0  0
    6.5846   -6.8678   -9.0166 H   0  0  0  0  0  0  0  0  0  0  0  0
    1.5873   -9.2120   -7.7077 H   0  0  0  0  0  0  0  0  0  0  0  0
    2.7559   -9.8511   -5.0730 H   0  0  0  0  0  0  0  0  0  0  0  0
    1.7374  -10.9539   -5.9671 H   0  0  0  0  0  0  0  0  0  0  0  0
    1.0651   -9.4804   -5.3115 H   0  0  0  0  0  0  0  0  0  0  0  0
  1  2  1  0  0  0  0
  1 41  1  0  0  0  0
  1 42  1  0  0  0  0
  1 43  1  0  0  0  0
  2  3  2  0  0  0  0
  2  4  1  0  0  0  0
  4  5  1  0  0  0  0
  4 44  1  0  0  0  0
  5  8  1  0  0  0  0
  5 45  1  1  0  0  0
  6  5  1  0  0  0  0
  6 14  1  0  0  0  0
  7  6  2  0  0  0  0
  8 46  1  0  0  0  0
  8 47  1  0  0  0  0
  9 10  1  0  0  0  0
  9  8  1  0  0  0  0
 10 48  1  0  0  0  0
 11  9  2  0  0  0  0
 11 49  1  0  0  0  0
 12 10  1  0  0  0  0
 12 50  1  0  0  0  0
 13 11  1  0  0  0  0
 13 12  2  0  0  0  0
 14 51  1  0  0  0  0
 15 14  1  0  0  0  0
 15 18  1  0  0  0  0
 15 16  1  0  0  0  0
 15 52  1  6  0  0  0
 16 17  2  0  0  0  0
 16 21  1  0  0  0  0
 18 19  1  0  0  0  0
 18 53  1  6  0  0  0
 19 54  1  0  0  0  0
 20 18  1  0  0  0  0
 20 55  1  0  0  0  0
 20 56  1  0  0  0  0
 20 57  1  0  0  0  0
 21 22  1  0  0  0  0
 21 58  1  0  0  0  0
 22 23  1  0  0  0  0
 22 25  1  0  0  0  0
 22 59  1  6  0  0  0
 23 24  2  0  0  0  0
 25 26  1  0  0  0  0
 25 60  1  0  0  0  0
 25 61  1  0  0  0  0
 26 28  1  0  0  0  0
 27 29  1  0  0  0  0
 27 26  2  0  0  0  0
 27 62  1  0  0  0  0
 28 30  2  0  0  0  0
 28 63  1  0  0  0  0
 29 31  2  0  0  0  0
 29 64  1  0  0  0  0
 30 65  1  0  0  0  0
 31 30  1  0  0  0  0
 31 66  1  0  0  0  0
 32 33  1  0  0  0  0
 32 23  1  0  0  0  0
 33 34  1  0  0  0  0
 33 67  1  6  0  0  0
 34 39  1  0  0  0  0
 34 35  2  0  0  0  0
 36 37  1  0  0  0  0
 36 33  1  0  0  0  0
 36 68  1  0  0  0  0
 36 69  1  0  0  0  0
 37 70  1  0  0  0  0
 37 71  1  0  0  0  0
 38 37  1  0  0  0  0
 38 32  1  0  0  0  0
 38 72  1  0  0  0  0
 38 73  1  0  0  0  0
 39 40  1  0  0  0  0
 39 74  1  0  0  0  0
 40 75  1  0  0  0  0
 40 76  1  0  0  0  0
 40 77  1  0  0  0  0
M  END
>  <MODEL>
       0

$$$$
