selected_4mers/KALE/185_noH.pdb
 OpenBabel03042517503D

 77 76  0  0  1  0  0  0  0  0999 V2000
    6.8810   -1.4000    9.8430 C   0  0  0  0  0  0  0  0  0  0  0  0
    8.2490   -0.7440    9.9670 C   0  0  0  0  0  0  0  0  0  0  0  0
    9.2230   -1.4150   10.3090 O   0  0  0  0  0  0  0  0  0  0  0  0
    8.3480    0.5610    9.6970 N   0  0  0  0  0  0  0  0  0  0  0  0
    9.6670    1.2220    9.6950 C   0  0  2  0  0  0  0  0  0  0  0  0
    9.7250    2.3780   10.6970 C   0  0  0  0  0  0  0  0  0  0  0  0
    8.7500    2.6110   11.3890 O   0  0  0  0  0  0  0  0  0  0  0  0
   10.0830    1.6440    8.2830 C   0  0  0  0  0  0  0  0  0  0  0  0
   10.3880    0.4180    7.3850 C   0  0  0  0  0  0  0  0  0  0  0  0
   11.0380    0.8080    6.0710 C   0  0  0  0  0  0  0  0  0  0  0  0
   11.4140   -0.4320    5.2720 C   0  0  0  0  0  0  0  0  0  0  0  0
   12.1300   -0.0890    4.0130 N   0  0  0  0  0  0  0  0  0  0  0  0
   10.8560    3.0840   10.7680 N   0  0  0  0  0  0  0  0  0  0  0  0
   11.0600    4.1480   11.7730 C   0  0  2  0  0  0  0  0  0  0  0  0
   10.4730    5.4870   11.3150 C   0  0  0  0  0  0  0  0  0  0  0  0
   10.1340    5.6540   10.1470 O   0  0  0  0  0  0  0  0  0  0  0  0
   12.5470    4.3170   12.0830 C   0  0  0  0  0  0  0  0  0  0  0  0
   10.3670    6.4230   12.2600 N   0  0  0  0  0  0  0  0  0  0  0  0
    9.8940    7.7890   12.0160 C   0  0  2  0  0  0  0  0  0  0  0  0
   10.9690    8.5550   11.2570 C   0  0  0  0  0  0  0  0  0  0  0  0
   12.1500    8.3490   11.5040 O   0  0  0  0  0  0  0  0  0  0  0  0
    9.6330    8.4850   13.3490 C   0  0  0  0  0  0  0  0  0  0  0  0
    8.5870    7.8500   14.2770 C   0  0  0  0  0  0  0  0  0  0  0  0
    8.6520    8.4150   15.6840 C   0  0  0  0  0  0  0  0  0  0  0  0
    7.1900    8.0740   13.7390 C   0  0  0  0  0  0  0  0  0  0  0  0
   10.5560    9.4280   10.3430 N   0  0  0  0  0  0  0  0  0  0  0  0
   11.4920   10.2850    9.6330 C   0  0  2  0  0  0  0  0  0  0  0  0
   10.9560   11.7200    9.5710 C   0  0  0  0  0  0  0  0  0  0  0  0
    9.8600   11.9520    9.0560 O   0  0  0  0  0  0  0  0  0  0  0  0
   11.7030    9.7480    8.2190 C   0  0  0  0  0  0  0  0  0  0  0  0
   12.7340   10.5480    7.4180 C   0  0  0  0  0  0  0  0  0  0  0  0
   12.8580   10.0950    5.9580 C   0  0  0  0  0  0  0  0  0  0  0  0
   11.9010    9.5150    5.4010 O   0  0  0  0  0  0  0  0  0  0  0  0
   13.9300   10.3270    5.3660 O   0  5  0  0  0  0  0  0  0  0  0  0
   11.7190   12.6840   10.0900 N   0  0  0  0  0  0  0  0  0  0  0  0
   11.3060   14.0970   10.0310 C   0  0  0  0  0  0  0  0  0  0  0  0
    6.1614   -0.6693    9.5379 H   0  0  0  0  0  0  0  0  0  0  0  0
    6.5946   -1.8093   10.7892 H   0  0  0  0  0  0  0  0  0  0  0  0
    6.9254   -2.1826    9.1147 H   0  0  0  0  0  0  0  0  0  0  0  0
    7.5375    1.0835    9.4986 H   0  0  0  0  0  0  0  0  0  0  0  0
   10.3882    0.5031   10.0235 H   0  0  0  0  0  0  0  0  0  0  0  0
    9.2883    2.2082    7.8414 H   0  0  0  0  0  0  0  0  0  0  0  0
   10.9739    2.2316    8.3593 H   0  0  0  0  0  0  0  0  0  0  0  0
   11.0479   -0.2383    7.9128 H   0  0  0  0  0  0  0  0  0  0  0  0
    9.4573   -0.0588    7.1585 H   0  0  0  0  0  0  0  0  0  0  0  0
   10.3522    1.3993    5.5010 H   0  0  0  0  0  0  0  0  0  0  0  0
   11.9259    1.3683    6.2776 H   0  0  0  0  0  0  0  0  0  0  0  0
   12.0480   -1.0505    5.8723 H   0  0  0  0  0  0  0  0  0  0  0  0
   10.5108   -0.9422    5.0097 H   0  0  0  0  0  0  0  0  0  0  0  0
   12.9969    0.3996    4.2371 H   0  0  0  0  0  0  0  0  0  0  0  0
   11.5393    0.5126    3.4390 H   0  0  0  0  0  0  0  0  0  0  0  0
   11.5789    2.8890   10.1288 H   0  0  0  0  0  0  0  0  0  0  0  0
   10.5437    3.8457   12.6601 H   0  0  0  0  0  0  0  0  0  0  0  0
   13.0641    4.6193   11.1964 H   0  0  0  0  0  0  0  0  0  0  0  0
   12.9470    3.3871   12.4296 H   0  0  0  0  0  0  0  0  0  0  0  0
   12.6710    5.0629   12.8401 H   0  0  0  0  0  0  0  0  0  0  0  0
   10.6226    6.1809   13.1794 H   0  0  0  0  0  0  0  0  0  0  0  0
    8.9895    7.7602   11.4451 H   0  0  0  0  0  0  0  0  0  0  0  0
    9.3101    9.4822   13.1341 H   0  0  0  0  0  0  0  0  0  0  0  0
   10.5570    8.4139   13.8839 H   0  0  0  0  0  0  0  0  0  0  0  0
    8.8099    6.8041   14.3135 H   0  0  0  0  0  0  0  0  0  0  0  0
    8.4304    9.4615   15.6587 H   0  0  0  0  0  0  0  0  0  0  0  0
    9.6341    8.2679   16.0824 H   0  0  0  0  0  0  0  0  0  0  0  0
    7.9373    7.9140   16.3029 H   0  0  0  0  0  0  0  0  0  0  0  0
    6.9833    9.1234   13.7091 H   0  0  0  0  0  0  0  0  0  0  0  0
    6.4804    7.5888   14.3761 H   0  0  0  0  0  0  0  0  0  0  0  0
    7.1188    7.6681   12.7515 H   0  0  0  0  0  0  0  0  0  0  0  0
    9.5945    9.4957   10.1424 H   0  0  0  0  0  0  0  0  0  0  0  0
   12.4259   10.2904   10.1551 H   0  0  0  0  0  0  0  0  0  0  0  0
   12.0373    8.7338    8.2867 H   0  0  0  0  0  0  0  0  0  0  0  0
   10.7681    9.8293    7.7050 H   0  0  0  0  0  0  0  0  0  0  0  0
   12.4468   11.5787    7.4298 H   0  0  0  0  0  0  0  0  0  0  0  0
   13.6857   10.3873    7.8798 H   0  0  0  0  0  0  0  0  0  0  0  0
   12.5725   12.4469   10.5197 H   0  0  0  0  0  0  0  0  0  0  0  0
   10.3614   14.1720    9.5340 H   0  0  0  0  0  0  0  0  0  0  0  0
   12.0385   14.6605    9.4918 H   0  0  0  0  0  0  0  0  0  0  0  0
   11.2181   14.4847   11.0244 H   0  0  0  0  0  0  0  0  0  0  0  0
  1  2  1  0  0  0  0
  1 37  1  0  0  0  0
  1 38  1  0  0  0  0
  1 39  1  0  0  0  0
  2  3  2  0  0  0  0
  4  2  1  0  0  0  0
  4 40  1  0  0  0  0
  5  4  1  0  0  0  0
  5  6  1  0  0  0  0
  5 41  1  1  0  0  0
  6 13  1  0  0  0  0
  6  7  2  0  0  0  0
  8  5  1  0  0  0  0
  8 42  1  0  0  0  0
  8 43  1  0  0  0  0
  9  8  1  0  0  0  0
  9 44  1  0  0  0  0
  9 45  1  0  0  0  0
 10  9  1  0  0  0  0
 10 46  1  0  0  0  0
 10 47  1  0  0  0  0
 11 10  1  0  0  0  0
 11 48  1  0  0  0  0
 11 49  1  0  0  0  0
 12 11  1  0  0  0  0
 12 50  1  0  0  0  0
 12 51  1  0  0  0  0
 13 14  1  0  0  0  0
 13 52  1  0  0  0  0
 14 17  1  0  0  0  0
 14 53  1  1  0  0  0
 15 14  1  0  0  0  0
 15 18  1  0  0  0  0
 16 15  2  0  0  0  0
 17 54  1  0  0  0  0
 17 55  1  0  0  0  0
 17 56  1  0  0  0  0
 18 57  1  0  0  0  0
 19 18  1  0  0  0  0
 19 22  1  0  0  0  0
 19 58  1  6  0  0  0
 20 21  2  0  0  0  0
 20 19  1  0  0  0  0
 22 23  1  0  0  0  0
 22 59  1  0  0  0  0
 22 60  1  0  0  0  0
 23 24  1  0  0  0  0
 23 61  1  0  0  0  0
 24 62  1  0  0  0  0
 24 63  1  0  0  0  0
 24 64  1  0  0  0  0
 25 23  1  0  0  0  0
 25 65  1  0  0  0  0
 25 66  1  0  0  0  0
 25 67  1  0  0  0  0
 26 20  1  0  0  0  0
 26 68  1  0  0  0  0
 27 26  1  0  0  0  0
 27 69  1  1  0  0  0
 28 27  1  0  0  0  0
 28 35  1  0  0  0  0
 29 28  2  0  0  0  0
 30 27  1  0  0  0  0
 30 70  1  0  0  0  0
 30 71  1  0  0  0  0
 31 30  1  0  0  0  0
 31 72  1  0  0  0  0
 31 73  1  0  0  0  0
 32 31  1  0  0  0  0
 33 32  1  0  0  0  0
 34 32  2  0  0  0  0
 35 74  1  0  0  0  0
 36 35  1  0  0  0  0
 36 75  1  0  0  0  0
 36 76  1  0  0  0  0
 36 77  1  0  0  0  0
M  CHG  1  33  -1
M  END
>  <MODEL>
       0

$$$$
selected_4mers/KALE/186_noH.pdb
 OpenBabel03042517503D

 77 76  0  0  1  0  0  0  0  0999 V2000
   -5.1680    4.5980  -28.7600 C   0  0  0  0  0  0  0  0  0  0  0  0
   -5.6770    5.4930  -27.6490 C   0  0  0  0  0  0  0  0  0  0  0  0
   -5.5530    6.7140  -27.7290 O   0  0  0  0  0  0  0  0  0  0  0  0
   -6.2430    4.8990  -26.6070 N   0  0  0  0  0  0  0  0  0  0  0  0
   -6.8500    5.6890  -25.5500 C   0  0  2  0  0  0  0  0  0  0  0  0
   -6.1820    5.4650  -24.1960 C   0  0  0  0  0  0  0  0  0  0  0  0
   -5.2490    4.6680  -24.0730 O   0  0  0  0  0  0  0  0  0  0  0  0
   -8.3540    5.4120  -25.4730 C   0  0  0  0  0  0  0  0  0  0  0  0
   -9.0970    5.7490  -26.7650 C   0  0  0  0  0  0  0  0  0  0  0  0
  -10.5250    6.1920  -26.4800 C   0  0  0  0  0  0  0  0  0  0  0  0
  -11.2460    5.1990  -25.5810 C   0  0  0  0  0  0  0  0  0  0  0  0
  -12.4550    5.7820  -24.9300 N   0  0  0  0  0  0  0  0  0  0  0  0
   -6.6640    6.1800  -23.1870 N   0  0  0  0  0  0  0  0  0  0  0  0
   -6.0600    6.1440  -21.8640 C   0  0  2  0  0  0  0  0  0  0  0  0
   -6.4300    4.8940  -21.0740 C   0  0  0  0  0  0  0  0  0  0  0  0
   -7.4040    4.2050  -21.3900 O   0  0  0  0  0  0  0  0  0  0  0  0
   -6.4350    7.3960  -21.0750 C   0  0  0  0  0  0  0  0  0  0  0  0
   -5.6340    4.6090  -20.0450 N   0  0  0  0  0  0  0  0  0  0  0  0
   -5.9290    3.5350  -19.1110 C   0  0  2  0  0  0  0  0  0  0  0  0
   -7.2050    3.8760  -18.3500 C   0  0  0  0  0  0  0  0  0  0  0  0
   -7.4400    5.0350  -18.0180 O   0  0  0  0  0  0  0  0  0  0  0  0
   -4.7740    3.3610  -18.1200 C   0  0  0  0  0  0  0  0  0  0  0  0
   -3.4090    3.0080  -18.7240 C   0  0  0  0  0  0  0  0  0  0  0  0
   -2.2790    3.1870  -17.7060 C   0  0  0  0  0  0  0  0  0  0  0  0
   -3.4310    1.5830  -19.2730 C   0  0  0  0  0  0  0  0  0  0  0  0
   -8.0280    2.8670  -18.0840 N   0  0  0  0  0  0  0  0  0  0  0  0
   -9.2210    3.0420  -17.2630 C   0  0  2  0  0  0  0  0  0  0  0  0
   -9.3080    1.9310  -16.2240 C   0  0  0  0  0  0  0  0  0  0  0  0
   -9.4250    0.7540  -16.5700 O   0  0  0  0  0  0  0  0  0  0  0  0
  -10.4940    3.0460  -18.1170 C   0  0  0  0  0  0  0  0  0  0  0  0
  -11.7510    3.3030  -17.2940 C   0  0  0  0  0  0  0  0  0  0  0  0
  -13.0470    3.0670  -18.0560 C   0  0  0  0  0  0  0  0  0  0  0  0
  -13.0130    2.5010  -19.1700 O   0  0  0  0  0  0  0  0  0  0  0  0
  -14.1100    3.4450  -17.5250 O   0  0  0  0  0  0  0  0  0  0  0  0
   -9.2370    2.3060  -14.9520 N   0  5  0  0  0  0  0  0  0  0  0  0
   -9.3770    1.3390  -13.8730 C   0  0  0  0  0  0  0  0  0  0  0  0
   -4.7379    5.1992  -29.5336 H   0  0  0  0  0  0  0  0  0  0  0  0
   -5.9810    4.0293  -29.1607 H   0  0  0  0  0  0  0  0  0  0  0  0
   -4.4255    3.9332  -28.3706 H   0  0  0  0  0  0  0  0  0  0  0  0
   -6.2518    3.9162  -26.5496 H   0  0  0  0  0  0  0  0  0  0  0  0
   -6.7003    6.7191  -25.7978 H   0  0  0  0  0  0  0  0  0  0  0  0
   -8.4977    4.3734  -25.2595 H   0  0  0  0  0  0  0  0  0  0  0  0
   -8.7533    6.0403  -24.7044 H   0  0  0  0  0  0  0  0  0  0  0  0
   -8.5805    6.5393  -27.2686 H   0  0  0  0  0  0  0  0  0  0  0  0
   -9.1304    4.8707  -27.3753 H   0  0  0  0  0  0  0  0  0  0  0  0
  -11.0557    6.2724  -27.4056 H   0  0  0  0  0  0  0  0  0  0  0  0
  -10.4905    7.1365  -25.9784 H   0  0  0  0  0  0  0  0  0  0  0  0
  -10.5696    4.8746  -24.8180 H   0  0  0  0  0  0  0  0  0  0  0  0
  -11.5710    4.3851  -26.1949 H   0  0  0  0  0  0  0  0  0  0  0  0
  -12.1778    6.5632  -24.3357 H   0  0  0  0  0  0  0  0  0  0  0  0
  -12.9129    5.0688  -24.3625 H   0  0  0  0  0  0  0  0  0  0  0  0
   -7.4520    6.7505  -23.3381 H   0  0  0  0  0  0  0  0  0  0  0  0
   -5.0006    6.1149  -22.0114 H   0  0  0  0  0  0  0  0  0  0  0  0
   -7.4948    7.4218  -20.9295 H   0  0  0  0  0  0  0  0  0  0  0  0
   -6.1283    8.2652  -21.6184 H   0  0  0  0  0  0  0  0  0  0  0  0
   -5.9448    7.3785  -20.1241 H   0  0  0  0  0  0  0  0  0  0  0  0
   -4.8182    5.1438  -19.9124 H   0  0  0  0  0  0  0  0  0  0  0  0
   -6.0580    2.6215  -19.6529 H   0  0  0  0  0  0  0  0  0  0  0  0
   -5.0421    2.5791  -17.4406 H   0  0  0  0  0  0  0  0  0  0  0  0
   -4.6444    4.3189  -17.6612 H   0  0  0  0  0  0  0  0  0  0  0  0
   -3.2169    3.6842  -19.5307 H   0  0  0  0  0  0  0  0  0  0  0  0
   -2.4350    2.5251  -16.8799 H   0  0  0  0  0  0  0  0  0  0  0  0
   -2.2709    4.1982  -17.3562 H   0  0  0  0  0  0  0  0  0  0  0  0
   -1.3416    2.9628  -18.1706 H   0  0  0  0  0  0  0  0  0  0  0  0
   -3.6224    0.8963  -18.4751 H   0  0  0  0  0  0  0  0  0  0  0  0
   -2.4845    1.3576  -19.7181 H   0  0  0  0  0  0  0  0  0  0  0  0
   -4.2015    1.4967  -20.0104 H   0  0  0  0  0  0  0  0  0  0  0  0
   -7.8268    1.9761  -18.4515 H   0  0  0  0  0  0  0  0  0  0  0  0
   -9.1430    3.9898  -16.7726 H   0  0  0  0  0  0  0  0  0  0  0  0
  -10.4070    3.8127  -18.8583 H   0  0  0  0  0  0  0  0  0  0  0  0
  -10.5896    2.0771  -18.5608 H   0  0  0  0  0  0  0  0  0  0  0  0
  -11.7351    4.3206  -16.9638 H   0  0  0  0  0  0  0  0  0  0  0  0
  -11.7376    2.6067  -16.4816 H   0  0  0  0  0  0  0  0  0  0  0  0
   -9.0871    3.2545  -14.7350 H   0  0  0  0  0  0  0  0  0  0  0  0
   -9.5330    0.3642  -14.2857 H   0  0  0  0  0  0  0  0  0  0  0  0
  -10.2137    1.6055  -13.2616 H   0  0  0  0  0  0  0  0  0  0  0  0
   -8.4873    1.3365  -13.2786 H   0  0  0  0  0  0  0  0  0  0  0  0
  1  2  1  0  0  0  0
  1 37  1  0  0  0  0
  1 38  1  0  0  0  0
  1 39  1  0  0  0  0
  2  4  1  0  0  0  0
  3  2  2  0  0  0  0
  4  5  1  0  0  0  0
  4 40  1  0  0  0  0
  5  8  1  0  0  0  0
  5  6  1  0  0  0  0
  5 41  1  6  0  0  0
  6  7  2  0  0  0  0
  6 13  1  0  0  0  0
  8 42  1  0  0  0  0
  8 43  1  0  0  0  0
  9 10  1  0  0  0  0
  9  8  1  0  0  0  0
  9 44  1  0  0  0  0
  9 45  1  0  0  0  0
 10 11  1  0  0  0  0
 10 46  1  0  0  0  0
 10 47  1  0  0  0  0
 11 12  1  0  0  0  0
 11 48  1  0  0  0  0
 11 49  1  0  0  0  0
 12 50  1  0  0  0  0
 12 51  1  0  0  0  0
 13 14  1  0  0  0  0
 13 52  1  0  0  0  0
 14 17  1  0  0  0  0
 14 15  1  0  0  0  0
 14 53  1  6  0  0  0
 15 18  1  0  0  0  0
 16 15  2  0  0  0  0
 17 54  1  0  0  0  0
 17 55  1  0  0  0  0
 17 56  1  0  0  0  0
 18 19  1  0  0  0  0
 18 57  1  0  0  0  0
 19 20  1  0  0  0  0
 19 22  1  0  0  0  0
 19 58  1  6  0  0  0
 20 26  1  0  0  0  0
 20 21  2  0  0  0  0
 22 59  1  0  0  0  0
 22 60  1  0  0  0  0
 23 22  1  0  0  0  0
 23 24  1  0  0  0  0
 23 61  1  0  0  0  0
 24 62  1  0  0  0  0
 24 63  1  0  0  0  0
 24 64  1  0  0  0  0
 25 23  1  0  0  0  0
 25 65  1  0  0  0  0
 25 66  1  0  0  0  0
 25 67  1  0  0  0  0
 26 27  1  0  0  0  0
 26 68  1  0  0  0  0
 27 28  1  0  0  0  0
 27 69  1  1  0  0  0
 28 35  1  0  0  0  0
 29 28  2  0  0  0  0
 30 31  1  0  0  0  0
 30 27  1  0  0  0  0
 30 70  1  0  0  0  0
 30 71  1  0  0  0  0
 31 72  1  0  0  0  0
 31 73  1  0  0  0  0
 32 34  1  0  0  0  0
 32 31  1  0  0  0  0
 33 32  2  0  0  0  0
 35 36  1  0  0  0  0
 35 74  1  0  0  0  0
 36 75  1  0  0  0  0
 36 76  1  0  0  0  0
 36 77  1  0  0  0  0
M  CHG  1  34  -1
M  END
>  <MODEL>
       0

$$$$
selected_4mers/KALE/187_noH.pdb
 OpenBabel03042517503D

 77 76  0  0  1  0  0  0  0  0999 V2000
   28.4690   93.7200   16.3870 C   0  0  0  0  0  0  0  0  0  0  0  0
   29.1750   95.0360   16.6930 C   0  0  0  0  0  0  0  0  0  0  0  0
   28.6460   95.8770   17.4190 O   0  0  0  0  0  0  0  0  0  0  0  0
   30.3670   95.2180   16.1360 N   0  0  0  0  0  0  0  0  0  0  0  0
   31.1170   96.4460   16.3620 C   0  0  2  0  0  0  0  0  0  0  0  0
   30.3920   97.6450   15.7620 C   0  0  0  0  0  0  0  0  0  0  0  0
   30.3430   98.7160   16.3650 O   0  0  0  0  0  0  0  0  0  0  0  0
   32.5160   96.3350   15.7560 C   0  0  0  0  0  0  0  0  0  0  0  0
   33.4260   95.3710   16.4980 C   0  0  0  0  0  0  0  0  0  0  0  0
   34.7720   95.2470   15.8090 C   0  0  0  0  0  0  0  0  0  0  0  0
   35.7010   94.3300   16.5880 C   0  0  0  0  0  0  0  0  0  0  0  0
   37.0050   94.1540   15.8910 N   0  0  0  0  0  0  0  0  0  0  0  0
   29.8330   97.4600   14.5720 N   0  0  0  0  0  0  0  0  0  0  0  0
   29.1180   98.5380   13.9030 C   0  0  2  0  0  0  0  0  0  0  0  0
   27.8780   98.9340   14.6950 C   0  0  0  0  0  0  0  0  0  0  0  0
   27.5910  100.1180   14.8560 O   0  0  0  0  0  0  0  0  0  0  0  0
   28.7270   98.1120   12.4950 C   0  0  0  0  0  0  0  0  0  0  0  0
   27.1450   97.9440   15.1960 N   0  0  0  0  0  0  0  0  0  0  0  0
   25.9430   98.2380   15.9680 C   0  0  2  0  0  0  0  0  0  0  0  0
   26.2960   98.9390   17.2790 C   0  0  0  0  0  0  0  0  0  0  0  0
   25.5760   99.8330   17.7240 O   0  0  0  0  0  0  0  0  0  0  0  0
   25.1490   96.9530   16.2310 C   0  0  0  0  0  0  0  0  0  0  0  0
   24.5370   96.3120   14.9780 C   0  0  0  0  0  0  0  0  0  0  0  0
   23.8690   94.9930   15.3470 C   0  0  0  0  0  0  0  0  0  0  0  0
   23.5260   97.2640   14.3440 C   0  0  0  0  0  0  0  0  0  0  0  0
   27.4100   98.5450   17.8900 N   0  0  0  0  0  0  0  0  0  0  0  0
   27.8400   99.1750   19.1350 C   0  0  2  0  0  0  0  0  0  0  0  0
   28.1190  100.6550   18.8980 C   0  0  0  0  0  0  0  0  0  0  0  0
   27.7490  101.5030   19.7070 O   0  0  0  0  0  0  0  0  0  0  0  0
   29.1160   98.5230   19.6690 C   0  0  0  0  0  0  0  0  0  0  0  0
   28.9600   97.1010   20.1640 C   0  0  0  0  0  0  0  0  0  0  0  0
   30.2570   96.5640   20.7400 C   0  0  0  0  0  0  0  0  0  0  0  0
   30.7230   97.1070   21.7650 O   0  0  0  0  0  0  0  0  0  0  0  0
   30.8170   95.6090   20.1650 O   0  5  0  0  0  0  0  0  0  0  0  0
   28.7820  100.9630   17.7880 N   0  0  0  0  0  0  0  0  0  0  0  0
   29.1030  102.3490   17.4700 C   0  0  0  0  0  0  0  0  0  0  0  0
   29.0843   93.1264   15.7436 H   0  0  0  0  0  0  0  0  0  0  0  0
   27.5358   93.9200   15.9032 H   0  0  0  0  0  0  0  0  0  0  0  0
   28.2914   93.1900   17.2994 H   0  0  0  0  0  0  0  0  0  0  0  0
   30.7484   94.5140   15.5632 H   0  0  0  0  0  0  0  0  0  0  0  0
   31.2013   96.5903   17.4189 H   0  0  0  0  0  0  0  0  0  0  0  0
   32.9681   97.3047   15.7690 H   0  0  0  0  0  0  0  0  0  0  0  0
   32.3983   95.9539   14.7631 H   0  0  0  0  0  0  0  0  0  0  0  0
   32.9610   94.4079   16.5316 H   0  0  0  0  0  0  0  0  0  0  0  0
   33.5848   95.7479   17.4868 H   0  0  0  0  0  0  0  0  0  0  0  0
   35.2182   96.2168   15.7359 H   0  0  0  0  0  0  0  0  0  0  0  0
   34.6192   94.8300   14.8355 H   0  0  0  0  0  0  0  0  0  0  0  0
   35.2337   93.3737   16.6980 H   0  0  0  0  0  0  0  0  0  0  0  0
   35.8882   94.7746   17.5431 H   0  0  0  0  0  0  0  0  0  0  0  0
   36.8473   93.7305   14.9766 H   0  0  0  0  0  0  0  0  0  0  0  0
   37.6085   93.5480   16.4468 H   0  0  0  0  0  0  0  0  0  0  0  0
   29.9029   96.5805   14.1351 H   0  0  0  0  0  0  0  0  0  0  0  0
   29.7658   99.3875   13.8425 H   0  0  0  0  0  0  0  0  0  0  0  0
   28.0787   97.2624   12.5465 H   0  0  0  0  0  0  0  0  0  0  0  0
   29.6069   97.8562   11.9425 H   0  0  0  0  0  0  0  0  0  0  0  0
   28.2206   98.9179   12.0062 H   0  0  0  0  0  0  0  0  0  0  0  0
   27.4147   97.0092   15.0453 H   0  0  0  0  0  0  0  0  0  0  0  0
   25.3289   98.9020   15.3963 H   0  0  0  0  0  0  0  0  0  0  0  0
   25.8073   96.2406   16.6827 H   0  0  0  0  0  0  0  0  0  0  0  0
   24.3297   97.2268   16.8624 H   0  0  0  0  0  0  0  0  0  0  0  0
   25.3127   96.1178   14.2671 H   0  0  0  0  0  0  0  0  0  0  0  0
   23.0905   95.1742   16.0583 H   0  0  0  0  0  0  0  0  0  0  0  0
   24.5949   94.3326   15.7733 H   0  0  0  0  0  0  0  0  0  0  0  0
   23.4526   94.5461   14.4685 H   0  0  0  0  0  0  0  0  0  0  0  0
   22.7422   97.4690   15.0429 H   0  0  0  0  0  0  0  0  0  0  0  0
   23.1124   96.8124   13.4666 H   0  0  0  0  0  0  0  0  0  0  0  0
   24.0148   98.1779   14.0781 H   0  0  0  0  0  0  0  0  0  0  0  0
   27.9502   97.8210   17.4986 H   0  0  0  0  0  0  0  0  0  0  0  0
   27.0544   99.0523   19.8510 H   0  0  0  0  0  0  0  0  0  0  0  0
   29.4754   99.1182   20.4823 H   0  0  0  0  0  0  0  0  0  0  0  0
   29.7914   98.4745   18.8405 H   0  0  0  0  0  0  0  0  0  0  0  0
   28.6599   96.4797   19.3462 H   0  0  0  0  0  0  0  0  0  0  0  0
   28.2224   97.0957   20.9391 H   0  0  0  0  0  0  0  0  0  0  0  0
   29.0598  100.2462   17.1729 H   0  0  0  0  0  0  0  0  0  0  0  0
   28.7281  102.9881   18.2420 H   0  0  0  0  0  0  0  0  0  0  0  0
   28.6519  102.6145   16.5368 H   0  0  0  0  0  0  0  0  0  0  0  0
   30.1646  102.4617   17.3979 H   0  0  0  0  0  0  0  0  0  0  0  0
  1  2  1  0  0  0  0
  1 37  1  0  0  0  0
  1 38  1  0  0  0  0
  1 39  1  0  0  0  0
  2  3  2  0  0  0  0
  4  5  1  0  0  0  0
  4  2  1  0  0  0  0
  4 40  1  0  0  0  0
  5 41  1  1  0  0  0
  6  5  1  0  0  0  0
  6  7  2  0  0  0  0
  8  5  1  0  0  0  0
  8  9  1  0  0  0  0
  8 42  1  0  0  0  0
  8 43  1  0  0  0  0
  9 44  1  0  0  0  0
  9 45  1  0  0  0  0
 10  9  1  0  0  0  0
 10 11  1  0  0  0  0
 10 46  1  0  0  0  0
 10 47  1  0  0  0  0
 11 48  1  0  0  0  0
 11 49  1  0  0  0  0
 12 11  1  0  0  0  0
 12 50  1  0  0  0  0
 12 51  1  0  0  0  0
 13  6  1  0  0  0  0
 13 52  1  0  0  0  0
 14 13  1  0  0  0  0
 14 15  1  0  0  0  0
 14 53  1  6  0  0  0
 15 16  2  0  0  0  0
 15 18  1  0  0  0  0
 17 14  1  0  0  0  0
 17 54  1  0  0  0  0
 17 55  1  0  0  0  0
 17 56  1  0  0  0  0
 18 19  1  0  0  0  0
 18 57  1  0  0  0  0
 19 22  1  0  0  0  0
 19 20  1  0  0  0  0
 19 58  1  6  0  0  0
 20 21  2  0  0  0  0
 20 26  1  0  0  0  0
 22 59  1  0  0  0  0
 22 60  1  0  0  0  0
 23 24  1  0  0  0  0
 23 22  1  0  0  0  0
 23 61  1  0  0  0  0
 24 62  1  0  0  0  0
 24 63  1  0  0  0  0
 24 64  1  0  0  0  0
 25 23  1  0  0  0  0
 25 65  1  0  0  0  0
 25 66  1  0  0  0  0
 25 67  1  0  0  0  0
 26 27  1  0  0  0  0
 26 68  1  0  0  0  0
 27 30  1  0  0  0  0
 27 69  1  1  0  0  0
 28 27  1  0  0  0  0
 28 29  2  0  0  0  0
 30 31  1  0  0  0  0
 30 70  1  0  0  0  0
 30 71  1  0  0  0  0
 31 32  1  0  0  0  0
 31 72  1  0  0  0  0
 31 73  1  0  0  0  0
 32 33  1  0  0  0  0
 34 32  2  0  0  0  0
 35 28  1  0  0  0  0
 35 74  1  0  0  0  0
 36 35  1  0  0  0  0
 36 75  1  0  0  0  0
 36 76  1  0  0  0  0
 36 77  1  0  0  0  0
M  CHG  1  33  -1
M  END
>  <MODEL>
       0

$$$$
selected_4mers/KALE/188_noH.pdb
 OpenBabel03042517503D

 77 76  0  0  1  0  0  0  0  0999 V2000
  123.6530   23.8080   16.4760 C   0  0  0  0  0  0  0  0  0  0  0  0
  124.6410   23.1330   17.4230 C   0  0  0  0  0  0  0  0  0  0  0  0
  124.2680   22.2720   18.2210 O   0  0  0  0  0  0  0  0  0  0  0  0
  125.9030   23.5430   17.3390 N   0  0  0  0  0  0  0  0  0  0  0  0
  126.9410   22.9760   18.1870 C   0  0  2  0  0  0  0  0  0  0  0  0
  126.7160   23.3580   19.6400 C   0  0  0  0  0  0  0  0  0  0  0  0
  126.8850   22.5360   20.5370 O   0  0  0  0  0  0  0  0  0  0  0  0
  128.3210   23.4640   17.7380 C   0  0  0  0  0  0  0  0  0  0  0  0
  128.6960   23.0320   16.3340 C   0  0  0  0  0  0  0  0  0  0  0  0
  128.8460   21.5230   16.2390 C   0  0  0  0  0  0  0  0  0  0  0  0
  129.0390   21.0850   14.7950 C   0  0  0  0  0  0  0  0  0  0  0  0
  130.1840   21.7970   14.1570 N   0  0  0  0  0  0  0  0  0  0  0  0
  126.3330   24.6100   19.8640 N   0  0  0  0  0  0  0  0  0  0  0  0
  126.0830   25.1080   21.2130 C   0  0  2  0  0  0  0  0  0  0  0  0
  124.8950   24.3930   21.8560 C   0  0  0  0  0  0  0  0  0  0  0  0
  124.7760   24.3560   23.0790 O   0  0  0  0  0  0  0  0  0  0  0  0
  125.8230   26.6060   21.1720 C   0  0  0  0  0  0  0  0  0  0  0  0
  124.0160   23.8380   21.0250 N   0  0  0  0  0  0  0  0  0  0  0  0
  122.8340   23.1270   21.5140 C   0  0  2  0  0  0  0  0  0  0  0  0
  123.1080   21.6660   21.8610 C   0  0  0  0  0  0  0  0  0  0  0  0
  122.2430   20.9810   22.4140 O   0  0  0  0  0  0  0  0  0  0  0  0
  121.7080   23.2100   20.4800 C   0  0  0  0  0  0  0  0  0  0  0  0
  121.0740   24.5980   20.3410 C   0  0  0  0  0  0  0  0  0  0  0  0
  120.2010   24.6550   19.0990 C   0  0  0  0  0  0  0  0  0  0  0  0
  120.2600   24.9100   21.5980 C   0  0  0  0  0  0  0  0  0  0  0  0
  124.3040   21.1880   21.5290 N   0  0  0  0  0  0  0  0  0  0  0  0
  124.6870   19.8110   21.8370 C   0  0  2  0  0  0  0  0  0  0  0  0
  125.2310   19.8060   23.2600 C   0  0  0  0  0  0  0  0  0  0  0  0
  126.4390   19.7130   23.4970 O   0  0  0  0  0  0  0  0  0  0  0  0
  125.7420   19.3170   20.8430 C   0  0  0  0  0  0  0  0  0  0  0  0
  125.2540   19.3700   19.4000 C   0  0  0  0  0  0  0  0  0  0  0  0
  126.2520   18.7960   18.4140 C   0  0  0  0  0  0  0  0  0  0  0  0
  127.4680   18.9190   18.6600 O   0  0  0  0  0  0  0  0  0  0  0  0
  125.8180   18.2360   17.3870 O   0  5  0  0  0  0  0  0  0  0  0  0
  124.3090   19.9180   24.2080 N   0  0  0  0  0  0  0  0  0  0  0  0
  124.6400   19.9630   25.6230 C   0  0  0  0  0  0  0  0  0  0  0  0
  124.1711   24.5203   15.8684 H   0  0  0  0  0  0  0  0  0  0  0  0
  122.8975   24.3076   17.0456 H   0  0  0  0  0  0  0  0  0  0  0  0
  123.1976   23.0694   15.8499 H   0  0  0  0  0  0  0  0  0  0  0  0
  126.1401   24.2443   16.6900 H   0  0  0  0  0  0  0  0  0  0  0  0
  126.8966   21.9107   18.0976 H   0  0  0  0  0  0  0  0  0  0  0  0
  128.3293   24.5333   17.7754 H   0  0  0  0  0  0  0  0  0  0  0  0
  129.0374   23.0254   18.4008 H   0  0  0  0  0  0  0  0  0  0  0  0
  127.9310   23.3490   15.6563 H   0  0  0  0  0  0  0  0  0  0  0  0
  129.6350   23.4799   16.0837 H   0  0  0  0  0  0  0  0  0  0  0  0
  129.6958   21.2188   16.8136 H   0  0  0  0  0  0  0  0  0  0  0  0
  127.9552   21.0670   16.6178 H   0  0  0  0  0  0  0  0  0  0  0  0
  129.2284   20.0321   14.7732 H   0  0  0  0  0  0  0  0  0  0  0  0
  128.1495   21.3229   14.2499 H   0  0  0  0  0  0  0  0  0  0  0  0
  131.0428   21.5822   14.6637 H   0  0  0  0  0  0  0  0  0  0  0  0
  130.0162   22.8028   14.1833 H   0  0  0  0  0  0  0  0  0  0  0  0
  126.2145   25.2186   19.0993 H   0  0  0  0  0  0  0  0  0  0  0  0
  126.9516   24.9113   21.8061 H   0  0  0  0  0  0  0  0  0  0  0  0
  124.9542   26.8011   20.5786 H   0  0  0  0  0  0  0  0  0  0  0  0
  126.6675   27.1029   20.7421 H   0  0  0  0  0  0  0  0  0  0  0  0
  125.6644   26.9678   22.1664 H   0  0  0  0  0  0  0  0  0  0  0  0
  124.1651   23.9077   20.0543 H   0  0  0  0  0  0  0  0  0  0  0  0
  122.5417   23.6113   22.4223 H   0  0  0  0  0  0  0  0  0  0  0  0
  122.1070   22.9280   19.5281 H   0  0  0  0  0  0  0  0  0  0  0  0
  120.9337   22.5544   20.8200 H   0  0  0  0  0  0  0  0  0  0  0  0
  121.8426   25.3349   20.2357 H   0  0  0  0  0  0  0  0  0  0  0  0
  119.4214   23.9263   19.1773 H   0  0  0  0  0  0  0  0  0  0  0  0
  120.7967   24.4485   18.2345 H   0  0  0  0  0  0  0  0  0  0  0  0
  119.7700   25.6303   19.0104 H   0  0  0  0  0  0  0  0  0  0  0  0
  119.4876   24.1786   21.7134 H   0  0  0  0  0  0  0  0  0  0  0  0
  119.8207   25.8813   21.5065 H   0  0  0  0  0  0  0  0  0  0  0  0
  120.9024   24.8883   22.4534 H   0  0  0  0  0  0  0  0  0  0  0  0
  124.9453   21.7741   21.0658 H   0  0  0  0  0  0  0  0  0  0  0  0
  123.8479   19.1518   21.7575 H   0  0  0  0  0  0  0  0  0  0  0  0
  126.6132   19.9316   20.9335 H   0  0  0  0  0  0  0  0  0  0  0  0
  125.9558   18.2950   21.0767 H   0  0  0  0  0  0  0  0  0  0  0  0
  124.3439   18.8119   19.3274 H   0  0  0  0  0  0  0  0  0  0  0  0
  125.1129   20.4004   19.1483 H   0  0  0  0  0  0  0  0  0  0  0  0
  123.3626   19.9728   23.9423 H   0  0  0  0  0  0  0  0  0  0  0  0
  125.7009   19.8929   25.7435 H   0  0  0  0  0  0  0  0  0  0  0  0
  124.1691   19.1442   26.1257 H   0  0  0  0  0  0  0  0  0  0  0  0
  124.2937   20.8850   26.0412 H   0  0  0  0  0  0  0  0  0  0  0  0
  1  2  1  0  0  0  0
  1 37  1  0  0  0  0
  1 38  1  0  0  0  0
  1 39  1  0  0  0  0
  2  3  2  0  0  0  0
  4  2  1  0  0  0  0
  4  5  1  0  0  0  0
  4 40  1  0  0  0  0
  5  6  1  0  0  0  0
  5 41  1  6  0  0  0
  6 13  1  0  0  0  0
  6  7  2  0  0  0  0
  8  5  1  0  0  0  0
  8 42  1  0  0  0  0
  8 43  1  0  0  0  0
  9  8  1  0  0  0  0
  9 44  1  0  0  0  0
  9 45  1  0  0  0  0
 10  9  1  0  0  0  0
 10 46  1  0  0  0  0
 10 47  1  0  0  0  0
 11 10  1  0  0  0  0
 11 48  1  0  0  0  0
 11 49  1  0  0  0  0
 12 11  1  0  0  0  0
 12 50  1  0  0  0  0
 12 51  1  0  0  0  0
 13 14  1  0  0  0  0
 13 52  1  0  0  0  0
 14 15  1  0  0  0  0
 14 53  1  1  0  0  0
 15 16  2  0  0  0  0
 17 14  1  0  0  0  0
 17 54  1  0  0  0  0
 17 55  1  0  0  0  0
 17 56  1  0  0  0  0
 18 19  1  0  0  0  0
 18 15  1  0  0  0  0
 18 57  1  0  0  0  0
 19 20  1  0  0  0  0
 19 58  1  1  0  0  0
 20 21  2  0  0  0  0
 22 19  1  0  0  0  0
 22 59  1  0  0  0  0
 22 60  1  0  0  0  0
 23 22  1  0  0  0  0
 23 25  1  0  0  0  0
 23 61  1  0  0  0  0
 24 23  1  0  0  0  0
 24 62  1  0  0  0  0
 24 63  1  0  0  0  0
 24 64  1  0  0  0  0
 25 65  1  0  0  0  0
 25 66  1  0  0  0  0
 25 67  1  0  0  0  0
 26 27  1  0  0  0  0
 26 20  1  0  0  0  0
 26 68  1  0  0  0  0
 27 28  1  0  0  0  0
 27 69  1  6  0  0  0
 28 29  2  0  0  0  0
 28 35  1  0  0  0  0
 30 27  1  0  0  0  0
 30 70  1  0  0  0  0
 30 71  1  0  0  0  0
 31 30  1  0  0  0  0
 31 72  1  0  0  0  0
 31 73  1  0  0  0  0
 32 33  1  0  0  0  0
 32 31  1  0  0  0  0
 34 32  2  0  0  0  0
 35 36  1  0  0  0  0
 35 74  1  0  0  0  0
 36 75  1  0  0  0  0
 36 76  1  0  0  0  0
 36 77  1  0  0  0  0
M  CHG  1  33  -1
M  END
>  <MODEL>
       0

$$$$
selected_4mers/KALE/189_noH.pdb
 OpenBabel03042517503D

 77 76  0  0  1  0  0  0  0  0999 V2000
   43.3920   25.0220   33.7830 C   0  0  0  0  0  0  0  0  0  0  0  0
   43.7630   25.7970   35.0500 C   0  0  0  0  0  0  0  0  0  0  0  0
   43.4540   25.3330   36.1380 O   0  0  0  0  0  0  0  0  0  0  0  0
   44.3560   27.0000   34.9120 N   0  0  0  0  0  0  0  0  0  0  0  0
   44.7690   27.8340   36.0630 C   0  0  2  0  0  0  0  0  0  0  0  0
   43.5510   28.2940   36.8560 C   0  0  0  0  0  0  0  0  0  0  0  0
   43.5890   28.3140   38.0960 O   0  0  0  0  0  0  0  0  0  0  0  0
   45.5820   29.0460   35.5930 C   0  0  0  0  0  0  0  0  0  0  0  0
   46.8750   28.6880   34.8350 C   0  0  0  0  0  0  0  0  0  0  0  0
   47.9980   28.2830   35.7860 C   0  0  0  0  0  0  0  0  0  0  0  0
   49.2680   27.9030   35.0680 C   0  0  0  0  0  0  0  0  0  0  0  0
   50.3840   27.6990   36.0230 N   0  0  0  0  0  0  0  0  0  0  0  0
   42.4730   28.6670   36.1360 N   0  0  0  0  0  0  0  0  0  0  0  0
   41.2110   29.0900   36.7430 C   0  0  2  0  0  0  0  0  0  0  0  0
   40.6690   27.9690   37.6380 C   0  0  0  0  0  0  0  0  0  0  0  0
   40.3890   28.1970   38.8140 O   0  0  0  0  0  0  0  0  0  0  0  0
   40.1890   29.4390   35.6580 C   0  0  0  0  0  0  0  0  0  0  0  0
   40.5930   26.7430   37.1010 N   0  0  0  0  0  0  0  0  0  0  0  0
   40.0920   25.5830   37.8360 C   0  0  2  0  0  0  0  0  0  0  0  0
   40.9420   25.2950   39.0830 C   0  0  0  0  0  0  0  0  0  0  0  0
   40.3910   25.0030   40.1450 O   0  0  0  0  0  0  0  0  0  0  0  0
   40.0680   24.3540   36.9060 C   0  0  0  0  0  0  0  0  0  0  0  0
   39.5490   23.0450   37.4800 C   0  0  0  0  0  0  0  0  0  0  0  0
   38.0710   23.1600   37.9450 C   0  0  0  0  0  0  0  0  0  0  0  0
   39.7160   21.9010   36.4730 C   0  0  0  0  0  0  0  0  0  0  0  0
   42.2810   25.3720   38.9430 N   0  0  0  0  0  0  0  0  0  0  0  0
   43.2360   25.1190   40.0440 C   0  0  2  0  0  0  0  0  0  0  0  0
   43.0910   26.1480   41.1620 C   0  0  0  0  0  0  0  0  0  0  0  0
   43.1510   25.7850   42.3400 O   0  0  0  0  0  0  0  0  0  0  0  0
   44.6720   25.1320   39.5030 C   0  0  0  0  0  0  0  0  0  0  0  0
   44.9380   23.9220   38.6160 C   0  0  0  0  0  0  0  0  0  0  0  0
   46.2250   23.9350   37.8170 C   0  0  0  0  0  0  0  0  0  0  0  0
   46.9280   24.9690   37.8380 O   0  0  0  0  0  0  0  0  0  0  0  0
   46.5200   22.9150   37.1490 O   0  5  0  0  0  0  0  0  0  0  0  0
   42.8940   27.4280   40.8030 N   0  0  0  0  0  0  0  0  0  0  0  0
   42.7230   28.4630   41.8280 C   0  0  0  0  0  0  0  0  0  0  0  0
   43.7317   25.5606   32.9231 H   0  0  0  0  0  0  0  0  0  0  0  0
   42.3294   24.9058   33.7343 H   0  0  0  0  0  0  0  0  0  0  0  0
   43.8555   24.0579   33.8061 H   0  0  0  0  0  0  0  0  0  0  0  0
   44.5221   27.3396   34.0030 H   0  0  0  0  0  0  0  0  0  0  0  0
   45.3876   27.2368   36.6999 H   0  0  0  0  0  0  0  0  0  0  0  0
   44.9649   29.6322   34.9445 H   0  0  0  0  0  0  0  0  0  0  0  0
   45.8802   29.5748   36.4741 H   0  0  0  0  0  0  0  0  0  0  0  0
   47.1911   29.5391   34.2688 H   0  0  0  0  0  0  0  0  0  0  0  0
   46.6653   27.8560   34.1957 H   0  0  0  0  0  0  0  0  0  0  0  0
   47.6695   27.4451   36.3647 H   0  0  0  0  0  0  0  0  0  0  0  0
   48.2186   29.1305   36.4008 H   0  0  0  0  0  0  0  0  0  0  0  0
   49.5307   28.6847   34.3862 H   0  0  0  0  0  0  0  0  0  0  0  0
   49.0991   26.9857   34.5436 H   0  0  0  0  0  0  0  0  0  0  0  0
   50.5585   28.5654   36.5321 H   0  0  0  0  0  0  0  0  0  0  0  0
   51.2245   27.4301   35.5114 H   0  0  0  0  0  0  0  0  0  0  0  0
   42.5388   28.6539   35.1538 H   0  0  0  0  0  0  0  0  0  0  0  0
   41.3854   29.9623   37.3376 H   0  0  0  0  0  0  0  0  0  0  0  0
   40.0025   28.5764   35.0530 H   0  0  0  0  0  0  0  0  0  0  0  0
   40.5740   30.2276   35.0458 H   0  0  0  0  0  0  0  0  0  0  0  0
   39.2762   29.7569   36.1169 H   0  0  0  0  0  0  0  0  0  0  0  0
   40.8878   26.6183   36.1700 H   0  0  0  0  0  0  0  0  0  0  0  0
   39.0981   25.7989   38.1685 H   0  0  0  0  0  0  0  0  0  0  0  0
   39.4533   24.6008   36.0657 H   0  0  0  0  0  0  0  0  0  0  0  0
   41.0968   24.1630   36.6826 H   0  0  0  0  0  0  0  0  0  0  0  0
   40.1386   22.8230   38.3449 H   0  0  0  0  0  0  0  0  0  0  0  0
   37.4486   23.3824   37.1035 H   0  0  0  0  0  0  0  0  0  0  0  0
   37.9848   23.9430   38.6692 H   0  0  0  0  0  0  0  0  0  0  0  0
   37.7617   22.2338   38.3825 H   0  0  0  0  0  0  0  0  0  0  0  0
   39.1323   22.1062   35.6000 H   0  0  0  0  0  0  0  0  0  0  0  0
   39.3852   20.9848   36.9159 H   0  0  0  0  0  0  0  0  0  0  0  0
   40.7470   21.8135   36.2003 H   0  0  0  0  0  0  0  0  0  0  0  0
   42.6431   25.6098   38.0589 H   0  0  0  0  0  0  0  0  0  0  0  0
   43.0158   24.1560   40.4551 H   0  0  0  0  0  0  0  0  0  0  0  0
   44.8212   26.0237   38.9308 H   0  0  0  0  0  0  0  0  0  0  0  0
   45.3468   25.0986   40.3327 H   0  0  0  0  0  0  0  0  0  0  0  0
   44.9553   23.0564   39.2448 H   0  0  0  0  0  0  0  0  0  0  0  0
   44.1543   23.9291   37.8876 H   0  0  0  0  0  0  0  0  0  0  0  0
   42.8644   27.6716   39.8496 H   0  0  0  0  0  0  0  0  0  0  0  0
   42.7841   28.0171   42.7988 H   0  0  0  0  0  0  0  0  0  0  0  0
   41.7670   28.9285   41.7088 H   0  0  0  0  0  0  0  0  0  0  0  0
   43.4932   29.1985   41.7242 H   0  0  0  0  0  0  0  0  0  0  0  0
  1  2  1  0  0  0  0
  1 37  1  0  0  0  0
  1 38  1  0  0  0  0
  1 39  1  0  0  0  0
  2  3  2  0  0  0  0
  4  2  1  0  0  0  0
  4  5  1  0  0  0  0
  4 40  1  0  0  0  0
  5  6  1  0  0  0  0
  5 41  1  1  0  0  0
  6  7  2  0  0  0  0
  8  5  1  0  0  0  0
  8 42  1  0  0  0  0
  8 43  1  0  0  0  0
  9  8  1  0  0  0  0
  9 10  1  0  0  0  0
  9 44  1  0  0  0  0
  9 45  1  0  0  0  0
 10 46  1  0  0  0  0
 10 47  1  0  0  0  0
 11 10  1  0  0  0  0
 11 12  1  0  0  0  0
 11 48  1  0  0  0  0
 11 49  1  0  0  0  0
 12 50  1  0  0  0  0
 12 51  1  0  0  0  0
 13 14  1  0  0  0  0
 13  6  1  0  0  0  0
 13 52  1  0  0  0  0
 14 15  1  0  0  0  0
 14 53  1  1  0  0  0
 15 16  2  0  0  0  0
 17 14  1  0  0  0  0
 17 54  1  0  0  0  0
 17 55  1  0  0  0  0
 17 56  1  0  0  0  0
 18 15  1  0  0  0  0
 18 19  1  0  0  0  0
 18 57  1  0  0  0  0
 19 20  1  0  0  0  0
 19 58  1  1  0  0  0
 20 21  2  0  0  0  0
 22 23  1  0  0  0  0
 22 19  1  0  0  0  0
 22 59  1  0  0  0  0
 22 60  1  0  0  0  0
 23 24  1  0  0  0  0
 23 61  1  0  0  0  0
 24 62  1  0  0  0  0
 24 63  1  0  0  0  0
 24 64  1  0  0  0  0
 25 23  1  0  0  0  0
 25 65  1  0  0  0  0
 25 66  1  0  0  0  0
 25 67  1  0  0  0  0
 26 20  1  0  0  0  0
 26 27  1  0  0  0  0
 26 68  1  0  0  0  0
 27 28  1  0  0  0  0
 27 69  1  1  0  0  0
 28 29  2  0  0  0  0
 30 27  1  0  0  0  0
 30 70  1  0  0  0  0
 30 71  1  0  0  0  0
 31 30  1  0  0  0  0
 31 72  1  0  0  0  0
 31 73  1  0  0  0  0
 32 33  1  0  0  0  0
 32 31  1  0  0  0  0
 34 32  2  0  0  0  0
 35 28  1  0  0  0  0
 35 36  1  0  0  0  0
 35 74  1  0  0  0  0
 36 75  1  0  0  0  0
 36 76  1  0  0  0  0
 36 77  1  0  0  0  0
M  CHG  1  33  -1
M  END
>  <MODEL>
       0

$$$$
