selected_4mers/KLTP/445_noH.pdb
 OpenBabel03042517593D

 80 80  0  0  1  0  0  0  0  0999 V2000
   48.8830   46.2400   53.3740 C   0  0  0  0  0  0  0  0  0  0  0  0
   49.3740   46.6860   52.0040 C   0  0  0  0  0  0  0  0  0  0  0  0
   48.5800   47.0790   51.1530 O   0  0  0  0  0  0  0  0  0  0  0  0
   50.6830   46.6400   51.7840 N   0  0  0  0  0  0  0  0  0  0  0  0
   51.1870   46.8600   50.4370 C   0  0  2  0  0  0  0  0  0  0  0  0
   51.2040   45.5150   49.7250 C   0  0  0  0  0  0  0  0  0  0  0  0
   51.8860   44.5870   50.1550 O   0  0  0  0  0  0  0  0  0  0  0  0
   52.5780   47.4930   50.4460 C   0  0  0  0  0  0  0  0  0  0  0  0
   52.9110   48.1990   49.1390 C   0  0  0  0  0  0  0  0  0  0  0  0
   54.3180   48.7710   49.1360 C   0  0  0  0  0  0  0  0  0  0  0  0
   54.5270   49.6990   47.9480 C   0  0  0  0  0  0  0  0  0  0  0  0
   54.2540   49.0260   46.6480 N   0  0  0  0  0  0  0  0  0  0  0  0
   50.4270   45.4060   48.6520 N   0  0  0  0  0  0  0  0  0  0  0  0
   50.2660   44.1370   47.9540 C   0  0  2  0  0  0  0  0  0  0  0  0
   51.3450   43.9590   46.8740 C   0  0  0  0  0  0  0  0  0  0  0  0
   51.6060   44.8740   46.1000 O   0  0  0  0  0  0  0  0  0  0  0  0
   48.8760   44.0810   47.3280 C   0  0  0  0  0  0  0  0  0  0  0  0
   47.7350   44.3320   48.3230 C   0  0  0  0  0  0  0  0  0  0  0  0
   46.3910   44.4870   47.6040 C   0  0  0  0  0  0  0  0  0  0  0  0
   47.6850   43.2120   49.3450 C   0  0  0  0  0  0  0  0  0  0  0  0
   51.9640   42.7800   46.8350 N   0  0  0  0  0  0  0  0  0  0  0  0
   52.9770   42.4590   45.8190 C   0  0  2  0  0  0  0  0  0  0  0  0
   52.3690   41.6400   44.6840 C   0  0  0  0  0  0  0  0  0  0  0  0
   51.3590   40.9770   44.8830 O   0  0  0  0  0  0  0  0  0  0  0  0
   54.1500   41.6690   46.4320 C   0  0  2  0  0  0  0  0  0  0  0  0
   53.6700   40.4620   47.0360 O   0  0  0  0  0  0  0  0  0  0  0  0
   54.8470   42.5000   47.4800 C   0  0  0  0  0  0  0  0  0  0  0  0
   52.9810   41.6760   43.4850 N   0  0  0  0  0  0  0  0  0  0  0  0
   52.4240   40.9150   42.3610 C   0  0  2  0  0  0  0  0  0  0  0  0
   52.4090   39.4230   42.6600 C   0  0  0  0  0  0  0  0  0  0  0  0
   53.3910   38.8890   43.1810 O   0  0  0  0  0  0  0  0  0  0  0  0
   53.3970   41.2160   41.2100 C   0  0  0  0  0  0  0  0  0  0  0  0
   54.0280   42.5170   41.5770 C   0  0  0  0  0  0  0  0  0  0  0  0
   54.1490   42.4790   43.0870 C   0  0  0  0  0  0  0  0  0  0  0  0
   51.2980   38.7660   42.3400 N   0  0  0  0  0  0  0  0  0  0  0  0
   51.1200   37.3490   42.6200 C   0  0  0  0  0  0  0  0  0  0  0  0
   47.8174   46.3266   53.4165 H   0  0  0  0  0  0  0  0  0  0  0  0
   49.3215   46.8587   54.1289 H   0  0  0  0  0  0  0  0  0  0  0  0
   49.1650   45.2212   53.5397 H   0  0  0  0  0  0  0  0  0  0  0  0
   51.3058   46.4589   52.5247 H   0  0  0  0  0  0  0  0  0  0  0  0
   50.5495   47.5484   49.9226 H   0  0  0  0  0  0  0  0  0  0  0  0
   52.6241   48.2067   51.2419 H   0  0  0  0  0  0  0  0  0  0  0  0
   53.2904   46.7057   50.5785 H   0  0  0  0  0  0  0  0  0  0  0  0
   52.8231   47.4969   48.3364 H   0  0  0  0  0  0  0  0  0  0  0  0
   52.2262   49.0128   49.0225 H   0  0  0  0  0  0  0  0  0  0  0  0
   54.4743   49.3203   50.0408 H   0  0  0  0  0  0  0  0  0  0  0  0
   55.0147   47.9621   49.0634 H   0  0  0  0  0  0  0  0  0  0  0  0
   53.8687   50.5368   48.0463 H   0  0  0  0  0  0  0  0  0  0  0  0
   55.5525   50.0044   47.9486 H   0  0  0  0  0  0  0  0  0  0  0  0
   53.2803   48.7234   46.6197 H   0  0  0  0  0  0  0  0  0  0  0  0
   54.8650   48.2152   46.5500 H   0  0  0  0  0  0  0  0  0  0  0  0
   49.9494   46.2008   48.3213 H   0  0  0  0  0  0  0  0  0  0  0  0
   50.3756   43.3390   48.6584 H   0  0  0  0  0  0  0  0  0  0  0  0
   48.7396   43.1113   46.8967 H   0  0  0  0  0  0  0  0  0  0  0  0
   48.8314   44.8643   46.6005 H   0  0  0  0  0  0  0  0  0  0  0  0
   47.9266   45.2526   48.8335 H   0  0  0  0  0  0  0  0  0  0  0  0
   46.1613   43.5836   47.0787 H   0  0  0  0  0  0  0  0  0  0  0  0
   46.4497   45.2986   46.9092 H   0  0  0  0  0  0  0  0  0  0  0  0
   45.6234   44.6871   48.3220 H   0  0  0  0  0  0  0  0  0  0  0  0
   47.4938   42.2839   48.8480 H   0  0  0  0  0  0  0  0  0  0  0  0
   46.9037   43.4068   50.0497 H   0  0  0  0  0  0  0  0  0  0  0  0
   48.6222   43.1553   49.8582 H   0  0  0  0  0  0  0  0  0  0  0  0
   51.7353   42.1004   47.5096 H   0  0  0  0  0  0  0  0  0  0  0  0
   53.3420   43.3879   45.4333 H   0  0  0  0  0  0  0  0  0  0  0  0
   54.8397   41.4286   45.6500 H   0  0  0  0  0  0  0  0  0  0  0  0
   53.0450   40.6814   47.7446 H   0  0  0  0  0  0  0  0  0  0  0  0
   54.1570   42.7401   48.2618 H   0  0  0  0  0  0  0  0  0  0  0  0
   55.2107   43.4028   47.0355 H   0  0  0  0  0  0  0  0  0  0  0  0
   55.6678   41.9466   47.8862 H   0  0  0  0  0  0  0  0  0  0  0  0
   51.4110   41.1836   42.1452 H   0  0  0  0  0  0  0  0  0  0  0  0
   54.1368   40.4471   41.1306 H   0  0  0  0  0  0  0  0  0  0  0  0
   52.9017   41.2596   40.2625 H   0  0  0  0  0  0  0  0  0  0  0  0
   53.4107   43.3350   41.2692 H   0  0  0  0  0  0  0  0  0  0  0  0
   54.9760   42.6538   41.1001 H   0  0  0  0  0  0  0  0  0  0  0  0
   54.1001   43.4636   43.5029 H   0  0  0  0  0  0  0  0  0  0  0  0
   55.0788   42.0744   43.4285 H   0  0  0  0  0  0  0  0  0  0  0  0
   50.5684   39.2566   41.8970 H   0  0  0  0  0  0  0  0  0  0  0  0
   51.9969   36.9674   43.0999 H   0  0  0  0  0  0  0  0  0  0  0  0
   50.9572   36.8220   41.7031 H   0  0  0  0  0  0  0  0  0  0  0  0
   50.2750   37.2158   43.2628 H   0  0  0  0  0  0  0  0  0  0  0  0
  1 37  1  0  0  0  0
  1 38  1  0  0  0  0
  1 39  1  0  0  0  0
  2  1  1  0  0  0  0
  3  2  2  0  0  0  0
  4  2  1  0  0  0  0
  4 40  1  0  0  0  0
  5  8  1  0  0  0  0
  5  4  1  0  0  0  0
  5 41  1  6  0  0  0
  6  7  2  0  0  0  0
  6  5  1  0  0  0  0
  8 42  1  0  0  0  0
  8 43  1  0  0  0  0
  9  8  1  0  0  0  0
  9 44  1  0  0  0  0
  9 45  1  0  0  0  0
 10  9  1  0  0  0  0
 10 46  1  0  0  0  0
 10 47  1  0  0  0  0
 11 10  1  0  0  0  0
 11 48  1  0  0  0  0
 11 49  1  0  0  0  0
 12 11  1  0  0  0  0
 12 50  1  0  0  0  0
 12 51  1  0  0  0  0
 13  6  1  0  0  0  0
 13 52  1  0  0  0  0
 14 13  1  0  0  0  0
 14 53  1  1  0  0  0
 15 14  1  0  0  0  0
 16 15  2  0  0  0  0
 17 14  1  0  0  0  0
 17 18  1  0  0  0  0
 17 54  1  0  0  0  0
 17 55  1  0  0  0  0
 18 20  1  0  0  0  0
 18 56  1  0  0  0  0
 19 18  1  0  0  0  0
 19 57  1  0  0  0  0
 19 58  1  0  0  0  0
 19 59  1  0  0  0  0
 20 60  1  0  0  0  0
 20 61  1  0  0  0  0
 20 62  1  0  0  0  0
 21 15  1  0  0  0  0
 21 63  1  0  0  0  0
 22 25  1  0  0  0  0
 22 21  1  0  0  0  0
 22 64  1  6  0  0  0
 23 24  2  0  0  0  0
 23 22  1  0  0  0  0
 25 26  1  0  0  0  0
 25 27  1  0  0  0  0
 25 65  1  6  0  0  0
 26 66  1  0  0  0  0
 27 67  1  0  0  0  0
 27 68  1  0  0  0  0
 27 69  1  0  0  0  0
 28 23  1  0  0  0  0
 29 30  1  0  0  0  0
 29 28  1  0  0  0  0
 29 70  1  6  0  0  0
 30 31  2  0  0  0  0
 32 33  1  0  0  0  0
 32 29  1  0  0  0  0
 32 71  1  0  0  0  0
 32 72  1  0  0  0  0
 33 34  1  0  0  0  0
 33 73  1  0  0  0  0
 33 74  1  0  0  0  0
 34 28  1  0  0  0  0
 34 75  1  0  0  0  0
 34 76  1  0  0  0  0
 35 36  1  0  0  0  0
 35 30  1  0  0  0  0
 35 77  1  0  0  0  0
 36 78  1  0  0  0  0
 36 79  1  0  0  0  0
 36 80  1  0  0  0  0
M  END
>  <MODEL>
       0

$$$$
selected_4mers/KLTP/446_noH.pdb
 OpenBabel03042517593D

 80 80  0  0  1  0  0  0  0  0999 V2000
   39.0730  -21.2610   17.8700 C   0  0  0  0  0  0  0  0  0  0  0  0
   39.5420  -19.8530   18.1400 C   0  0  0  0  0  0  0  0  0  0  0  0
   38.9810  -19.1700   18.9840 O   0  0  0  0  0  0  0  0  0  0  0  0
   40.5630  -19.4200   17.4150 N   0  0  0  0  0  0  0  0  0  0  0  0
   41.1060  -18.0670   17.5510 C   0  0  2  0  0  0  0  0  0  0  0  0
   40.2410  -16.9330   17.0050 C   0  0  0  0  0  0  0  0  0  0  0  0
   40.5070  -15.7780   17.3110 O   0  0  0  0  0  0  0  0  0  0  0  0
   42.5010  -17.9990   16.9170 C   0  0  0  0  0  0  0  0  0  0  0  0
   43.6130  -18.2570   17.9050 C   0  0  0  0  0  0  0  0  0  0  0  0
   43.3760  -19.5130   18.7370 C   0  0  0  0  0  0  0  0  0  0  0  0
   44.5020  -19.7270   19.7230 C   0  0  0  0  0  0  0  0  0  0  0  0
   44.3330  -21.0480   20.3830 N   0  0  0  0  0  0  0  0  0  0  0  0
   39.2350  -17.2550   16.1910 N   0  0  0  0  0  0  0  0  0  0  0  0
   38.1690  -16.3170   15.8100 C   0  0  2  0  0  0  0  0  0  0  0  0
   37.0520  -16.1200   16.8450 C   0  0  0  0  0  0  0  0  0  0  0  0
   36.1370  -15.3170   16.6350 O   0  0  0  0  0  0  0  0  0  0  0  0
   37.5180  -16.8020   14.5230 C   0  0  0  0  0  0  0  0  0  0  0  0
   38.3900  -16.6120   13.3020 C   0  0  0  0  0  0  0  0  0  0  0  0
   37.9070  -17.4650   12.1540 C   0  0  0  0  0  0  0  0  0  0  0  0
   38.4050  -15.1460   12.9080 C   0  0  0  0  0  0  0  0  0  0  0  0
   37.1040  -16.8490   17.9510 N   0  0  0  0  0  0  0  0  0  0  0  0
   36.0430  -16.7720   18.9730 C   0  0  2  0  0  0  0  0  0  0  0  0
   36.3440  -15.6020   19.8940 C   0  0  0  0  0  0  0  0  0  0  0  0
   37.4580  -15.4900   20.3740 O   0  0  0  0  0  0  0  0  0  0  0  0
   35.9870  -18.0870   19.7840 C   0  0  2  0  0  0  0  0  0  0  0  0
   35.7000  -19.1410   18.8780 O   0  0  0  0  0  0  0  0  0  0  0  0
   34.9230  -18.0490   20.8810 C   0  0  0  0  0  0  0  0  0  0  0  0
   35.3670  -14.7030   20.1130 N   0  0  0  0  0  0  0  0  0  0  0  0
   35.5870  -13.6250   21.0640 C   0  0  2  0  0  0  0  0  0  0  0  0
   35.8200  -14.1620   22.4640 C   0  0  0  0  0  0  0  0  0  0  0  0
   35.1920  -15.1450   22.8550 O   0  0  0  0  0  0  0  0  0  0  0  0
   34.2750  -12.8280   21.0070 C   0  0  0  0  0  0  0  0  0  0  0  0
   33.6400  -13.1960   19.7210 C   0  0  0  0  0  0  0  0  0  0  0  0
   34.0290  -14.6290   19.5020 C   0  0  0  0  0  0  0  0  0  0  0  0
   36.7380  -13.5470   23.2190 N   0  0  0  0  0  0  0  0  0  0  0  0
   36.9950  -13.9820   24.5880 C   0  0  0  0  0  0  0  0  0  0  0  0
   39.6801  -21.6987   17.1053 H   0  0  0  0  0  0  0  0  0  0  0  0
   38.0528  -21.2415   17.5480 H   0  0  0  0  0  0  0  0  0  0  0  0
   39.1535  -21.8416   18.7652 H   0  0  0  0  0  0  0  0  0  0  0  0
   40.9719  -20.0310   16.7602 H   0  0  0  0  0  0  0  0  0  0  0  0
   41.1399  -17.8993   18.6072 H   0  0  0  0  0  0  0  0  0  0  0  0
   42.6374  -17.0242   16.4975 H   0  0  0  0  0  0  0  0  0  0  0  0
   42.5511  -18.7658   16.1724 H   0  0  0  0  0  0  0  0  0  0  0  0
   43.6875  -17.4177   18.5645 H   0  0  0  0  0  0  0  0  0  0  0  0
   44.5152  -18.4016   17.3482 H   0  0  0  0  0  0  0  0  0  0  0  0
   43.3158  -20.3591   18.0848 H   0  0  0  0  0  0  0  0  0  0  0  0
   42.4624  -19.3953   19.2814 H   0  0  0  0  0  0  0  0  0  0  0  0
   44.4820  -18.9532   20.4618 H   0  0  0  0  0  0  0  0  0  0  0  0
   45.4393  -19.7013   19.2076 H   0  0  0  0  0  0  0  0  0  0  0  0
   43.4392  -21.0710   20.8738 H   0  0  0  0  0  0  0  0  0  0  0  0
   45.0909  -21.1944   21.0498 H   0  0  0  0  0  0  0  0  0  0  0  0
   39.2046  -18.1688   15.8260 H   0  0  0  0  0  0  0  0  0  0  0  0
   38.6599  -15.3715   15.7102 H   0  0  0  0  0  0  0  0  0  0  0  0
   37.2993  -17.8444   14.6251 H   0  0  0  0  0  0  0  0  0  0  0  0
   36.6345  -16.2168   14.3751 H   0  0  0  0  0  0  0  0  0  0  0  0
   39.3862  -16.9210   13.5410 H   0  0  0  0  0  0  0  0  0  0  0  0
   36.9101  -17.1785   11.8915 H   0  0  0  0  0  0  0  0  0  0  0  0
   37.9171  -18.4944   12.4456 H   0  0  0  0  0  0  0  0  0  0  0  0
   38.5515  -17.3267   11.3111 H   0  0  0  0  0  0  0  0  0  0  0  0
   37.4110  -14.8311   12.6678 H   0  0  0  0  0  0  0  0  0  0  0  0
   39.0374  -15.0123   12.0553 H   0  0  0  0  0  0  0  0  0  0  0  0
   38.7772  -14.5614   13.7232 H   0  0  0  0  0  0  0  0  0  0  0  0
   37.8670  -17.4547   18.0933 H   0  0  0  0  0  0  0  0  0  0  0  0
   35.0935  -16.6291   18.5009 H   0  0  0  0  0  0  0  0  0  0  0  0
   36.9288  -18.2321   20.2706 H   0  0  0  0  0  0  0  0  0  0  0  0
   34.8421  -18.9793   18.4552 H   0  0  0  0  0  0  0  0  0  0  0  0
   33.9595  -17.9048   20.4385 H   0  0  0  0  0  0  0  0  0  0  0  0
   35.1315  -17.2423   21.5523 H   0  0  0  0  0  0  0  0  0  0  0  0
   34.9333  -18.9733   21.4200 H   0  0  0  0  0  0  0  0  0  0  0  0
   36.4516  -13.0400   20.8290 H   0  0  0  0  0  0  0  0  0  0  0  0
   33.6405  -13.0943   21.8264 H   0  0  0  0  0  0  0  0  0  0  0  0
   34.4489  -11.7744   21.0750 H   0  0  0  0  0  0  0  0  0  0  0  0
   32.5763  -13.0989   19.7837 H   0  0  0  0  0  0  0  0  0  0  0  0
   33.9548  -12.5632   18.9177 H   0  0  0  0  0  0  0  0  0  0  0  0
   34.0688  -14.8620   18.4584 H   0  0  0  0  0  0  0  0  0  0  0  0
   33.3332  -15.3250   19.9221 H   0  0  0  0  0  0  0  0  0  0  0  0
   37.2466  -12.7911   22.8459 H   0  0  0  0  0  0  0  0  0  0  0  0
   36.3578  -14.8082   24.8253 H   0  0  0  0  0  0  0  0  0  0  0  0
   36.7978  -13.1745   25.2618 H   0  0  0  0  0  0  0  0  0  0  0  0
   38.0178  -14.2823   24.6808 H   0  0  0  0  0  0  0  0  0  0  0  0
  1  2  1  0  0  0  0
  1 37  1  0  0  0  0
  1 38  1  0  0  0  0
  1 39  1  0  0  0  0
  2  3  2  0  0  0  0
  4  5  1  0  0  0  0
  4  2  1  0  0  0  0
  4 40  1  0  0  0  0
  5 41  1  1  0  0  0
  6  7  2  0  0  0  0
  6  5  1  0  0  0  0
  8  5  1  0  0  0  0
  8  9  1  0  0  0  0
  8 42  1  0  0  0  0
  8 43  1  0  0  0  0
  9 10  1  0  0  0  0
  9 44  1  0  0  0  0
  9 45  1  0  0  0  0
 10 11  1  0  0  0  0
 10 46  1  0  0  0  0
 10 47  1  0  0  0  0
 11 12  1  0  0  0  0
 11 48  1  0  0  0  0
 11 49  1  0  0  0  0
 12 50  1  0  0  0  0
 12 51  1  0  0  0  0
 13  6  1  0  0  0  0
 13 52  1  0  0  0  0
 14 13  1  0  0  0  0
 14 15  1  0  0  0  0
 14 53  1  6  0  0  0
 15 21  1  0  0  0  0
 16 15  2  0  0  0  0
 17 14  1  0  0  0  0
 17 54  1  0  0  0  0
 17 55  1  0  0  0  0
 18 17  1  0  0  0  0
 18 56  1  0  0  0  0
 19 18  1  0  0  0  0
 19 57  1  0  0  0  0
 19 58  1  0  0  0  0
 19 59  1  0  0  0  0
 20 18  1  0  0  0  0
 20 60  1  0  0  0  0
 20 61  1  0  0  0  0
 20 62  1  0  0  0  0
 21 22  1  0  0  0  0
 21 63  1  0  0  0  0
 22 25  1  0  0  0  0
 22 23  1  0  0  0  0
 22 64  1  6  0  0  0
 23 28  1  0  0  0  0
 23 24  2  0  0  0  0
 25 27  1  0  0  0  0
 25 65  1  1  0  0  0
 26 25  1  0  0  0  0
 26 66  1  0  0  0  0
 27 67  1  0  0  0  0
 27 68  1  0  0  0  0
 27 69  1  0  0  0  0
 28 29  1  0  0  0  0
 29 30  1  0  0  0  0
 29 70  1  6  0  0  0
 30 31  2  0  0  0  0
 30 35  1  0  0  0  0
 32 29  1  0  0  0  0
 32 71  1  0  0  0  0
 32 72  1  0  0  0  0
 33 32  1  0  0  0  0
 33 73  1  0  0  0  0
 33 74  1  0  0  0  0
 34 33  1  0  0  0  0
 34 28  1  0  0  0  0
 34 75  1  0  0  0  0
 34 76  1  0  0  0  0
 35 36  1  0  0  0  0
 35 77  1  0  0  0  0
 36 78  1  0  0  0  0
 36 79  1  0  0  0  0
 36 80  1  0  0  0  0
M  END
>  <MODEL>
       0

$$$$
selected_4mers/KLTP/447_noH.pdb
 OpenBabel03042517593D

 80 80  0  0  1  0  0  0  0  0999 V2000
   41.6750   25.2230   65.1980 C   0  0  0  0  0  0  0  0  0  0  0  0
   42.4040   26.5760   65.0910 C   0  0  0  0  0  0  0  0  0  0  0  0
   42.6260   27.2760   66.0650 O   0  0  0  0  0  0  0  0  0  0  0  0
   42.7310   26.9320   63.8730 N   0  0  0  0  0  0  0  0  0  0  0  0
   43.4690   28.1780   63.6000 C   0  0  2  0  0  0  0  0  0  0  0  0
   42.6390   29.4240   63.9210 C   0  0  0  0  0  0  0  0  0  0  0  0
   43.1830   30.4320   64.3860 O   0  0  0  0  0  0  0  0  0  0  0  0
   43.8790   28.1760   62.1300 C   0  0  0  0  0  0  0  0  0  0  0  0
   44.6520   29.3830   61.6680 C   0  0  0  0  0  0  0  0  0  0  0  0
   45.1890   29.1020   60.2640 C   0  0  0  0  0  0  0  0  0  0  0  0
   46.2580   27.9910   60.3050 C   0  0  0  0  0  0  0  0  0  0  0  0
   46.6800   27.6990   58.8860 N   0  0  0  0  0  0  0  0  0  0  0  0
   41.3260   29.3470   63.6990 N   0  0  0  0  0  0  0  0  0  0  0  0
   40.4210   30.4900   63.9450 C   0  0  2  0  0  0  0  0  0  0  0  0
   39.9060   30.5790   65.3720 C   0  0  0  0  0  0  0  0  0  0  0  0
   39.5420   31.6440   65.8640 O   0  0  0  0  0  0  0  0  0  0  0  0
   39.1990   30.4350   62.9860 C   0  0  0  0  0  0  0  0  0  0  0  0
   38.2280   31.6290   63.0760 C   0  0  0  0  0  0  0  0  0  0  0  0
   39.0230   32.9500   63.0260 C   0  0  0  0  0  0  0  0  0  0  0  0
   37.1700   31.5740   61.9130 C   0  0  0  0  0  0  0  0  0  0  0  0
   39.8950   29.4380   66.0490 N   0  0  0  0  0  0  0  0  0  0  0  0
   39.3760   29.3720   67.3980 C   0  0  2  0  0  0  0  0  0  0  0  0
   39.8970   30.4270   68.3880 C   0  0  0  0  0  0  0  0  0  0  0  0
   39.1440   30.8810   69.2460 O   0  0  0  0  0  0  0  0  0  0  0  0
   39.5850   27.9420   67.9160 C   0  0  2  0  0  0  0  0  0  0  0  0
   38.5800   27.1230   67.3000 O   0  0  0  0  0  0  0  0  0  0  0  0
   39.4800   27.8520   69.4570 C   0  0  0  0  0  0  0  0  0  0  0  0
   41.1870   30.8160   68.2960 N   0  0  0  0  0  0  0  0  0  0  0  0
   41.6740   31.8170   69.2490 C   0  0  2  0  0  0  0  0  0  0  0  0
   40.8610   33.0970   69.2940 C   0  0  0  0  0  0  0  0  0  0  0  0
   40.8340   33.7670   70.3210 O   0  0  0  0  0  0  0  0  0  0  0  0
   43.1120   32.0840   68.7800 C   0  0  0  0  0  0  0  0  0  0  0  0
   43.5190   30.7230   68.2630 C   0  0  0  0  0  0  0  0  0  0  0  0
   42.2880   30.2620   67.4970 C   0  0  0  0  0  0  0  0  0  0  0  0
   40.1790   33.4150   68.1920 N   0  0  0  0  0  0  0  0  0  0  0  0
   39.3970   34.6420   68.1750 C   0  0  0  0  0  0  0  0  0  0  0  0
   41.5910   24.7852   64.2253 H   0  0  0  0  0  0  0  0  0  0  0  0
   40.6977   25.3757   65.6060 H   0  0  0  0  0  0  0  0  0  0  0  0
   42.2300   24.5684   65.8370 H   0  0  0  0  0  0  0  0  0  0  0  0
   42.4767   26.3512   63.1198 H   0  0  0  0  0  0  0  0  0  0  0  0
   44.3310   28.2148   64.2328 H   0  0  0  0  0  0  0  0  0  0  0  0
   44.4856   27.3113   61.9587 H   0  0  0  0  0  0  0  0  0  0  0  0
   42.9662   28.1819   61.5717 H   0  0  0  0  0  0  0  0  0  0  0  0
   44.0084   30.2375   61.6447 H   0  0  0  0  0  0  0  0  0  0  0  0
   45.4615   29.5809   62.3391 H   0  0  0  0  0  0  0  0  0  0  0  0
   44.3818   28.7905   59.6344 H   0  0  0  0  0  0  0  0  0  0  0  0
   45.6343   29.9957   59.8793 H   0  0  0  0  0  0  0  0  0  0  0  0
   47.1020   28.3197   60.8747 H   0  0  0  0  0  0  0  0  0  0  0  0
   45.8614   27.1097   60.7642 H   0  0  0  0  0  0  0  0  0  0  0  0
   47.0555   28.5471   58.4616 H   0  0  0  0  0  0  0  0  0  0  0  0
   45.8731   27.3793   58.3503 H   0  0  0  0  0  0  0  0  0  0  0  0
   40.9479   28.5032   63.3610 H   0  0  0  0  0  0  0  0  0  0  0  0
   41.0164   31.3605   63.7643 H   0  0  0  0  0  0  0  0  0  0  0  0
   39.5693   30.3865   61.9833 H   0  0  0  0  0  0  0  0  0  0  0  0
   38.6341   29.5752   63.2803 H   0  0  0  0  0  0  0  0  0  0  0  0
   37.6991   31.5765   64.0047 H   0  0  0  0  0  0  0  0  0  0  0  0
   39.5555   33.0110   62.0999 H   0  0  0  0  0  0  0  0  0  0  0  0
   39.7176   32.9793   63.8394 H   0  0  0  0  0  0  0  0  0  0  0  0
   38.3474   33.7760   63.1040 H   0  0  0  0  0  0  0  0  0  0  0  0
   37.6734   31.6249   60.9702 H   0  0  0  0  0  0  0  0  0  0  0  0
   36.4974   32.4012   62.0033 H   0  0  0  0  0  0  0  0  0  0  0  0
   36.6196   30.6585   61.9745 H   0  0  0  0  0  0  0  0  0  0  0  0
   40.2463   28.6215   65.6258 H   0  0  0  0  0  0  0  0  0  0  0  0
   38.3371   29.6209   67.3371 H   0  0  0  0  0  0  0  0  0  0  0  0
   40.5715   27.6117   67.6657 H   0  0  0  0  0  0  0  0  0  0  0  0
   37.7007   27.4494   67.5473 H   0  0  0  0  0  0  0  0  0  0  0  0
   38.5074   28.1723   69.7675 H   0  0  0  0  0  0  0  0  0  0  0  0
   40.2219   28.4814   69.9024 H   0  0  0  0  0  0  0  0  0  0  0  0
   39.6380   26.8401   69.7668 H   0  0  0  0  0  0  0  0  0  0  0  0
   41.6003   31.4544   70.2530 H   0  0  0  0  0  0  0  0  0  0  0  0
   43.1396   32.8208   68.0046 H   0  0  0  0  0  0  0  0  0  0  0  0
   43.7547   32.4705   69.5432 H   0  0  0  0  0  0  0  0  0  0  0  0
   44.3685   30.7961   67.6166 H   0  0  0  0  0  0  0  0  0  0  0  0
   43.8078   30.0471   69.0406 H   0  0  0  0  0  0  0  0  0  0  0  0
   42.2361   29.1940   67.4560 H   0  0  0  0  0  0  0  0  0  0  0  0
   42.2768   30.5835   66.4765 H   0  0  0  0  0  0  0  0  0  0  0  0
   40.2045   32.8280   67.4020 H   0  0  0  0  0  0  0  0  0  0  0  0
   39.4941   35.1399   69.1171 H   0  0  0  0  0  0  0  0  0  0  0  0
   38.3679   34.4067   68.0003 H   0  0  0  0  0  0  0  0  0  0  0  0
   39.7539   35.2817   67.3951 H   0  0  0  0  0  0  0  0  0  0  0  0
  1 37  1  0  0  0  0
  1 38  1  0  0  0  0
  1 39  1  0  0  0  0
  2  1  1  0  0  0  0
  2  3  2  0  0  0  0
  4  2  1  0  0  0  0
  4 40  1  0  0  0  0
  5  4  1  0  0  0  0
  5  6  1  0  0  0  0
  5 41  1  1  0  0  0
  6  7  2  0  0  0  0
  8  5  1  0  0  0  0
  8 42  1  0  0  0  0
  8 43  1  0  0  0  0
  9  8  1  0  0  0  0
  9 44  1  0  0  0  0
  9 45  1  0  0  0  0
 10 11  1  0  0  0  0
 10  9  1  0  0  0  0
 10 46  1  0  0  0  0
 10 47  1  0  0  0  0
 11 48  1  0  0  0  0
 11 49  1  0  0  0  0
 12 11  1  0  0  0  0
 12 50  1  0  0  0  0
 12 51  1  0  0  0  0
 13  6  1  0  0  0  0
 13 14  1  0  0  0  0
 13 52  1  0  0  0  0
 14 15  1  0  0  0  0
 14 53  1  6  0  0  0
 15 16  2  0  0  0  0
 15 21  1  0  0  0  0
 17 18  1  0  0  0  0
 17 14  1  0  0  0  0
 17 54  1  0  0  0  0
 17 55  1  0  0  0  0
 18 56  1  0  0  0  0
 19 18  1  0  0  0  0
 19 57  1  0  0  0  0
 19 58  1  0  0  0  0
 19 59  1  0  0  0  0
 20 18  1  0  0  0  0
 20 60  1  0  0  0  0
 20 61  1  0  0  0  0
 20 62  1  0  0  0  0
 21 22  1  0  0  0  0
 21 63  1  0  0  0  0
 22 25  1  0  0  0  0
 22 23  1  0  0  0  0
 22 64  1  6  0  0  0
 23 24  2  0  0  0  0
 25 27  1  0  0  0  0
 25 65  1  6  0  0  0
 26 25  1  0  0  0  0
 26 66  1  0  0  0  0
 27 67  1  0  0  0  0
 27 68  1  0  0  0  0
 27 69  1  0  0  0  0
 28 23  1  0  0  0  0
 28 29  1  0  0  0  0
 29 30  1  0  0  0  0
 29 70  1  1  0  0  0
 30 31  2  0  0  0  0
 32 29  1  0  0  0  0
 32 71  1  0  0  0  0
 32 72  1  0  0  0  0
 33 32  1  0  0  0  0
 33 73  1  0  0  0  0
 33 74  1  0  0  0  0
 34 33  1  0  0  0  0
 34 28  1  0  0  0  0
 34 75  1  0  0  0  0
 34 76  1  0  0  0  0
 35 30  1  0  0  0  0
 35 77  1  0  0  0  0
 36 35  1  0  0  0  0
 36 78  1  0  0  0  0
 36 79  1  0  0  0  0
 36 80  1  0  0  0  0
M  END
>  <MODEL>
       0

$$$$
selected_4mers/KLTP/448_noH.pdb
 OpenBabel03042517593D

 80 80  0  0  1  0  0  0  0  0999 V2000
   31.3700  -23.7550   34.6990 C   0  0  0  0  0  0  0  0  0  0  0  0
   31.2400  -22.3670   35.3130 C   0  0  0  0  0  0  0  0  0  0  0  0
   30.3780  -21.5880   34.8900 O   0  0  0  0  0  0  0  0  0  0  0  0
   32.0720  -22.0550   36.3110 N   0  0  0  0  0  0  0  0  0  0  0  0
   32.0660  -20.7180   36.9060 C   0  0  2  0  0  0  0  0  0  0  0  0
   33.2170  -19.9830   36.2150 C   0  0  0  0  0  0  0  0  0  0  0  0
   34.3680  -20.4210   36.2610 O   0  0  0  0  0  0  0  0  0  0  0  0
   32.3090  -20.7640   38.4200 C   0  0  0  0  0  0  0  0  0  0  0  0
   32.4790  -19.3870   39.0230 C   0  0  0  0  0  0  0  0  0  0  0  0
   32.7510  -19.4280   40.5270 C   0  0  0  0  0  0  0  0  0  0  0  0
   33.1110  -18.0520   41.0380 C   0  0  0  0  0  0  0  0  0  0  0  0
   33.3000  -18.0900   42.5140 N   0  0  0  0  0  0  0  0  0  0  0  0
   32.9070  -18.8600   35.5790 N   0  0  0  0  0  0  0  0  0  0  0  0
   33.8990  -18.1080   34.8230 C   0  0  2  0  0  0  0  0  0  0  0  0
   34.6650  -17.0310   35.5580 C   0  0  0  0  0  0  0  0  0  0  0  0
   34.1560  -16.4080   36.4840 O   0  0  0  0  0  0  0  0  0  0  0  0
   33.2060  -17.4370   33.6210 C   0  0  0  0  0  0  0  0  0  0  0  0
   32.3120  -18.3060   32.7320 C   0  0  0  0  0  0  0  0  0  0  0  0
   31.6330  -17.3970   31.6900 C   0  0  0  0  0  0  0  0  0  0  0  0
   33.1210  -19.3790   32.0240 C   0  0  0  0  0  0  0  0  0  0  0  0
   35.9050  -16.7950   35.1240 N   0  0  0  0  0  0  0  0  0  0  0  0
   36.6930  -15.7070   35.6810 C   0  0  2  0  0  0  0  0  0  0  0  0
   36.1830  -14.4640   34.9580 C   0  0  0  0  0  0  0  0  0  0  0  0
   35.4750  -14.5750   33.9480 O   0  0  0  0  0  0  0  0  0  0  0  0
   38.1950  -15.8330   35.3340 C   0  0  2  0  0  0  0  0  0  0  0  0
   38.3640  -15.8010   33.9070 O   0  0  0  0  0  0  0  0  0  0  0  0
   38.7600  -17.1290   35.8710 C   0  0  0  0  0  0  0  0  0  0  0  0
   36.5350  -13.2690   35.4500 N   0  0  0  0  0  0  0  0  0  0  0  0
   36.0740  -12.0500   34.7770 C   0  0  2  0  0  0  0  0  0  0  0  0
   36.5090  -12.0260   33.3040 C   0  0  0  0  0  0  0  0  0  0  0  0
   35.7240  -11.6460   32.4290 O   0  0  0  0  0  0  0  0  0  0  0  0
   36.7400  -10.9370   35.5850 C   0  0  0  0  0  0  0  0  0  0  0  0
   36.8180  -11.5370   36.9780 C   0  0  0  0  0  0  0  0  0  0  0  0
   37.2820  -12.9400   36.6830 C   0  0  0  0  0  0  0  0  0  0  0  0
   37.7540  -12.4170   33.0290 N   0  0  0  0  0  0  0  0  0  0  0  0
   38.2550  -12.4150   31.6550 C   0  0  0  0  0  0  0  0  0  0  0  0
   30.6481  -23.8683   33.9174 H   0  0  0  0  0  0  0  0  0  0  0  0
   31.1994  -24.4956   35.4522 H   0  0  0  0  0  0  0  0  0  0  0  0
   32.3538  -23.8761   34.2961 H   0  0  0  0  0  0  0  0  0  0  0  0
   32.6981  -22.7344   36.6510 H   0  0  0  0  0  0  0  0  0  0  0  0
   31.1190  -20.2382   36.7726 H   0  0  0  0  0  0  0  0  0  0  0  0
   33.1959  -21.3324   38.6078 H   0  0  0  0  0  0  0  0  0  0  0  0
   31.4498  -21.2129   38.8731 H   0  0  0  0  0  0  0  0  0  0  0  0
   31.5837  -18.8264   38.8527 H   0  0  0  0  0  0  0  0  0  0  0  0
   33.3271  -18.9328   38.5546 H   0  0  0  0  0  0  0  0  0  0  0  0
   33.5622  -20.0985   40.7199 H   0  0  0  0  0  0  0  0  0  0  0  0
   31.8677  -19.7632   41.0292 H   0  0  0  0  0  0  0  0  0  0  0  0
   32.3235  -17.3682   40.7992 H   0  0  0  0  0  0  0  0  0  0  0  0
   34.0216  -17.7329   40.5756 H   0  0  0  0  0  0  0  0  0  0  0  0
   32.4344  -18.3937   42.9599 H   0  0  0  0  0  0  0  0  0  0  0  0
   33.5466  -17.1588   42.8493 H   0  0  0  0  0  0  0  0  0  0  0  0
   31.9816  -18.5264   35.6194 H   0  0  0  0  0  0  0  0  0  0  0  0
   34.6283  -18.8454   34.5599 H   0  0  0  0  0  0  0  0  0  0  0  0
   32.5988  -16.6441   34.0052 H   0  0  0  0  0  0  0  0  0  0  0  0
   34.0096  -17.1370   32.9814 H   0  0  0  0  0  0  0  0  0  0  0  0
   31.5801  -18.7947   33.3407 H   0  0  0  0  0  0  0  0  0  0  0  0
   32.3809  -16.9186   31.0927 H   0  0  0  0  0  0  0  0  0  0  0  0
   31.0482  -16.6544   32.1915 H   0  0  0  0  0  0  0  0  0  0  0  0
   30.9983  -17.9866   31.0620 H   0  0  0  0  0  0  0  0  0  0  0  0
   33.8627  -18.9171   31.4064 H   0  0  0  0  0  0  0  0  0  0  0  0
   32.4708  -19.9733   31.4166 H   0  0  0  0  0  0  0  0  0  0  0  0
   33.5994  -20.0024   32.7502 H   0  0  0  0  0  0  0  0  0  0  0  0
   36.2904  -17.3638   34.4189 H   0  0  0  0  0  0  0  0  0  0  0  0
   36.5994  -15.6923   36.7468 H   0  0  0  0  0  0  0  0  0  0  0  0
   38.7168  -15.0141   35.7834 H   0  0  0  0  0  0  0  0  0  0  0  0
   37.8881  -16.5463   33.5083 H   0  0  0  0  0  0  0  0  0  0  0  0
   38.2438  -17.9543   35.4268 H   0  0  0  0  0  0  0  0  0  0  0  0
   38.6345  -17.1598   36.9332 H   0  0  0  0  0  0  0  0  0  0  0  0
   39.8014  -17.1898   35.6330 H   0  0  0  0  0  0  0  0  0  0  0  0
   35.0082  -11.9601   34.7475 H   0  0  0  0  0  0  0  0  0  0  0  0
   36.1448  -10.0478   35.5806 H   0  0  0  0  0  0  0  0  0  0  0  0
   37.6919  -10.6411   35.1961 H   0  0  0  0  0  0  0  0  0  0  0  0
   35.8612  -11.5356   37.4571 H   0  0  0  0  0  0  0  0  0  0  0  0
   37.4584  -11.0000   37.6462 H   0  0  0  0  0  0  0  0  0  0  0  0
   38.3384  -12.9712   36.5155 H   0  0  0  0  0  0  0  0  0  0  0  0
   37.1062  -13.6259   37.4852 H   0  0  0  0  0  0  0  0  0  0  0  0
   38.3436  -12.7109   33.7606 H   0  0  0  0  0  0  0  0  0  0  0  0
   37.4865  -12.0691   30.9957 H   0  0  0  0  0  0  0  0  0  0  0  0
   38.5418  -13.4081   31.3785 H   0  0  0  0  0  0  0  0  0  0  0  0
   39.1032  -11.7664   31.5856 H   0  0  0  0  0  0  0  0  0  0  0  0
  1  2  1  0  0  0  0
  1 37  1  0  0  0  0
  1 38  1  0  0  0  0
  1 39  1  0  0  0  0
  2  4  1  0  0  0  0
  3  2  2  0  0  0  0
  4  5  1  0  0  0  0
  4 40  1  0  0  0  0
  5  8  1  0  0  0  0
  5 41  1  6  0  0  0
  6  7  2  0  0  0  0
  6  5  1  0  0  0  0
  8  9  1  0  0  0  0
  8 42  1  0  0  0  0
  8 43  1  0  0  0  0
  9 10  1  0  0  0  0
  9 44  1  0  0  0  0
  9 45  1  0  0  0  0
 10 11  1  0  0  0  0
 10 46  1  0  0  0  0
 10 47  1  0  0  0  0
 11 12  1  0  0  0  0
 11 48  1  0  0  0  0
 11 49  1  0  0  0  0
 12 50  1  0  0  0  0
 12 51  1  0  0  0  0
 13  6  1  0  0  0  0
 13 52  1  0  0  0  0
 14 15  1  0  0  0  0
 14 13  1  0  0  0  0
 14 53  1  6  0  0  0
 15 16  2  0  0  0  0
 17 14  1  0  0  0  0
 17 54  1  0  0  0  0
 17 55  1  0  0  0  0
 18 17  1  0  0  0  0
 18 56  1  0  0  0  0
 19 18  1  0  0  0  0
 19 57  1  0  0  0  0
 19 58  1  0  0  0  0
 19 59  1  0  0  0  0
 20 18  1  0  0  0  0
 20 60  1  0  0  0  0
 20 61  1  0  0  0  0
 20 62  1  0  0  0  0
 21 15  1  0  0  0  0
 21 22  1  0  0  0  0
 21 63  1  0  0  0  0
 22 64  1  1  0  0  0
 23 28  1  0  0  0  0
 23 22  1  0  0  0  0
 24 23  2  0  0  0  0
 25 22  1  0  0  0  0
 25 27  1  0  0  0  0
 25 65  1  1  0  0  0
 26 25  1  0  0  0  0
 26 66  1  0  0  0  0
 27 67  1  0  0  0  0
 27 68  1  0  0  0  0
 27 69  1  0  0  0  0
 28 34  1  0  0  0  0
 29 28  1  0  0  0  0
 29 32  1  0  0  0  0
 29 70  1  1  0  0  0
 30 29  1  0  0  0  0
 31 30  2  0  0  0  0
 32 33  1  0  0  0  0
 32 71  1  0  0  0  0
 32 72  1  0  0  0  0
 33 73  1  0  0  0  0
 33 74  1  0  0  0  0
 34 33  1  0  0  0  0
 34 75  1  0  0  0  0
 34 76  1  0  0  0  0
 35 30  1  0  0  0  0
 35 77  1  0  0  0  0
 36 35  1  0  0  0  0
 36 78  1  0  0  0  0
 36 79  1  0  0  0  0
 36 80  1  0  0  0  0
M  END
>  <MODEL>
       0

$$$$
selected_4mers/KLTP/449_noH.pdb
 OpenBabel03042517593D

 80 80  0  0  1  0  0  0  0  0999 V2000
   -5.7920   27.0680    5.5650 C   0  0  0  0  0  0  0  0  0  0  0  0
   -4.4620   27.7870    5.7140 C   0  0  0  0  0  0  0  0  0  0  0  0
   -3.5990   27.3220    6.4520 O   0  0  0  0  0  0  0  0  0  0  0  0
   -4.2760   28.9150    5.0420 N   0  0  0  0  0  0  0  0  0  0  0  0
   -3.0100   29.6220    5.1180 C   0  0  2  0  0  0  0  0  0  0  0  0
   -2.8300   30.5010    6.3450 C   0  0  0  0  0  0  0  0  0  0  0  0
   -3.7910   30.9300    6.9590 O   0  0  0  0  0  0  0  0  0  0  0  0
   -2.8090   30.4830    3.8600 C   0  0  0  0  0  0  0  0  0  0  0  0
   -2.5420   29.6540    2.6150 C   0  0  0  0  0  0  0  0  0  0  0  0
   -2.2120   30.5310    1.4200 C   0  0  0  0  0  0  0  0  0  0  0  0
   -1.8610   29.6700    0.2210 C   0  0  0  0  0  0  0  0  0  0  0  0
   -1.5360   30.4810   -0.9940 N   0  0  0  0  0  0  0  0  0  0  0  0
   -1.5690   30.7440    6.6860 N   0  0  0  0  0  0  0  0  0  0  0  0
   -1.2120   31.6250    7.8010 C   0  0  2  0  0  0  0  0  0  0  0  0
   -1.4740   33.0840    7.4260 C   0  0  0  0  0  0  0  0  0  0  0  0
   -1.4760   33.4520    6.2390 O   0  0  0  0  0  0  0  0  0  0  0  0
    0.2670   31.4610    8.1480 C   0  0  0  0  0  0  0  0  0  0  0  0
    0.6500   30.1960    8.9150 C   0  0  0  0  0  0  0  0  0  0  0  0
    2.1260   29.9310    8.7330 C   0  0  0  0  0  0  0  0  0  0  0  0
    0.2820   30.3390   10.3880 C   0  0  0  0  0  0  0  0  0  0  0  0
   -1.6950   33.9100    8.4470 N   0  0  0  0  0  0  0  0  0  0  0  0
   -1.9410   35.3350    8.2690 C   0  0  2  0  0  0  0  0  0  0  0  0
   -1.0100   36.0980    9.2170 C   0  0  0  0  0  0  0  0  0  0  0  0
   -0.3730   35.5060   10.1010 O   0  0  0  0  0  0  0  0  0  0  0  0
   -3.3760   35.7170    8.6340 C   0  0  2  0  0  0  0  0  0  0  0  0
   -3.5780   35.5240   10.0450 O   0  0  0  0  0  0  0  0  0  0  0  0
   -4.3660   34.9000    7.8400 C   0  0  0  0  0  0  0  0  0  0  0  0
   -0.9070   37.4250    9.0460 N   0  0  0  0  0  0  0  0  0  0  0  0
   -0.0380   38.2090    9.9230 C   0  0  2  0  0  0  0  0  0  0  0  0
   -0.4030   38.0380   11.4070 C   0  0  0  0  0  0  0  0  0  0  0  0
    0.4700   38.0350   12.2700 O   0  0  0  0  0  0  0  0  0  0  0  0
   -0.2410   39.6330    9.4180 C   0  0  0  0  0  0  0  0  0  0  0  0
   -0.4310   39.4180    7.9350 C   0  0  0  0  0  0  0  0  0  0  0  0
   -1.3590   38.2170    7.8850 C   0  0  0  0  0  0  0  0  0  0  0  0
   -1.6880   37.8870   11.7140 N   0  0  0  0  0  0  0  0  0  0  0  0
   -2.0620   37.6960   13.1060 C   0  0  0  0  0  0  0  0  0  0  0  0
   -6.4174   27.6115    4.8880 H   0  0  0  0  0  0  0  0  0  0  0  0
   -6.2713   27.0032    6.5194 H   0  0  0  0  0  0  0  0  0  0  0  0
   -5.6240   26.0829    5.1826 H   0  0  0  0  0  0  0  0  0  0  0  0
   -5.0035   29.2767    4.4860 H   0  0  0  0  0  0  0  0  0  0  0  0
   -2.2724   28.8505    5.1930 H   0  0  0  0  0  0  0  0  0  0  0  0
   -3.6921   31.0655    3.6998 H   0  0  0  0  0  0  0  0  0  0  0  0
   -1.9508   31.1001    4.0260 H   0  0  0  0  0  0  0  0  0  0  0  0
   -1.7168   28.9995    2.8039 H   0  0  0  0  0  0  0  0  0  0  0  0
   -3.4269   29.0971    2.3874 H   0  0  0  0  0  0  0  0  0  0  0  0
   -3.0598   31.1391    1.1827 H   0  0  0  0  0  0  0  0  0  0  0  0
   -1.3746   31.1514    1.6622 H   0  0  0  0  0  0  0  0  0  0  0  0
   -1.0119   29.0677    0.4683 H   0  0  0  0  0  0  0  0  0  0  0  0
   -2.7166   29.0700   -0.0090 H   0  0  0  0  0  0  0  0  0  0  0  0
   -0.7216   31.0654   -0.8049 H   0  0  0  0  0  0  0  0  0  0  0  0
   -2.3320   31.0734   -1.2303 H   0  0  0  0  0  0  0  0  0  0  0  0
   -0.8477   30.3162    6.1703 H   0  0  0  0  0  0  0  0  0  0  0  0
   -1.8118   31.3586    8.6461 H   0  0  0  0  0  0  0  0  0  0  0  0
    0.5569   32.3021    8.7424 H   0  0  0  0  0  0  0  0  0  0  0  0
    0.7724   31.3867    7.2078 H   0  0  0  0  0  0  0  0  0  0  0  0
    0.1059   29.3591    8.5297 H   0  0  0  0  0  0  0  0  0  0  0  0
    2.6866   30.7592    9.1135 H   0  0  0  0  0  0  0  0  0  0  0  0
    2.3398   29.8035    7.6924 H   0  0  0  0  0  0  0  0  0  0  0  0
    2.3970   29.0426    9.2643 H   0  0  0  0  0  0  0  0  0  0  0  0
    0.8096   31.1696   10.8084 H   0  0  0  0  0  0  0  0  0  0  0  0
    0.5497   29.4447   10.9110 H   0  0  0  0  0  0  0  0  0  0  0  0
   -0.7715   30.5031   10.4781 H   0  0  0  0  0  0  0  0  0  0  0  0
   -1.6920   33.5424    9.3603 H   0  0  0  0  0  0  0  0  0  0  0  0
   -1.7710   35.5767    7.2406 H   0  0  0  0  0  0  0  0  0  0  0  0
   -3.5342   36.7475    8.3932 H   0  0  0  0  0  0  0  0  0  0  0  0
   -3.4354   34.5907   10.2674 H   0  0  0  0  0  0  0  0  0  0  0  0
   -4.2306   33.8619    8.0614 H   0  0  0  0  0  0  0  0  0  0  0  0
   -4.2079   35.0654    6.7947 H   0  0  0  0  0  0  0  0  0  0  0  0
   -5.3613   35.1935    8.1010 H   0  0  0  0  0  0  0  0  0  0  0  0
    0.9870   37.9042    9.8867 H   0  0  0  0  0  0  0  0  0  0  0  0
   -1.1061   40.0821    9.8594 H   0  0  0  0  0  0  0  0  0  0  0  0
    0.5655   40.2941    9.6576 H   0  0  0  0  0  0  0  0  0  0  0  0
   -0.8822   40.2730    7.4763 H   0  0  0  0  0  0  0  0  0  0  0  0
    0.4877   39.2655    7.4081 H   0  0  0  0  0  0  0  0  0  0  0  0
   -1.2385   37.6713    6.9725 H   0  0  0  0  0  0  0  0  0  0  0  0
   -2.3970   38.4746    7.9187 H   0  0  0  0  0  0  0  0  0  0  0  0
   -2.3756   37.9043   11.0096 H   0  0  0  0  0  0  0  0  0  0  0  0
   -1.1831   37.7067   13.7162 H   0  0  0  0  0  0  0  0  0  0  0  0
   -2.5608   36.7557   13.2155 H   0  0  0  0  0  0  0  0  0  0  0  0
   -2.7174   38.4850   13.4107 H   0  0  0  0  0  0  0  0  0  0  0  0
  1  2  1  0  0  0  0
  1 37  1  0  0  0  0
  1 38  1  0  0  0  0
  1 39  1  0  0  0  0
  2  3  2  0  0  0  0
  4  5  1  0  0  0  0
  4  2  1  0  0  0  0
  4 40  1  0  0  0  0
  5  6  1  0  0  0  0
  5 41  1  1  0  0  0
  6 13  1  0  0  0  0
  6  7  2  0  0  0  0
  8  5  1  0  0  0  0
  8 42  1  0  0  0  0
  8 43  1  0  0  0  0
  9  8  1  0  0  0  0
  9 44  1  0  0  0  0
  9 45  1  0  0  0  0
 10  9  1  0  0  0  0
 10 46  1  0  0  0  0
 10 47  1  0  0  0  0
 11 10  1  0  0  0  0
 11 48  1  0  0  0  0
 11 49  1  0  0  0  0
 12 11  1  0  0  0  0
 12 50  1  0  0  0  0
 12 51  1  0  0  0  0
 13 14  1  0  0  0  0
 13 52  1  0  0  0  0
 14 17  1  0  0  0  0
 14 53  1  1  0  0  0
 15 14  1  0  0  0  0
 15 21  1  0  0  0  0
 16 15  2  0  0  0  0
 17 18  1  0  0  0  0
 17 54  1  0  0  0  0
 17 55  1  0  0  0  0
 18 20  1  0  0  0  0
 18 56  1  0  0  0  0
 19 18  1  0  0  0  0
 19 57  1  0  0  0  0
 19 58  1  0  0  0  0
 19 59  1  0  0  0  0
 20 60  1  0  0  0  0
 20 61  1  0  0  0  0
 20 62  1  0  0  0  0
 21 63  1  0  0  0  0
 22 21  1  0  0  0  0
 22 25  1  0  0  0  0
 22 23  1  0  0  0  0
 22 64  1  6  0  0  0
 23 24  2  0  0  0  0
 25 26  1  0  0  0  0
 25 65  1  6  0  0  0
 26 66  1  0  0  0  0
 27 25  1  0  0  0  0
 27 67  1  0  0  0  0
 27 68  1  0  0  0  0
 27 69  1  0  0  0  0
 28 23  1  0  0  0  0
 28 29  1  0  0  0  0
 29 30  1  0  0  0  0
 29 70  1  6  0  0  0
 30 35  1  0  0  0  0
 30 31  2  0  0  0  0
 32 29  1  0  0  0  0
 32 71  1  0  0  0  0
 32 72  1  0  0  0  0
 33 32  1  0  0  0  0
 33 73  1  0  0  0  0
 33 74  1  0  0  0  0
 34 33  1  0  0  0  0
 34 28  1  0  0  0  0
 34 75  1  0  0  0  0
 34 76  1  0  0  0  0
 35 36  1  0  0  0  0
 35 77  1  0  0  0  0
 36 78  1  0  0  0  0
 36 79  1  0  0  0  0
 36 80  1  0  0  0  0
M  END
>  <MODEL>
       0

$$$$
