selected_4mers/KPGD/545_noH.pdb
 OpenBabel03042518233D

 66 66  0  0  1  0  0  0  0  0999 V2000
   49.6840   12.0630    9.0000 C   0  0  0  0  0  0  0  0  0  0  0  0
   49.3830   11.1890   10.2090 C   0  0  0  0  0  0  0  0  0  0  0  0
   50.2760   10.8340   10.9870 O   0  0  0  0  0  0  0  0  0  0  0  0
   48.1020   10.8530   10.3620 N   0  0  0  0  0  0  0  0  0  0  0  0
   47.6320   10.0260   11.4530 C   0  0  2  0  0  0  0  0  0  0  0  0
   46.9050    8.8140   10.8600 C   0  0  0  0  0  0  0  0  0  0  0  0
   46.4270    8.9170    9.7310 O   0  0  0  0  0  0  0  0  0  0  0  0
   46.6620   10.8530   12.3370 C   0  0  0  0  0  0  0  0  0  0  0  0
   47.3010   12.0740   13.0520 C   0  0  0  0  0  0  0  0  0  0  0  0
   48.2980   11.6870   14.1550 C   0  0  0  0  0  0  0  0  0  0  0  0
   48.7840   12.8600   14.9880 C   0  0  0  0  0  0  0  0  0  0  0  0
   49.8630   13.6370   14.3110 N   0  0  0  0  0  0  0  0  0  0  0  0
   46.7410    7.6810   11.5970 N   0  0  0  0  0  0  0  0  0  0  0  0
   45.9520    6.5650   11.0390 C   0  0  2  0  0  0  0  0  0  0  0  0
   44.5780    7.0460   10.5720 C   0  0  0  0  0  0  0  0  0  0  0  0
   43.9100    7.8340   11.2600 O   0  0  0  0  0  0  0  0  0  0  0  0
   45.8260    5.5790   12.2180 C   0  0  0  0  0  0  0  0  0  0  0  0
   46.9990    5.8960   13.0940 C   0  0  0  0  0  0  0  0  0  0  0  0
   47.2470    7.3650   12.9510 C   0  0  0  0  0  0  0  0  0  0  0  0
   44.1830    6.5840    9.3970 N   0  0  0  0  0  0  0  0  0  0  0  0
   42.9250    6.9790    8.7790 C   0  0  0  0  0  0  0  0  0  0  0  0
   43.1270    8.0540    7.7240 C   0  0  0  0  0  0  0  0  0  0  0  0
   42.2780    8.2060    6.8470 O   0  0  0  0  0  0  0  0  0  0  0  0
   44.2600    8.7990    7.7840 N   0  0  0  0  0  0  0  0  0  0  0  0
   44.5310    9.8740    6.8140 C   0  0  2  0  0  0  0  0  0  0  0  0
   44.8750    9.2880    5.4490 C   0  0  0  0  0  0  0  0  0  0  0  0
   45.4650    8.2050    5.3750 O   0  0  0  0  0  0  0  0  0  0  0  0
   45.6780   10.7880    7.2990 C   0  0  0  0  0  0  0  0  0  0  0  0
   45.3210   11.7610    8.4100 C   0  0  0  0  0  0  0  0  0  0  0  0
   44.1060   11.9550    8.6750 O   0  0  0  0  0  0  0  0  0  0  0  0
   46.2450   12.3300    9.0110 O   0  0  0  0  0  0  0  0  0  0  0  0
   44.5110   10.0100    4.3810 N   0  0  0  0  0  0  0  0  0  0  0  0
   44.8330    9.6100    3.0190 C   0  0  0  0  0  0  0  0  0  0  0  0
   48.7783   12.2529    8.4628 H   0  0  0  0  0  0  0  0  0  0  0  0
   50.3792   11.5602    8.3606 H   0  0  0  0  0  0  0  0  0  0  0  0
   50.1062   12.9904    9.3265 H   0  0  0  0  0  0  0  0  0  0  0  0
   47.4472   11.1816    9.7044 H   0  0  0  0  0  0  0  0  0  0  0  0
   48.4511    9.6944   12.0563 H   0  0  0  0  0  0  0  0  0  0  0  0
   46.2605   10.2030   13.0861 H   0  0  0  0  0  0  0  0  0  0  0  0
   45.9207   11.2497   11.6752 H   0  0  0  0  0  0  0  0  0  0  0  0
   46.5185   12.6562   13.4921 H   0  0  0  0  0  0  0  0  0  0  0  0
   47.8475   12.6208   12.3122 H   0  0  0  0  0  0  0  0  0  0  0  0
   49.1471   11.2267   13.6946 H   0  0  0  0  0  0  0  0  0  0  0  0
   47.7820   11.0273   14.8209 H   0  0  0  0  0  0  0  0  0  0  0  0
   49.1616   12.4873   15.9172 H   0  0  0  0  0  0  0  0  0  0  0  0
   47.9538   13.5189   15.1350 H   0  0  0  0  0  0  0  0  0  0  0  0
   50.6708   13.0337   14.1567 H   0  0  0  0  0  0  0  0  0  0  0  0
   50.1346   14.4250   14.8989 H   0  0  0  0  0  0  0  0  0  0  0  0
   46.4100    6.1222   10.1793 H   0  0  0  0  0  0  0  0  0  0  0  0
   45.8735    4.5674   11.8726 H   0  0  0  0  0  0  0  0  0  0  0  0
   44.8934    5.6759   12.7335 H   0  0  0  0  0  0  0  0  0  0  0  0
   47.8582    5.3428   12.7767 H   0  0  0  0  0  0  0  0  0  0  0  0
   46.8054    5.6322   14.1127 H   0  0  0  0  0  0  0  0  0  0  0  0
   46.7114    7.9158   13.6957 H   0  0  0  0  0  0  0  0  0  0  0  0
   48.2775    7.6238   13.0773 H   0  0  0  0  0  0  0  0  0  0  0  0
   44.7633    5.9470    8.9209 H   0  0  0  0  0  0  0  0  0  0  0  0
   42.4810    6.1212    8.3187 H   0  0  0  0  0  0  0  0  0  0  0  0
   42.2903    7.3778    9.5426 H   0  0  0  0  0  0  0  0  0  0  0  0
   44.9173    8.6163    8.4938 H   0  0  0  0  0  0  0  0  0  0  0  0
   43.6435   10.4653    6.7266 H   0  0  0  0  0  0  0  0  0  0  0  0
   46.0210   11.3578    6.4608 H   0  0  0  0  0  0  0  0  0  0  0  0
   46.4175   10.1337    7.7112 H   0  0  0  0  0  0  0  0  0  0  0  0
   44.0062   10.8433    4.5227 H   0  0  0  0  0  0  0  0  0  0  0  0
   45.3794    8.6902    3.0371 H   0  0  0  0  0  0  0  0  0  0  0  0
   45.4278   10.3691    2.5555 H   0  0  0  0  0  0  0  0  0  0  0  0
   43.9285    9.4766    2.4632 H   0  0  0  0  0  0  0  0  0  0  0  0
  1  2  1  0  0  0  0
  1 34  1  0  0  0  0
  1 35  1  0  0  0  0
  1 36  1  0  0  0  0
  2  4  1  0  0  0  0
  2  3  2  0  0  0  0
  4  5  1  0  0  0  0
  4 37  1  0  0  0  0
  5  8  1  0  0  0  0
  5 38  1  1  0  0  0
  6  5  1  0  0  0  0
  6 13  1  0  0  0  0
  7  6  2  0  0  0  0
  8  9  1  0  0  0  0
  8 39  1  0  0  0  0
  8 40  1  0  0  0  0
  9 10  1  0  0  0  0
  9 41  1  0  0  0  0
  9 42  1  0  0  0  0
 10 11  1  0  0  0  0
 10 43  1  0  0  0  0
 10 44  1  0  0  0  0
 11 45  1  0  0  0  0
 11 46  1  0  0  0  0
 12 11  1  0  0  0  0
 12 47  1  0  0  0  0
 12 48  1  0  0  0  0
 13 19  1  0  0  0  0
 14 13  1  0  0  0  0
 14 17  1  0  0  0  0
 14 49  1  6  0  0  0
 15 14  1  0  0  0  0
 15 16  2  0  0  0  0
 17 18  1  0  0  0  0
 17 50  1  0  0  0  0
 17 51  1  0  0  0  0
 18 52  1  0  0  0  0
 18 53  1  0  0  0  0
 19 18  1  0  0  0  0
 19 54  1  0  0  0  0
 19 55  1  0  0  0  0
 20 15  1  0  0  0  0
 20 56  1  0  0  0  0
 21 20  1  0  0  0  0
 21 57  1  0  0  0  0
 21 58  1  0  0  0  0
 22 24  1  0  0  0  0
 22 21  1  0  0  0  0
 23 22  2  0  0  0  0
 24 59  1  0  0  0  0
 25 28  1  0  0  0  0
 25 24  1  0  0  0  0
 25 60  1  6  0  0  0
 26 25  1  0  0  0  0
 27 26  2  0  0  0  0
 28 29  1  0  0  0  0
 28 61  1  0  0  0  0
 28 62  1  0  0  0  0
 29 30  2  0  0  0  0
 29 31  1  0  0  0  0
 32 26  1  0  0  0  0
 32 63  1  0  0  0  0
 33 32  1  0  0  0  0
 33 64  1  0  0  0  0
 33 65  1  0  0  0  0
 33 66  1  0  0  0  0
M  CHG  1  31  -1
M  END
>  <MODEL>
       0

$$$$
selected_4mers/KPGD/546_noH.pdb
 OpenBabel03042518233D

 66 66  0  0  1  0  0  0  0  0999 V2000
   48.3380   77.6550    4.5650 C   0  0  0  0  0  0  0  0  0  0  0  0
   49.5860   78.5040    4.2520 C   0  0  0  0  0  0  0  0  0  0  0  0
   49.6140   79.2180    3.2580 O   0  0  0  0  0  0  0  0  0  0  0  0
   50.5910   78.4570    5.1260 N   0  0  0  0  0  0  0  0  0  0  0  0
   51.7610   79.3460    5.0340 C   0  0  2  0  0  0  0  0  0  0  0  0
   53.0100   78.6210    5.5010 C   0  0  0  0  0  0  0  0  0  0  0  0
   52.8970   77.6220    6.2230 O   0  0  0  0  0  0  0  0  0  0  0  0
   51.5660   80.5570    5.9620 C   0  0  0  0  0  0  0  0  0  0  0  0
   50.4260   81.4920    5.5590 C   0  0  0  0  0  0  0  0  0  0  0  0
   50.0540   82.3980    6.7100 C   0  0  0  0  0  0  0  0  0  0  0  0
   48.9360   83.3510    6.3100 C   0  0  0  0  0  0  0  0  0  0  0  0
   48.3330   84.0060    7.5020 N   0  0  0  0  0  0  0  0  0  0  0  0
   54.1940   79.1520    5.1400 N   0  0  0  0  0  0  0  0  0  0  0  0
   55.4300   78.6420    5.7770 C   0  0  2  0  0  0  0  0  0  0  0  0
   55.3620   78.7080    7.2810 C   0  0  0  0  0  0  0  0  0  0  0  0
   54.7420   79.5980    7.8600 O   0  0  0  0  0  0  0  0  0  0  0  0
   56.5130   79.6060    5.2900 C   0  0  0  0  0  0  0  0  0  0  0  0
   55.9850   80.1920    4.0550 C   0  0  0  0  0  0  0  0  0  0  0  0
   54.4780   80.2360    4.1750 C   0  0  0  0  0  0  0  0  0  0  0  0
   55.9730   77.7240    7.9240 N   0  0  0  0  0  0  0  0  0  0  0  0
   55.9910   77.6690    9.3810 C   0  0  0  0  0  0  0  0  0  0  0  0
   56.7290   78.8670    9.9620 C   0  0  0  0  0  0  0  0  0  0  0  0
   57.8230   79.2060    9.5090 O   0  0  0  0  0  0  0  0  0  0  0  0
   56.1260   79.5020   10.9680 N   0  0  0  0  0  0  0  0  0  0  0  0
   56.7140   80.6740   11.5950 C   0  0  2  0  0  0  0  0  0  0  0  0
   57.6320   80.2190   12.7400 C   0  0  0  0  0  0  0  0  0  0  0  0
   57.3140   80.3600   13.9250 O   0  0  0  0  0  0  0  0  0  0  0  0
   55.6080   81.6040   12.1000 C   0  0  0  0  0  0  0  0  0  0  0  0
   56.1480   82.9280   12.6080 C   0  0  0  0  0  0  0  0  0  0  0  0
   57.3560   83.1870   12.4220 O   0  0  0  0  0  0  0  0  0  0  0  0
   55.3620   83.7000   13.2030 O   0  0  0  0  0  0  0  0  0  0  0  0
   58.7590   79.6240   12.3540 N   0  0  0  0  0  0  0  0  0  0  0  0
   59.6660   78.9550   13.3080 C   0  0  0  0  0  0  0  0  0  0  0  0
   47.6142   77.7848    3.7877 H   0  0  0  0  0  0  0  0  0  0  0  0
   47.9188   77.9677    5.4985 H   0  0  0  0  0  0  0  0  0  0  0  0
   48.6147   76.6232    4.6261 H   0  0  0  0  0  0  0  0  0  0  0  0
   50.5495   77.8032    5.8609 H   0  0  0  0  0  0  0  0  0  0  0  0
   51.8642   79.6540    4.0145 H   0  0  0  0  0  0  0  0  0  0  0  0
   52.4745   81.1222    5.9681 H   0  0  0  0  0  0  0  0  0  0  0  0
   51.3092   80.1635    6.9233 H   0  0  0  0  0  0  0  0  0  0  0  0
   49.5736   80.9084    5.2802 H   0  0  0  0  0  0  0  0  0  0  0  0
   50.7464   82.0935    4.7341 H   0  0  0  0  0  0  0  0  0  0  0  0
   50.9126   82.9669    7.0000 H   0  0  0  0  0  0  0  0  0  0  0  0
   49.7139   81.7940    7.5252 H   0  0  0  0  0  0  0  0  0  0  0  0
   48.1774   82.8012    5.7931 H   0  0  0  0  0  0  0  0  0  0  0  0
   49.3486   84.1105    5.6793 H   0  0  0  0  0  0  0  0  0  0  0  0
   47.9342   83.2952    8.1152 H   0  0  0  0  0  0  0  0  0  0  0  0
   47.5987   84.6474    7.2024 H   0  0  0  0  0  0  0  0  0  0  0  0
   55.6028   77.6164    5.5257 H   0  0  0  0  0  0  0  0  0  0  0  0
   56.6915   80.3681    6.0196 H   0  0  0  0  0  0  0  0  0  0  0  0
   57.4457   79.1075    5.1271 H   0  0  0  0  0  0  0  0  0  0  0  0
   56.3696   81.1824    3.9280 H   0  0  0  0  0  0  0  0  0  0  0  0
   56.2767   79.6070    3.2079 H   0  0  0  0  0  0  0  0  0  0  0  0
   54.0106   80.0445    3.2317 H   0  0  0  0  0  0  0  0  0  0  0  0
   54.1057   81.1893    4.4873 H   0  0  0  0  0  0  0  0  0  0  0  0
   56.4234   77.0165    7.4084 H   0  0  0  0  0  0  0  0  0  0  0  0
   56.4826   76.7707    9.6914 H   0  0  0  0  0  0  0  0  0  0  0  0
   54.9816   77.6850    9.7357 H   0  0  0  0  0  0  0  0  0  0  0  0
   55.2594   79.1679   11.2946 H   0  0  0  0  0  0  0  0  0  0  0  0
   57.2985   81.2203   10.8845 H   0  0  0  0  0  0  0  0  0  0  0  0
   55.0880   81.1167   12.8982 H   0  0  0  0  0  0  0  0  0  0  0  0
   54.9580   81.8129   11.2762 H   0  0  0  0  0  0  0  0  0  0  0  0
   58.9960   79.6304   11.3985 H   0  0  0  0  0  0  0  0  0  0  0  0
   59.2669   79.0375   14.2973 H   0  0  0  0  0  0  0  0  0  0  0  0
   60.6285   79.4210   13.2717 H   0  0  0  0  0  0  0  0  0  0  0  0
   59.7598   77.9218   13.0463 H   0  0  0  0  0  0  0  0  0  0  0  0
  1 34  1  0  0  0  0
  1 35  1  0  0  0  0
  1 36  1  0  0  0  0
  2  1  1  0  0  0  0
  2  4  1  0  0  0  0
  3  2  2  0  0  0  0
  4 37  1  0  0  0  0
  5  4  1  0  0  0  0
  5  6  1  0  0  0  0
  5  8  1  0  0  0  0
  5 38  1  6  0  0  0
  6  7  2  0  0  0  0
  8 39  1  0  0  0  0
  8 40  1  0  0  0  0
  9  8  1  0  0  0  0
  9 10  1  0  0  0  0
  9 41  1  0  0  0  0
  9 42  1  0  0  0  0
 10 43  1  0  0  0  0
 10 44  1  0  0  0  0
 11 10  1  0  0  0  0
 11 12  1  0  0  0  0
 11 45  1  0  0  0  0
 11 46  1  0  0  0  0
 12 47  1  0  0  0  0
 12 48  1  0  0  0  0
 13  6  1  0  0  0  0
 13 14  1  0  0  0  0
 14 15  1  0  0  0  0
 14 49  1  6  0  0  0
 15 16  2  0  0  0  0
 15 20  1  0  0  0  0
 17 14  1  0  0  0  0
 17 50  1  0  0  0  0
 17 51  1  0  0  0  0
 18 19  1  0  0  0  0
 18 17  1  0  0  0  0
 18 52  1  0  0  0  0
 18 53  1  0  0  0  0
 19 13  1  0  0  0  0
 19 54  1  0  0  0  0
 19 55  1  0  0  0  0
 20 21  1  0  0  0  0
 20 56  1  0  0  0  0
 21 22  1  0  0  0  0
 21 57  1  0  0  0  0
 21 58  1  0  0  0  0
 22 24  1  0  0  0  0
 23 22  2  0  0  0  0
 24 25  1  0  0  0  0
 24 59  1  0  0  0  0
 25 28  1  0  0  0  0
 25 26  1  0  0  0  0
 25 60  1  6  0  0  0
 26 27  2  0  0  0  0
 28 29  1  0  0  0  0
 28 61  1  0  0  0  0
 28 62  1  0  0  0  0
 29 31  1  0  0  0  0
 30 29  2  0  0  0  0
 32 26  1  0  0  0  0
 32 33  1  0  0  0  0
 32 63  1  0  0  0  0
 33 64  1  0  0  0  0
 33 65  1  0  0  0  0
 33 66  1  0  0  0  0
M  CHG  1  31  -1
M  END
>  <MODEL>
       0

$$$$
selected_4mers/KPGD/547_noH.pdb
 OpenBabel03042518233D

 66 66  0  0  1  0  0  0  0  0999 V2000
   58.5480   34.9940   43.0980 C   0  0  0  0  0  0  0  0  0  0  0  0
   59.7050   35.6440   43.8390 C   0  0  0  0  0  0  0  0  0  0  0  0
   60.8480   35.5950   43.3950 O   0  0  0  0  0  0  0  0  0  0  0  0
   59.3920   36.2290   44.9960 N   0  0  0  0  0  0  0  0  0  0  0  0
   60.3940   36.8730   45.8390 C   0  0  2  0  0  0  0  0  0  0  0  0
   60.0120   36.6550   47.3100 C   0  0  0  0  0  0  0  0  0  0  0  0
   58.8700   36.3150   47.6190 O   0  0  0  0  0  0  0  0  0  0  0  0
   60.4470   38.3800   45.5320 C   0  0  0  0  0  0  0  0  0  0  0  0
   59.1810   39.1530   45.9000 C   0  0  0  0  0  0  0  0  0  0  0  0
   59.2880   40.6210   45.4590 C   0  0  0  0  0  0  0  0  0  0  0  0
   57.9760   41.3710   45.6920 C   0  0  0  0  0  0  0  0  0  0  0  0
   57.8910   41.9450   47.0620 N   0  0  0  0  0  0  0  0  0  0  0  0
   60.9570   36.8550   48.2350 N   0  0  0  0  0  0  0  0  0  0  0  0
   60.6290   36.6560   49.6550 C   0  0  2  0  0  0  0  0  0  0  0  0
   59.4740   37.5500   50.0850 C   0  0  0  0  0  0  0  0  0  0  0  0
   59.3920   38.7120   49.6700 O   0  0  0  0  0  0  0  0  0  0  0  0
   61.9370   37.0080   50.3720 C   0  0  0  0  0  0  0  0  0  0  0  0
   62.9820   36.6900   49.3330 C   0  0  0  0  0  0  0  0  0  0  0  0
   62.3760   37.2000   48.0540 C   0  0  0  0  0  0  0  0  0  0  0  0
   58.5730   37.0130   50.9110 N   0  0  0  0  0  0  0  0  0  0  0  0
   57.4520   37.8050   51.3540 C   0  0  0  0  0  0  0  0  0  0  0  0
   56.1910   37.5890   50.5370 C   0  0  0  0  0  0  0  0  0  0  0  0
   55.1090   37.9910   50.9720 O   0  0  0  0  0  0  0  0  0  0  0  0
   56.3140   36.9730   49.3650 N   0  0  0  0  0  0  0  0  0  0  0  0
   55.1430   36.7130   48.5260 C   0  0  2  0  0  0  0  0  0  0  0  0
   54.1580   35.7140   49.1450 C   0  0  0  0  0  0  0  0  0  0  0  0
   54.5490   34.8290   49.9000 O   0  0  0  0  0  0  0  0  0  0  0  0
   55.5650   36.1370   47.1710 C   0  0  0  0  0  0  0  0  0  0  0  0
   56.0230   37.2010   46.1790 C   0  0  0  0  0  0  0  0  0  0  0  0
   55.9680   38.4010   46.4990 O   0  0  0  0  0  0  0  0  0  0  0  0
   56.4340   36.8070   45.0700 O   0  0  0  0  0  0  0  0  0  0  0  0
   52.8850   35.8350   48.7750 N   0  0  0  0  0  0  0  0  0  0  0  0
   51.8710   34.8980   49.2600 C   0  0  0  0  0  0  0  0  0  0  0  0
   58.9067   34.5574   42.1893 H   0  0  0  0  0  0  0  0  0  0  0  0
   57.8092   35.7339   42.8709 H   0  0  0  0  0  0  0  0  0  0  0  0
   58.1136   34.2330   43.7121 H   0  0  0  0  0  0  0  0  0  0  0  0
   58.4529   36.2262   45.2914 H   0  0  0  0  0  0  0  0  0  0  0  0
   61.3574   36.4496   45.6456 H   0  0  0  0  0  0  0  0  0  0  0  0
   60.6174   38.5003   44.4825 H   0  0  0  0  0  0  0  0  0  0  0  0
   61.2329   38.7834   46.1358 H   0  0  0  0  0  0  0  0  0  0  0  0
   58.3412   38.7016   45.4144 H   0  0  0  0  0  0  0  0  0  0  0  0
   59.0586   39.1230   46.9625 H   0  0  0  0  0  0  0  0  0  0  0  0
   60.0653   41.0970   46.0195 H   0  0  0  0  0  0  0  0  0  0  0  0
   59.5068   40.6428   44.4118 H   0  0  0  0  0  0  0  0  0  0  0  0
   57.1614   40.6915   45.5522 H   0  0  0  0  0  0  0  0  0  0  0  0
   57.9327   42.1807   44.9939 H   0  0  0  0  0  0  0  0  0  0  0  0
   57.9302   41.1922   47.7491 H   0  0  0  0  0  0  0  0  0  0  0  0
   57.0124   42.4530   47.1639 H   0  0  0  0  0  0  0  0  0  0  0  0
   60.2977   35.6636   49.8792 H   0  0  0  0  0  0  0  0  0  0  0  0
   61.9629   38.0434   50.6407 H   0  0  0  0  0  0  0  0  0  0  0  0
   62.0747   36.4744   51.2892 H   0  0  0  0  0  0  0  0  0  0  0  0
   63.9007   37.1946   49.5483 H   0  0  0  0  0  0  0  0  0  0  0  0
   63.2241   35.6485   49.2920 H   0  0  0  0  0  0  0  0  0  0  0  0
   62.5103   38.2568   47.9535 H   0  0  0  0  0  0  0  0  0  0  0  0
   62.8139   36.7840   47.1708 H   0  0  0  0  0  0  0  0  0  0  0  0
   58.6732   36.0822   51.2158 H   0  0  0  0  0  0  0  0  0  0  0  0
   57.2419   37.5530   52.3724 H   0  0  0  0  0  0  0  0  0  0  0  0
   57.7288   38.8318   51.2361 H   0  0  0  0  0  0  0  0  0  0  0  0
   57.2047   36.6879   49.0574 H   0  0  0  0  0  0  0  0  0  0  0  0
   54.6594   37.6619   48.4231 H   0  0  0  0  0  0  0  0  0  0  0  0
   56.3710   35.4513   47.3297 H   0  0  0  0  0  0  0  0  0  0  0  0
   54.7059   35.6590   46.7486 H   0  0  0  0  0  0  0  0  0  0  0  0
   52.6225   36.5639   48.1675 H   0  0  0  0  0  0  0  0  0  0  0  0
   52.3302   34.1775   49.9042 H   0  0  0  0  0  0  0  0  0  0  0  0
   51.4211   34.3973   48.4282 H   0  0  0  0  0  0  0  0  0  0  0  0
   51.1203   35.4340   49.8022 H   0  0  0  0  0  0  0  0  0  0  0  0
  1  2  1  0  0  0  0
  1 34  1  0  0  0  0
  1 35  1  0  0  0  0
  1 36  1  0  0  0  0
  2  4  1  0  0  0  0
  3  2  2  0  0  0  0
  4  5  1  0  0  0  0
  4 37  1  0  0  0  0
  5  6  1  0  0  0  0
  5 38  1  6  0  0  0
  6  7  2  0  0  0  0
  6 13  1  0  0  0  0
  8  5  1  0  0  0  0
  8  9  1  0  0  0  0
  8 39  1  0  0  0  0
  8 40  1  0  0  0  0
  9 41  1  0  0  0  0
  9 42  1  0  0  0  0
 10 11  1  0  0  0  0
 10  9  1  0  0  0  0
 10 43  1  0  0  0  0
 10 44  1  0  0  0  0
 11 12  1  0  0  0  0
 11 45  1  0  0  0  0
 11 46  1  0  0  0  0
 12 47  1  0  0  0  0
 12 48  1  0  0  0  0
 13 14  1  0  0  0  0
 14 15  1  0  0  0  0
 14 17  1  0  0  0  0
 14 49  1  1  0  0  0
 15 20  1  0  0  0  0
 16 15  2  0  0  0  0
 17 50  1  0  0  0  0
 17 51  1  0  0  0  0
 18 17  1  0  0  0  0
 18 52  1  0  0  0  0
 18 53  1  0  0  0  0
 19 13  1  0  0  0  0
 19 18  1  0  0  0  0
 19 54  1  0  0  0  0
 19 55  1  0  0  0  0
 20 21  1  0  0  0  0
 20 56  1  0  0  0  0
 21 57  1  0  0  0  0
 21 58  1  0  0  0  0
 22 23  2  0  0  0  0
 22 21  1  0  0  0  0
 24 22  1  0  0  0  0
 24 59  1  0  0  0  0
 25 26  1  0  0  0  0
 25 24  1  0  0  0  0
 25 60  1  6  0  0  0
 26 27  2  0  0  0  0
 28 25  1  0  0  0  0
 28 61  1  0  0  0  0
 28 62  1  0  0  0  0
 29 30  1  0  0  0  0
 29 28  1  0  0  0  0
 31 29  2  0  0  0  0
 32 26  1  0  0  0  0
 32 33  1  0  0  0  0
 32 63  1  0  0  0  0
 33 64  1  0  0  0  0
 33 65  1  0  0  0  0
 33 66  1  0  0  0  0
M  CHG  1  30  -1
M  END
>  <MODEL>
       0

$$$$
selected_4mers/KPGD/548_noH.pdb
 OpenBabel03042518233D

 66 66  0  0  1  0  0  0  0  0999 V2000
   41.2090   77.2240   24.8070 C   0  0  0  0  0  0  0  0  0  0  0  0
   41.8890   77.7820   26.0560 C   0  0  0  0  0  0  0  0  0  0  0  0
   41.9630   77.0850   27.0550 O   0  0  0  0  0  0  0  0  0  0  0  0
   42.4080   79.0110   25.9980 N   0  0  0  0  0  0  0  0  0  0  0  0
   43.1100   79.5800   27.1580 C   0  0  2  0  0  0  0  0  0  0  0  0
   42.5250   80.9550   27.4550 C   0  0  0  0  0  0  0  0  0  0  0  0
   42.0060   81.6010   26.5510 O   0  0  0  0  0  0  0  0  0  0  0  0
   44.6220   79.6710   26.8820 C   0  0  0  0  0  0  0  0  0  0  0  0
   45.3040   78.2780   26.8030 C   0  0  0  0  0  0  0  0  0  0  0  0
   46.7980   78.3910   26.4100 C   0  0  0  0  0  0  0  0  0  0  0  0
   47.3930   76.9730   26.3400 C   0  0  0  0  0  0  0  0  0  0  0  0
   47.3420   76.2440   27.6830 N   0  0  0  0  0  0  0  0  0  0  0  0
   42.5560   81.3920   28.7390 N   0  0  0  0  0  0  0  0  0  0  0  0
   42.0160   82.6950   29.1520 C   0  0  2  0  0  0  0  0  0  0  0  0
   42.5690   83.8590   28.3380 C   0  0  0  0  0  0  0  0  0  0  0  0
   43.7570   83.8800   27.9750 O   0  0  0  0  0  0  0  0  0  0  0  0
   42.4090   82.7910   30.6390 C   0  0  0  0  0  0  0  0  0  0  0  0
   42.3980   81.3520   31.0660 C   0  0  0  0  0  0  0  0  0  0  0  0
   43.1040   80.6660   29.9020 C   0  0  0  0  0  0  0  0  0  0  0  0
   41.7100   84.8280   28.0430 N   0  0  0  0  0  0  0  0  0  0  0  0
   42.1600   85.9650   27.2540 C   0  0  0  0  0  0  0  0  0  0  0  0
   42.1840   87.2650   28.0490 C   0  0  0  0  0  0  0  0  0  0  0  0
   41.6830   87.3450   29.1900 O   0  0  0  0  0  0  0  0  0  0  0  0
   42.7530   88.2970   27.4470 N   0  0  0  0  0  0  0  0  0  0  0  0
   42.8350   89.5980   28.1060 C   0  0  2  0  0  0  0  0  0  0  0  0
   41.5540   90.3350   27.7570 C   0  0  0  0  0  0  0  0  0  0  0  0
   41.5670   91.2850   26.9740 O   0  0  0  0  0  0  0  0  0  0  0  0
   44.0370   90.3800   27.6010 C   0  0  0  0  0  0  0  0  0  0  0  0
   45.3650   89.8270   28.1170 C   0  0  0  0  0  0  0  0  0  0  0  0
   45.3960   89.1800   29.1710 O   0  0  0  0  0  0  0  0  0  0  0  0
   46.3890   90.0640   27.4610 O   0  0  0  0  0  0  0  0  0  0  0  0
   40.4460   89.8890   28.3300 N   0  0  0  0  0  0  0  0  0  0  0  0
   39.1540   90.5250   28.0560 C   0  0  0  0  0  0  0  0  0  0  0  0
   41.2310   77.9595   24.0302 H   0  0  0  0  0  0  0  0  0  0  0  0
   40.1934   76.9759   25.0346 H   0  0  0  0  0  0  0  0  0  0  0  0
   41.7264   76.3458   24.4814 H   0  0  0  0  0  0  0  0  0  0  0  0
   42.3200   79.5401   25.1724 H   0  0  0  0  0  0  0  0  0  0  0  0
   42.9771   78.9467   28.0101 H   0  0  0  0  0  0  0  0  0  0  0  0
   44.7698   80.1773   25.9510 H   0  0  0  0  0  0  0  0  0  0  0  0
   45.0670   80.2019   27.6975 H   0  0  0  0  0  0  0  0  0  0  0  0
   45.2322   77.8024   27.7588 H   0  0  0  0  0  0  0  0  0  0  0  0
   44.8043   77.7050   26.0501 H   0  0  0  0  0  0  0  0  0  0  0  0
   46.8852   78.8666   25.4555 H   0  0  0  0  0  0  0  0  0  0  0  0
   47.3250   78.9744   27.1358 H   0  0  0  0  0  0  0  0  0  0  0  0
   48.4141   77.0454   26.0285 H   0  0  0  0  0  0  0  0  0  0  0  0
   46.8057   76.4104   25.6447 H   0  0  0  0  0  0  0  0  0  0  0  0
   47.8944   76.7574   28.3697 H   0  0  0  0  0  0  0  0  0  0  0  0
   47.7229   75.3040   27.5743 H   0  0  0  0  0  0  0  0  0  0  0  0
   40.9601   82.7600   28.9914 H   0  0  0  0  0  0  0  0  0  0  0  0
   41.6952   83.3649   31.1922 H   0  0  0  0  0  0  0  0  0  0  0  0
   43.3465   83.2798   30.8038 H   0  0  0  0  0  0  0  0  0  0  0  0
   42.9353   81.2146   31.9811 H   0  0  0  0  0  0  0  0  0  0  0  0
   41.4180   80.9688   31.2603 H   0  0  0  0  0  0  0  0  0  0  0  0
   44.1656   80.7827   29.9681 H   0  0  0  0  0  0  0  0  0  0  0  0
   42.9452   79.6085   29.8641 H   0  0  0  0  0  0  0  0  0  0  0  0
   40.7777   84.7776   28.3551 H   0  0  0  0  0  0  0  0  0  0  0  0
   41.4990   86.0860   26.4213 H   0  0  0  0  0  0  0  0  0  0  0  0
   43.1624   85.7617   26.9398 H   0  0  0  0  0  0  0  0  0  0  0  0
   43.1261   88.1864   26.5427 H   0  0  0  0  0  0  0  0  0  0  0  0
   42.9489   89.4842   29.1638 H   0  0  0  0  0  0  0  0  0  0  0  0
   43.9425   91.3964   27.9219 H   0  0  0  0  0  0  0  0  0  0  0  0
   44.0480   90.2989   26.5341 H   0  0  0  0  0  0  0  0  0  0  0  0
   40.4907   89.1225   28.9462 H   0  0  0  0  0  0  0  0  0  0  0  0
   39.2932   91.3343   27.3701 H   0  0  0  0  0  0  0  0  0  0  0  0
   38.7396   90.8985   28.9690 H   0  0  0  0  0  0  0  0  0  0  0  0
   38.4861   89.8064   27.6289 H   0  0  0  0  0  0  0  0  0  0  0  0
  1  2  1  0  0  0  0
  1 34  1  0  0  0  0
  1 35  1  0  0  0  0
  1 36  1  0  0  0  0
  2  3  2  0  0  0  0
  4  2  1  0  0  0  0
  4  5  1  0  0  0  0
  4 37  1  0  0  0  0
  5  6  1  0  0  0  0
  5 38  1  1  0  0  0
  6 13  1  0  0  0  0
  7  6  2  0  0  0  0
  8  5  1  0  0  0  0
  8 39  1  0  0  0  0
  8 40  1  0  0  0  0
  9  8  1  0  0  0  0
  9 41  1  0  0  0  0
  9 42  1  0  0  0  0
 10  9  1  0  0  0  0
 10 43  1  0  0  0  0
 10 44  1  0  0  0  0
 11 10  1  0  0  0  0
 11 12  1  0  0  0  0
 11 45  1  0  0  0  0
 11 46  1  0  0  0  0
 12 47  1  0  0  0  0
 12 48  1  0  0  0  0
 13 14  1  0  0  0  0
 13 19  1  0  0  0  0
 14 17  1  0  0  0  0
 14 49  1  6  0  0  0
 15 14  1  0  0  0  0
 16 15  2  0  0  0  0
 17 18  1  0  0  0  0
 17 50  1  0  0  0  0
 17 51  1  0  0  0  0
 18 52  1  0  0  0  0
 18 53  1  0  0  0  0
 19 18  1  0  0  0  0
 19 54  1  0  0  0  0
 19 55  1  0  0  0  0
 20 15  1  0  0  0  0
 20 56  1  0  0  0  0
 21 20  1  0  0  0  0
 21 22  1  0  0  0  0
 21 57  1  0  0  0  0
 21 58  1  0  0  0  0
 22 23  2  0  0  0  0
 24 22  1  0  0  0  0
 24 25  1  0  0  0  0
 24 59  1  0  0  0  0
 25 60  1  1  0  0  0
 26 25  1  0  0  0  0
 26 32  1  0  0  0  0
 27 26  2  0  0  0  0
 28 25  1  0  0  0  0
 28 29  1  0  0  0  0
 28 61  1  0  0  0  0
 28 62  1  0  0  0  0
 29 30  1  0  0  0  0
 31 29  2  0  0  0  0
 32 63  1  0  0  0  0
 33 32  1  0  0  0  0
 33 64  1  0  0  0  0
 33 65  1  0  0  0  0
 33 66  1  0  0  0  0
M  CHG  1  30  -1
M  END
>  <MODEL>
       0

$$$$
selected_4mers/KPGD/549_noH.pdb
 OpenBabel03042518233D

 66 66  0  0  1  0  0  0  0  0999 V2000
   16.8380   47.1290   -6.2640 C   0  0  0  0  0  0  0  0  0  0  0  0
   17.4170   46.6950   -7.6570 C   0  0  0  0  0  0  0  0  0  0  0  0
   17.2870   47.4190   -8.6530 O   0  0  0  0  0  0  0  0  0  0  0  0
   18.0210   45.4990   -7.7180 N   0  0  0  0  0  0  0  0  0  0  0  0
   18.5140   44.9000   -8.9800 C   0  0  2  0  0  0  0  0  0  0  0  0
   18.0600   43.4410   -8.8590 C   0  0  0  0  0  0  0  0  0  0  0  0
   18.8680   42.5140   -8.9420 O   0  0  0  0  0  0  0  0  0  0  0  0
   20.0390   44.9630   -9.0540 C   0  0  0  0  0  0  0  0  0  0  0  0
   20.5980   46.3850   -8.9730 C   0  0  0  0  0  0  0  0  0  0  0  0
   22.1260   46.4120   -9.1310 C   0  0  0  0  0  0  0  0  0  0  0  0
   22.6490   47.8500   -8.9580 C   0  0  0  0  0  0  0  0  0  0  0  0
   24.1530   47.9060   -8.8220 N   0  0  0  0  0  0  0  0  0  0  0  0
   16.7470   43.2340   -8.6900 N   0  0  0  0  0  0  0  0  0  0  0  0
   16.0760   41.9420   -8.5080 C   0  0  2  0  0  0  0  0  0  0  0  0
   16.4750   40.7660   -9.3750 C   0  0  0  0  0  0  0  0  0  0  0  0
   16.5740   39.6290   -8.8770 O   0  0  0  0  0  0  0  0  0  0  0  0
   14.5890   42.2950   -8.6470 C   0  0  0  0  0  0  0  0  0  0  0  0
   14.6210   43.4280   -9.6370 C   0  0  0  0  0  0  0  0  0  0  0  0
   15.7620   44.2550   -9.1010 C   0  0  0  0  0  0  0  0  0  0  0  0
   16.7150   41.0540  -10.6500 N   0  0  0  0  0  0  0  0  0  0  0  0
   17.0810   40.0360  -11.6200 C   0  0  0  0  0  0  0  0  0  0  0  0
   18.4610   39.4540  -11.4690 C   0  0  0  0  0  0  0  0  0  0  0  0
   18.7200   38.3690  -12.0270 O   0  0  0  0  0  0  0  0  0  0  0  0
   19.3630   40.1580  -10.7710 N   0  0  0  0  0  0  0  0  0  0  0  0
   20.6880   39.6040  -10.5490 C   0  0  2  0  0  0  0  0  0  0  0  0
   20.5220   38.5750   -9.4440 C   0  0  0  0  0  0  0  0  0  0  0  0
   20.1690   38.9060   -8.3090 O   0  0  0  0  0  0  0  0  0  0  0  0
   21.6850   40.6580  -10.1110 C   0  0  0  0  0  0  0  0  0  0  0  0
   22.0450   41.6070  -11.2400 C   0  0  0  0  0  0  0  0  0  0  0  0
   21.6900   41.2840  -12.4020 O   0  0  0  0  0  0  0  0  0  0  0  0
   22.6830   42.6570  -10.9710 O   0  0  0  0  0  0  0  0  0  0  0  0
   20.7630   37.3170   -9.7850 N   0  0  0  0  0  0  0  0  0  0  0  0
   20.6120   36.2310   -8.8410 C   0  0  0  0  0  0  0  0  0  0  0  0
   16.3859   48.0949   -6.3509 H   0  0  0  0  0  0  0  0  0  0  0  0
   17.6298   47.1691   -5.5455 H   0  0  0  0  0  0  0  0  0  0  0  0
   16.1036   46.4188   -5.9461 H   0  0  0  0  0  0  0  0  0  0  0  0
   18.1429   44.9937   -6.8819 H   0  0  0  0  0  0  0  0  0  0  0  0
   18.1492   45.4006   -9.8525 H   0  0  0  0  0  0  0  0  0  0  0  0
   20.3509   44.5292   -9.9811 H   0  0  0  0  0  0  0  0  0  0  0  0
   20.4166   44.4287   -8.2073 H   0  0  0  0  0  0  0  0  0  0  0  0
   20.1596   46.9735   -9.7517 H   0  0  0  0  0  0  0  0  0  0  0  0
   20.3582   46.7802   -8.0080 H   0  0  0  0  0  0  0  0  0  0  0  0
   22.3877   46.0547  -10.1050 H   0  0  0  0  0  0  0  0  0  0  0  0
   22.5671   45.7860   -8.3837 H   0  0  0  0  0  0  0  0  0  0  0  0
   22.2089   48.2718   -8.0786 H   0  0  0  0  0  0  0  0  0  0  0  0
   22.3810   48.4013   -9.8350 H   0  0  0  0  0  0  0  0  0  0  0  0
   24.4389   47.3871   -7.9917 H   0  0  0  0  0  0  0  0  0  0  0  0
   24.4506   48.8777   -8.7349 H   0  0  0  0  0  0  0  0  0  0  0  0
   16.3743   41.5404   -7.5621 H   0  0  0  0  0  0  0  0  0  0  0  0
   14.0274   41.4661   -9.0244 H   0  0  0  0  0  0  0  0  0  0  0  0
   14.1198   42.5489   -7.7195 H   0  0  0  0  0  0  0  0  0  0  0  0
   14.8227   43.0773  -10.6276 H   0  0  0  0  0  0  0  0  0  0  0  0
   13.6969   43.9602   -9.7246 H   0  0  0  0  0  0  0  0  0  0  0  0
   15.4494   44.8462   -8.2657 H   0  0  0  0  0  0  0  0  0  0  0  0
   16.1495   44.9520   -9.8144 H   0  0  0  0  0  0  0  0  0  0  0  0
   16.6423   41.9896  -10.9476 H   0  0  0  0  0  0  0  0  0  0  0  0
   16.3761   39.2353  -11.5375 H   0  0  0  0  0  0  0  0  0  0  0  0
   17.0742   40.5252  -12.5716 H   0  0  0  0  0  0  0  0  0  0  0  0
   19.1296   41.0442  -10.4112 H   0  0  0  0  0  0  0  0  0  0  0  0
   21.0696   39.1845  -11.4564 H   0  0  0  0  0  0  0  0  0  0  0  0
   21.2597   41.2227   -9.3078 H   0  0  0  0  0  0  0  0  0  0  0  0
   22.5794   40.1580   -9.8027 H   0  0  0  0  0  0  0  0  0  0  0  0
   21.0522   37.1164  -10.7044 H   0  0  0  0  0  0  0  0  0  0  0  0
   20.2941   36.6209   -7.8966 H   0  0  0  0  0  0  0  0  0  0  0  0
   21.5493   35.7287   -8.7223 H   0  0  0  0  0  0  0  0  0  0  0  0
   19.8809   35.5402   -9.2060 H   0  0  0  0  0  0  0  0  0  0  0  0
  1 34  1  0  0  0  0
  1 35  1  0  0  0  0
  1 36  1  0  0  0  0
  2  1  1  0  0  0  0
  3  2  2  0  0  0  0
  4  2  1  0  0  0  0
  4 37  1  0  0  0  0
  5  6  1  0  0  0  0
  5  4  1  0  0  0  0
  5 38  1  6  0  0  0
  6 13  1  0  0  0  0
  7  6  2  0  0  0  0
  8  5  1  0  0  0  0
  8  9  1  0  0  0  0
  8 39  1  0  0  0  0
  8 40  1  0  0  0  0
  9 41  1  0  0  0  0
  9 42  1  0  0  0  0
 10  9  1  0  0  0  0
 10 11  1  0  0  0  0
 10 43  1  0  0  0  0
 10 44  1  0  0  0  0
 11 12  1  0  0  0  0
 11 45  1  0  0  0  0
 11 46  1  0  0  0  0
 12 47  1  0  0  0  0
 12 48  1  0  0  0  0
 13 14  1  0  0  0  0
 14 49  1  1  0  0  0
 15 16  2  0  0  0  0
 15 14  1  0  0  0  0
 17 14  1  0  0  0  0
 17 50  1  0  0  0  0
 17 51  1  0  0  0  0
 18 19  1  0  0  0  0
 18 17  1  0  0  0  0
 18 52  1  0  0  0  0
 18 53  1  0  0  0  0
 19 13  1  0  0  0  0
 19 54  1  0  0  0  0
 19 55  1  0  0  0  0
 20 15  1  0  0  0  0
 20 56  1  0  0  0  0
 21 22  1  0  0  0  0
 21 20  1  0  0  0  0
 21 57  1  0  0  0  0
 21 58  1  0  0  0  0
 22 24  1  0  0  0  0
 23 22  2  0  0  0  0
 24 25  1  0  0  0  0
 24 59  1  0  0  0  0
 25 28  1  0  0  0  0
 25 26  1  0  0  0  0
 25 60  1  6  0  0  0
 26 27  2  0  0  0  0
 28 61  1  0  0  0  0
 28 62  1  0  0  0  0
 29 31  1  0  0  0  0
 29 28  1  0  0  0  0
 30 29  2  0  0  0  0
 32 26  1  0  0  0  0
 32 33  1  0  0  0  0
 32 63  1  0  0  0  0
 33 64  1  0  0  0  0
 33 65  1  0  0  0  0
 33 66  1  0  0  0  0
M  CHG  1  31  -1
M  END
>  <MODEL>
       0

$$$$
