selected_4mers/LAAA/20_noH.pdb
 OpenBabel03042517493D

 61 60  0  0  1  0  0  0  0  0999 V2000
   35.4570  157.6900    3.8510 C   0  0  0  0  0  0  0  0  0  0  0  0
   34.1400  157.1050    3.2990 C   0  0  0  0  0  0  0  0  0  0  0  0
   34.1520  156.2160    2.4300 O   0  0  0  0  0  0  0  0  0  0  0  0
   33.0210  157.5440    3.8710 N   0  0  0  0  0  0  0  0  0  0  0  0
   31.7040  157.0400    3.4420 C   0  0  2  0  0  0  0  0  0  0  0  0
   31.4660  157.2950    1.9340 C   0  0  0  0  0  0  0  0  0  0  0  0
   30.8740  156.4510    1.2460 O   0  0  0  0  0  0  0  0  0  0  0  0
   30.5940  157.6760    4.2650 C   0  0  0  0  0  0  0  0  0  0  0  0
   30.5150  157.3220    5.7490 C   0  0  0  0  0  0  0  0  0  0  0  0
   29.5470  158.2610    6.5050 C   0  0  0  0  0  0  0  0  0  0  0  0
   30.0560  155.8680    5.8560 C   0  0  0  0  0  0  0  0  0  0  0  0
   31.8950  158.4620    1.4400 N   0  0  0  0  0  0  0  0  0  0  0  0
   31.7360  158.8000    0.0110 C   0  0  2  0  0  0  0  0  0  0  0  0
   32.5100  157.8560   -0.9150 C   0  0  0  0  0  0  0  0  0  0  0  0
   31.9670  157.4180   -1.9230 O   0  0  0  0  0  0  0  0  0  0  0  0
   32.1080  160.2800   -0.2690 C   0  0  0  0  0  0  0  0  0  0  0  0
   33.7590  157.5340   -0.5720 N   0  0  0  0  0  0  0  0  0  0  0  0
   34.5690  156.5840   -1.3180 C   0  0  2  0  0  0  0  0  0  0  0  0
   34.1490  155.1380   -1.1380 C   0  0  0  0  0  0  0  0  0  0  0  0
   34.2360  154.3500   -2.0720 O   0  0  0  0  0  0  0  0  0  0  0  0
   36.0620  156.7300   -0.9690 C   0  0  0  0  0  0  0  0  0  0  0  0
   33.7480  154.7580    0.0630 N   0  0  0  0  0  0  0  0  0  0  0  0
   33.4040  153.3770    0.3110 C   0  0  2  0  0  0  0  0  0  0  0  0
   32.0680  152.9150   -0.2830 C   0  0  0  0  0  0  0  0  0  0  0  0
   31.8580  151.7310   -0.4360 O   0  0  0  0  0  0  0  0  0  0  0  0
   33.4280  153.0810    1.8170 C   0  0  0  0  0  0  0  0  0  0  0  0
   31.1450  153.8380   -0.5070 N   0  0  0  0  0  0  0  0  0  0  0  0
   29.7830  153.4760   -0.8920 C   0  0  0  0  0  0  0  0  0  0  0  0
   36.2848  157.2683    3.3201 H   0  0  0  0  0  0  0  0  0  0  0  0
   35.5434  157.4548    4.8913 H   0  0  0  0  0  0  0  0  0  0  0  0
   35.4560  158.7525    3.7244 H   0  0  0  0  0  0  0  0  0  0  0  0
   33.0738  158.2143    4.5902 H   0  0  0  0  0  0  0  0  0  0  0  0
   31.6925  155.9825    3.6046 H   0  0  0  0  0  0  0  0  0  0  0  0
   29.6636  157.3921    3.8193 H   0  0  0  0  0  0  0  0  0  0  0  0
   30.8132  158.7232    4.2492 H   0  0  0  0  0  0  0  0  0  0  0  0
   31.4764  157.4453    6.2023 H   0  0  0  0  0  0  0  0  0  0  0  0
   28.5661  158.1739    6.0866 H   0  0  0  0  0  0  0  0  0  0  0  0
   29.8857  159.2718    6.4126 H   0  0  0  0  0  0  0  0  0  0  0  0
   29.5193  157.9872    7.5390 H   0  0  0  0  0  0  0  0  0  0  0  0
   29.0945  155.7629    5.3984 H   0  0  0  0  0  0  0  0  0  0  0  0
   29.9928  155.5889    6.8870 H   0  0  0  0  0  0  0  0  0  0  0  0
   30.7594  155.2343    5.3575 H   0  0  0  0  0  0  0  0  0  0  0  0
   32.3264  159.1101    2.0426 H   0  0  0  0  0  0  0  0  0  0  0  0
   30.6978  158.6673   -0.2114 H   0  0  0  0  0  0  0  0  0  0  0  0
   33.1444  160.4344   -0.0524 H   0  0  0  0  0  0  0  0  0  0  0  0
   31.5150  160.9201    0.3503 H   0  0  0  0  0  0  0  0  0  0  0  0
   31.9211  160.5062   -1.2980 H   0  0  0  0  0  0  0  0  0  0  0  0
   34.1509  157.9601    0.2243 H   0  0  0  0  0  0  0  0  0  0  0  0
   34.4067  156.8303   -2.3465 H   0  0  0  0  0  0  0  0  0  0  0  0
   36.2135  156.4817    0.0607 H   0  0  0  0  0  0  0  0  0  0  0  0
   36.3716  157.7396   -1.1417 H   0  0  0  0  0  0  0  0  0  0  0  0
   36.6381  156.0702   -1.5835 H   0  0  0  0  0  0  0  0  0  0  0  0
   33.6836  155.4181    0.7906 H   0  0  0  0  0  0  0  0  0  0  0  0
   34.1557  152.8149   -0.2027 H   0  0  0  0  0  0  0  0  0  0  0  0
   32.6683  153.6548    2.3054 H   0  0  0  0  0  0  0  0  0  0  0  0
   34.3853  153.3431    2.2168 H   0  0  0  0  0  0  0  0  0  0  0  0
   33.2472  152.0388    1.9786 H   0  0  0  0  0  0  0  0  0  0  0  0
   31.3819  154.7888   -0.4120 H   0  0  0  0  0  0  0  0  0  0  0  0
   29.6995  152.4108   -0.9485 H   0  0  0  0  0  0  0  0  0  0  0  0
   29.5569  153.9027   -1.8469 H   0  0  0  0  0  0  0  0  0  0  0  0
   29.0950  153.8495   -0.1626 H   0  0  0  0  0  0  0  0  0  0  0  0
  1 29  1  0  0  0  0
  1 30  1  0  0  0  0
  1 31  1  0  0  0  0
  2  1  1  0  0  0  0
  2  4  1  0  0  0  0
  3  2  2  0  0  0  0
  4 32  1  0  0  0  0
  5  4  1  0  0  0  0
  5  8  1  0  0  0  0
  5 33  1  1  0  0  0
  6  5  1  0  0  0  0
  7  6  2  0  0  0  0
  8  9  1  0  0  0  0
  8 34  1  0  0  0  0
  8 35  1  0  0  0  0
  9 11  1  0  0  0  0
  9 10  1  0  0  0  0
  9 36  1  0  0  0  0
 10 37  1  0  0  0  0
 10 38  1  0  0  0  0
 10 39  1  0  0  0  0
 11 40  1  0  0  0  0
 11 41  1  0  0  0  0
 11 42  1  0  0  0  0
 12  6  1  0  0  0  0
 12 43  1  0  0  0  0
 13 12  1  0  0  0  0
 13 44  1  6  0  0  0
 14 17  1  0  0  0  0
 14 13  1  0  0  0  0
 15 14  2  0  0  0  0
 16 13  1  0  0  0  0
 16 45  1  0  0  0  0
 16 46  1  0  0  0  0
 16 47  1  0  0  0  0
 17 48  1  0  0  0  0
 18 19  1  0  0  0  0
 18 21  1  0  0  0  0
 18 17  1  0  0  0  0
 18 49  1  6  0  0  0
 19 22  1  0  0  0  0
 20 19  2  0  0  0  0
 21 50  1  0  0  0  0
 21 51  1  0  0  0  0
 21 52  1  0  0  0  0
 22 23  1  0  0  0  0
 22 53  1  0  0  0  0
 23 26  1  0  0  0  0
 23 54  1  6  0  0  0
 24 23  1  0  0  0  0
 25 24  2  0  0  0  0
 26 55  1  0  0  0  0
 26 56  1  0  0  0  0
 26 57  1  0  0  0  0
 27 24  1  0  0  0  0
 27 58  1  0  0  0  0
 28 27  1  0  0  0  0
 28 59  1  0  0  0  0
 28 60  1  0  0  0  0
 28 61  1  0  0  0  0
M  END
>  <MODEL>
       0

$$$$
selected_4mers/LAAA/21_noH.pdb
 OpenBabel03042517493D

 61 60  0  0  1  0  0  0  0  0999 V2000
   12.7880   31.0110    5.5700 C   0  0  0  0  0  0  0  0  0  0  0  0
   12.4280   30.8460    7.0340 C   0  0  0  0  0  0  0  0  0  0  0  0
   12.3640   29.7320    7.5380 O   0  0  0  0  0  0  0  0  0  0  0  0
   12.1320   31.9770    7.6730 N   0  0  0  0  0  0  0  0  0  0  0  0
   11.7160   32.0180    9.0660 C   0  0  2  0  0  0  0  0  0  0  0  0
   10.2530   32.4320    9.0310 C   0  0  0  0  0  0  0  0  0  0  0  0
    9.7800   33.0600    8.0710 O   0  0  0  0  0  0  0  0  0  0  0  0
   12.5180   33.0300    9.8750 C   0  0  0  0  0  0  0  0  0  0  0  0
   13.9520   32.5690   10.1730 C   0  0  0  0  0  0  0  0  0  0  0  0
   14.6550   33.6930   10.9480 C   0  0  0  0  0  0  0  0  0  0  0  0
   13.9230   31.3040   11.0530 C   0  0  0  0  0  0  0  0  0  0  0  0
    9.5300   32.0530   10.0790 N   0  0  0  0  0  0  0  0  0  0  0  0
    8.1210   32.3690   10.1320 C   0  0  2  0  0  0  0  0  0  0  0  0
    7.6790   32.6380   11.5630 C   0  0  0  0  0  0  0  0  0  0  0  0
    8.2650   33.4740   12.2400 O   0  0  0  0  0  0  0  0  0  0  0  0
    7.3120   31.2180    9.5160 C   0  0  0  0  0  0  0  0  0  0  0  0
    6.6950   31.9130   12.0730 N   0  0  0  0  0  0  0  0  0  0  0  0
    6.2170   32.2660   13.3940 C   0  0  2  0  0  0  0  0  0  0  0  0
    7.0540   31.7860   14.5620 C   0  0  0  0  0  0  0  0  0  0  0  0
    7.1280   32.4670   15.5680 O   0  0  0  0  0  0  0  0  0  0  0  0
    4.7670   31.7440   13.5640 C   0  0  0  0  0  0  0  0  0  0  0  0
    7.6910   30.6310   14.4260 N   0  0  0  0  0  0  0  0  0  0  0  0
    8.4090   30.0660   15.5680 C   0  0  2  0  0  0  0  0  0  0  0  0
    9.4790   31.0240   16.0710 C   0  0  0  0  0  0  0  0  0  0  0  0
    9.5880   31.2500   17.2780 O   0  0  0  0  0  0  0  0  0  0  0  0
    9.0420   28.7030   15.1910 C   0  0  0  0  0  0  0  0  0  0  0  0
   10.2850   31.5610   15.1590 N   0  0  0  0  0  0  0  0  0  0  0  0
   11.3250   32.4690   15.6280 C   0  0  0  0  0  0  0  0  0  0  0  0
   13.0081   30.0533    5.1467 H   0  0  0  0  0  0  0  0  0  0  0  0
   13.6454   31.6451    5.4828 H   0  0  0  0  0  0  0  0  0  0  0  0
   11.9644   31.4510    5.0476 H   0  0  0  0  0  0  0  0  0  0  0  0
   12.1980   32.8257    7.1785 H   0  0  0  0  0  0  0  0  0  0  0  0
   11.8722   31.0695    9.5359 H   0  0  0  0  0  0  0  0  0  0  0  0
   12.0149   33.1973   10.8044 H   0  0  0  0  0  0  0  0  0  0  0  0
   12.5871   33.9220    9.2880 H   0  0  0  0  0  0  0  0  0  0  0  0
   14.4647   32.3500    9.2597 H   0  0  0  0  0  0  0  0  0  0  0  0
   14.1210   33.8895   11.8542 H   0  0  0  0  0  0  0  0  0  0  0  0
   14.6784   34.5790   10.3485 H   0  0  0  0  0  0  0  0  0  0  0  0
   15.6554   33.3937   11.1813 H   0  0  0  0  0  0  0  0  0  0  0  0
   13.4111   31.5177   11.9680 H   0  0  0  0  0  0  0  0  0  0  0  0
   14.9249   30.9963   11.2683 H   0  0  0  0  0  0  0  0  0  0  0  0
   13.4129   30.5198   10.5336 H   0  0  0  0  0  0  0  0  0  0  0  0
    9.9530   31.5582   10.8175 H   0  0  0  0  0  0  0  0  0  0  0  0
    7.9433   33.2597    9.5663 H   0  0  0  0  0  0  0  0  0  0  0  0
    7.4834   30.3222   10.0755 H   0  0  0  0  0  0  0  0  0  0  0  0
    7.6188   31.0693    8.5018 H   0  0  0  0  0  0  0  0  0  0  0  0
    6.2702   31.4607    9.5416 H   0  0  0  0  0  0  0  0  0  0  0  0
    6.3027   31.1615   11.5725 H   0  0  0  0  0  0  0  0  0  0  0  0
    6.2797   33.3335   13.4313 H   0  0  0  0  0  0  0  0  0  0  0  0
    4.7652   30.6750   13.5185 H   0  0  0  0  0  0  0  0  0  0  0  0
    4.1528   32.1354   12.7801 H   0  0  0  0  0  0  0  0  0  0  0  0
    4.3824   32.0614   14.5107 H   0  0  0  0  0  0  0  0  0  0  0  0
    7.6807   30.1575   13.5629 H   0  0  0  0  0  0  0  0  0  0  0  0
    7.7030   29.9111   16.3569 H   0  0  0  0  0  0  0  0  0  0  0  0
    9.7507   28.8449   14.4020 H   0  0  0  0  0  0  0  0  0  0  0  0
    8.2752   28.0316   14.8651 H   0  0  0  0  0  0  0  0  0  0  0  0
    9.5372   28.2912   16.0455 H   0  0  0  0  0  0  0  0  0  0  0  0
   10.1830   31.3529   14.2022 H   0  0  0  0  0  0  0  0  0  0  0  0
   11.2657   32.5598   16.6925 H   0  0  0  0  0  0  0  0  0  0  0  0
   11.1875   33.4308   15.1797 H   0  0  0  0  0  0  0  0  0  0  0  0
   12.2850   32.0827   15.3559 H   0  0  0  0  0  0  0  0  0  0  0  0
  1  2  1  0  0  0  0
  1 29  1  0  0  0  0
  1 30  1  0  0  0  0
  1 31  1  0  0  0  0
  2  3  2  0  0  0  0
  2  4  1  0  0  0  0
  4  5  1  0  0  0  0
  4 32  1  0  0  0  0
  5  8  1  0  0  0  0
  5 33  1  1  0  0  0
  6  5  1  0  0  0  0
  6 12  1  0  0  0  0
  7  6  2  0  0  0  0
  8  9  1  0  0  0  0
  8 34  1  0  0  0  0
  8 35  1  0  0  0  0
  9 10  1  0  0  0  0
  9 11  1  0  0  0  0
  9 36  1  0  0  0  0
 10 37  1  0  0  0  0
 10 38  1  0  0  0  0
 10 39  1  0  0  0  0
 11 40  1  0  0  0  0
 11 41  1  0  0  0  0
 11 42  1  0  0  0  0
 12 13  1  0  0  0  0
 12 43  1  0  0  0  0
 13 14  1  0  0  0  0
 13 44  1  6  0  0  0
 14 17  1  0  0  0  0
 14 15  2  0  0  0  0
 16 13  1  0  0  0  0
 16 45  1  0  0  0  0
 16 46  1  0  0  0  0
 16 47  1  0  0  0  0
 17 18  1  0  0  0  0
 17 48  1  0  0  0  0
 18 21  1  0  0  0  0
 18 19  1  0  0  0  0
 18 49  1  1  0  0  0
 19 20  2  0  0  0  0
 21 50  1  0  0  0  0
 21 51  1  0  0  0  0
 21 52  1  0  0  0  0
 22 19  1  0  0  0  0
 22 23  1  0  0  0  0
 22 53  1  0  0  0  0
 23 24  1  0  0  0  0
 23 54  1  1  0  0  0
 24 25  2  0  0  0  0
 26 23  1  0  0  0  0
 26 55  1  0  0  0  0
 26 56  1  0  0  0  0
 26 57  1  0  0  0  0
 27 28  1  0  0  0  0
 27 24  1  0  0  0  0
 27 58  1  0  0  0  0
 28 59  1  0  0  0  0
 28 60  1  0  0  0  0
 28 61  1  0  0  0  0
M  END
>  <MODEL>
       0

$$$$
selected_4mers/LAAA/22_noH.pdb
 OpenBabel03042517493D

 61 60  0  0  1  0  0  0  0  0999 V2000
   -8.9020   14.0840   24.9530 C   0  0  0  0  0  0  0  0  0  0  0  0
   -8.1720   13.1690   25.9320 C   0  0  0  0  0  0  0  0  0  0  0  0
   -8.5580   13.0610   27.0960 O   0  0  0  0  0  0  0  0  0  0  0  0
   -7.1130   12.5160   25.4600 N   0  0  0  0  0  0  0  0  0  0  0  0
   -6.3430   11.6190   26.3190 C   0  0  2  0  0  0  0  0  0  0  0  0
   -5.6070   12.4350   27.3790 C   0  0  0  0  0  0  0  0  0  0  0  0
   -5.5040   12.0220   28.5330 O   0  0  0  0  0  0  0  0  0  0  0  0
   -5.3340   10.8120   25.4910 C   0  0  0  0  0  0  0  0  0  0  0  0
   -5.9030    9.9780   24.3380 C   0  0  0  0  0  0  0  0  0  0  0  0
   -4.7950    9.1210   23.7220 C   0  0  0  0  0  0  0  0  0  0  0  0
   -7.0260    9.0960   24.8480 C   0  0  0  0  0  0  0  0  0  0  0  0
   -5.0930   13.5940   26.9780 N   0  0  0  0  0  0  0  0  0  0  0  0
   -4.3750   14.4620   27.9030 C   0  0  2  0  0  0  0  0  0  0  0  0
   -5.3310   14.9320   28.9950 C   0  0  0  0  0  0  0  0  0  0  0  0
   -4.9740   14.9760   30.1730 O   0  0  0  0  0  0  0  0  0  0  0  0
   -3.7910   15.6650   27.1530 C   0  0  0  0  0  0  0  0  0  0  0  0
   -6.5510   15.2790   28.5920 N   0  0  0  0  0  0  0  0  0  0  0  0
   -7.5650   15.7440   29.5310 C   0  0  2  0  0  0  0  0  0  0  0  0
   -7.9630   14.6210   30.4810 C   0  0  0  0  0  0  0  0  0  0  0  0
   -8.1270   14.8420   31.6830 O   0  0  0  0  0  0  0  0  0  0  0  0
   -8.7910   16.2540   28.7720 C   0  0  0  0  0  0  0  0  0  0  0  0
   -8.1170   13.4140   29.9430 N   0  0  0  0  0  0  0  0  0  0  0  0
   -8.4880   12.2750   30.7750 C   0  0  2  0  0  0  0  0  0  0  0  0
   -7.3750   12.0100   31.7840 C   0  0  0  0  0  0  0  0  0  0  0  0
   -7.6360   11.7140   32.9470 O   0  0  0  0  0  0  0  0  0  0  0  0
   -8.7210   11.0330   29.9080 C   0  0  0  0  0  0  0  0  0  0  0  0
   -6.1310   12.1220   31.3280 N   0  0  0  0  0  0  0  0  0  0  0  0
   -4.9790   11.8920   32.1940 C   0  0  0  0  0  0  0  0  0  0  0  0
   -8.4196   14.0428   23.9988 H   0  0  0  0  0  0  0  0  0  0  0  0
   -8.8808   15.0888   25.3203 H   0  0  0  0  0  0  0  0  0  0  0  0
   -9.9175   13.7620   24.8534 H   0  0  0  0  0  0  0  0  0  0  0  0
   -6.8450   12.6387   24.5207 H   0  0  0  0  0  0  0  0  0  0  0  0
   -7.0154   10.9358   26.7944 H   0  0  0  0  0  0  0  0  0  0  0  0
   -4.6294   11.5019   25.0757 H   0  0  0  0  0  0  0  0  0  0  0  0
   -4.9142   10.1018   26.1723 H   0  0  0  0  0  0  0  0  0  0  0  0
   -6.2917   10.6327   23.5862 H   0  0  0  0  0  0  0  0  0  0  0  0
   -4.3988    8.4618   24.4659 H   0  0  0  0  0  0  0  0  0  0  0  0
   -4.0151    9.7556   23.3559 H   0  0  0  0  0  0  0  0  0  0  0  0
   -5.1963    8.5464   22.9135 H   0  0  0  0  0  0  0  0  0  0  0  0
   -6.6477    8.4367   25.6011 H   0  0  0  0  0  0  0  0  0  0  0  0
   -7.4241    8.5213   24.0380 H   0  0  0  0  0  0  0  0  0  0  0  0
   -7.7987    9.7077   25.2649 H   0  0  0  0  0  0  0  0  0  0  0  0
   -5.1994   13.8708   26.0392 H   0  0  0  0  0  0  0  0  0  0  0  0
   -3.5682   13.9187   28.3488 H   0  0  0  0  0  0  0  0  0  0  0  0
   -4.5842   16.2219   26.6995 H   0  0  0  0  0  0  0  0  0  0  0  0
   -3.1184   15.3207   26.3954 H   0  0  0  0  0  0  0  0  0  0  0  0
   -3.2629   16.2920   27.8407 H   0  0  0  0  0  0  0  0  0  0  0  0
   -6.7747   15.2202   27.6350 H   0  0  0  0  0  0  0  0  0  0  0  0
   -7.1561   16.5482   30.1063 H   0  0  0  0  0  0  0  0  0  0  0  0
   -9.2087   15.4573   28.1926 H   0  0  0  0  0  0  0  0  0  0  0  0
   -8.5013   17.0535   28.1225 H   0  0  0  0  0  0  0  0  0  0  0  0
   -9.5207   16.6080   29.4699 H   0  0  0  0  0  0  0  0  0  0  0  0
   -7.9795   13.2888   28.9762 H   0  0  0  0  0  0  0  0  0  0  0  0
   -9.3971   12.4971   31.2938 H   0  0  0  0  0  0  0  0  0  0  0  0
   -7.8221   10.7932   29.3795 H   0  0  0  0  0  0  0  0  0  0  0  0
   -9.5053   11.2293   29.2071 H   0  0  0  0  0  0  0  0  0  0  0  0
   -8.9983   10.2093   30.5321 H   0  0  0  0  0  0  0  0  0  0  0  0
   -5.9838   12.3654   30.3855 H   0  0  0  0  0  0  0  0  0  0  0  0
   -5.3168   11.6390   33.1772 H   0  0  0  0  0  0  0  0  0  0  0  0
   -4.3836   12.7799   32.2389 H   0  0  0  0  0  0  0  0  0  0  0  0
   -4.3920   11.0885   31.8008 H   0  0  0  0  0  0  0  0  0  0  0  0
  1  2  1  0  0  0  0
  1 29  1  0  0  0  0
  1 30  1  0  0  0  0
  1 31  1  0  0  0  0
  2  3  2  0  0  0  0
  4  2  1  0  0  0  0
  4  5  1  0  0  0  0
  4 32  1  0  0  0  0
  5  6  1  0  0  0  0
  5 33  1  1  0  0  0
  6  7  2  0  0  0  0
  8  5  1  0  0  0  0
  8 34  1  0  0  0  0
  8 35  1  0  0  0  0
  9 11  1  0  0  0  0
  9  8  1  0  0  0  0
  9 36  1  0  0  0  0
 10  9  1  0  0  0  0
 10 37  1  0  0  0  0
 10 38  1  0  0  0  0
 10 39  1  0  0  0  0
 11 40  1  0  0  0  0
 11 41  1  0  0  0  0
 11 42  1  0  0  0  0
 12  6  1  0  0  0  0
 12 13  1  0  0  0  0
 12 43  1  0  0  0  0
 13 14  1  0  0  0  0
 13 44  1  1  0  0  0
 14 15  2  0  0  0  0
 16 13  1  0  0  0  0
 16 45  1  0  0  0  0
 16 46  1  0  0  0  0
 16 47  1  0  0  0  0
 17 14  1  0  0  0  0
 17 18  1  0  0  0  0
 17 48  1  0  0  0  0
 18 19  1  0  0  0  0
 18 49  1  1  0  0  0
 19 20  2  0  0  0  0
 21 18  1  0  0  0  0
 21 50  1  0  0  0  0
 21 51  1  0  0  0  0
 21 52  1  0  0  0  0
 22 19  1  0  0  0  0
 22 23  1  0  0  0  0
 22 53  1  0  0  0  0
 23 24  1  0  0  0  0
 23 54  1  1  0  0  0
 24 25  2  0  0  0  0
 26 23  1  0  0  0  0
 26 55  1  0  0  0  0
 26 56  1  0  0  0  0
 26 57  1  0  0  0  0
 27 24  1  0  0  0  0
 27 28  1  0  0  0  0
 27 58  1  0  0  0  0
 28 59  1  0  0  0  0
 28 60  1  0  0  0  0
 28 61  1  0  0  0  0
M  END
>  <MODEL>
       0

$$$$
selected_4mers/LAAA/23_noH.pdb
 OpenBabel03042517493D

 61 60  0  0  1  0  0  0  0  0999 V2000
   12.2510   16.7030  -10.3100 C   0  0  0  0  0  0  0  0  0  0  0  0
   11.8190   17.9670   -9.5480 C   0  0  0  0  0  0  0  0  0  0  0  0
   12.5340   18.9700   -9.5790 O   0  0  0  0  0  0  0  0  0  0  0  0
   10.6740   17.9080   -8.8600 N   0  0  0  0  0  0  0  0  0  0  0  0
   10.1400   19.0710   -8.1310 C   0  0  2  0  0  0  0  0  0  0  0  0
   10.0600   20.2980   -9.0350 C   0  0  0  0  0  0  0  0  0  0  0  0
   10.5110   21.4000   -8.6810 O   0  0  0  0  0  0  0  0  0  0  0  0
   10.9210   19.3500   -6.8340 C   0  0  0  0  0  0  0  0  0  0  0  0
   10.7980   18.2100   -5.8120 C   0  0  0  0  0  0  0  0  0  0  0  0
   11.6990   18.4970   -4.6440 C   0  0  0  0  0  0  0  0  0  0  0  0
    9.3530   17.9770   -5.3420 C   0  0  0  0  0  0  0  0  0  0  0  0
    9.4850   20.0840  -10.2100 N   0  0  0  0  0  0  0  0  0  0  0  0
    9.3100   21.1620  -11.1980 C   0  0  2  0  0  0  0  0  0  0  0  0
    8.5010   22.3240  -10.6310 C   0  0  0  0  0  0  0  0  0  0  0  0
    7.6020   22.1340   -9.8140 O   0  0  0  0  0  0  0  0  0  0  0  0
    8.6620   20.6240  -12.4530 C   0  0  0  0  0  0  0  0  0  0  0  0
    8.8300   23.5370  -11.0640 N   0  0  0  0  0  0  0  0  0  0  0  0
    8.1530   24.7230  -10.5470 C   0  0  2  0  0  0  0  0  0  0  0  0
    6.8130   25.0090  -11.2220 C   0  0  0  0  0  0  0  0  0  0  0  0
    6.0120   25.7820  -10.7020 O   0  0  0  0  0  0  0  0  0  0  0  0
    9.0680   25.9340  -10.6400 C   0  0  0  0  0  0  0  0  0  0  0  0
    6.5820   24.4000  -12.3800 N   0  0  0  0  0  0  0  0  0  0  0  0
    5.3330   24.5740  -13.1070 C   0  0  2  0  0  0  0  0  0  0  0  0
    5.2550   23.5530  -14.2120 C   0  0  0  0  0  0  0  0  0  0  0  0
    6.2790   22.9730  -14.5950 O   0  0  0  0  0  0  0  0  0  0  0  0
    5.2550   26.0070  -13.7180 C   0  0  0  0  0  0  0  0  0  0  0  0
    4.0440   23.3560  -14.7300 N   0  0  0  0  0  0  0  0  0  0  0  0
    3.8610   22.6740  -16.0170 C   0  0  0  0  0  0  0  0  0  0  0  0
   13.1772   16.8886  -10.8126 H   0  0  0  0  0  0  0  0  0  0  0  0
   11.5008   16.4456  -11.0282 H   0  0  0  0  0  0  0  0  0  0  0  0
   12.3756   15.8953   -9.6194 H   0  0  0  0  0  0  0  0  0  0  0  0
   10.1725   17.0611   -8.8401 H   0  0  0  0  0  0  0  0  0  0  0  0
    9.1409   18.8320   -7.8318 H   0  0  0  0  0  0  0  0  0  0  0  0
   10.5421   20.2480   -6.3926 H   0  0  0  0  0  0  0  0  0  0  0  0
   11.9552   19.4424   -7.0926 H   0  0  0  0  0  0  0  0  0  0  0  0
   11.0996   17.3045   -6.2958 H   0  0  0  0  0  0  0  0  0  0  0  0
   11.3884   19.4037   -4.1683 H   0  0  0  0  0  0  0  0  0  0  0  0
   12.7067   18.6019   -4.9882 H   0  0  0  0  0  0  0  0  0  0  0  0
   11.6434   17.6898   -3.9439 H   0  0  0  0  0  0  0  0  0  0  0  0
    8.9931   18.8546   -4.8468 H   0  0  0  0  0  0  0  0  0  0  0  0
    9.3274   17.1493   -4.6644 H   0  0  0  0  0  0  0  0  0  0  0  0
    8.7327   17.7650   -6.1877 H   0  0  0  0  0  0  0  0  0  0  0  0
    9.1658   19.1786  -10.4284 H   0  0  0  0  0  0  0  0  0  0  0  0
   10.2810   21.5388  -11.4433 H   0  0  0  0  0  0  0  0  0  0  0  0
    7.6896   20.2446  -12.2178 H   0  0  0  0  0  0  0  0  0  0  0  0
    9.2642   19.8367  -12.8560 H   0  0  0  0  0  0  0  0  0  0  0  0
    8.5735   21.4099  -13.1737 H   0  0  0  0  0  0  0  0  0  0  0  0
    9.5380   23.6368  -11.7408 H   0  0  0  0  0  0  0  0  0  0  0  0
    7.9280   24.5179   -9.5212 H   0  0  0  0  0  0  0  0  0  0  0  0
    9.2902   26.1351  -11.6672 H   0  0  0  0  0  0  0  0  0  0  0  0
    9.9766   25.7360  -10.1107 H   0  0  0  0  0  0  0  0  0  0  0  0
    8.5811   26.7830  -10.2075 H   0  0  0  0  0  0  0  0  0  0  0  0
    7.2765   23.8134  -12.7578 H   0  0  0  0  0  0  0  0  0  0  0  0
    4.5149   24.4426  -12.4300 H   0  0  0  0  0  0  0  0  0  0  0  0
    6.0692   26.1499  -14.3974 H   0  0  0  0  0  0  0  0  0  0  0  0
    5.3132   26.7327  -12.9339 H   0  0  0  0  0  0  0  0  0  0  0  0
    4.3291   26.1214  -14.2419 H   0  0  0  0  0  0  0  0  0  0  0  0
    3.2531   23.6752  -14.2383 H   0  0  0  0  0  0  0  0  0  0  0  0
    4.8157   22.3957  -16.4121 H   0  0  0  0  0  0  0  0  0  0  0  0
    3.3693   23.3321  -16.7026 H   0  0  0  0  0  0  0  0  0  0  0  0
    3.2647   21.7971  -15.8744 H   0  0  0  0  0  0  0  0  0  0  0  0
  1  2  1  0  0  0  0
  1 29  1  0  0  0  0
  1 30  1  0  0  0  0
  1 31  1  0  0  0  0
  2  4  1  0  0  0  0
  3  2  2  0  0  0  0
  4  5  1  0  0  0  0
  4 32  1  0  0  0  0
  5  8  1  0  0  0  0
  5 33  1  1  0  0  0
  6  7  2  0  0  0  0
  6  5  1  0  0  0  0
  8  9  1  0  0  0  0
  8 34  1  0  0  0  0
  8 35  1  0  0  0  0
  9 11  1  0  0  0  0
  9 10  1  0  0  0  0
  9 36  1  0  0  0  0
 10 37  1  0  0  0  0
 10 38  1  0  0  0  0
 10 39  1  0  0  0  0
 11 40  1  0  0  0  0
 11 41  1  0  0  0  0
 11 42  1  0  0  0  0
 12  6  1  0  0  0  0
 12 43  1  0  0  0  0
 13 14  1  0  0  0  0
 13 12  1  0  0  0  0
 13 44  1  6  0  0  0
 14 15  2  0  0  0  0
 16 13  1  0  0  0  0
 16 45  1  0  0  0  0
 16 46  1  0  0  0  0
 16 47  1  0  0  0  0
 17 14  1  0  0  0  0
 17 18  1  0  0  0  0
 17 48  1  0  0  0  0
 18 49  1  1  0  0  0
 19 20  2  0  0  0  0
 19 18  1  0  0  0  0
 21 18  1  0  0  0  0
 21 50  1  0  0  0  0
 21 51  1  0  0  0  0
 21 52  1  0  0  0  0
 22 19  1  0  0  0  0
 22 53  1  0  0  0  0
 23 22  1  0  0  0  0
 23 54  1  1  0  0  0
 24 23  1  0  0  0  0
 25 24  2  0  0  0  0
 26 23  1  0  0  0  0
 26 55  1  0  0  0  0
 26 56  1  0  0  0  0
 26 57  1  0  0  0  0
 27 24  1  0  0  0  0
 27 58  1  0  0  0  0
 28 27  1  0  0  0  0
 28 59  1  0  0  0  0
 28 60  1  0  0  0  0
 28 61  1  0  0  0  0
M  END
>  <MODEL>
       0

$$$$
selected_4mers/LAAA/24_noH.pdb
 OpenBabel03042517493D

 61 60  0  0  1  0  0  0  0  0999 V2000
   37.3350   89.4060   -0.2910 C   0  0  0  0  0  0  0  0  0  0  0  0
   38.5680   88.9150    0.4540 C   0  0  0  0  0  0  0  0  0  0  0  0
   39.4680   89.6990    0.7910 O   0  0  0  0  0  0  0  0  0  0  0  0
   38.5990   87.6170    0.7350 N   0  0  0  0  0  0  0  0  0  0  0  0
   39.7210   87.0350    1.4580 C   0  0  2  0  0  0  0  0  0  0  0  0
   40.9900   87.0760    0.6100 C   0  0  0  0  0  0  0  0  0  0  0  0
   42.0750   87.3830    1.1120 O   0  0  0  0  0  0  0  0  0  0  0  0
   39.3800   85.6040    1.8780 C   0  0  0  0  0  0  0  0  0  0  0  0
   38.2010   85.5320    2.8580 C   0  0  0  0  0  0  0  0  0  0  0  0
   37.7670   84.0870    3.0790 C   0  0  0  0  0  0  0  0  0  0  0  0
   38.6080   86.1810    4.1750 C   0  0  0  0  0  0  0  0  0  0  0  0
   40.8500   86.7790   -0.6780 N   0  0  0  0  0  0  0  0  0  0  0  0
   41.9890   86.8050   -1.5890 C   0  0  2  0  0  0  0  0  0  0  0  0
   42.5710   88.2100   -1.6810 C   0  0  0  0  0  0  0  0  0  0  0  0
   43.7880   88.3850   -1.7150 O   0  0  0  0  0  0  0  0  0  0  0  0
   41.5630   86.3260   -2.9820 C   0  0  0  0  0  0  0  0  0  0  0  0
   41.6990   89.2130   -1.7130 N   0  0  0  0  0  0  0  0  0  0  0  0
   42.1330   90.6010   -1.8110 C   0  0  2  0  0  0  0  0  0  0  0  0
   43.0430   90.9890   -0.6470 C   0  0  0  0  0  0  0  0  0  0  0  0
   43.8960   91.8660   -0.7800 O   0  0  0  0  0  0  0  0  0  0  0  0
   40.9080   91.5270   -1.8490 C   0  0  0  0  0  0  0  0  0  0  0  0
   42.8540   90.3320    0.4920 N   0  0  0  0  0  0  0  0  0  0  0  0
   43.6360   90.6110    1.6940 C   0  0  2  0  0  0  0  0  0  0  0  0
   44.9580   89.8450    1.7890 C   0  0  0  0  0  0  0  0  0  0  0  0
   45.7080   90.0310    2.7470 O   0  0  0  0  0  0  0  0  0  0  0  0
   42.7800   90.3220    2.9430 C   0  0  0  0  0  0  0  0  0  0  0  0
   45.2540   88.9880    0.8140 N   0  0  0  0  0  0  0  0  0  0  0  0
   46.5070   88.2210    0.8520 C   0  0  0  0  0  0  0  0  0  0  0  0
   36.6844   88.5796   -0.4876 H   0  0  0  0  0  0  0  0  0  0  0  0
   37.6321   89.8540   -1.2162 H   0  0  0  0  0  0  0  0  0  0  0  0
   36.8216   90.1297    0.3070 H   0  0  0  0  0  0  0  0  0  0  0  0
   37.8532   87.0407    0.4505 H   0  0  0  0  0  0  0  0  0  0  0  0
   39.9051   87.6123    2.3399 H   0  0  0  0  0  0  0  0  0  0  0  0
   40.2396   85.1720    2.3463 H   0  0  0  0  0  0  0  0  0  0  0  0
   39.0958   85.0702    0.9953 H   0  0  0  0  0  0  0  0  0  0  0  0
   37.3665   86.0598    2.4458 H   0  0  0  0  0  0  0  0  0  0  0  0
   38.5813   83.5292    3.4921 H   0  0  0  0  0  0  0  0  0  0  0  0
   37.4766   83.6549    2.1442 H   0  0  0  0  0  0  0  0  0  0  0  0
   36.9386   84.0629    3.7558 H   0  0  0  0  0  0  0  0  0  0  0  0
   39.4425   85.6547    4.5891 H   0  0  0  0  0  0  0  0  0  0  0  0
   37.7869   86.1431    4.8600 H   0  0  0  0  0  0  0  0  0  0  0  0
   38.8804   87.2010    4.0008 H   0  0  0  0  0  0  0  0  0  0  0  0
   39.9606   86.5368   -1.0238 H   0  0  0  0  0  0  0  0  0  0  0  0
   42.7410   86.1470   -1.2063 H   0  0  0  0  0  0  0  0  0  0  0  0
   40.8107   86.9807   -3.3697 H   0  0  0  0  0  0  0  0  0  0  0  0
   41.1706   85.3329   -2.9131 H   0  0  0  0  0  0  0  0  0  0  0  0
   42.4105   86.3301   -3.6352 H   0  0  0  0  0  0  0  0  0  0  0  0
   40.7360   89.0132   -1.6694 H   0  0  0  0  0  0  0  0  0  0  0  0
   42.6946   90.7083   -2.7154 H   0  0  0  0  0  0  0  0  0  0  0  0
   40.3493   91.4167   -0.9431 H   0  0  0  0  0  0  0  0  0  0  0  0
   40.2901   91.2671   -2.6830 H   0  0  0  0  0  0  0  0  0  0  0  0
   41.2313   92.5423   -1.9473 H   0  0  0  0  0  0  0  0  0  0  0  0
   42.1624   89.6322    0.5273 H   0  0  0  0  0  0  0  0  0  0  0  0
   43.9032   91.6455    1.6357 H   0  0  0  0  0  0  0  0  0  0  0  0
   42.5304   89.2819    2.9715 H   0  0  0  0  0  0  0  0  0  0  0  0
   41.8825   90.9032    2.9026 H   0  0  0  0  0  0  0  0  0  0  0  0
   43.3329   90.5803    3.8219 H   0  0  0  0  0  0  0  0  0  0  0  0
   44.6294   88.8673    0.0627 H   0  0  0  0  0  0  0  0  0  0  0  0
   47.0563   88.4786    1.7334 H   0  0  0  0  0  0  0  0  0  0  0  0
   47.0926   88.4514   -0.0134 H   0  0  0  0  0  0  0  0  0  0  0  0
   46.2844   87.1745    0.8637 H   0  0  0  0  0  0  0  0  0  0  0  0
  1  2  1  0  0  0  0
  1 29  1  0  0  0  0
  1 30  1  0  0  0  0
  1 31  1  0  0  0  0
  2  4  1  0  0  0  0
  2  3  2  0  0  0  0
  4  5  1  0  0  0  0
  4 32  1  0  0  0  0
  5  8  1  0  0  0  0
  5 33  1  1  0  0  0
  6  7  2  0  0  0  0
  6  5  1  0  0  0  0
  8  9  1  0  0  0  0
  8 34  1  0  0  0  0
  8 35  1  0  0  0  0
  9 10  1  0  0  0  0
  9 11  1  0  0  0  0
  9 36  1  0  0  0  0
 10 37  1  0  0  0  0
 10 38  1  0  0  0  0
 10 39  1  0  0  0  0
 11 40  1  0  0  0  0
 11 41  1  0  0  0  0
 11 42  1  0  0  0  0
 12  6  1  0  0  0  0
 12 43  1  0  0  0  0
 13 12  1  0  0  0  0
 13 44  1  1  0  0  0
 14 13  1  0  0  0  0
 15 14  2  0  0  0  0
 16 13  1  0  0  0  0
 16 45  1  0  0  0  0
 16 46  1  0  0  0  0
 16 47  1  0  0  0  0
 17 14  1  0  0  0  0
 17 48  1  0  0  0  0
 18 17  1  0  0  0  0
 18 19  1  0  0  0  0
 18 49  1  6  0  0  0
 19 22  1  0  0  0  0
 20 19  2  0  0  0  0
 21 18  1  0  0  0  0
 21 50  1  0  0  0  0
 21 51  1  0  0  0  0
 21 52  1  0  0  0  0
 22 23  1  0  0  0  0
 22 53  1  0  0  0  0
 23 24  1  0  0  0  0
 23 26  1  0  0  0  0
 23 54  1  1  0  0  0
 24 25  2  0  0  0  0
 26 55  1  0  0  0  0
 26 56  1  0  0  0  0
 26 57  1  0  0  0  0
 27 28  1  0  0  0  0
 27 24  1  0  0  0  0
 27 58  1  0  0  0  0
 28 59  1  0  0  0  0
 28 60  1  0  0  0  0
 28 61  1  0  0  0  0
M  END
>  <MODEL>
       0

$$$$
