selected_4mers/LAAG/235_noH.pdb
 OpenBabel03042517503D

 58 57  0  0  1  0  0  0  0  0999 V2000
    9.0130   56.5420   57.4310 C   0  0  0  0  0  0  0  0  0  0  0  0
    8.8760   56.0130   56.0090 C   0  0  0  0  0  0  0  0  0  0  0  0
    9.0950   54.8330   55.7460 O   0  0  0  0  0  0  0  0  0  0  0  0
    8.4920   56.8920   55.0950 N   0  0  0  0  0  0  0  0  0  0  0  0
    8.3260   56.5010   53.7020 C   0  0  2  0  0  0  0  0  0  0  0  0
    9.6860   56.3200   53.0420 C   0  0  0  0  0  0  0  0  0  0  0  0
    9.8670   55.4360   52.2020 O   0  0  0  0  0  0  0  0  0  0  0  0
    7.4810   57.5270   52.9480 C   0  0  0  0  0  0  0  0  0  0  0  0
    6.0120   57.6340   53.3460 C   0  0  0  0  0  0  0  0  0  0  0  0
    5.3780   58.7940   52.6030 C   0  0  0  0  0  0  0  0  0  0  0  0
    5.2670   56.3380   53.0630 C   0  0  0  0  0  0  0  0  0  0  0  0
   10.6570   57.1390   53.4400 N   0  0  0  0  0  0  0  0  0  0  0  0
   12.0250   56.9520   52.9690 C   0  0  2  0  0  0  0  0  0  0  0  0
   12.5580   55.5970   53.4350 C   0  0  0  0  0  0  0  0  0  0  0  0
   13.3090   54.9480   52.7120 O   0  0  0  0  0  0  0  0  0  0  0  0
   12.9220   58.0850   53.4510 C   0  0  0  0  0  0  0  0  0  0  0  0
   12.1570   55.1770   54.6370 N   0  0  0  0  0  0  0  0  0  0  0  0
   12.5710   53.8860   55.1930 C   0  0  2  0  0  0  0  0  0  0  0  0
   11.7890   52.7230   54.5810 C   0  0  0  0  0  0  0  0  0  0  0  0
   12.0760   51.5540   54.8480 O   0  0  0  0  0  0  0  0  0  0  0  0
   12.4120   53.8860   56.7230 C   0  0  0  0  0  0  0  0  0  0  0  0
   10.7770   53.0480   53.7860 N   0  0  0  0  0  0  0  0  0  0  0  0
    9.9460   52.0440   53.1430 C   0  0  0  0  0  0  0  0  0  0  0  0
    9.0960   51.2210   54.0970 C   0  0  0  0  0  0  0  0  0  0  0  0
    8.7840   50.0630   53.8120 O   0  0  0  0  0  0  0  0  0  0  0  0
    8.7130   51.8150   55.2230 N   0  0  0  0  0  0  0  0  0  0  0  0
    8.0210   51.0610   56.2680 C   0  0  0  0  0  0  0  0  0  0  0  0
    8.7801   57.5862   57.4471 H   0  0  0  0  0  0  0  0  0  0  0  0
   10.0169   56.3952   57.7710 H   0  0  0  0  0  0  0  0  0  0  0  0
    8.3382   56.0162   58.0737 H   0  0  0  0  0  0  0  0  0  0  0  0
    8.3163   57.8233   55.3615 H   0  0  0  0  0  0  0  0  0  0  0  0
    7.8082   55.5652   53.6683 H   0  0  0  0  0  0  0  0  0  0  0  0
    7.9279   58.4876   53.0981 H   0  0  0  0  0  0  0  0  0  0  0  0
    7.4722   57.1904   51.9323 H   0  0  0  0  0  0  0  0  0  0  0  0
    5.9501   57.8106   54.3995 H   0  0  0  0  0  0  0  0  0  0  0  0
    5.4392   58.6188   51.5492 H   0  0  0  0  0  0  0  0  0  0  0  0
    5.8962   59.6984   52.8449 H   0  0  0  0  0  0  0  0  0  0  0  0
    4.3513   58.8834   52.8907 H   0  0  0  0  0  0  0  0  0  0  0  0
    5.3062   56.1256   52.0150 H   0  0  0  0  0  0  0  0  0  0  0  0
    4.2465   56.4392   53.3685 H   0  0  0  0  0  0  0  0  0  0  0  0
    5.7243   55.5377   53.6065 H   0  0  0  0  0  0  0  0  0  0  0  0
   10.4501   57.8773   54.0575 H   0  0  0  0  0  0  0  0  0  0  0  0
   12.0253   56.9683   51.8991 H   0  0  0  0  0  0  0  0  0  0  0  0
   12.9416   58.0940   54.5208 H   0  0  0  0  0  0  0  0  0  0  0  0
   12.5406   59.0186   53.0934 H   0  0  0  0  0  0  0  0  0  0  0  0
   13.9138   57.9383   53.0774 H   0  0  0  0  0  0  0  0  0  0  0  0
   11.5626   55.7546   55.1683 H   0  0  0  0  0  0  0  0  0  0  0  0
   13.6028   53.7474   54.9457 H   0  0  0  0  0  0  0  0  0  0  0  0
   11.3812   54.0244   56.9745 H   0  0  0  0  0  0  0  0  0  0  0  0
   12.9913   54.6822   57.1418 H   0  0  0  0  0  0  0  0  0  0  0  0
   12.7529   52.9514   57.1170 H   0  0  0  0  0  0  0  0  0  0  0  0
   10.5831   54.0000   53.6268 H   0  0  0  0  0  0  0  0  0  0  0  0
   10.5857   51.3760   52.6049 H   0  0  0  0  0  0  0  0  0  0  0  0
    9.2651   52.5738   52.5101 H   0  0  0  0  0  0  0  0  0  0  0  0
    8.8972   52.7731   55.3549 H   0  0  0  0  0  0  0  0  0  0  0  0
    7.9066   50.0435   55.9573 H   0  0  0  0  0  0  0  0  0  0  0  0
    7.0568   51.4920   56.4398 H   0  0  0  0  0  0  0  0  0  0  0  0
    8.5933   51.0959   57.1714 H   0  0  0  0  0  0  0  0  0  0  0  0
  1 28  1  0  0  0  0
  1 29  1  0  0  0  0
  1 30  1  0  0  0  0
  2  1  1  0  0  0  0
  3  2  2  0  0  0  0
  4  2  1  0  0  0  0
  4 31  1  0  0  0  0
  5  4  1  0  0  0  0
  5 32  1  6  0  0  0
  6 12  1  0  0  0  0
  6  5  1  0  0  0  0
  7  6  2  0  0  0  0
  8  9  1  0  0  0  0
  8  5  1  0  0  0  0
  8 33  1  0  0  0  0
  8 34  1  0  0  0  0
  9 35  1  0  0  0  0
 10  9  1  0  0  0  0
 10 36  1  0  0  0  0
 10 37  1  0  0  0  0
 10 38  1  0  0  0  0
 11  9  1  0  0  0  0
 11 39  1  0  0  0  0
 11 40  1  0  0  0  0
 11 41  1  0  0  0  0
 12 42  1  0  0  0  0
 13 14  1  0  0  0  0
 13 12  1  0  0  0  0
 13 16  1  0  0  0  0
 13 43  1  6  0  0  0
 14 17  1  0  0  0  0
 15 14  2  0  0  0  0
 16 44  1  0  0  0  0
 16 45  1  0  0  0  0
 16 46  1  0  0  0  0
 17 18  1  0  0  0  0
 17 47  1  0  0  0  0
 18 21  1  0  0  0  0
 18 48  1  6  0  0  0
 19 20  2  0  0  0  0
 19 18  1  0  0  0  0
 21 49  1  0  0  0  0
 21 50  1  0  0  0  0
 21 51  1  0  0  0  0
 22 19  1  0  0  0  0
 22 52  1  0  0  0  0
 23 22  1  0  0  0  0
 23 24  1  0  0  0  0
 23 53  1  0  0  0  0
 23 54  1  0  0  0  0
 24 26  1  0  0  0  0
 25 24  2  0  0  0  0
 26 27  1  0  0  0  0
 26 55  1  0  0  0  0
 27 56  1  0  0  0  0
 27 57  1  0  0  0  0
 27 58  1  0  0  0  0
M  END
>  <MODEL>
       0

$$$$
selected_4mers/LAAG/236_noH.pdb
 OpenBabel03042517503D

 58 57  0  0  1  0  0  0  0  0999 V2000
   85.0690   42.7610   31.9840 C   0  0  0  0  0  0  0  0  0  0  0  0
   85.7700   41.4120   31.8790 C   0  0  0  0  0  0  0  0  0  0  0  0
   86.6660   41.2360   31.0580 O   0  0  0  0  0  0  0  0  0  0  0  0
   85.3520   40.4680   32.7180 N   0  0  0  0  0  0  0  0  0  0  0  0
   85.9330   39.1310   32.7500 C   0  0  2  0  0  0  0  0  0  0  0  0
   85.2540   38.2650   31.6950 C   0  0  0  0  0  0  0  0  0  0  0  0
   84.0520   38.0220   31.7650 O   0  0  0  0  0  0  0  0  0  0  0  0
   85.7770   38.5140   34.1440 C   0  0  0  0  0  0  0  0  0  0  0  0
   86.8700   38.8650   35.1650 C   0  0  0  0  0  0  0  0  0  0  0  0
   87.3020   40.3220   35.0930 C   0  0  0  0  0  0  0  0  0  0  0  0
   86.4100   38.5360   36.5680 C   0  0  0  0  0  0  0  0  0  0  0  0
   86.0290   37.7860   30.7280 N   0  0  0  0  0  0  0  0  0  0  0  0
   85.4590   37.1620   29.5300 C   0  0  2  0  0  0  0  0  0  0  0  0
   86.3160   36.0360   28.9450 C   0  0  0  0  0  0  0  0  0  0  0  0
   86.2240   35.7400   27.7550 O   0  0  0  0  0  0  0  0  0  0  0  0
   85.2110   38.2430   28.4720 C   0  0  0  0  0  0  0  0  0  0  0  0
   87.1120   35.3830   29.7910 N   0  0  0  0  0  0  0  0  0  0  0  0
   88.1210   34.4220   29.3380 C   0  0  2  0  0  0  0  0  0  0  0  0
   87.6570   32.9580   29.3150 C   0  0  0  0  0  0  0  0  0  0  0  0
   88.3890   32.0890   28.8440 O   0  0  0  0  0  0  0  0  0  0  0  0
   89.3640   34.5480   30.2090 C   0  0  0  0  0  0  0  0  0  0  0  0
   86.4540   32.6870   29.8150 N   0  0  0  0  0  0  0  0  0  0  0  0
   86.0100   31.3220   30.0530 C   0  0  0  0  0  0  0  0  0  0  0  0
   85.7210   30.5040   28.8060 C   0  0  0  0  0  0  0  0  0  0  0  0
   85.2850   31.0380   27.7880 O   0  0  0  0  0  0  0  0  0  0  0  0
   85.9590   29.1990   28.9060 N   0  0  0  0  0  0  0  0  0  0  0  0
   85.6900   28.2480   27.8330 C   0  0  0  0  0  0  0  0  0  0  0  0
   85.4854   43.4362   31.2659 H   0  0  0  0  0  0  0  0  0  0  0  0
   85.2055   43.1582   32.9681 H   0  0  0  0  0  0  0  0  0  0  0  0
   84.0239   42.6358   31.7917 H   0  0  0  0  0  0  0  0  0  0  0  0
   84.6211   40.6806   33.3423 H   0  0  0  0  0  0  0  0  0  0  0  0
   86.9792   39.1905   32.5335 H   0  0  0  0  0  0  0  0  0  0  0  0
   85.7648   37.4501   34.0310 H   0  0  0  0  0  0  0  0  0  0  0  0
   84.8716   38.9242   34.5400 H   0  0  0  0  0  0  0  0  0  0  0  0
   87.7223   38.2688   34.9138 H   0  0  0  0  0  0  0  0  0  0  0  0
   86.4731   40.9524   35.3389 H   0  0  0  0  0  0  0  0  0  0  0  0
   87.6386   40.5457   34.1023 H   0  0  0  0  0  0  0  0  0  0  0  0
   88.0981   40.4927   35.7872 H   0  0  0  0  0  0  0  0  0  0  0  0
   85.5579   39.1348   36.8136 H   0  0  0  0  0  0  0  0  0  0  0  0
   87.2006   38.7400   37.2596 H   0  0  0  0  0  0  0  0  0  0  0  0
   86.1461   37.5005   36.6232 H   0  0  0  0  0  0  0  0  0  0  0  0
   87.0072   37.8515   30.8178 H   0  0  0  0  0  0  0  0  0  0  0  0
   84.5408   36.7004   29.8278 H   0  0  0  0  0  0  0  0  0  0  0  0
   86.1428   38.6882   28.1917 H   0  0  0  0  0  0  0  0  0  0  0  0
   84.5636   38.9940   28.8743 H   0  0  0  0  0  0  0  0  0  0  0  0
   84.7535   37.8015   27.6114 H   0  0  0  0  0  0  0  0  0  0  0  0
   87.0186   35.5526   30.7563 H   0  0  0  0  0  0  0  0  0  0  0  0
   88.3265   34.6745   28.3187 H   0  0  0  0  0  0  0  0  0  0  0  0
   89.1203   34.2883   31.2180 H   0  0  0  0  0  0  0  0  0  0  0  0
   89.7216   35.5560   30.1765 H   0  0  0  0  0  0  0  0  0  0  0  0
   90.1234   33.8882   29.8444 H   0  0  0  0  0  0  0  0  0  0  0  0
   85.8469   33.4316   30.0301 H   0  0  0  0  0  0  0  0  0  0  0  0
   86.7736   30.8186   30.6084 H   0  0  0  0  0  0  0  0  0  0  0  0
   85.0797   31.4015   30.5756 H   0  0  0  0  0  0  0  0  0  0  0  0
   86.3365   28.8570   29.7485 H   0  0  0  0  0  0  0  0  0  0  0  0
   85.2850   28.7671   26.9895 H   0  0  0  0  0  0  0  0  0  0  0  0
   84.9870   27.5164   28.1728 H   0  0  0  0  0  0  0  0  0  0  0  0
   86.6007   27.7630   27.5497 H   0  0  0  0  0  0  0  0  0  0  0  0
  1 28  1  0  0  0  0
  1 29  1  0  0  0  0
  1 30  1  0  0  0  0
  2  1  1  0  0  0  0
  2  4  1  0  0  0  0
  3  2  2  0  0  0  0
  4  5  1  0  0  0  0
  4 31  1  0  0  0  0
  5  8  1  0  0  0  0
  5 32  1  6  0  0  0
  6  7  2  0  0  0  0
  6  5  1  0  0  0  0
  8  9  1  0  0  0  0
  8 33  1  0  0  0  0
  8 34  1  0  0  0  0
  9 11  1  0  0  0  0
  9 35  1  0  0  0  0
 10  9  1  0  0  0  0
 10 36  1  0  0  0  0
 10 37  1  0  0  0  0
 10 38  1  0  0  0  0
 11 39  1  0  0  0  0
 11 40  1  0  0  0  0
 11 41  1  0  0  0  0
 12  6  1  0  0  0  0
 12 42  1  0  0  0  0
 13 12  1  0  0  0  0
 13 43  1  1  0  0  0
 14 13  1  0  0  0  0
 14 17  1  0  0  0  0
 15 14  2  0  0  0  0
 16 13  1  0  0  0  0
 16 44  1  0  0  0  0
 16 45  1  0  0  0  0
 16 46  1  0  0  0  0
 17 47  1  0  0  0  0
 18 17  1  0  0  0  0
 18 21  1  0  0  0  0
 18 48  1  6  0  0  0
 19 18  1  0  0  0  0
 19 22  1  0  0  0  0
 20 19  2  0  0  0  0
 21 49  1  0  0  0  0
 21 50  1  0  0  0  0
 21 51  1  0  0  0  0
 22 23  1  0  0  0  0
 22 52  1  0  0  0  0
 23 53  1  0  0  0  0
 23 54  1  0  0  0  0
 24 26  1  0  0  0  0
 24 23  1  0  0  0  0
 25 24  2  0  0  0  0
 26 55  1  0  0  0  0
 27 26  1  0  0  0  0
 27 56  1  0  0  0  0
 27 57  1  0  0  0  0
 27 58  1  0  0  0  0
M  END
>  <MODEL>
       0

$$$$
selected_4mers/LAAG/237_noH.pdb
 OpenBabel03042517503D

 58 57  0  0  1  0  0  0  0  0999 V2000
   10.1210   33.1860   28.2030 C   0  0  0  0  0  0  0  0  0  0  0  0
   10.2050   34.4270   29.1120 C   0  0  0  0  0  0  0  0  0  0  0  0
   11.1430   35.2490   28.9850 O   0  0  0  0  0  0  0  0  0  0  0  0
    9.2540   34.5720   30.0310 N   0  0  0  0  0  0  0  0  0  0  0  0
    9.2610   35.7490   30.9220 C   0  0  2  0  0  0  0  0  0  0  0  0
   10.4780   35.7850   31.8280 C   0  0  0  0  0  0  0  0  0  0  0  0
   10.9800   36.9160   32.0510 O   0  0  0  0  0  0  0  0  0  0  0  0
    7.9850   35.6640   31.7400 C   0  0  0  0  0  0  0  0  0  0  0  0
    7.7640   36.8360   32.7330 C   0  0  0  0  0  0  0  0  0  0  0  0
    7.7660   38.1980   32.0430 C   0  0  0  0  0  0  0  0  0  0  0  0
    6.4430   36.5960   33.4650 C   0  0  0  0  0  0  0  0  0  0  0  0
   11.0400   34.6390   32.2170 N   0  0  0  0  0  0  0  0  0  0  0  0
   12.2620   34.6640   33.0320 C   0  0  2  0  0  0  0  0  0  0  0  0
   13.4340   35.1740   32.2190 C   0  0  0  0  0  0  0  0  0  0  0  0
   14.4270   35.7120   32.7660 O   0  0  0  0  0  0  0  0  0  0  0  0
   12.5600   33.3080   33.6680 C   0  0  0  0  0  0  0  0  0  0  0  0
   13.3950   34.9960   30.9050 N   0  0  0  0  0  0  0  0  0  0  0  0
   14.3850   35.4860   29.9750 C   0  0  2  0  0  0  0  0  0  0  0  0
   14.0790   36.9130   29.4950 C   0  0  0  0  0  0  0  0  0  0  0  0
   14.7820   37.4790   28.6360 O   0  0  0  0  0  0  0  0  0  0  0  0
   14.5370   34.5410   28.7810 C   0  0  0  0  0  0  0  0  0  0  0  0
   12.9910   37.5070   29.9660 N   0  0  0  0  0  0  0  0  0  0  0  0
   12.5810   38.8430   29.6540 C   0  0  0  0  0  0  0  0  0  0  0  0
   11.9780   39.0960   28.2720 C   0  0  0  0  0  0  0  0  0  0  0  0
   11.9740   40.2560   27.7920 O   0  0  0  0  0  0  0  0  0  0  0  0
   11.4600   38.0160   27.6750 N   0  0  0  0  0  0  0  0  0  0  0  0
   10.9860   38.0660   26.2900 C   0  0  0  0  0  0  0  0  0  0  0  0
   10.9402   33.1919   27.5147 H   0  0  0  0  0  0  0  0  0  0  0  0
    9.1990   33.2032   27.6603 H   0  0  0  0  0  0  0  0  0  0  0  0
   10.1654   32.3010   28.8027 H   0  0  0  0  0  0  0  0  0  0  0  0
    8.5453   33.8941   30.1169 H   0  0  0  0  0  0  0  0  0  0  0  0
    9.3080   36.6487   30.3447 H   0  0  0  0  0  0  0  0  0  0  0  0
    8.0105   34.7535   32.3014 H   0  0  0  0  0  0  0  0  0  0  0  0
    7.1771   35.7085   31.0399 H   0  0  0  0  0  0  0  0  0  0  0  0
    8.5785   36.8587   33.4265 H   0  0  0  0  0  0  0  0  0  0  0  0
    6.9678   38.2386   31.3316 H   0  0  0  0  0  0  0  0  0  0  0  0
    8.6995   38.3418   31.5403 H   0  0  0  0  0  0  0  0  0  0  0  0
    7.6320   38.9682   32.7736 H   0  0  0  0  0  0  0  0  0  0  0  0
    5.6412   36.5765   32.7567 H   0  0  0  0  0  0  0  0  0  0  0  0
    6.2774   37.3841   34.1696 H   0  0  0  0  0  0  0  0  0  0  0  0
    6.4861   35.6596   33.9809 H   0  0  0  0  0  0  0  0  0  0  0  0
   10.6367   33.7789   31.9585 H   0  0  0  0  0  0  0  0  0  0  0  0
   12.0978   35.3450   33.8408 H   0  0  0  0  0  0  0  0  0  0  0  0
   12.7334   32.5840   32.8995 H   0  0  0  0  0  0  0  0  0  0  0  0
   11.7256   33.0025   34.2641 H   0  0  0  0  0  0  0  0  0  0  0  0
   13.4298   33.3874   34.2860 H   0  0  0  0  0  0  0  0  0  0  0  0
   12.6339   34.4920   30.5362 H   0  0  0  0  0  0  0  0  0  0  0  0
   15.3137   35.5192   30.5054 H   0  0  0  0  0  0  0  0  0  0  0  0
   13.6145   34.4980   28.2405 H   0  0  0  0  0  0  0  0  0  0  0  0
   14.7914   33.5623   29.1308 H   0  0  0  0  0  0  0  0  0  0  0  0
   15.3113   34.9019   28.1368 H   0  0  0  0  0  0  0  0  0  0  0  0
   12.4203   36.9887   30.5783 H   0  0  0  0  0  0  0  0  0  0  0  0
   11.8491   39.1305   30.3797 H   0  0  0  0  0  0  0  0  0  0  0  0
   13.4864   39.4132   29.6629 H   0  0  0  0  0  0  0  0  0  0  0  0
   11.3963   37.1713   28.1766 H   0  0  0  0  0  0  0  0  0  0  0  0
   11.1291   39.0518   25.8994 H   0  0  0  0  0  0  0  0  0  0  0  0
    9.9456   37.8179   26.2599 H   0  0  0  0  0  0  0  0  0  0  0  0
   11.5371   37.3647   25.6989 H   0  0  0  0  0  0  0  0  0  0  0  0
  1  2  1  0  0  0  0
  1 28  1  0  0  0  0
  1 29  1  0  0  0  0
  1 30  1  0  0  0  0
  2  4  1  0  0  0  0
  3  2  2  0  0  0  0
  4  5  1  0  0  0  0
  4 31  1  0  0  0  0
  5  8  1  0  0  0  0
  5  6  1  0  0  0  0
  5 32  1  6  0  0  0
  6  7  2  0  0  0  0
  6 12  1  0  0  0  0
  8  9  1  0  0  0  0
  8 33  1  0  0  0  0
  8 34  1  0  0  0  0
  9 11  1  0  0  0  0
  9 35  1  0  0  0  0
 10  9  1  0  0  0  0
 10 36  1  0  0  0  0
 10 37  1  0  0  0  0
 10 38  1  0  0  0  0
 11 39  1  0  0  0  0
 11 40  1  0  0  0  0
 11 41  1  0  0  0  0
 12 13  1  0  0  0  0
 12 42  1  0  0  0  0
 13 16  1  0  0  0  0
 13 43  1  1  0  0  0
 14 15  2  0  0  0  0
 14 13  1  0  0  0  0
 16 44  1  0  0  0  0
 16 45  1  0  0  0  0
 16 46  1  0  0  0  0
 17 14  1  0  0  0  0
 17 47  1  0  0  0  0
 18 17  1  0  0  0  0
 18 48  1  1  0  0  0
 19 22  1  0  0  0  0
 19 18  1  0  0  0  0
 20 19  2  0  0  0  0
 21 18  1  0  0  0  0
 21 49  1  0  0  0  0
 21 50  1  0  0  0  0
 21 51  1  0  0  0  0
 22 52  1  0  0  0  0
 23 22  1  0  0  0  0
 23 53  1  0  0  0  0
 23 54  1  0  0  0  0
 24 23  1  0  0  0  0
 25 24  2  0  0  0  0
 26 24  1  0  0  0  0
 26 55  1  0  0  0  0
 27 26  1  0  0  0  0
 27 56  1  0  0  0  0
 27 57  1  0  0  0  0
 27 58  1  0  0  0  0
M  END
>  <MODEL>
       0

$$$$
selected_4mers/LAAG/238_noH.pdb
 OpenBabel03042517503D

 58 57  0  0  1  0  0  0  0  0999 V2000
    8.1660  105.3690   29.3680 C   0  0  0  0  0  0  0  0  0  0  0  0
    9.2530  106.2650   29.9630 C   0  0  0  0  0  0  0  0  0  0  0  0
   10.2890  106.4600   29.3290 O   0  0  0  0  0  0  0  0  0  0  0  0
    9.0330  106.8190   31.1600 N   0  0  0  0  0  0  0  0  0  0  0  0
   10.0230  107.7290   31.7400 C   0  0  2  0  0  0  0  0  0  0  0  0
   11.1140  106.9820   32.5310 C   0  0  0  0  0  0  0  0  0  0  0  0
   12.0520  107.6200   32.9680 O   0  0  0  0  0  0  0  0  0  0  0  0
    9.3690  108.8170   32.6240 C   0  0  0  0  0  0  0  0  0  0  0  0
    8.3520  109.7360   31.9350 C   0  0  0  0  0  0  0  0  0  0  0  0
    7.8010  110.7420   32.9290 C   0  0  0  0  0  0  0  0  0  0  0  0
    8.9570  110.4480   30.7440 C   0  0  0  0  0  0  0  0  0  0  0  0
   10.9790  105.6660   32.7150 N   0  0  0  0  0  0  0  0  0  0  0  0
   12.0360  104.8480   33.3050 C   0  0  2  0  0  0  0  0  0  0  0  0
   12.2990  105.1420   34.7850 C   0  0  0  0  0  0  0  0  0  0  0  0
   13.4120  104.9490   35.2800 O   0  0  0  0  0  0  0  0  0  0  0  0
   13.3360  104.9750   32.4910 C   0  0  0  0  0  0  0  0  0  0  0  0
   11.2580  105.5260   35.5280 N   0  0  0  0  0  0  0  0  0  0  0  0
   11.4590  105.9210   36.9250 C   0  0  2  0  0  0  0  0  0  0  0  0
   11.7670  104.7760   37.8890 C   0  0  0  0  0  0  0  0  0  0  0  0
   12.4170  104.9950   38.9060 O   0  0  0  0  0  0  0  0  0  0  0  0
   10.2720  106.7180   37.4290 C   0  0  0  0  0  0  0  0  0  0  0  0
   11.3020  103.5760   37.5680 N   0  0  0  0  0  0  0  0  0  0  0  0
   11.4550  102.4020   38.4280 C   0  0  0  0  0  0  0  0  0  0  0  0
   10.1190  101.9070   38.9620 C   0  0  0  0  0  0  0  0  0  0  0  0
    9.2870  102.7020   39.4130 O   0  0  0  0  0  0  0  0  0  0  0  0
    9.9050  100.5990   38.9190 N   0  0  0  0  0  0  0  0  0  0  0  0
    8.6480  100.0150   39.4180 C   0  0  0  0  0  0  0  0  0  0  0  0
    8.4871  105.0036   28.4150 H   0  0  0  0  0  0  0  0  0  0  0  0
    7.2647  105.9331   29.2485 H   0  0  0  0  0  0  0  0  0  0  0  0
    7.9856  104.5433   30.0242 H   0  0  0  0  0  0  0  0  0  0  0  0
    8.2049  106.6150   31.6517 H   0  0  0  0  0  0  0  0  0  0  0  0
   10.4935  108.2142   30.9105 H   0  0  0  0  0  0  0  0  0  0  0  0
   10.1519  109.4330   33.0146 H   0  0  0  0  0  0  0  0  0  0  0  0
    8.8126  108.2834   33.3660 H   0  0  0  0  0  0  0  0  0  0  0  0
    7.5519  109.1251   31.5722 H   0  0  0  0  0  0  0  0  0  0  0  0
    8.5979  111.3553   33.2946 H   0  0  0  0  0  0  0  0  0  0  0  0
    7.3463  110.2230   33.7468 H   0  0  0  0  0  0  0  0  0  0  0  0
    7.0703  111.3569   32.4463 H   0  0  0  0  0  0  0  0  0  0  0  0
    9.7634  111.0701   31.0722 H   0  0  0  0  0  0  0  0  0  0  0  0
    8.2101  111.0516   30.2721 H   0  0  0  0  0  0  0  0  0  0  0  0
    9.3252  109.7256   30.0458 H   0  0  0  0  0  0  0  0  0  0  0  0
   10.1380  105.2321   32.4436 H   0  0  0  0  0  0  0  0  0  0  0  0
   11.6818  103.8391   33.2644 H   0  0  0  0  0  0  0  0  0  0  0  0
   13.6866  105.9850   32.5342 H   0  0  0  0  0  0  0  0  0  0  0  0
   13.1469  104.7063   31.4727 H   0  0  0  0  0  0  0  0  0  0  0  0
   14.0783  104.3220   32.9002 H   0  0  0  0  0  0  0  0  0  0  0  0
   10.3546  105.5438   35.1370 H   0  0  0  0  0  0  0  0  0  0  0  0
   12.3412  106.5263   36.9126 H   0  0  0  0  0  0  0  0  0  0  0  0
    9.4012  106.0963   37.4339 H   0  0  0  0  0  0  0  0  0  0  0  0
   10.1073  107.5575   36.7863 H   0  0  0  0  0  0  0  0  0  0  0  0
   10.4698  107.0627   38.4224 H   0  0  0  0  0  0  0  0  0  0  0  0
   10.8313  103.4701   36.7098 H   0  0  0  0  0  0  0  0  0  0  0  0
   12.0833  102.6594   39.2550 H   0  0  0  0  0  0  0  0  0  0  0  0
   11.8871  101.6179   37.8421 H   0  0  0  0  0  0  0  0  0  0  0  0
   10.5986  100.0076   38.5469 H   0  0  0  0  0  0  0  0  0  0  0  0
    8.0130  100.7947   39.7838 H   0  0  0  0  0  0  0  0  0  0  0  0
    8.8633   99.3290   40.2104 H   0  0  0  0  0  0  0  0  0  0  0  0
    8.1547   99.4972   38.6222 H   0  0  0  0  0  0  0  0  0  0  0  0
  1  2  1  0  0  0  0
  1 28  1  0  0  0  0
  1 29  1  0  0  0  0
  1 30  1  0  0  0  0
  2  4  1  0  0  0  0
  3  2  2  0  0  0  0
  4  5  1  0  0  0  0
  4 31  1  0  0  0  0
  5  6  1  0  0  0  0
  5  8  1  0  0  0  0
  5 32  1  6  0  0  0
  6 12  1  0  0  0  0
  6  7  2  0  0  0  0
  8 33  1  0  0  0  0
  8 34  1  0  0  0  0
  9  8  1  0  0  0  0
  9 10  1  0  0  0  0
  9 35  1  0  0  0  0
 10 36  1  0  0  0  0
 10 37  1  0  0  0  0
 10 38  1  0  0  0  0
 11  9  1  0  0  0  0
 11 39  1  0  0  0  0
 11 40  1  0  0  0  0
 11 41  1  0  0  0  0
 12 13  1  0  0  0  0
 12 42  1  0  0  0  0
 13 14  1  0  0  0  0
 13 43  1  6  0  0  0
 14 15  2  0  0  0  0
 14 17  1  0  0  0  0
 16 13  1  0  0  0  0
 16 44  1  0  0  0  0
 16 45  1  0  0  0  0
 16 46  1  0  0  0  0
 17 18  1  0  0  0  0
 17 47  1  0  0  0  0
 18 21  1  0  0  0  0
 18 19  1  0  0  0  0
 18 48  1  1  0  0  0
 19 20  2  0  0  0  0
 21 49  1  0  0  0  0
 21 50  1  0  0  0  0
 21 51  1  0  0  0  0
 22 19  1  0  0  0  0
 22 23  1  0  0  0  0
 22 52  1  0  0  0  0
 23 24  1  0  0  0  0
 23 53  1  0  0  0  0
 23 54  1  0  0  0  0
 24 25  2  0  0  0  0
 26 24  1  0  0  0  0
 26 27  1  0  0  0  0
 26 55  1  0  0  0  0
 27 56  1  0  0  0  0
 27 57  1  0  0  0  0
 27 58  1  0  0  0  0
M  END
>  <MODEL>
       0

$$$$
selected_4mers/LAAG/239_noH.pdb
 OpenBabel03042517503D

 58 57  0  0  1  0  0  0  0  0999 V2000
   23.7730  148.1120   -2.7550 C   0  0  0  0  0  0  0  0  0  0  0  0
   23.6980  148.4900   -1.2750 C   0  0  0  0  0  0  0  0  0  0  0  0
   24.6770  148.9590   -0.7060 O   0  0  0  0  0  0  0  0  0  0  0  0
   22.5210  148.3130   -0.6640 N   0  0  0  0  0  0  0  0  0  0  0  0
   22.3840  148.7160    0.7220 C   0  0  2  0  0  0  0  0  0  0  0  0
   22.9920  147.7490    1.7130 C   0  0  0  0  0  0  0  0  0  0  0  0
   23.1270  148.0920    2.8750 O   0  0  0  0  0  0  0  0  0  0  0  0
   20.9090  148.8340    1.0880 C   0  0  0  0  0  0  0  0  0  0  0  0
   20.1300  149.8930    0.3480 C   0  0  0  0  0  0  0  0  0  0  0  0
   18.6500  149.6640    0.6500 C   0  0  0  0  0  0  0  0  0  0  0  0
   20.5850  151.2710    0.8280 C   0  0  0  0  0  0  0  0  0  0  0  0
   23.3570  146.5560    1.2590 N   0  0  0  0  0  0  0  0  0  0  0  0
   23.9340  145.5530    2.1380 C   0  0  2  0  0  0  0  0  0  0  0  0
   25.4490  145.7340    2.1510 C   0  0  0  0  0  0  0  0  0  0  0  0
   26.0920  145.6150    1.1130 O   0  0  0  0  0  0  0  0  0  0  0  0
   23.5780  144.1550    1.6450 C   0  0  0  0  0  0  0  0  0  0  0  0
   26.0030  146.0330    3.3290 N   0  0  0  0  0  0  0  0  0  0  0  0
   27.4530  146.1440    3.4560 C   0  0  2  0  0  0  0  0  0  0  0  0
   28.1210  144.8530    3.9340 C   0  0  0  0  0  0  0  0  0  0  0  0
   29.3430  144.6850    3.8370 O   0  0  0  0  0  0  0  0  0  0  0  0
   27.8050  147.3180    4.3610 C   0  0  0  0  0  0  0  0  0  0  0  0
   27.3370  143.9450    4.4600 N   0  0  0  0  0  0  0  0  0  0  0  0
   27.8730  142.6330    4.8560 C   0  0  0  0  0  0  0  0  0  0  0  0
   26.8380  141.8390    5.6210 C   0  0  0  0  0  0  0  0  0  0  0  0
   25.7250  142.3300    5.9000 O   0  0  0  0  0  0  0  0  0  0  0  0
   27.2200  140.6160    5.9750 N   0  0  0  0  0  0  0  0  0  0  0  0
   26.3990  139.7010    6.7530 C   0  0  0  0  0  0  0  0  0  0  0  0
   24.7605  148.3000   -3.1215 H   0  0  0  0  0  0  0  0  0  0  0  0
   23.0695  148.6978   -3.3088 H   0  0  0  0  0  0  0  0  0  0  0  0
   23.5415  147.0737   -2.8701 H   0  0  0  0  0  0  0  0  0  0  0  0
   21.7608  147.9158   -1.1473 H   0  0  0  0  0  0  0  0  0  0  0  0
   22.9064  149.6474    0.7891 H   0  0  0  0  0  0  0  0  0  0  0  0
   20.4459  147.8894    0.8924 H   0  0  0  0  0  0  0  0  0  0  0  0
   20.8881  149.1250    2.1175 H   0  0  0  0  0  0  0  0  0  0  0  0
   20.2930  149.8406   -0.7082 H   0  0  0  0  0  0  0  0  0  0  0  0
   18.4893  149.7168    1.7065 H   0  0  0  0  0  0  0  0  0  0  0  0
   18.3583  148.6986    0.2926 H   0  0  0  0  0  0  0  0  0  0  0  0
   18.0659  150.4163    0.1624 H   0  0  0  0  0  0  0  0  0  0  0  0
   20.4321  151.3492    1.8841 H   0  0  0  0  0  0  0  0  0  0  0  0
   20.0174  152.0281    0.3284 H   0  0  0  0  0  0  0  0  0  0  0  0
   21.6240  151.4004    0.6075 H   0  0  0  0  0  0  0  0  0  0  0  0
   23.2339  146.3461    0.3050 H   0  0  0  0  0  0  0  0  0  0  0  0
   23.5442  145.6694    3.1276 H   0  0  0  0  0  0  0  0  0  0  0  0
   23.9596  144.0181    0.6548 H   0  0  0  0  0  0  0  0  0  0  0  0
   22.5142  144.0400    1.6363 H   0  0  0  0  0  0  0  0  0  0  0  0
   24.0103  143.4257    2.2979 H   0  0  0  0  0  0  0  0  0  0  0  0
   25.4301  146.1794    4.1162 H   0  0  0  0  0  0  0  0  0  0  0  0
   27.8427  146.3225    2.4756 H   0  0  0  0  0  0  0  0  0  0  0  0
   27.4160  147.1413    5.3420 H   0  0  0  0  0  0  0  0  0  0  0  0
   27.3775  148.2150    3.9641 H   0  0  0  0  0  0  0  0  0  0  0  0
   28.8687  147.4223    4.4125 H   0  0  0  0  0  0  0  0  0  0  0  0
   26.3814  144.1419    4.5915 H   0  0  0  0  0  0  0  0  0  0  0  0
   28.7328  142.7780    5.4762 H   0  0  0  0  0  0  0  0  0  0  0  0
   28.1381  142.0900    3.9730 H   0  0  0  0  0  0  0  0  0  0  0  0
   28.1127  140.3109    5.6936 H   0  0  0  0  0  0  0  0  0  0  0  0
   25.4644  140.1683    6.9834 H   0  0  0  0  0  0  0  0  0  0  0  0
   26.9063  139.4511    7.6614 H   0  0  0  0  0  0  0  0  0  0  0  0
   26.2225  138.8106    6.1865 H   0  0  0  0  0  0  0  0  0  0  0  0
  1  2  1  0  0  0  0
  1 28  1  0  0  0  0
  1 29  1  0  0  0  0
  1 30  1  0  0  0  0
  2  3  2  0  0  0  0
  2  4  1  0  0  0  0
  4  5  1  0  0  0  0
  4 31  1  0  0  0  0
  5  8  1  0  0  0  0
  5  6  1  0  0  0  0
  5 32  1  1  0  0  0
  6  7  2  0  0  0  0
  8 33  1  0  0  0  0
  8 34  1  0  0  0  0
  9 10  1  0  0  0  0
  9 11  1  0  0  0  0
  9  8  1  0  0  0  0
  9 35  1  0  0  0  0
 10 36  1  0  0  0  0
 10 37  1  0  0  0  0
 10 38  1  0  0  0  0
 11 39  1  0  0  0  0
 11 40  1  0  0  0  0
 11 41  1  0  0  0  0
 12  6  1  0  0  0  0
 12 13  1  0  0  0  0
 12 42  1  0  0  0  0
 13 14  1  0  0  0  0
 13 43  1  1  0  0  0
 14 17  1  0  0  0  0
 15 14  2  0  0  0  0
 16 13  1  0  0  0  0
 16 44  1  0  0  0  0
 16 45  1  0  0  0  0
 16 46  1  0  0  0  0
 17 18  1  0  0  0  0
 17 47  1  0  0  0  0
 18 19  1  0  0  0  0
 18 21  1  0  0  0  0
 18 48  1  6  0  0  0
 19 22  1  0  0  0  0
 20 19  2  0  0  0  0
 21 49  1  0  0  0  0
 21 50  1  0  0  0  0
 21 51  1  0  0  0  0
 22 23  1  0  0  0  0
 22 52  1  0  0  0  0
 23 24  1  0  0  0  0
 23 53  1  0  0  0  0
 23 54  1  0  0  0  0
 24 25  2  0  0  0  0
 24 26  1  0  0  0  0
 26 27  1  0  0  0  0
 26 55  1  0  0  0  0
 27 56  1  0  0  0  0
 27 57  1  0  0  0  0
 27 58  1  0  0  0  0
M  END
>  <MODEL>
       0

$$$$
