selected_4mers/LAEV/290_noH.pdb
 OpenBabel03042517593D

 72 71  0  0  1  0  0  0  0  0999 V2000
   -9.4710   -5.4970  -16.8230 C   0  0  0  0  0  0  0  0  0  0  0  0
   -9.8670   -6.8870  -16.3620 C   0  0  0  0  0  0  0  0  0  0  0  0
   -9.2320   -7.4540  -15.4810 O   0  0  0  0  0  0  0  0  0  0  0  0
  -10.9050   -7.4520  -16.9670 N   0  0  0  0  0  0  0  0  0  0  0  0
  -11.3270   -8.8120  -16.6300 C   0  0  2  0  0  0  0  0  0  0  0  0
  -10.2320   -9.8160  -16.9740 C   0  0  0  0  0  0  0  0  0  0  0  0
   -9.9930  -10.7540  -16.2170 O   0  0  0  0  0  0  0  0  0  0  0  0
  -12.6300   -9.1650  -17.3370 C   0  0  0  0  0  0  0  0  0  0  0  0
  -13.2850  -10.4820  -16.9380 C   0  0  0  0  0  0  0  0  0  0  0  0
  -13.6100  -10.5150  -15.4620 C   0  0  0  0  0  0  0  0  0  0  0  0
  -14.5180  -10.7110  -17.7550 C   0  0  0  0  0  0  0  0  0  0  0  0
   -9.5340   -9.5920  -18.0920 N   0  0  0  0  0  0  0  0  0  0  0  0
   -8.3970  -10.4250  -18.4650 C   0  0  2  0  0  0  0  0  0  0  0  0
   -7.2790  -10.4140  -17.4040 C   0  0  0  0  0  0  0  0  0  0  0  0
   -6.6370  -11.4400  -17.1760 O   0  0  0  0  0  0  0  0  0  0  0  0
   -7.8570  -10.0070  -19.8470 C   0  0  0  0  0  0  0  0  0  0  0  0
   -7.0570   -9.2750  -16.7500 N   0  0  0  0  0  0  0  0  0  0  0  0
   -6.0660   -9.1910  -15.6650 C   0  0  2  0  0  0  0  0  0  0  0  0
   -6.4520  -10.0800  -14.4890 C   0  0  0  0  0  0  0  0  0  0  0  0
   -5.5830  -10.7220  -13.8930 O   0  0  0  0  0  0  0  0  0  0  0  0
   -5.8970   -7.7560  -15.1550 C   0  0  0  0  0  0  0  0  0  0  0  0
   -5.3660   -6.7650  -16.1750 C   0  0  0  0  0  0  0  0  0  0  0  0
   -5.3900   -5.3290  -15.6570 C   0  0  0  0  0  0  0  0  0  0  0  0
   -5.4800   -5.1250  -14.4210 O   0  0  0  0  0  0  0  0  0  0  0  0
   -5.3070   -4.4020  -16.4910 O   0  0  0  0  0  0  0  0  0  0  0  0
   -7.7490  -10.1280  -14.1770 N   0  0  0  0  0  0  0  0  0  0  0  0
   -8.2580  -11.0300  -13.1410 C   0  0  2  0  0  0  0  0  0  0  0  0
   -8.0080  -12.4680  -13.5940 C   0  0  0  0  0  0  0  0  0  0  0  0
   -7.5830  -13.3030  -12.8150 O   0  0  0  0  0  0  0  0  0  0  0  0
   -9.7590  -10.8040  -12.8500 C   0  0  0  0  0  0  0  0  0  0  0  0
  -10.2090  -11.6570  -11.6410 C   0  0  0  0  0  0  0  0  0  0  0  0
  -10.0240   -9.3310  -12.5650 C   0  0  0  0  0  0  0  0  0  0  0  0
   -8.2520  -12.7480  -14.8710 N   0  0  0  0  0  0  0  0  0  0  0  0
   -7.9380  -14.0570  -15.4400 C   0  0  0  0  0  0  0  0  0  0  0  0
  -10.1397   -5.1725  -17.5927 H   0  0  0  0  0  0  0  0  0  0  0  0
   -8.4716   -5.5190  -17.2046 H   0  0  0  0  0  0  0  0  0  0  0  0
   -9.5224   -4.8191  -15.9968 H   0  0  0  0  0  0  0  0  0  0  0  0
  -11.3988   -6.9478  -17.6535 H   0  0  0  0  0  0  0  0  0  0  0  0
  -11.5006   -8.8571  -15.5751 H   0  0  0  0  0  0  0  0  0  0  0  0
  -13.3302   -8.3806  -17.1389 H   0  0  0  0  0  0  0  0  0  0  0  0
  -12.3705   -9.2790  -18.3688 H   0  0  0  0  0  0  0  0  0  0  0  0
  -12.5882  -11.2707  -17.1310 H   0  0  0  0  0  0  0  0  0  0  0  0
  -14.3072   -9.7363  -15.2328 H   0  0  0  0  0  0  0  0  0  0  0  0
  -12.7137  -10.3692  -14.8961 H   0  0  0  0  0  0  0  0  0  0  0  0
  -14.0392  -11.4628  -15.2124 H   0  0  0  0  0  0  0  0  0  0  0  0
  -15.2207   -9.9261  -17.5678 H   0  0  0  0  0  0  0  0  0  0  0  0
  -14.9536  -11.6510  -17.4876 H   0  0  0  0  0  0  0  0  0  0  0  0
  -14.2611  -10.7196  -18.7937 H   0  0  0  0  0  0  0  0  0  0  0  0
   -9.7944   -8.8454  -18.6785 H   0  0  0  0  0  0  0  0  0  0  0  0
   -8.7483  -11.4341  -18.5216 H   0  0  0  0  0  0  0  0  0  0  0  0
   -7.5028   -8.9984  -19.8013 H   0  0  0  0  0  0  0  0  0  0  0  0
   -8.6405  -10.0774  -20.5723 H   0  0  0  0  0  0  0  0  0  0  0  0
   -7.0529  -10.6551  -20.1267 H   0  0  0  0  0  0  0  0  0  0  0  0
   -7.5676   -8.4707  -16.9981 H   0  0  0  0  0  0  0  0  0  0  0  0
   -5.1396   -9.5270  -16.0819 H   0  0  0  0  0  0  0  0  0  0  0  0
   -6.8527   -7.4084  -14.8224 H   0  0  0  0  0  0  0  0  0  0  0  0
   -5.1640   -7.8022  -14.3769 H   0  0  0  0  0  0  0  0  0  0  0  0
   -4.3568   -7.0268  -16.4157 H   0  0  0  0  0  0  0  0  0  0  0  0
   -5.9989   -6.8121  -17.0365 H   0  0  0  0  0  0  0  0  0  0  0  0
   -8.3795   -9.5424  -14.6553 H   0  0  0  0  0  0  0  0  0  0  0  0
   -7.7415  -10.8291  -12.2257 H   0  0  0  0  0  0  0  0  0  0  0  0
  -10.3183  -11.1013  -13.7124 H   0  0  0  0  0  0  0  0  0  0  0  0
   -9.6544  -11.3664  -10.7733 H   0  0  0  0  0  0  0  0  0  0  0  0
  -10.0307  -12.6915  -11.8483 H   0  0  0  0  0  0  0  0  0  0  0  0
  -11.2532  -11.5033  -11.4650 H   0  0  0  0  0  0  0  0  0  0  0  0
   -9.4667   -9.0286  -11.7031 H   0  0  0  0  0  0  0  0  0  0  0  0
  -11.0684   -9.1851  -12.3837 H   0  0  0  0  0  0  0  0  0  0  0  0
   -9.7230   -8.7448  -13.4080 H   0  0  0  0  0  0  0  0  0  0  0  0
   -8.6535  -12.0574  -15.4464 H   0  0  0  0  0  0  0  0  0  0  0  0
   -7.5112  -14.6817  -14.6834 H   0  0  0  0  0  0  0  0  0  0  0  0
   -7.2389  -13.9391  -16.2414 H   0  0  0  0  0  0  0  0  0  0  0  0
   -8.8340  -14.5085  -15.8118 H   0  0  0  0  0  0  0  0  0  0  0  0
  1  2  1  0  0  0  0
  1 35  1  0  0  0  0
  1 36  1  0  0  0  0
  1 37  1  0  0  0  0
  2  3  2  0  0  0  0
  4  5  1  0  0  0  0
  4  2  1  0  0  0  0
  4 38  1  0  0  0  0
  5 39  1  1  0  0  0
  6  5  1  0  0  0  0
  6  7  2  0  0  0  0
  8  9  1  0  0  0  0
  8  5  1  0  0  0  0
  8 40  1  0  0  0  0
  8 41  1  0  0  0  0
  9 10  1  0  0  0  0
  9 42  1  0  0  0  0
 10 43  1  0  0  0  0
 10 44  1  0  0  0  0
 10 45  1  0  0  0  0
 11  9  1  0  0  0  0
 11 46  1  0  0  0  0
 11 47  1  0  0  0  0
 11 48  1  0  0  0  0
 12  6  1  0  0  0  0
 12 49  1  0  0  0  0
 13 12  1  0  0  0  0
 13 14  1  0  0  0  0
 13 50  1  6  0  0  0
 14 15  2  0  0  0  0
 14 17  1  0  0  0  0
 16 13  1  0  0  0  0
 16 51  1  0  0  0  0
 16 52  1  0  0  0  0
 16 53  1  0  0  0  0
 17 18  1  0  0  0  0
 17 54  1  0  0  0  0
 18 21  1  0  0  0  0
 18 19  1  0  0  0  0
 18 55  1  6  0  0  0
 19 26  1  0  0  0  0
 19 20  2  0  0  0  0
 21 56  1  0  0  0  0
 21 57  1  0  0  0  0
 22 23  1  0  0  0  0
 22 21  1  0  0  0  0
 22 58  1  0  0  0  0
 22 59  1  0  0  0  0
 23 24  1  0  0  0  0
 25 23  2  0  0  0  0
 26 27  1  0  0  0  0
 26 60  1  0  0  0  0
 27 30  1  0  0  0  0
 27 61  1  1  0  0  0
 28 27  1  0  0  0  0
 28 29  2  0  0  0  0
 30 32  1  0  0  0  0
 30 31  1  0  0  0  0
 30 62  1  0  0  0  0
 31 63  1  0  0  0  0
 31 64  1  0  0  0  0
 31 65  1  0  0  0  0
 32 66  1  0  0  0  0
 32 67  1  0  0  0  0
 32 68  1  0  0  0  0
 33 28  1  0  0  0  0
 33 69  1  0  0  0  0
 34 33  1  0  0  0  0
 34 70  1  0  0  0  0
 34 71  1  0  0  0  0
 34 72  1  0  0  0  0
M  CHG  1  24  -1
M  END
>  <MODEL>
       0

$$$$
selected_4mers/LAEV/291_noH.pdb
 OpenBabel03042517593D

 72 71  0  0  1  0  0  0  0  0999 V2000
    1.4400   46.0120   26.6270 C   0  0  0  0  0  0  0  0  0  0  0  0
    1.1880   47.3580   27.3390 C   0  0  0  0  0  0  0  0  0  0  0  0
    0.6280   47.4030   28.4260 O   0  0  0  0  0  0  0  0  0  0  0  0
    1.6180   48.4410   26.6930 N   0  0  0  0  0  0  0  0  0  0  0  0
    1.3670   49.8030   27.1740 C   0  0  2  0  0  0  0  0  0  0  0  0
    0.8400   50.6460   25.9950 C   0  0  0  0  0  0  0  0  0  0  0  0
    0.7270   51.8770   26.1080 O   0  0  0  0  0  0  0  0  0  0  0  0
    2.6280   50.4440   27.7780 C   0  0  0  0  0  0  0  0  0  0  0  0
    3.0960   49.9330   29.1460 C   0  0  0  0  0  0  0  0  0  0  0  0
    4.4020   50.6160   29.5250 C   0  0  0  0  0  0  0  0  0  0  0  0
    2.0190   50.1670   30.2190 C   0  0  0  0  0  0  0  0  0  0  0  0
    0.5170   49.9910   24.8710 N   0  0  0  0  0  0  0  0  0  0  0  0
    0.0160   50.6950   23.6780 C   0  0  2  0  0  0  0  0  0  0  0  0
   -1.4990   50.8760   23.6830 C   0  0  0  0  0  0  0  0  0  0  0  0
   -2.2040   50.2500   24.4710 O   0  0  0  0  0  0  0  0  0  0  0  0
    0.4310   49.9450   22.4030 C   0  0  0  0  0  0  0  0  0  0  0  0
   -2.0010   51.7690   22.8330 N   0  0  0  0  0  0  0  0  0  0  0  0
   -3.4370   51.9410   22.7120 C   0  0  2  0  0  0  0  0  0  0  0  0
   -3.9160   50.7130   21.9370 C   0  0  0  0  0  0  0  0  0  0  0  0
   -4.9910   50.1680   22.2170 O   0  0  0  0  0  0  0  0  0  0  0  0
   -3.7780   53.2060   21.9410 C   0  0  0  0  0  0  0  0  0  0  0  0
   -3.6130   54.4750   22.7330 C   0  0  0  0  0  0  0  0  0  0  0  0
   -4.0520   55.6790   21.9430 C   0  0  0  0  0  0  0  0  0  0  0  0
   -3.2950   56.1070   21.0610 O   0  0  0  0  0  0  0  0  0  0  0  0
   -5.1620   56.1770   22.1950 O   0  0  0  0  0  0  0  0  0  0  0  0
   -3.1160   50.3200   20.9430 N   0  0  0  0  0  0  0  0  0  0  0  0
   -3.3660   49.1340   20.1270 C   0  0  2  0  0  0  0  0  0  0  0  0
   -2.0420   48.3630   20.1450 C   0  0  0  0  0  0  0  0  0  0  0  0
   -1.0090   48.8480   19.6370 O   0  0  0  0  0  0  0  0  0  0  0  0
   -3.7630   49.4750   18.6590 C   0  0  0  0  0  0  0  0  0  0  0  0
   -3.8410   48.2040   17.8140 C   0  0  0  0  0  0  0  0  0  0  0  0
   -5.1040   50.1930   18.6230 C   0  0  0  0  0  0  0  0  0  0  0  0
   -2.0700   47.1860   20.7650 N   0  0  0  0  0  0  0  0  0  0  0  0
   -0.8770   46.3630   20.8330 C   0  0  0  0  0  0  0  0  0  0  0  0
    1.9381   46.1884   25.6966 H   0  0  0  0  0  0  0  0  0  0  0  0
    0.5051   45.5246   26.4443 H   0  0  0  0  0  0  0  0  0  0  0  0
    2.0515   45.3898   27.2465 H   0  0  0  0  0  0  0  0  0  0  0  0
    2.1254   48.3217   25.8578 H   0  0  0  0  0  0  0  0  0  0  0  0
    0.6397   49.7645   27.9579 H   0  0  0  0  0  0  0  0  0  0  0  0
    2.4394   51.4928   27.8750 H   0  0  0  0  0  0  0  0  0  0  0  0
    3.4167   50.1812   27.1044 H   0  0  0  0  0  0  0  0  0  0  0  0
    3.2622   48.8778   29.0844 H   0  0  0  0  0  0  0  0  0  0  0  0
    4.2463   51.6727   29.5893 H   0  0  0  0  0  0  0  0  0  0  0  0
    5.1419   50.4091   28.7802 H   0  0  0  0  0  0  0  0  0  0  0  0
    4.7361   50.2464   30.4720 H   0  0  0  0  0  0  0  0  0  0  0  0
    1.8263   51.2157   30.3082 H   0  0  0  0  0  0  0  0  0  0  0  0
    2.3625   49.7863   31.1581 H   0  0  0  0  0  0  0  0  0  0  0  0
    1.1189   49.6617   29.9371 H   0  0  0  0  0  0  0  0  0  0  0  0
    0.6174   49.0121   24.8420 H   0  0  0  0  0  0  0  0  0  0  0  0
    0.4563   51.6700   23.6972 H   0  0  0  0  0  0  0  0  0  0  0  0
   -0.0169   48.9733   22.3990 H   0  0  0  0  0  0  0  0  0  0  0  0
    1.4962   49.8468   22.3777 H   0  0  0  0  0  0  0  0  0  0  0  0
    0.1028   50.4925   21.5443 H   0  0  0  0  0  0  0  0  0  0  0  0
   -1.3946   52.3160   22.2832 H   0  0  0  0  0  0  0  0  0  0  0  0
   -3.9026   52.0332   23.6710 H   0  0  0  0  0  0  0  0  0  0  0  0
   -4.7971   53.1399   21.6218 H   0  0  0  0  0  0  0  0  0  0  0  0
   -3.0901   53.2624   21.1234 H   0  0  0  0  0  0  0  0  0  0  0  0
   -2.5822   54.5889   22.9965 H   0  0  0  0  0  0  0  0  0  0  0  0
   -4.2245   54.4065   23.6084 H   0  0  0  0  0  0  0  0  0  0  0  0
   -2.3147   50.8582   20.7495 H   0  0  0  0  0  0  0  0  0  0  0  0
   -4.1907   48.5768   20.5198 H   0  0  0  0  0  0  0  0  0  0  0  0
   -3.0101   50.1178   18.2531 H   0  0  0  0  0  0  0  0  0  0  0  0
   -4.5923   47.5554   18.2138 H   0  0  0  0  0  0  0  0  0  0  0  0
   -2.8941   47.7059   17.8307 H   0  0  0  0  0  0  0  0  0  0  0  0
   -4.0912   48.4608   16.8058 H   0  0  0  0  0  0  0  0  0  0  0  0
   -5.8613   49.5547   19.0279 H   0  0  0  0  0  0  0  0  0  0  0  0
   -5.3493   50.4400   17.6112 H   0  0  0  0  0  0  0  0  0  0  0  0
   -5.0445   51.0892   19.2046 H   0  0  0  0  0  0  0  0  0  0  0  0
   -2.9055   46.8716   21.1802 H   0  0  0  0  0  0  0  0  0  0  0  0
   -0.0722   46.8595   20.3324 H   0  0  0  0  0  0  0  0  0  0  0  0
   -1.0653   45.4221   20.3595 H   0  0  0  0  0  0  0  0  0  0  0  0
   -0.6138   46.2004   21.8573 H   0  0  0  0  0  0  0  0  0  0  0  0
  1  2  1  0  0  0  0
  1 35  1  0  0  0  0
  1 36  1  0  0  0  0
  1 37  1  0  0  0  0
  2  3  2  0  0  0  0
  4  5  1  0  0  0  0
  4  2  1  0  0  0  0
  4 38  1  0  0  0  0
  5  8  1  0  0  0  0
  5 39  1  1  0  0  0
  6  7  2  0  0  0  0
  6  5  1  0  0  0  0
  8  9  1  0  0  0  0
  8 40  1  0  0  0  0
  8 41  1  0  0  0  0
  9 10  1  0  0  0  0
  9 11  1  0  0  0  0
  9 42  1  0  0  0  0
 10 43  1  0  0  0  0
 10 44  1  0  0  0  0
 10 45  1  0  0  0  0
 11 46  1  0  0  0  0
 11 47  1  0  0  0  0
 11 48  1  0  0  0  0
 12  6  1  0  0  0  0
 12 49  1  0  0  0  0
 13 14  1  0  0  0  0
 13 12  1  0  0  0  0
 13 50  1  6  0  0  0
 14 15  2  0  0  0  0
 16 13  1  0  0  0  0
 16 51  1  0  0  0  0
 16 52  1  0  0  0  0
 16 53  1  0  0  0  0
 17 14  1  0  0  0  0
 17 54  1  0  0  0  0
 18 17  1  0  0  0  0
 18 55  1  1  0  0  0
 19 20  2  0  0  0  0
 19 18  1  0  0  0  0
 21 18  1  0  0  0  0
 21 22  1  0  0  0  0
 21 56  1  0  0  0  0
 21 57  1  0  0  0  0
 22 58  1  0  0  0  0
 22 59  1  0  0  0  0
 23 25  1  0  0  0  0
 23 22  1  0  0  0  0
 24 23  2  0  0  0  0
 26 19  1  0  0  0  0
 26 60  1  0  0  0  0
 27 28  1  0  0  0  0
 27 26  1  0  0  0  0
 27 61  1  1  0  0  0
 28 33  1  0  0  0  0
 29 28  2  0  0  0  0
 30 27  1  0  0  0  0
 30 62  1  0  0  0  0
 31 30  1  0  0  0  0
 31 63  1  0  0  0  0
 31 64  1  0  0  0  0
 31 65  1  0  0  0  0
 32 30  1  0  0  0  0
 32 66  1  0  0  0  0
 32 67  1  0  0  0  0
 32 68  1  0  0  0  0
 33 34  1  0  0  0  0
 33 69  1  0  0  0  0
 34 70  1  0  0  0  0
 34 71  1  0  0  0  0
 34 72  1  0  0  0  0
M  CHG  1  25  -1
M  END
>  <MODEL>
       0

$$$$
selected_4mers/LAEV/292_noH.pdb
 OpenBabel03042517593D

 72 71  0  0  1  0  0  0  0  0999 V2000
    3.9250    5.0640   -8.7030 C   0  0  0  0  0  0  0  0  0  0  0  0
    3.6820    3.6660   -8.1060 C   0  0  0  0  0  0  0  0  0  0  0  0
    4.5090    2.7770   -8.2920 O   0  0  0  0  0  0  0  0  0  0  0  0
    2.5670    3.4690   -7.3850 N   0  0  0  0  0  0  0  0  0  0  0  0
    2.2620    2.1300   -6.8430 C   0  0  2  0  0  0  0  0  0  0  0  0
    2.1670    1.0630   -7.9370 C   0  0  0  0  0  0  0  0  0  0  0  0
    2.5500   -0.1070   -7.7310 O   0  0  0  0  0  0  0  0  0  0  0  0
    1.0020    2.1060   -5.9460 C   0  0  0  0  0  0  0  0  0  0  0  0
    1.0870    2.6160   -4.5220 C   0  0  0  0  0  0  0  0  0  0  0  0
   -0.3290    2.7080   -3.8970 C   0  0  0  0  0  0  0  0  0  0  0  0
    2.0260    1.7410   -3.6420 C   0  0  0  0  0  0  0  0  0  0  0  0
    1.6820    1.4720   -9.1120 N   0  0  0  0  0  0  0  0  0  0  0  0
    1.5820    0.5530  -10.2390 C   0  0  2  0  0  0  0  0  0  0  0  0
    2.9100   -0.0880  -10.6240 C   0  0  0  0  0  0  0  0  0  0  0  0
    2.8950   -1.1980  -11.1470 O   0  0  0  0  0  0  0  0  0  0  0  0
    0.9390    1.2470  -11.4480 C   0  0  0  0  0  0  0  0  0  0  0  0
    4.0500    0.5730  -10.3680 N   0  0  0  0  0  0  0  0  0  0  0  0
    5.3550    0.0080  -10.7530 C   0  0  2  0  0  0  0  0  0  0  0  0
    6.0990   -0.8590   -9.7230 C   0  0  0  0  0  0  0  0  0  0  0  0
    7.2240   -1.3080   -9.9840 O   0  0  0  0  0  0  0  0  0  0  0  0
    6.3400    1.0430  -11.2840 C   0  0  0  0  0  0  0  0  0  0  0  0
    6.0770    2.4590  -11.0290 C   0  0  0  0  0  0  0  0  0  0  0  0
    5.0640    3.0470  -11.9940 C   0  0  0  0  0  0  0  0  0  0  0  0
    4.8270    4.2620  -11.8940 O   0  0  0  0  0  0  0  0  0  0  0  0
    4.4950    2.3120  -12.8370 O   0  0  0  0  0  0  0  0  0  0  0  0
    5.5080   -1.0630   -8.5590 N   0  0  0  0  0  0  0  0  0  0  0  0
    6.1760   -1.8750   -7.5460 C   0  0  2  0  0  0  0  0  0  0  0  0
    6.0080   -3.3520   -7.9930 C   0  0  0  0  0  0  0  0  0  0  0  0
    4.9050   -3.7140   -8.4580 O   0  0  0  0  0  0  0  0  0  0  0  0
    5.5400   -1.6580   -6.1670 C   0  0  0  0  0  0  0  0  0  0  0  0
    6.1960   -2.5790   -5.1040 C   0  0  0  0  0  0  0  0  0  0  0  0
    5.6300   -0.1710   -5.7690 C   0  0  0  0  0  0  0  0  0  0  0  0
    7.0780   -4.1770   -7.8900 N   0  0  0  0  0  0  0  0  0  0  0  0
    6.9040   -5.6120   -8.2190 C   0  0  0  0  0  0  0  0  0  0  0  0
    4.8468    5.0645   -9.2463 H   0  0  0  0  0  0  0  0  0  0  0  0
    3.9757    5.7849   -7.9139 H   0  0  0  0  0  0  0  0  0  0  0  0
    3.1214    5.3143   -9.3637 H   0  0  0  0  0  0  0  0  0  0  0  0
    1.9515    4.2188   -7.2173 H   0  0  0  0  0  0  0  0  0  0  0  0
    3.0962    1.8878   -6.2183 H   0  0  0  0  0  0  0  0  0  0  0  0
    0.6781    1.0876   -5.8925 H   0  0  0  0  0  0  0  0  0  0  0  0
    0.3430    2.8018   -6.4219 H   0  0  0  0  0  0  0  0  0  0  0  0
    1.5143    3.5964   -4.5554 H   0  0  0  0  0  0  0  0  0  0  0  0
   -0.7661    1.7321   -3.8587 H   0  0  0  0  0  0  0  0  0  0  0  0
   -0.9417    3.3500   -4.4948 H   0  0  0  0  0  0  0  0  0  0  0  0
   -0.2564    3.1054   -2.9062 H   0  0  0  0  0  0  0  0  0  0  0  0
    1.6342    0.7471   -3.5815 H   0  0  0  0  0  0  0  0  0  0  0  0
    2.0875    2.1606   -2.6596 H   0  0  0  0  0  0  0  0  0  0  0  0
    3.0019    1.7136   -4.0798 H   0  0  0  0  0  0  0  0  0  0  0  0
    1.3884    2.4057   -9.2184 H   0  0  0  0  0  0  0  0  0  0  0  0
    0.9510   -0.2484   -9.9158 H   0  0  0  0  0  0  0  0  0  0  0  0
    1.5671    2.0494  -11.7744 H   0  0  0  0  0  0  0  0  0  0  0  0
   -0.0186    1.6345  -11.1692 H   0  0  0  0  0  0  0  0  0  0  0  0
    0.8203    0.5409  -12.2431 H   0  0  0  0  0  0  0  0  0  0  0  0
    4.0135    1.4473   -9.9168 H   0  0  0  0  0  0  0  0  0  0  0  0
    5.0305   -0.6552  -11.5275 H   0  0  0  0  0  0  0  0  0  0  0  0
    7.2945    0.8180  -10.8559 H   0  0  0  0  0  0  0  0  0  0  0  0
    6.2639    0.9522  -12.3474 H   0  0  0  0  0  0  0  0  0  0  0  0
    5.7020    2.5639  -10.0324 H   0  0  0  0  0  0  0  0  0  0  0  0
    6.9971    2.9888  -11.1621 H   0  0  0  0  0  0  0  0  0  0  0  0
    4.6239   -0.6704   -8.3761 H   0  0  0  0  0  0  0  0  0  0  0  0
    7.2084   -1.6076   -7.4588 H   0  0  0  0  0  0  0  0  0  0  0  0
    4.5046   -1.9232   -6.2180 H   0  0  0  0  0  0  0  0  0  0  0  0
    7.2368   -2.3445   -5.0224 H   0  0  0  0  0  0  0  0  0  0  0  0
    6.0828   -3.6012   -5.3991 H   0  0  0  0  0  0  0  0  0  0  0  0
    5.7207   -2.4263   -4.1576 H   0  0  0  0  0  0  0  0  0  0  0  0
    6.6577    0.1210   -5.7107 H   0  0  0  0  0  0  0  0  0  0  0  0
    5.1639   -0.0279   -4.8165 H   0  0  0  0  0  0  0  0  0  0  0  0
    5.1308    0.4257   -6.5036 H   0  0  0  0  0  0  0  0  0  0  0  0
    7.9534   -3.8304   -7.6024 H   0  0  0  0  0  0  0  0  0  0  0  0
    5.8895   -5.7912   -8.5080 H   0  0  0  0  0  0  0  0  0  0  0  0
    7.1407   -6.2059   -7.3610 H   0  0  0  0  0  0  0  0  0  0  0  0
    7.5563   -5.8747   -9.0255 H   0  0  0  0  0  0  0  0  0  0  0  0
  1  2  1  0  0  0  0
  1 35  1  0  0  0  0
  1 36  1  0  0  0  0
  1 37  1  0  0  0  0
  2  4  1  0  0  0  0
  3  2  2  0  0  0  0
  4  5  1  0  0  0  0
  4 38  1  0  0  0  0
  5  8  1  0  0  0  0
  5 39  1  1  0  0  0
  6  7  2  0  0  0  0
  6  5  1  0  0  0  0
  8  9  1  0  0  0  0
  8 40  1  0  0  0  0
  8 41  1  0  0  0  0
  9 10  1  0  0  0  0
  9 11  1  0  0  0  0
  9 42  1  0  0  0  0
 10 43  1  0  0  0  0
 10 44  1  0  0  0  0
 10 45  1  0  0  0  0
 11 46  1  0  0  0  0
 11 47  1  0  0  0  0
 11 48  1  0  0  0  0
 12  6  1  0  0  0  0
 12 49  1  0  0  0  0
 13 12  1  0  0  0  0
 13 50  1  1  0  0  0
 14 17  1  0  0  0  0
 14 13  1  0  0  0  0
 15 14  2  0  0  0  0
 16 13  1  0  0  0  0
 16 51  1  0  0  0  0
 16 52  1  0  0  0  0
 16 53  1  0  0  0  0
 17 54  1  0  0  0  0
 18 17  1  0  0  0  0
 18 19  1  0  0  0  0
 18 55  1  6  0  0  0
 19 26  1  0  0  0  0
 20 19  2  0  0  0  0
 21 22  1  0  0  0  0
 21 18  1  0  0  0  0
 21 56  1  0  0  0  0
 21 57  1  0  0  0  0
 22 58  1  0  0  0  0
 22 59  1  0  0  0  0
 23 24  1  0  0  0  0
 23 22  1  0  0  0  0
 25 23  2  0  0  0  0
 26 27  1  0  0  0  0
 26 60  1  0  0  0  0
 27 30  1  0  0  0  0
 27 61  1  1  0  0  0
 28 33  1  0  0  0  0
 28 27  1  0  0  0  0
 29 28  2  0  0  0  0
 30 32  1  0  0  0  0
 30 31  1  0  0  0  0
 30 62  1  0  0  0  0
 31 63  1  0  0  0  0
 31 64  1  0  0  0  0
 31 65  1  0  0  0  0
 32 66  1  0  0  0  0
 32 67  1  0  0  0  0
 32 68  1  0  0  0  0
 33 69  1  0  0  0  0
 34 33  1  0  0  0  0
 34 70  1  0  0  0  0
 34 71  1  0  0  0  0
 34 72  1  0  0  0  0
M  CHG  1  24  -1
M  END
>  <MODEL>
       0

$$$$
selected_4mers/LAEV/293_noH.pdb
 OpenBabel03042517593D

 72 71  0  0  1  0  0  0  0  0999 V2000
   59.6060    4.0130   20.9130 C   0  0  0  0  0  0  0  0  0  0  0  0
   60.5860    2.8490   20.9960 C   0  0  0  0  0  0  0  0  0  0  0  0
   61.7420    3.0200   21.3490 O   0  0  0  0  0  0  0  0  0  0  0  0
   60.1130    1.6590   20.6580 N   0  0  0  0  0  0  0  0  0  0  0  0
   60.9310    0.4640   20.7730 C   0  0  2  0  0  0  0  0  0  0  0  0
   61.9260    0.3530   19.6230 C   0  0  0  0  0  0  0  0  0  0  0  0
   61.5500    0.4360   18.4540 O   0  0  0  0  0  0  0  0  0  0  0  0
   60.0270   -0.7670   20.8030 C   0  0  0  0  0  0  0  0  0  0  0  0
   60.6960   -2.1220   21.0150 C   0  0  0  0  0  0  0  0  0  0  0  0
   61.5930   -2.1140   22.2540 C   0  0  0  0  0  0  0  0  0  0  0  0
   59.6170   -3.1780   21.1500 C   0  0  0  0  0  0  0  0  0  0  0  0
   63.1960    0.1550   19.9630 N   0  0  0  0  0  0  0  0  0  0  0  0
   64.2470    0.0140   18.9650 C   0  0  2  0  0  0  0  0  0  0  0  0
   64.6390   -1.4510   18.7620 C   0  0  0  0  0  0  0  0  0  0  0  0
   64.6970   -1.9380   17.6340 O   0  0  0  0  0  0  0  0  0  0  0  0
   65.4620    0.8420   19.3550 C   0  0  0  0  0  0  0  0  0  0  0  0
   64.9060   -2.1610   19.8480 N   0  0  0  0  0  0  0  0  0  0  0  0
   65.3150   -3.5490   19.7100 C   0  0  2  0  0  0  0  0  0  0  0  0
   64.8520   -4.4070   20.8760 C   0  0  0  0  0  0  0  0  0  0  0  0
   64.6520   -3.9180   21.9840 O   0  0  0  0  0  0  0  0  0  0  0  0
   66.8310   -3.6480   19.5410 C   0  0  0  0  0  0  0  0  0  0  0  0
   67.6160   -3.4260   20.8040 C   0  0  0  0  0  0  0  0  0  0  0  0
   69.1120   -3.5110   20.5670 C   0  0  0  0  0  0  0  0  0  0  0  0
   69.7390   -4.4840   21.0410 O   0  0  0  0  0  0  0  0  0  0  0  0
   69.6520   -2.6100   19.8920 O   0  0  0  0  0  0  0  0  0  0  0  0
   64.6790   -5.6940   20.6040 N   0  0  0  0  0  0  0  0  0  0  0  0
   64.2990   -6.6540   21.6260 C   0  0  2  0  0  0  0  0  0  0  0  0
   65.2150   -7.8670   21.5240 C   0  0  0  0  0  0  0  0  0  0  0  0
   65.5170   -8.3270   20.4270 O   0  0  0  0  0  0  0  0  0  0  0  0
   62.8420   -7.0980   21.4400 C   0  0  0  0  0  0  0  0  0  0  0  0
   62.4440   -8.1000   22.5150 C   0  0  0  0  0  0  0  0  0  0  0  0
   61.9280   -5.8910   21.4870 C   0  0  0  0  0  0  0  0  0  0  0  0
   65.6680   -8.3600   22.6690 N   0  0  0  0  0  0  0  0  0  0  0  0
   66.5020   -9.5490   22.7180 C   0  0  0  0  0  0  0  0  0  0  0  0
   58.6526    3.6539   20.5858 H   0  0  0  0  0  0  0  0  0  0  0  0
   59.9720    4.7384   20.2168 H   0  0  0  0  0  0  0  0  0  0  0  0
   59.5053    4.4640   21.8781 H   0  0  0  0  0  0  0  0  0  0  0  0
   59.1905    1.5829   20.3228 H   0  0  0  0  0  0  0  0  0  0  0  0
   61.4921    0.5266   21.6819 H   0  0  0  0  0  0  0  0  0  0  0  0
   59.5082   -0.8075   19.8681 H   0  0  0  0  0  0  0  0  0  0  0  0
   59.4053   -0.6302   21.6631 H   0  0  0  0  0  0  0  0  0  0  0  0
   61.3202   -2.3396   20.1736 H   0  0  0  0  0  0  0  0  0  0  0  0
   61.0028   -1.8990   23.1202 H   0  0  0  0  0  0  0  0  0  0  0  0
   62.3487   -1.3648   22.1424 H   0  0  0  0  0  0  0  0  0  0  0  0
   62.0550   -3.0726   22.3661 H   0  0  0  0  0  0  0  0  0  0  0  0
   58.9993   -2.9509   21.9936 H   0  0  0  0  0  0  0  0  0  0  0  0
   60.0715   -4.1367   21.2885 H   0  0  0  0  0  0  0  0  0  0  0  0
   59.0185   -3.1918   20.2631 H   0  0  0  0  0  0  0  0  0  0  0  0
   63.4327    0.1022   20.9172 H   0  0  0  0  0  0  0  0  0  0  0  0
   63.8638    0.3778   18.0346 H   0  0  0  0  0  0  0  0  0  0  0  0
   65.8529    0.4856   20.2851 H   0  0  0  0  0  0  0  0  0  0  0  0
   65.1763    1.8680   19.4579 H   0  0  0  0  0  0  0  0  0  0  0  0
   66.2115    0.7548   18.5963 H   0  0  0  0  0  0  0  0  0  0  0  0
   64.8281   -1.7524   20.7403 H   0  0  0  0  0  0  0  0  0  0  0  0
   64.8400   -3.9302   18.8302 H   0  0  0  0  0  0  0  0  0  0  0  0
   67.1359   -2.9138   18.8248 H   0  0  0  0  0  0  0  0  0  0  0  0
   67.0370   -4.6500   19.2274 H   0  0  0  0  0  0  0  0  0  0  0  0
   67.3369   -4.1711   21.5194 H   0  0  0  0  0  0  0  0  0  0  0  0
   67.3939   -2.4424   21.1620 H   0  0  0  0  0  0  0  0  0  0  0  0
   64.8123   -6.0083   19.6806 H   0  0  0  0  0  0  0  0  0  0  0  0
   64.3925   -6.1956   22.5883 H   0  0  0  0  0  0  0  0  0  0  0  0
   62.7479   -7.5737   20.4862 H   0  0  0  0  0  0  0  0  0  0  0  0
   62.5314   -7.6429   23.4785 H   0  0  0  0  0  0  0  0  0  0  0  0
   63.0891   -8.9522   22.4647 H   0  0  0  0  0  0  0  0  0  0  0  0
   61.4318   -8.4091   22.3573 H   0  0  0  0  0  0  0  0  0  0  0  0
   62.0187   -5.4118   22.4394 H   0  0  0  0  0  0  0  0  0  0  0  0
   60.9155   -6.2044   21.3404 H   0  0  0  0  0  0  0  0  0  0  0  0
   62.2042   -5.2042   20.7144 H   0  0  0  0  0  0  0  0  0  0  0  0
   65.4322   -7.9069   23.5107 H   0  0  0  0  0  0  0  0  0  0  0  0
   66.6618   -9.9138   21.7249 H   0  0  0  0  0  0  0  0  0  0  0  0
   66.0148  -10.3026   23.3007 H   0  0  0  0  0  0  0  0  0  0  0  0
   67.4435   -9.3061   23.1645 H   0  0  0  0  0  0  0  0  0  0  0  0
  1  2  1  0  0  0  0
  1 35  1  0  0  0  0
  1 36  1  0  0  0  0
  1 37  1  0  0  0  0
  2  3  2  0  0  0  0
  4  5  1  0  0  0  0
  4  2  1  0  0  0  0
  4 38  1  0  0  0  0
  5  8  1  0  0  0  0
  5 39  1  1  0  0  0
  6 12  1  0  0  0  0
  6  5  1  0  0  0  0
  7  6  2  0  0  0  0
  8  9  1  0  0  0  0
  8 40  1  0  0  0  0
  8 41  1  0  0  0  0
  9 11  1  0  0  0  0
  9 10  1  0  0  0  0
  9 42  1  0  0  0  0
 10 43  1  0  0  0  0
 10 44  1  0  0  0  0
 10 45  1  0  0  0  0
 11 46  1  0  0  0  0
 11 47  1  0  0  0  0
 11 48  1  0  0  0  0
 12 49  1  0  0  0  0
 13 16  1  0  0  0  0
 13 12  1  0  0  0  0
 13 50  1  6  0  0  0
 14 13  1  0  0  0  0
 14 17  1  0  0  0  0
 15 14  2  0  0  0  0
 16 51  1  0  0  0  0
 16 52  1  0  0  0  0
 16 53  1  0  0  0  0
 17 54  1  0  0  0  0
 18 17  1  0  0  0  0
 18 19  1  0  0  0  0
 18 55  1  6  0  0  0
 19 20  2  0  0  0  0
 21 18  1  0  0  0  0
 21 22  1  0  0  0  0
 21 56  1  0  0  0  0
 21 57  1  0  0  0  0
 22 58  1  0  0  0  0
 22 59  1  0  0  0  0
 23 22  1  0  0  0  0
 23 24  1  0  0  0  0
 25 23  2  0  0  0  0
 26 19  1  0  0  0  0
 26 27  1  0  0  0  0
 26 60  1  0  0  0  0
 27 61  1  1  0  0  0
 28 27  1  0  0  0  0
 28 33  1  0  0  0  0
 29 28  2  0  0  0  0
 30 32  1  0  0  0  0
 30 27  1  0  0  0  0
 30 31  1  0  0  0  0
 30 62  1  0  0  0  0
 31 63  1  0  0  0  0
 31 64  1  0  0  0  0
 31 65  1  0  0  0  0
 32 66  1  0  0  0  0
 32 67  1  0  0  0  0
 32 68  1  0  0  0  0
 33 34  1  0  0  0  0
 33 69  1  0  0  0  0
 34 70  1  0  0  0  0
 34 71  1  0  0  0  0
 34 72  1  0  0  0  0
M  CHG  1  24  -1
M  END
>  <MODEL>
       0

$$$$
selected_4mers/LAEV/294_noH.pdb
 OpenBabel03042517593D

 72 71  0  0  1  0  0  0  0  0999 V2000
   14.1290   -2.1080   11.0250 C   0  0  0  0  0  0  0  0  0  0  0  0
   15.2430   -1.4230   10.2260 C   0  0  0  0  0  0  0  0  0  0  0  0
   15.9430   -0.5530   10.7310 O   0  0  0  0  0  0  0  0  0  0  0  0
   15.4220   -1.8890    8.9890 N   0  0  0  0  0  0  0  0  0  0  0  0
   16.3510   -1.3470    8.0470 C   0  0  2  0  0  0  0  0  0  0  0  0
   15.6010   -0.5330    7.0010 C   0  0  0  0  0  0  0  0  0  0  0  0
   14.6500   -1.0320    6.3870 O   0  0  0  0  0  0  0  0  0  0  0  0
   16.9940   -2.5130    7.3210 C   0  0  0  0  0  0  0  0  0  0  0  0
   17.9120   -2.2210    6.1420 C   0  0  0  0  0  0  0  0  0  0  0  0
   19.1240   -1.3520    6.5060 C   0  0  0  0  0  0  0  0  0  0  0  0
   18.3770   -3.5710    5.6030 C   0  0  0  0  0  0  0  0  0  0  0  0
   16.0290    0.7000    6.8130 N   0  0  0  0  0  0  0  0  0  0  0  0
   15.5790    1.5680    5.7580 C   0  0  2  0  0  0  0  0  0  0  0  0
   16.7790    1.7580    4.8520 C   0  0  0  0  0  0  0  0  0  0  0  0
   17.7760    2.3310    5.2860 O   0  0  0  0  0  0  0  0  0  0  0  0
   15.1360    2.9520    6.3350 C   0  0  0  0  0  0  0  0  0  0  0  0
   16.6940    1.2660    3.6210 N   0  0  0  0  0  0  0  0  0  0  0  0
   17.7780    1.3240    2.6400 C   0  0  2  0  0  0  0  0  0  0  0  0
   17.3500    2.1530    1.4540 C   0  0  0  0  0  0  0  0  0  0  0  0
   16.3110    1.8770    0.8740 O   0  0  0  0  0  0  0  0  0  0  0  0
   18.0750   -0.0900    2.1090 C   0  0  0  0  0  0  0  0  0  0  0  0
   19.1950   -0.1190    1.0950 C   0  0  0  0  0  0  0  0  0  0  0  0
   19.3300   -1.4380    0.3410 C   0  0  0  0  0  0  0  0  0  0  0  0
   18.6190   -2.3920    0.6610 O   0  0  0  0  0  0  0  0  0  0  0  0
   20.2240   -1.5450   -0.5380 O   0  0  0  0  0  0  0  0  0  0  0  0
   18.1220    3.1630    1.1000 N   0  0  0  0  0  0  0  0  0  0  0  0
   17.8420    3.9550   -0.0870 C   0  0  2  0  0  0  0  0  0  0  0  0
   18.4790    3.2880   -1.3010 C   0  0  0  0  0  0  0  0  0  0  0  0
   19.6790    3.0160   -1.3110 O   0  0  0  0  0  0  0  0  0  0  0  0
   18.3550    5.3950    0.0500 C   0  0  0  0  0  0  0  0  0  0  0  0
   18.2480    6.1550   -1.2920 C   0  0  0  0  0  0  0  0  0  0  0  0
   17.5960    6.1280    1.1120 C   0  0  0  0  0  0  0  0  0  0  0  0
   17.6650    3.0780   -2.3450 N   0  0  0  0  0  0  0  0  0  0  0  0
   18.1070    2.3800   -3.5500 C   0  0  0  0  0  0  0  0  0  0  0  0
   13.6400   -2.8316   10.4069 H   0  0  0  0  0  0  0  0  0  0  0  0
   13.4186   -1.3754   11.3468 H   0  0  0  0  0  0  0  0  0  0  0  0
   14.5506   -2.5953   11.8792 H   0  0  0  0  0  0  0  0  0  0  0  0
   14.8773   -2.6585    8.7054 H   0  0  0  0  0  0  0  0  0  0  0  0
   17.0680   -0.7347    8.5528 H   0  0  0  0  0  0  0  0  0  0  0  0
   17.5696   -3.0548    8.0422 H   0  0  0  0  0  0  0  0  0  0  0  0
   16.1685   -3.0361    6.8854 H   0  0  0  0  0  0  0  0  0  0  0  0
   17.3684   -1.6564    5.4136 H   0  0  0  0  0  0  0  0  0  0  0  0
   19.7191   -1.8582    7.2372 H   0  0  0  0  0  0  0  0  0  0  0  0
   18.7865   -0.4183    6.9051 H   0  0  0  0  0  0  0  0  0  0  0  0
   19.7112   -1.1738    5.6295 H   0  0  0  0  0  0  0  0  0  0  0  0
   18.9133   -4.0944    6.3668 H   0  0  0  0  0  0  0  0  0  0  0  0
   19.0170   -3.4170    4.7595 H   0  0  0  0  0  0  0  0  0  0  0  0
   17.5267   -4.1481    5.3049 H   0  0  0  0  0  0  0  0  0  0  0  0
   16.7036    1.0509    7.4383 H   0  0  0  0  0  0  0  0  0  0  0  0
   14.7392    1.1517    5.2419 H   0  0  0  0  0  0  0  0  0  0  0  0
   15.9548    3.3983    6.8596 H   0  0  0  0  0  0  0  0  0  0  0  0
   14.3155    2.8120    7.0073 H   0  0  0  0  0  0  0  0  0  0  0  0
   14.8345    3.5928    5.5329 H   0  0  0  0  0  0  0  0  0  0  0  0
   15.8501    0.8361    3.3524 H   0  0  0  0  0  0  0  0  0  0  0  0
   18.6379    1.7468    3.1161 H   0  0  0  0  0  0  0  0  0  0  0  0
   18.3469   -0.7138    2.9348 H   0  0  0  0  0  0  0  0  0  0  0  0
   17.1907   -0.4388    1.6178 H   0  0  0  0  0  0  0  0  0  0  0  0
   19.0196    0.6581    0.3807 H   0  0  0  0  0  0  0  0  0  0  0  0
   20.1050    0.0139    1.6420 H   0  0  0  0  0  0  0  0  0  0  0  0
   18.9059    3.3855    1.6525 H   0  0  0  0  0  0  0  0  0  0  0  0
   16.7802    4.0043   -0.2098 H   0  0  0  0  0  0  0  0  0  0  0  0
   19.3863    5.3463    0.3309 H   0  0  0  0  0  0  0  0  0  0  0  0
   17.2214    6.2130   -1.5882 H   0  0  0  0  0  0  0  0  0  0  0  0
   18.8067    5.6350   -2.0419 H   0  0  0  0  0  0  0  0  0  0  0  0
   18.6418    7.1430   -1.1748 H   0  0  0  0  0  0  0  0  0  0  0  0
   16.5627    6.1816    0.8393 H   0  0  0  0  0  0  0  0  0  0  0  0
   17.9899    7.1177    1.2132 H   0  0  0  0  0  0  0  0  0  0  0  0
   17.6929    5.6086    2.0425 H   0  0  0  0  0  0  0  0  0  0  0  0
   16.7377    3.4053   -2.2982 H   0  0  0  0  0  0  0  0  0  0  0  0
   19.1318    2.0925   -3.4400 H   0  0  0  0  0  0  0  0  0  0  0  0
   18.0074    3.0289   -4.3949 H   0  0  0  0  0  0  0  0  0  0  0  0
   17.5056    1.5074   -3.6976 H   0  0  0  0  0  0  0  0  0  0  0  0
  1 35  1  0  0  0  0
  1 36  1  0  0  0  0
  1 37  1  0  0  0  0
  2  3  2  0  0  0  0
  2  1  1  0  0  0  0
  4  2  1  0  0  0  0
  4 38  1  0  0  0  0
  5  4  1  0  0  0  0
  5 39  1  1  0  0  0
  6  5  1  0  0  0  0
  7  6  2  0  0  0  0
  8  5  1  0  0  0  0
  8 40  1  0  0  0  0
  8 41  1  0  0  0  0
  9 10  1  0  0  0  0
  9  8  1  0  0  0  0
  9 42  1  0  0  0  0
 10 43  1  0  0  0  0
 10 44  1  0  0  0  0
 10 45  1  0  0  0  0
 11  9  1  0  0  0  0
 11 46  1  0  0  0  0
 11 47  1  0  0  0  0
 11 48  1  0  0  0  0
 12  6  1  0  0  0  0
 12 49  1  0  0  0  0
 13 16  1  0  0  0  0
 13 12  1  0  0  0  0
 13 50  1  6  0  0  0
 14 15  2  0  0  0  0
 14 13  1  0  0  0  0
 16 51  1  0  0  0  0
 16 52  1  0  0  0  0
 16 53  1  0  0  0  0
 17 14  1  0  0  0  0
 17 54  1  0  0  0  0
 18 17  1  0  0  0  0
 18 55  1  1  0  0  0
 19 18  1  0  0  0  0
 20 19  2  0  0  0  0
 21 18  1  0  0  0  0
 21 56  1  0  0  0  0
 21 57  1  0  0  0  0
 22 21  1  0  0  0  0
 22 58  1  0  0  0  0
 22 59  1  0  0  0  0
 23 24  1  0  0  0  0
 23 22  1  0  0  0  0
 25 23  2  0  0  0  0
 26 19  1  0  0  0  0
 26 60  1  0  0  0  0
 27 30  1  0  0  0  0
 27 26  1  0  0  0  0
 27 61  1  6  0  0  0
 28 27  1  0  0  0  0
 29 28  2  0  0  0  0
 30 32  1  0  0  0  0
 30 62  1  0  0  0  0
 31 30  1  0  0  0  0
 31 63  1  0  0  0  0
 31 64  1  0  0  0  0
 31 65  1  0  0  0  0
 32 66  1  0  0  0  0
 32 67  1  0  0  0  0
 32 68  1  0  0  0  0
 33 28  1  0  0  0  0
 33 69  1  0  0  0  0
 34 33  1  0  0  0  0
 34 70  1  0  0  0  0
 34 71  1  0  0  0  0
 34 72  1  0  0  0  0
M  CHG  1  24  -1
M  END
>  <MODEL>
       0

$$$$
