selected_4mers/LAKE/210_noH.pdb
 OpenBabel03042517503D

 77 76  0  0  1  0  0  0  0  0999 V2000
   43.2960   21.1760   24.8640 C   0  0  0  0  0  0  0  0  0  0  0  0
   43.9290   22.5340   24.6080 C   0  0  0  0  0  0  0  0  0  0  0  0
   43.4920   23.2640   23.7180 O   0  0  0  0  0  0  0  0  0  0  0  0
   44.9960   22.8580   25.3500 N   0  0  0  0  0  0  0  0  0  0  0  0
   45.7870   24.0840   25.1590 C   0  0  2  0  0  0  0  0  0  0  0  0
   46.3540   24.1660   23.7500 C   0  0  0  0  0  0  0  0  0  0  0  0
   46.3620   25.2290   23.1360 O   0  0  0  0  0  0  0  0  0  0  0  0
   46.9670   24.1220   26.1490 C   0  0  0  0  0  0  0  0  0  0  0  0
   46.6440   24.3540   27.6270 C   0  0  0  0  0  0  0  0  0  0  0  0
   47.8970   24.1840   28.4910 C   0  0  0  0  0  0  0  0  0  0  0  0
   46.0430   25.7560   27.8530 C   0  0  0  0  0  0  0  0  0  0  0  0
   46.9160   23.0410   23.2670 N   0  0  0  0  0  0  0  0  0  0  0  0
   47.5070   22.9500   21.9520 C   0  0  2  0  0  0  0  0  0  0  0  0
   46.4870   23.2490   20.8750 C   0  0  0  0  0  0  0  0  0  0  0  0
   46.7770   24.0340   19.9820 O   0  0  0  0  0  0  0  0  0  0  0  0
   48.0800   21.5600   21.7510 C   0  0  0  0  0  0  0  0  0  0  0  0
   45.2880   22.6740   20.9880 N   0  0  0  0  0  0  0  0  0  0  0  0
   44.2240   22.8450   19.9880 C   0  0  2  0  0  0  0  0  0  0  0  0
   43.8370   24.3260   19.8820 C   0  0  0  0  0  0  0  0  0  0  0  0
   43.6430   24.8280   18.7760 O   0  0  0  0  0  0  0  0  0  0  0  0
   43.0040   21.9680   20.3280 C   0  0  0  0  0  0  0  0  0  0  0  0
   41.9150   21.9670   19.2540 C   0  0  0  0  0  0  0  0  0  0  0  0
   40.6820   21.1850   19.6900 C   0  0  0  0  0  0  0  0  0  0  0  0
   39.6290   21.1800   18.6020 C   0  0  0  0  0  0  0  0  0  0  0  0
   38.5830   20.1490   18.8510 N   0  0  0  0  0  0  0  0  0  0  0  0
   43.7710   25.0190   21.0160 N   0  0  0  0  0  0  0  0  0  0  0  0
   43.4380   26.4460   21.0790 C   0  0  2  0  0  0  0  0  0  0  0  0
   44.4280   27.3060   20.3080 C   0  0  0  0  0  0  0  0  0  0  0  0
   44.0280   28.2830   19.6820 O   0  0  0  0  0  0  0  0  0  0  0  0
   43.4340   26.9280   22.5380 C   0  0  0  0  0  0  0  0  0  0  0  0
   42.2970   26.4370   23.4050 C   0  0  0  0  0  0  0  0  0  0  0  0
   42.4250   26.8950   24.8460 C   0  0  0  0  0  0  0  0  0  0  0  0
   43.1210   27.9060   25.1010 O   0  0  0  0  0  0  0  0  0  0  0  0
   41.8380   26.2270   25.7260 O   0  0  0  0  0  0  0  0  0  0  0  0
   45.7250   26.9640   20.3830 N   0  0  0  0  0  0  0  0  0  0  0  0
   46.8020   27.7430   19.7860 C   0  0  0  0  0  0  0  0  0  0  0  0
   42.4596   21.0433   24.2099 H   0  0  0  0  0  0  0  0  0  0  0  0
   42.9660   21.1222   25.8804 H   0  0  0  0  0  0  0  0  0  0  0  0
   44.0168   20.4065   24.6819 H   0  0  0  0  0  0  0  0  0  0  0  0
   45.2672   22.2390   26.0659 H   0  0  0  0  0  0  0  0  0  0  0  0
   45.1287   24.9105   25.3277 H   0  0  0  0  0  0  0  0  0  0  0  0
   47.6216   24.9088   25.8369 H   0  0  0  0  0  0  0  0  0  0  0  0
   47.3840   23.1373   26.1131 H   0  0  0  0  0  0  0  0  0  0  0  0
   45.9195   23.6214   27.9158 H   0  0  0  0  0  0  0  0  0  0  0  0
   48.6269   24.9135   28.2082 H   0  0  0  0  0  0  0  0  0  0  0  0
   48.2990   23.2029   28.3472 H   0  0  0  0  0  0  0  0  0  0  0  0
   47.6405   24.3169   29.5213 H   0  0  0  0  0  0  0  0  0  0  0  0
   46.7570   26.5003   27.5682 H   0  0  0  0  0  0  0  0  0  0  0  0
   45.7962   25.8758   28.8872 H   0  0  0  0  0  0  0  0  0  0  0  0
   45.1588   25.8648   27.2604 H   0  0  0  0  0  0  0  0  0  0  0  0
   46.9244   22.2400   23.8394 H   0  0  0  0  0  0  0  0  0  0  0  0
   48.2888   23.6768   21.8788 H   0  0  0  0  0  0  0  0  0  0  0  0
   47.2951   20.8365   21.8250 H   0  0  0  0  0  0  0  0  0  0  0  0
   48.8163   21.3656   22.5027 H   0  0  0  0  0  0  0  0  0  0  0  0
   48.5328   21.4973   20.7836 H   0  0  0  0  0  0  0  0  0  0  0  0
   45.1082   22.1108   21.7752 H   0  0  0  0  0  0  0  0  0  0  0  0
   44.5910   22.5248   19.0353 H   0  0  0  0  0  0  0  0  0  0  0  0
   43.3415   20.9619   20.4649 H   0  0  0  0  0  0  0  0  0  0  0  0
   42.5645   22.3812   21.2118 H   0  0  0  0  0  0  0  0  0  0  0  0
   41.6288   22.9780   19.0516 H   0  0  0  0  0  0  0  0  0  0  0  0
   42.3135   21.4945   18.3806 H   0  0  0  0  0  0  0  0  0  0  0  0
   40.9660   20.1764   19.9065 H   0  0  0  0  0  0  0  0  0  0  0  0
   40.2711   21.6540   20.5595 H   0  0  0  0  0  0  0  0  0  0  0  0
   39.1644   22.1432   18.5649 H   0  0  0  0  0  0  0  0  0  0  0  0
   40.1097   20.9496   17.6742 H   0  0  0  0  0  0  0  0  0  0  0  0
   38.1109   20.3497   19.7326 H   0  0  0  0  0  0  0  0  0  0  0  0
   39.0184   19.2279   18.9004 H   0  0  0  0  0  0  0  0  0  0  0  0
   43.9561   24.5474   21.8601 H   0  0  0  0  0  0  0  0  0  0  0  0
   42.4693   26.5499   20.6366 H   0  0  0  0  0  0  0  0  0  0  0  0
   43.3971   27.9973   22.5275 H   0  0  0  0  0  0  0  0  0  0  0  0
   44.3213   26.5195   22.9747 H   0  0  0  0  0  0  0  0  0  0  0  0
   42.2872   25.3672   23.3846 H   0  0  0  0  0  0  0  0  0  0  0  0
   41.3894   26.8464   23.0133 H   0  0  0  0  0  0  0  0  0  0  0  0
   45.9611   26.1408   20.8686 H   0  0  0  0  0  0  0  0  0  0  0  0
   46.3922   28.6018   19.2967 H   0  0  0  0  0  0  0  0  0  0  0  0
   47.3242   27.1410   19.0720 H   0  0  0  0  0  0  0  0  0  0  0  0
   47.4805   28.0583   20.5509 H   0  0  0  0  0  0  0  0  0  0  0  0
  1 37  1  0  0  0  0
  1 38  1  0  0  0  0
  1 39  1  0  0  0  0
  2  1  1  0  0  0  0
  2  4  1  0  0  0  0
  3  2  2  0  0  0  0
  4 40  1  0  0  0  0
  5  4  1  0  0  0  0
  5  8  1  0  0  0  0
  5 41  1  1  0  0  0
  6  5  1  0  0  0  0
  7  6  2  0  0  0  0
  8  9  1  0  0  0  0
  8 42  1  0  0  0  0
  8 43  1  0  0  0  0
  9 11  1  0  0  0  0
  9 10  1  0  0  0  0
  9 44  1  0  0  0  0
 10 45  1  0  0  0  0
 10 46  1  0  0  0  0
 10 47  1  0  0  0  0
 11 48  1  0  0  0  0
 11 49  1  0  0  0  0
 11 50  1  0  0  0  0
 12  6  1  0  0  0  0
 12 51  1  0  0  0  0
 13 12  1  0  0  0  0
 13 52  1  6  0  0  0
 14 17  1  0  0  0  0
 14 13  1  0  0  0  0
 15 14  2  0  0  0  0
 16 13  1  0  0  0  0
 16 53  1  0  0  0  0
 16 54  1  0  0  0  0
 16 55  1  0  0  0  0
 17 56  1  0  0  0  0
 18 21  1  0  0  0  0
 18 17  1  0  0  0  0
 18 57  1  6  0  0  0
 19 18  1  0  0  0  0
 19 26  1  0  0  0  0
 20 19  2  0  0  0  0
 21 58  1  0  0  0  0
 21 59  1  0  0  0  0
 22 23  1  0  0  0  0
 22 21  1  0  0  0  0
 22 60  1  0  0  0  0
 22 61  1  0  0  0  0
 23 62  1  0  0  0  0
 23 63  1  0  0  0  0
 24 25  1  0  0  0  0
 24 23  1  0  0  0  0
 24 64  1  0  0  0  0
 24 65  1  0  0  0  0
 25 66  1  0  0  0  0
 25 67  1  0  0  0  0
 26 27  1  0  0  0  0
 26 68  1  0  0  0  0
 27 30  1  0  0  0  0
 27 69  1  6  0  0  0
 28 35  1  0  0  0  0
 28 27  1  0  0  0  0
 29 28  2  0  0  0  0
 30 31  1  0  0  0  0
 30 70  1  0  0  0  0
 30 71  1  0  0  0  0
 31 32  1  0  0  0  0
 31 72  1  0  0  0  0
 31 73  1  0  0  0  0
 32 33  2  0  0  0  0
 32 34  1  0  0  0  0
 35 74  1  0  0  0  0
 36 35  1  0  0  0  0
 36 75  1  0  0  0  0
 36 76  1  0  0  0  0
 36 77  1  0  0  0  0
M  CHG  1  34  -1
M  END
>  <MODEL>
       0

$$$$
selected_4mers/LAKE/211_noH.pdb
 OpenBabel03042517503D

 77 76  0  0  1  0  0  0  0  0999 V2000
   12.6760   43.4070   17.6750 C   0  0  0  0  0  0  0  0  0  0  0  0
   12.3260   44.1430   16.4040 C   0  0  0  0  0  0  0  0  0  0  0  0
   13.2140   44.6860   15.7450 O   0  0  0  0  0  0  0  0  0  0  0  0
   11.0480   44.1290   16.0280 N   0  0  0  0  0  0  0  0  0  0  0  0
   10.5890   44.7660   14.7950 C   0  0  2  0  0  0  0  0  0  0  0  0
    9.9740   46.1460   15.0060 C   0  0  0  0  0  0  0  0  0  0  0  0
    9.4960   46.7540   14.0560 O   0  0  0  0  0  0  0  0  0  0  0  0
    9.6180   43.8480   14.0420 C   0  0  0  0  0  0  0  0  0  0  0  0
   10.2080   42.6380   13.3240 C   0  0  0  0  0  0  0  0  0  0  0  0
    9.1190   41.7890   12.7210 C   0  0  0  0  0  0  0  0  0  0  0  0
   11.1930   43.1070   12.2440 C   0  0  0  0  0  0  0  0  0  0  0  0
   10.0590   46.6900   16.2160 N   0  0  0  0  0  0  0  0  0  0  0  0
    9.4590   47.9720   16.5260 C   0  0  2  0  0  0  0  0  0  0  0  0
   10.1970   49.1150   15.8210 C   0  0  0  0  0  0  0  0  0  0  0  0
   11.3100   48.9480   15.3300 O   0  0  0  0  0  0  0  0  0  0  0  0
    9.4270   48.2180   18.0420 C   0  0  0  0  0  0  0  0  0  0  0  0
    9.5680   50.2910   15.8240 N   0  0  0  0  0  0  0  0  0  0  0  0
   10.1640   51.4600   15.2370 C   0  0  2  0  0  0  0  0  0  0  0  0
    9.6590   52.7010   15.9340 C   0  0  0  0  0  0  0  0  0  0  0  0
    8.4920   52.7920   16.3110 O   0  0  0  0  0  0  0  0  0  0  0  0
    9.8370   51.5270   13.7430 C   0  0  0  0  0  0  0  0  0  0  0  0
   10.4930   52.7290   13.0310 C   0  0  0  0  0  0  0  0  0  0  0  0
   10.3110   52.6900   11.5320 C   0  0  0  0  0  0  0  0  0  0  0  0
   10.9940   53.8950   10.8860 C   0  0  0  0  0  0  0  0  0  0  0  0
   11.1270   53.7280    9.4170 N   0  0  0  0  0  0  0  0  0  0  0  0
   10.5380   53.6840   16.0710 N   0  0  0  0  0  0  0  0  0  0  0  0
   10.1790   54.9910   16.6080 C   0  0  2  0  0  0  0  0  0  0  0  0
    9.4600   55.7550   15.4820 C   0  0  0  0  0  0  0  0  0  0  0  0
   10.0500   56.0100   14.4210 O   0  0  0  0  0  0  0  0  0  0  0  0
   11.4390   55.6950   17.0820 C   0  0  0  0  0  0  0  0  0  0  0  0
   11.2090   56.9460   17.8870 C   0  0  0  0  0  0  0  0  0  0  0  0
   12.4000   57.2770   18.7800 C   0  0  0  0  0  0  0  0  0  0  0  0
   12.1790   57.7210   19.9280 O   0  0  0  0  0  0  0  0  0  0  0  0
   13.5500   57.0650   18.3410 O   0  0  0  0  0  0  0  0  0  0  0  0
    8.1860   56.1030   15.6890 N   0  0  0  0  0  0  0  0  0  0  0  0
    7.3880   56.7850   14.6450 C   0  0  0  0  0  0  0  0  0  0  0  0
   13.7259   43.4962   17.8612 H   0  0  0  0  0  0  0  0  0  0  0  0
   12.4187   42.3736   17.5711 H   0  0  0  0  0  0  0  0  0  0  0  0
   12.1314   43.8296   18.4934 H   0  0  0  0  0  0  0  0  0  0  0  0
   10.3895   43.6735   16.6008 H   0  0  0  0  0  0  0  0  0  0  0  0
   11.4643   44.9232   14.2000 H   0  0  0  0  0  0  0  0  0  0  0  0
    8.9053   43.4836   14.7520 H   0  0  0  0  0  0  0  0  0  0  0  0
    9.2144   44.4587   13.2616 H   0  0  0  0  0  0  0  0  0  0  0  0
   10.7339   42.0364   14.0357 H   0  0  0  0  0  0  0  0  0  0  0  0
    8.5739   42.3653   12.0029 H   0  0  0  0  0  0  0  0  0  0  0  0
    8.4548   41.4599   13.4926 H   0  0  0  0  0  0  0  0  0  0  0  0
    9.5550   40.9389   12.2392 H   0  0  0  0  0  0  0  0  0  0  0  0
   10.6758   43.7098   11.5271 H   0  0  0  0  0  0  0  0  0  0  0  0
   11.6173   42.2555   11.7542 H   0  0  0  0  0  0  0  0  0  0  0  0
   11.9725   43.6825   12.6979 H   0  0  0  0  0  0  0  0  0  0  0  0
   10.5445   46.2070   16.9232 H   0  0  0  0  0  0  0  0  0  0  0  0
    8.4518   47.9475   16.1658 H   0  0  0  0  0  0  0  0  0  0  0  0
   10.4276   48.2456   18.4200 H   0  0  0  0  0  0  0  0  0  0  0  0
    8.8867   47.4279   18.5202 H   0  0  0  0  0  0  0  0  0  0  0  0
    8.9444   49.1519   18.2417 H   0  0  0  0  0  0  0  0  0  0  0  0
    8.6769   50.3599   16.2368 H   0  0  0  0  0  0  0  0  0  0  0  0
   11.2260   51.4024   15.3540 H   0  0  0  0  0  0  0  0  0  0  0  0
   10.1819   50.6269   13.2786 H   0  0  0  0  0  0  0  0  0  0  0  0
    8.7772   51.6441   13.6541 H   0  0  0  0  0  0  0  0  0  0  0  0
   10.0539   53.6299   13.4057 H   0  0  0  0  0  0  0  0  0  0  0  0
   11.5436   52.6879   13.2298 H   0  0  0  0  0  0  0  0  0  0  0  0
   10.7432   51.7902   11.1468 H   0  0  0  0  0  0  0  0  0  0  0  0
    9.2655   52.7187   11.3063 H   0  0  0  0  0  0  0  0  0  0  0  0
   10.4123   54.7709   11.0842 H   0  0  0  0  0  0  0  0  0  0  0  0
   11.9758   53.9847   11.3019 H   0  0  0  0  0  0  0  0  0  0  0  0
   10.2005   53.6404    8.9995 H   0  0  0  0  0  0  0  0  0  0  0  0
   11.6704   52.8880    9.2181 H   0  0  0  0  0  0  0  0  0  0  0  0
   11.4708   53.5250   15.7991 H   0  0  0  0  0  0  0  0  0  0  0  0
    9.5264   54.9231   17.4532 H   0  0  0  0  0  0  0  0  0  0  0  0
   12.0160   55.9573   16.2199 H   0  0  0  0  0  0  0  0  0  0  0  0
   11.9354   55.0082   17.7353 H   0  0  0  0  0  0  0  0  0  0  0  0
   10.3442   56.8073   18.5017 H   0  0  0  0  0  0  0  0  0  0  0  0
   11.0718   57.7582   17.2041 H   0  0  0  0  0  0  0  0  0  0  0  0
    7.7681   55.9008   16.5571 H   0  0  0  0  0  0  0  0  0  0  0  0
    7.9900   56.9271   13.7719 H   0  0  0  0  0  0  0  0  0  0  0  0
    7.0602   57.7356   15.0108 H   0  0  0  0  0  0  0  0  0  0  0  0
    6.5371   56.1852   14.3978 H   0  0  0  0  0  0  0  0  0  0  0  0
  1 37  1  0  0  0  0
  1 38  1  0  0  0  0
  1 39  1  0  0  0  0
  2  1  1  0  0  0  0
  3  2  2  0  0  0  0
  4  2  1  0  0  0  0
  4 40  1  0  0  0  0
  5  6  1  0  0  0  0
  5  4  1  0  0  0  0
  5 41  1  6  0  0  0
  6 12  1  0  0  0  0
  7  6  2  0  0  0  0
  8  5  1  0  0  0  0
  8 42  1  0  0  0  0
  8 43  1  0  0  0  0
  9  8  1  0  0  0  0
  9 44  1  0  0  0  0
 10  9  1  0  0  0  0
 10 45  1  0  0  0  0
 10 46  1  0  0  0  0
 10 47  1  0  0  0  0
 11  9  1  0  0  0  0
 11 48  1  0  0  0  0
 11 49  1  0  0  0  0
 11 50  1  0  0  0  0
 12 13  1  0  0  0  0
 12 51  1  0  0  0  0
 13 16  1  0  0  0  0
 13 52  1  6  0  0  0
 14 17  1  0  0  0  0
 14 13  1  0  0  0  0
 15 14  2  0  0  0  0
 16 53  1  0  0  0  0
 16 54  1  0  0  0  0
 16 55  1  0  0  0  0
 17 56  1  0  0  0  0
 18 17  1  0  0  0  0
 18 19  1  0  0  0  0
 18 57  1  1  0  0  0
 19 26  1  0  0  0  0
 19 20  2  0  0  0  0
 21 18  1  0  0  0  0
 21 58  1  0  0  0  0
 21 59  1  0  0  0  0
 22 21  1  0  0  0  0
 22 60  1  0  0  0  0
 22 61  1  0  0  0  0
 23 22  1  0  0  0  0
 23 62  1  0  0  0  0
 23 63  1  0  0  0  0
 24 23  1  0  0  0  0
 24 64  1  0  0  0  0
 24 65  1  0  0  0  0
 25 24  1  0  0  0  0
 25 66  1  0  0  0  0
 25 67  1  0  0  0  0
 26 27  1  0  0  0  0
 26 68  1  0  0  0  0
 27 30  1  0  0  0  0
 27 69  1  1  0  0  0
 28 35  1  0  0  0  0
 28 27  1  0  0  0  0
 29 28  2  0  0  0  0
 30 31  1  0  0  0  0
 30 70  1  0  0  0  0
 30 71  1  0  0  0  0
 31 32  1  0  0  0  0
 31 72  1  0  0  0  0
 31 73  1  0  0  0  0
 32 33  1  0  0  0  0
 34 32  2  0  0  0  0
 35 74  1  0  0  0  0
 36 35  1  0  0  0  0
 36 75  1  0  0  0  0
 36 76  1  0  0  0  0
 36 77  1  0  0  0  0
M  CHG  1  33  -1
M  END
>  <MODEL>
       0

$$$$
selected_4mers/LAKE/212_noH.pdb
 OpenBabel03042517503D

 77 76  0  0  1  0  0  0  0  0999 V2000
    0.5310   35.4890   -5.0720 C   0  0  0  0  0  0  0  0  0  0  0  0
    1.9460   35.6700   -5.5570 C   0  0  0  0  0  0  0  0  0  0  0  0
    2.1940   36.4170   -6.5050 O   0  0  0  0  0  0  0  0  0  0  0  0
    2.8850   35.0180   -4.8860 N   0  0  0  0  0  0  0  0  0  0  0  0
    4.2730   35.1130   -5.2830 C   0  0  2  0  0  0  0  0  0  0  0  0
    4.6720   33.8840   -6.0890 C   0  0  0  0  0  0  0  0  0  0  0  0
    4.1400   32.7820   -5.8840 O   0  0  0  0  0  0  0  0  0  0  0  0
    5.2070   35.2400   -4.0770 C   0  0  0  0  0  0  0  0  0  0  0  0
    4.9200   36.2240   -2.9400 C   0  0  0  0  0  0  0  0  0  0  0  0
    6.2200   36.7420   -2.3440 C   0  0  0  0  0  0  0  0  0  0  0  0
    4.0080   37.3670   -3.3530 C   0  0  0  0  0  0  0  0  0  0  0  0
    5.6300   34.0810   -6.9900 N   0  0  0  0  0  0  0  0  0  0  0  0
    6.2110   32.9950   -7.7760 C   0  0  2  0  0  0  0  0  0  0  0  0
    7.0860   32.0750   -6.9320 C   0  0  0  0  0  0  0  0  0  0  0  0
    7.6680   32.4960   -5.9330 O   0  0  0  0  0  0  0  0  0  0  0  0
    7.0310   33.5740   -8.9400 C   0  0  0  0  0  0  0  0  0  0  0  0
    7.2170   30.8200   -7.3520 N   0  0  0  0  0  0  0  0  0  0  0  0
    8.1070   29.9000   -6.6560 C   0  0  2  0  0  0  0  0  0  0  0  0
    9.5250   30.4490   -6.6310 C   0  0  0  0  0  0  0  0  0  0  0  0
   10.2310   30.3600   -5.6270 O   0  0  0  0  0  0  0  0  0  0  0  0
    8.1150   28.5330   -7.3280 C   0  0  0  0  0  0  0  0  0  0  0  0
    8.9060   27.5100   -6.5230 C   0  0  0  0  0  0  0  0  0  0  0  0
    9.2130   26.2530   -7.3210 C   0  0  0  0  0  0  0  0  0  0  0  0
   10.0220   25.2660   -6.4830 C   0  0  0  0  0  0  0  0  0  0  0  0
   11.2970   25.8690   -5.9620 N   0  0  0  0  0  0  0  0  0  0  0  0
    9.9420   31.0100   -7.7570 N   0  0  0  0  0  0  0  0  0  0  0  0
   11.2890   31.5190   -7.8960 C   0  0  2  0  0  0  0  0  0  0  0  0
   11.3330   33.0020   -7.5530 C   0  0  0  0  0  0  0  0  0  0  0  0
   10.7060   33.8070   -8.2280 O   0  0  0  0  0  0  0  0  0  0  0  0
   11.7660   31.3120   -9.3360 C   0  0  0  0  0  0  0  0  0  0  0  0
   13.1690   31.8040   -9.5740 C   0  0  0  0  0  0  0  0  0  0  0  0
   14.1870   31.0700   -8.7310 C   0  0  0  0  0  0  0  0  0  0  0  0
   14.1510   29.8070   -8.7000 O   0  0  0  0  0  0  0  0  0  0  0  0
   15.0270   31.7520   -8.1020 O   0  0  0  0  0  0  0  0  0  0  0  0
   12.0930   33.3530   -6.5220 N   0  0  0  0  0  0  0  0  0  0  0  0
   12.2260   34.7400   -6.0950 C   0  0  0  0  0  0  0  0  0  0  0  0
   -0.1327   36.0596   -5.6874 H   0  0  0  0  0  0  0  0  0  0  0  0
    0.4555   35.8250   -4.0589 H   0  0  0  0  0  0  0  0  0  0  0  0
    0.2654   34.4539   -5.1252 H   0  0  0  0  0  0  0  0  0  0  0  0
    2.6358   34.4644   -4.1109 H   0  0  0  0  0  0  0  0  0  0  0  0
    4.3705   35.9962   -5.8791 H   0  0  0  0  0  0  0  0  0  0  0  0
    6.1684   35.5020   -4.4667 H   0  0  0  0  0  0  0  0  0  0  0  0
    5.0882   34.2922   -3.5948 H   0  0  0  0  0  0  0  0  0  0  0  0
    4.3865   35.6807   -2.1883 H   0  0  0  0  0  0  0  0  0  0  0  0
    6.7614   37.2872   -3.0886 H   0  0  0  0  0  0  0  0  0  0  0  0
    6.8112   35.9167   -2.0059 H   0  0  0  0  0  0  0  0  0  0  0  0
    6.0019   37.3865   -1.5182 H   0  0  0  0  0  0  0  0  0  0  0  0
    4.4891   37.9519   -4.1088 H   0  0  0  0  0  0  0  0  0  0  0  0
    3.8010   37.9831   -2.5030 H   0  0  0  0  0  0  0  0  0  0  0  0
    3.0916   36.9709   -3.7380 H   0  0  0  0  0  0  0  0  0  0  0  0
    5.9616   34.9968   -7.1334 H   0  0  0  0  0  0  0  0  0  0  0  0
    5.4025   32.4066   -8.1568 H   0  0  0  0  0  0  0  0  0  0  0  0
    7.8370   34.1607   -8.5513 H   0  0  0  0  0  0  0  0  0  0  0  0
    6.4019   34.1904   -9.5476 H   0  0  0  0  0  0  0  0  0  0  0  0
    7.4250   32.7740   -9.5314 H   0  0  0  0  0  0  0  0  0  0  0  0
    6.7100   30.5110   -8.1373 H   0  0  0  0  0  0  0  0  0  0  0  0
    7.7444   29.7946   -5.6548 H   0  0  0  0  0  0  0  0  0  0  0  0
    8.5569   28.6268   -8.2980 H   0  0  0  0  0  0  0  0  0  0  0  0
    7.1035   28.1910   -7.3969 H   0  0  0  0  0  0  0  0  0  0  0  0
    8.3358   27.2376   -5.6595 H   0  0  0  0  0  0  0  0  0  0  0  0
    9.8386   27.9595   -6.2527 H   0  0  0  0  0  0  0  0  0  0  0  0
    9.7756   26.5183   -8.1916 H   0  0  0  0  0  0  0  0  0  0  0  0
    8.2902   25.7901   -7.6022 H   0  0  0  0  0  0  0  0  0  0  0  0
   10.2650   24.4185   -7.0893 H   0  0  0  0  0  0  0  0  0  0  0  0
    9.4247   24.9861   -5.6405 H   0  0  0  0  0  0  0  0  0  0  0  0
   11.8875   26.1458   -6.7463 H   0  0  0  0  0  0  0  0  0  0  0  0
   11.7897   25.1820   -5.3913 H   0  0  0  0  0  0  0  0  0  0  0  0
    9.3203   31.0821   -8.5169 H   0  0  0  0  0  0  0  0  0  0  0  0
   11.9309   30.9899   -7.2230 H   0  0  0  0  0  0  0  0  0  0  0  0
   11.7303   30.2661   -9.5588 H   0  0  0  0  0  0  0  0  0  0  0  0
   11.1183   31.8810   -9.9698 H   0  0  0  0  0  0  0  0  0  0  0  0
   13.2128   32.8463   -9.3360 H   0  0  0  0  0  0  0  0  0  0  0  0
   13.4073   31.6267  -10.6019 H   0  0  0  0  0  0  0  0  0  0  0  0
   12.5821   32.6540   -6.0306 H   0  0  0  0  0  0  0  0  0  0  0  0
   11.6349   35.3668   -6.7295 H   0  0  0  0  0  0  0  0  0  0  0  0
   13.2524   35.0356   -6.1577 H   0  0  0  0  0  0  0  0  0  0  0  0
   11.8883   34.8360   -5.0842 H   0  0  0  0  0  0  0  0  0  0  0  0
  1 37  1  0  0  0  0
  1 38  1  0  0  0  0
  1 39  1  0  0  0  0
  2  1  1  0  0  0  0
  2  4  1  0  0  0  0
  3  2  2  0  0  0  0
  4 40  1  0  0  0  0
  5  4  1  0  0  0  0
  5  8  1  0  0  0  0
  5 41  1  6  0  0  0
  6  7  2  0  0  0  0
  6  5  1  0  0  0  0
  8  9  1  0  0  0  0
  8 42  1  0  0  0  0
  8 43  1  0  0  0  0
  9 10  1  0  0  0  0
  9 44  1  0  0  0  0
 10 45  1  0  0  0  0
 10 46  1  0  0  0  0
 10 47  1  0  0  0  0
 11  9  1  0  0  0  0
 11 48  1  0  0  0  0
 11 49  1  0  0  0  0
 11 50  1  0  0  0  0
 12  6  1  0  0  0  0
 12 51  1  0  0  0  0
 13 12  1  0  0  0  0
 13 14  1  0  0  0  0
 13 52  1  6  0  0  0
 14 15  2  0  0  0  0
 16 13  1  0  0  0  0
 16 53  1  0  0  0  0
 16 54  1  0  0  0  0
 16 55  1  0  0  0  0
 17 14  1  0  0  0  0
 17 18  1  0  0  0  0
 17 56  1  0  0  0  0
 18 19  1  0  0  0  0
 18 57  1  1  0  0  0
 19 20  2  0  0  0  0
 21 18  1  0  0  0  0
 21 22  1  0  0  0  0
 21 58  1  0  0  0  0
 21 59  1  0  0  0  0
 22 60  1  0  0  0  0
 22 61  1  0  0  0  0
 23 22  1  0  0  0  0
 23 24  1  0  0  0  0
 23 62  1  0  0  0  0
 23 63  1  0  0  0  0
 24 25  1  0  0  0  0
 24 64  1  0  0  0  0
 24 65  1  0  0  0  0
 25 66  1  0  0  0  0
 25 67  1  0  0  0  0
 26 19  1  0  0  0  0
 26 68  1  0  0  0  0
 27 26  1  0  0  0  0
 27 28  1  0  0  0  0
 27 69  1  1  0  0  0
 28 35  1  0  0  0  0
 29 28  2  0  0  0  0
 30 27  1  0  0  0  0
 30 70  1  0  0  0  0
 30 71  1  0  0  0  0
 31 30  1  0  0  0  0
 31 32  1  0  0  0  0
 31 72  1  0  0  0  0
 31 73  1  0  0  0  0
 32 33  2  0  0  0  0
 32 34  1  0  0  0  0
 35 36  1  0  0  0  0
 35 74  1  0  0  0  0
 36 75  1  0  0  0  0
 36 76  1  0  0  0  0
 36 77  1  0  0  0  0
M  CHG  1  34  -1
M  END
>  <MODEL>
       0

$$$$
selected_4mers/LAKE/213_noH.pdb
 OpenBabel03042517503D

 77 76  0  0  1  0  0  0  0  0999 V2000
   13.8860   37.4150   49.0460 C   0  0  0  0  0  0  0  0  0  0  0  0
   13.6020   38.8900   49.2380 C   0  0  0  0  0  0  0  0  0  0  0  0
   14.5290   39.6880   49.2770 O   0  0  0  0  0  0  0  0  0  0  0  0
   12.3250   39.2480   49.3860 N   0  0  0  0  0  0  0  0  0  0  0  0
   11.9520   40.6630   49.5570 C   0  0  2  0  0  0  0  0  0  0  0  0
   12.3490   41.2110   50.9200 C   0  0  0  0  0  0  0  0  0  0  0  0
   12.7980   42.3650   51.0350 O   0  0  0  0  0  0  0  0  0  0  0  0
   10.4460   40.8440   49.3080 C   0  0  0  0  0  0  0  0  0  0  0  0
   10.0970   40.6880   47.8230 C   0  0  0  0  0  0  0  0  0  0  0  0
    8.5660   40.6780   47.6290 C   0  0  0  0  0  0  0  0  0  0  0  0
   10.7670   41.8040   46.9840 C   0  0  0  0  0  0  0  0  0  0  0  0
   12.1850   40.3820   51.9510 N   0  0  0  0  0  0  0  0  0  0  0  0
   12.5120   40.7800   53.3150 C   0  0  2  0  0  0  0  0  0  0  0  0
   13.9910   41.0800   53.4700 C   0  0  0  0  0  0  0  0  0  0  0  0
   14.3670   42.0300   54.1270 O   0  0  0  0  0  0  0  0  0  0  0  0
   12.0780   39.7100   54.3320 C   0  0  0  0  0  0  0  0  0  0  0  0
   14.8340   40.2430   52.8880 N   0  0  0  0  0  0  0  0  0  0  0  0
   16.2690   40.3540   53.0790 C   0  0  2  0  0  0  0  0  0  0  0  0
   16.9260   41.0230   51.8980 C   0  0  0  0  0  0  0  0  0  0  0  0
   18.1040   41.3410   51.9560 O   0  0  0  0  0  0  0  0  0  0  0  0
   16.8510   38.9560   53.2700 C   0  0  0  0  0  0  0  0  0  0  0  0
   16.3380   38.2220   54.5170 C   0  0  0  0  0  0  0  0  0  0  0  0
   16.2550   39.1700   55.7130 C   0  0  0  0  0  0  0  0  0  0  0  0
   16.1580   38.4700   57.0600 C   0  0  0  0  0  0  0  0  0  0  0  0
   16.7140   39.3310   58.1440 N   0  0  0  0  0  0  0  0  0  0  0  0
   16.1700   41.2430   50.8290 N   0  0  0  0  0  0  0  0  0  0  0  0
   16.7130   41.7420   49.5670 C   0  0  2  0  0  0  0  0  0  0  0  0
   17.8880   40.8940   49.0660 C   0  0  0  0  0  0  0  0  0  0  0  0
   18.7870   41.4110   48.4000 O   0  0  0  0  0  0  0  0  0  0  0  0
   17.0760   43.2280   49.6630 C   0  0  0  0  0  0  0  0  0  0  0  0
   15.8780   44.0720   50.0540 C   0  0  0  0  0  0  0  0  0  0  0  0
   15.9800   45.5420   49.6750 C   0  0  0  0  0  0  0  0  0  0  0  0
   17.1110   46.0620   49.4880 O   0  0  0  0  0  0  0  0  0  0  0  0
   14.9000   46.2000   49.6330 O   0  0  0  0  0  0  0  0  0  0  0  0
   17.8230   39.5910   49.3370 N   0  0  0  0  0  0  0  0  0  0  0  0
   18.9120   38.6480   49.0660 C   0  0  0  0  0  0  0  0  0  0  0  0
   14.9402   37.2656   48.9405 H   0  0  0  0  0  0  0  0  0  0  0  0
   13.3866   37.0672   48.1659 H   0  0  0  0  0  0  0  0  0  0  0  0
   13.5318   36.8700   49.8960 H   0  0  0  0  0  0  0  0  0  0  0  0
   11.6231   38.5577   49.3809 H   0  0  0  0  0  0  0  0  0  0  0  0
   12.4985   41.2294   48.8321 H   0  0  0  0  0  0  0  0  0  0  0  0
    9.9101   40.1078   49.8699 H   0  0  0  0  0  0  0  0  0  0  0  0
   10.1724   41.8320   49.6142 H   0  0  0  0  0  0  0  0  0  0  0  0
   10.4784   39.7501   47.4770 H   0  0  0  0  0  0  0  0  0  0  0  0
    8.1575   41.6071   47.9679 H   0  0  0  0  0  0  0  0  0  0  0  0
    8.1403   39.8744   48.1928 H   0  0  0  0  0  0  0  0  0  0  0  0
    8.3388   40.5456   46.5918 H   0  0  0  0  0  0  0  0  0  0  0  0
   10.4056   42.7582   47.3063 H   0  0  0  0  0  0  0  0  0  0  0  0
   10.5303   41.6637   45.9500 H   0  0  0  0  0  0  0  0  0  0  0  0
   11.8280   41.7613   47.1160 H   0  0  0  0  0  0  0  0  0  0  0  0
   11.8338   39.4770   51.7870 H   0  0  0  0  0  0  0  0  0  0  0  0
   11.9660   41.6780   53.5159 H   0  0  0  0  0  0  0  0  0  0  0  0
   12.6146   38.8031   54.1464 H   0  0  0  0  0  0  0  0  0  0  0  0
   11.0279   39.5296   54.2337 H   0  0  0  0  0  0  0  0  0  0  0  0
   12.2897   40.0532   55.3231 H   0  0  0  0  0  0  0  0  0  0  0  0
   14.4799   39.5277   52.3116 H   0  0  0  0  0  0  0  0  0  0  0  0
   16.4567   40.9552   53.9440 H   0  0  0  0  0  0  0  0  0  0  0  0
   17.9146   39.0436   53.3468 H   0  0  0  0  0  0  0  0  0  0  0  0
   16.5408   38.3774   52.4251 H   0  0  0  0  0  0  0  0  0  0  0  0
   17.0067   37.4202   54.7514 H   0  0  0  0  0  0  0  0  0  0  0  0
   15.3582   37.8440   54.3120 H   0  0  0  0  0  0  0  0  0  0  0  0
   15.3889   39.7867   55.5925 H   0  0  0  0  0  0  0  0  0  0  0  0
   17.1661   39.7309   55.7237 H   0  0  0  0  0  0  0  0  0  0  0  0
   16.7106   37.5546   57.0205 H   0  0  0  0  0  0  0  0  0  0  0  0
   15.1277   38.2734   57.2717 H   0  0  0  0  0  0  0  0  0  0  0  0
   17.6969   39.5256   57.9532 H   0  0  0  0  0  0  0  0  0  0  0  0
   16.6304   38.8479   59.0385 H   0  0  0  0  0  0  0  0  0  0  0  0
   15.2040   41.0626   50.8888 H   0  0  0  0  0  0  0  0  0  0  0  0
   15.9396   41.6501   48.8333 H   0  0  0  0  0  0  0  0  0  0  0  0
   17.4383   43.5590   48.7121 H   0  0  0  0  0  0  0  0  0  0  0  0
   17.8254   43.3410   50.4183 H   0  0  0  0  0  0  0  0  0  0  0  0
   15.7596   44.0097   51.1156 H   0  0  0  0  0  0  0  0  0  0  0  0
   15.0437   43.6790   49.5115 H   0  0  0  0  0  0  0  0  0  0  0  0
   16.9966   39.2418   49.7423 H   0  0  0  0  0  0  0  0  0  0  0  0
   19.7365   39.1714   48.6288 H   0  0  0  0  0  0  0  0  0  0  0  0
   18.5698   37.8929   48.3895 H   0  0  0  0  0  0  0  0  0  0  0  0
   19.2246   38.1914   49.9818 H   0  0  0  0  0  0  0  0  0  0  0  0
  1  2  1  0  0  0  0
  1 37  1  0  0  0  0
  1 38  1  0  0  0  0
  1 39  1  0  0  0  0
  2  3  2  0  0  0  0
  2  4  1  0  0  0  0
  4  5  1  0  0  0  0
  4 40  1  0  0  0  0
  5  6  1  0  0  0  0
  5 41  1  6  0  0  0
  6  7  2  0  0  0  0
  6 12  1  0  0  0  0
  8  5  1  0  0  0  0
  8 42  1  0  0  0  0
  8 43  1  0  0  0  0
  9  8  1  0  0  0  0
  9 44  1  0  0  0  0
 10  9  1  0  0  0  0
 10 45  1  0  0  0  0
 10 46  1  0  0  0  0
 10 47  1  0  0  0  0
 11  9  1  0  0  0  0
 11 48  1  0  0  0  0
 11 49  1  0  0  0  0
 11 50  1  0  0  0  0
 12 13  1  0  0  0  0
 12 51  1  0  0  0  0
 13 14  1  0  0  0  0
 13 16  1  0  0  0  0
 13 52  1  1  0  0  0
 14 15  2  0  0  0  0
 16 53  1  0  0  0  0
 16 54  1  0  0  0  0
 16 55  1  0  0  0  0
 17 18  1  0  0  0  0
 17 14  1  0  0  0  0
 17 56  1  0  0  0  0
 18 21  1  0  0  0  0
 18 57  1  1  0  0  0
 19 20  2  0  0  0  0
 19 18  1  0  0  0  0
 21 22  1  0  0  0  0
 21 58  1  0  0  0  0
 21 59  1  0  0  0  0
 22 23  1  0  0  0  0
 22 60  1  0  0  0  0
 22 61  1  0  0  0  0
 23 24  1  0  0  0  0
 23 62  1  0  0  0  0
 23 63  1  0  0  0  0
 24 25  1  0  0  0  0
 24 64  1  0  0  0  0
 24 65  1  0  0  0  0
 25 66  1  0  0  0  0
 25 67  1  0  0  0  0
 26 19  1  0  0  0  0
 26 68  1  0  0  0  0
 27 30  1  0  0  0  0
 27 26  1  0  0  0  0
 27 69  1  6  0  0  0
 28 35  1  0  0  0  0
 28 27  1  0  0  0  0
 29 28  2  0  0  0  0
 30 31  1  0  0  0  0
 30 70  1  0  0  0  0
 30 71  1  0  0  0  0
 31 72  1  0  0  0  0
 31 73  1  0  0  0  0
 32 31  1  0  0  0  0
 33 32  2  0  0  0  0
 34 32  1  0  0  0  0
 35 74  1  0  0  0  0
 36 35  1  0  0  0  0
 36 75  1  0  0  0  0
 36 76  1  0  0  0  0
 36 77  1  0  0  0  0
M  CHG  1  34  -1
M  END
>  <MODEL>
       0

$$$$
selected_4mers/LAKE/214_noH.pdb
 OpenBabel03042517503D

 77 76  0  0  1  0  0  0  0  0999 V2000
   -0.3280   26.6850    1.0250 C   0  0  0  0  0  0  0  0  0  0  0  0
    0.9860   26.6500    0.2640 C   0  0  0  0  0  0  0  0  0  0  0  0
    1.0050   26.7240   -0.9640 O   0  0  0  0  0  0  0  0  0  0  0  0
    2.0850   26.5490    1.0000 N   0  0  0  0  0  0  0  0  0  0  0  0
    3.4070   26.5330    0.3930 C   0  0  2  0  0  0  0  0  0  0  0  0
    3.5810   25.4130   -0.6220 C   0  0  0  0  0  0  0  0  0  0  0  0
    4.1550   25.6200   -1.6880 O   0  0  0  0  0  0  0  0  0  0  0  0
    4.4830   26.4150    1.4780 C   0  0  0  0  0  0  0  0  0  0  0  0
    4.5900   27.5760    2.4730 C   0  0  0  0  0  0  0  0  0  0  0  0
    5.6830   27.2730    3.4870 C   0  0  0  0  0  0  0  0  0  0  0  0
    4.8970   28.8680    1.7370 C   0  0  0  0  0  0  0  0  0  0  0  0
    3.0800   24.2300   -0.2870 N   0  0  0  0  0  0  0  0  0  0  0  0
    3.2020   23.0770   -1.1680 C   0  0  2  0  0  0  0  0  0  0  0  0
    2.4180   23.1920   -2.4720 C   0  0  0  0  0  0  0  0  0  0  0  0
    2.7200   22.4890   -3.4370 O   0  0  0  0  0  0  0  0  0  0  0  0
    2.7770   21.8170   -0.4260 C   0  0  0  0  0  0  0  0  0  0  0  0
    1.4270   24.0790   -2.5180 N   0  0  0  0  0  0  0  0  0  0  0  0
    0.6100   24.2070   -3.7210 C   0  0  2  0  0  0  0  0  0  0  0  0
    0.3840   25.6250   -4.2330 C   0  0  0  0  0  0  0  0  0  0  0  0
   -0.1830   25.8140   -5.3100 O   0  0  0  0  0  0  0  0  0  0  0  0
   -0.7440   23.5410   -3.4820 C   0  0  0  0  0  0  0  0  0  0  0  0
   -0.6340   22.1110   -2.9860 C   0  0  0  0  0  0  0  0  0  0  0  0
   -2.0000   21.5050   -2.7560 C   0  0  0  0  0  0  0  0  0  0  0  0
   -1.8970   20.0620   -2.2950 C   0  0  0  0  0  0  0  0  0  0  0  0
   -3.2410   19.4500   -2.1090 N   0  0  0  0  0  0  0  0  0  0  0  0
    0.8230   26.6190   -3.4700 N   0  0  0  0  0  0  0  0  0  0  0  0
    0.6440   28.0070   -3.8750 C   0  0  2  0  0  0  0  0  0  0  0  0
    1.9510   28.7870   -3.8380 C   0  0  0  0  0  0  0  0  0  0  0  0
    2.0000   29.9100   -3.3370 O   0  0  0  0  0  0  0  0  0  0  0  0
   -0.3950   28.6800   -2.9750 C   0  0  0  0  0  0  0  0  0  0  0  0
   -1.8230   28.2290   -3.2420 C   0  0  0  0  0  0  0  0  0  0  0  0
   -2.8130   28.7610   -2.2200 C   0  0  0  0  0  0  0  0  0  0  0  0
   -4.0270   28.7750   -2.5200 O   0  0  0  0  0  0  0  0  0  0  0  0
   -2.3840   29.1530   -1.1140 O   0  0  0  0  0  0  0  0  0  0  0  0
    3.0080   28.1900   -4.3790 N   0  0  0  0  0  0  0  0  0  0  0  0
    4.3140   28.8360   -4.3980 C   0  0  0  0  0  0  0  0  0  0  0  0
   -1.1393   26.7674    0.3322 H   0  0  0  0  0  0  0  0  0  0  0  0
   -0.3356   27.5272    1.6850 H   0  0  0  0  0  0  0  0  0  0  0  0
   -0.4348   25.7851    1.5939 H   0  0  0  0  0  0  0  0  0  0  0  0
    2.0042   26.4834    1.9790 H   0  0  0  0  0  0  0  0  0  0  0  0
    3.5134   27.4576   -0.1350 H   0  0  0  0  0  0  0  0  0  0  0  0
    5.4291   26.3210    0.9871 H   0  0  0  0  0  0  0  0  0  0  0  0
    4.1971   25.5677    2.0655 H   0  0  0  0  0  0  0  0  0  0  0  0
    3.6577   27.6918    2.9852 H   0  0  0  0  0  0  0  0  0  0  0  0
    6.6178   27.1563    2.9796 H   0  0  0  0  0  0  0  0  0  0  0  0
    5.4451   26.3696    4.0086 H   0  0  0  0  0  0  0  0  0  0  0  0
    5.7548   28.0800    4.1859 H   0  0  0  0  0  0  0  0  0  0  0  0
    5.8276   28.7704    1.2181 H   0  0  0  0  0  0  0  0  0  0  0  0
    4.9633   29.6719    2.4400 H   0  0  0  0  0  0  0  0  0  0  0  0
    4.1165   29.0722    1.0342 H   0  0  0  0  0  0  0  0  0  0  0  0
    2.6160   24.1302    0.5756 H   0  0  0  0  0  0  0  0  0  0  0  0
    4.2337   23.0303   -1.4477 H   0  0  0  0  0  0  0  0  0  0  0  0
    1.7434   21.8916   -0.1594 H   0  0  0  0  0  0  0  0  0  0  0  0
    3.3670   21.7087    0.4600 H   0  0  0  0  0  0  0  0  0  0  0  0
    2.9219   20.9653   -1.0573 H   0  0  0  0  0  0  0  0  0  0  0  0
    1.2442   24.6510   -1.7378 H   0  0  0  0  0  0  0  0  0  0  0  0
    1.1758   23.7226   -4.4891 H   0  0  0  0  0  0  0  0  0  0  0  0
   -1.2883   23.5394   -4.4032 H   0  0  0  0  0  0  0  0  0  0  0  0
   -1.2414   24.1023   -2.7188 H   0  0  0  0  0  0  0  0  0  0  0  0
   -0.0887   22.1019   -2.0654 H   0  0  0  0  0  0  0  0  0  0  0  0
   -0.1278   21.5324   -3.7302 H   0  0  0  0  0  0  0  0  0  0  0  0
   -2.5543   21.5393   -3.6706 H   0  0  0  0  0  0  0  0  0  0  0  0
   -2.4930   22.0679   -1.9911 H   0  0  0  0  0  0  0  0  0  0  0  0
   -1.3695   20.0313   -1.3646 H   0  0  0  0  0  0  0  0  0  0  0  0
   -1.3769   19.5063   -3.0470 H   0  0  0  0  0  0  0  0  0  0  0  0
   -3.7538   19.9665   -1.3944 H   0  0  0  0  0  0  0  0  0  0  0  0
   -3.1347   18.4788   -1.8160 H   0  0  0  0  0  0  0  0  0  0  0  0
    1.2753   26.4155   -2.6196 H   0  0  0  0  0  0  0  0  0  0  0  0
    0.2998   28.0077   -4.8881 H   0  0  0  0  0  0  0  0  0  0  0  0
   -0.3408   29.7374   -3.1295 H   0  0  0  0  0  0  0  0  0  0  0  0
   -0.1631   28.4006   -1.9685 H   0  0  0  0  0  0  0  0  0  0  0  0
   -1.8526   27.1596   -3.2212 H   0  0  0  0  0  0  0  0  0  0  0  0
   -2.1085   28.6173   -4.1973 H   0  0  0  0  0  0  0  0  0  0  0  0
    2.9067   27.2941   -4.7745 H   0  0  0  0  0  0  0  0  0  0  0  0
    4.2440   29.7958   -3.9302 H   0  0  0  0  0  0  0  0  0  0  0  0
    4.6381   28.9556   -5.4107 H   0  0  0  0  0  0  0  0  0  0  0  0
    5.0189   28.2310   -3.8670 H   0  0  0  0  0  0  0  0  0  0  0  0
  1 37  1  0  0  0  0
  1 38  1  0  0  0  0
  1 39  1  0  0  0  0
  2  4  1  0  0  0  0
  2  1  1  0  0  0  0
  3  2  2  0  0  0  0
  4 40  1  0  0  0  0
  5  4  1  0  0  0  0
  5  8  1  0  0  0  0
  5 41  1  6  0  0  0
  6 12  1  0  0  0  0
  6  5  1  0  0  0  0
  7  6  2  0  0  0  0
  8  9  1  0  0  0  0
  8 42  1  0  0  0  0
  8 43  1  0  0  0  0
  9 10  1  0  0  0  0
  9 44  1  0  0  0  0
 10 45  1  0  0  0  0
 10 46  1  0  0  0  0
 10 47  1  0  0  0  0
 11  9  1  0  0  0  0
 11 48  1  0  0  0  0
 11 49  1  0  0  0  0
 11 50  1  0  0  0  0
 12 51  1  0  0  0  0
 13 16  1  0  0  0  0
 13 12  1  0  0  0  0
 13 52  1  6  0  0  0
 14 13  1  0  0  0  0
 15 14  2  0  0  0  0
 16 53  1  0  0  0  0
 16 54  1  0  0  0  0
 16 55  1  0  0  0  0
 17 14  1  0  0  0  0
 17 56  1  0  0  0  0
 18 21  1  0  0  0  0
 18 17  1  0  0  0  0
 18 57  1  6  0  0  0
 19 18  1  0  0  0  0
 19 26  1  0  0  0  0
 20 19  2  0  0  0  0
 21 22  1  0  0  0  0
 21 58  1  0  0  0  0
 21 59  1  0  0  0  0
 22 23  1  0  0  0  0
 22 60  1  0  0  0  0
 22 61  1  0  0  0  0
 23 24  1  0  0  0  0
 23 62  1  0  0  0  0
 23 63  1  0  0  0  0
 24 25  1  0  0  0  0
 24 64  1  0  0  0  0
 24 65  1  0  0  0  0
 25 66  1  0  0  0  0
 25 67  1  0  0  0  0
 26 68  1  0  0  0  0
 27 28  1  0  0  0  0
 27 26  1  0  0  0  0
 27 30  1  0  0  0  0
 27 69  1  6  0  0  0
 28 29  2  0  0  0  0
 30 70  1  0  0  0  0
 30 71  1  0  0  0  0
 31 30  1  0  0  0  0
 31 32  1  0  0  0  0
 31 72  1  0  0  0  0
 31 73  1  0  0  0  0
 32 34  1  0  0  0  0
 33 32  2  0  0  0  0
 35 28  1  0  0  0  0
 35 74  1  0  0  0  0
 36 35  1  0  0  0  0
 36 75  1  0  0  0  0
 36 76  1  0  0  0  0
 36 77  1  0  0  0  0
M  CHG  1  34  -1
M  END
>  <MODEL>
       0

$$$$
