selected_4mers/LALA/165_noH.pdb
 OpenBabel03042517503D

 70 69  0  0  1  0  0  0  0  0999 V2000
   58.0060    4.9130    8.9090 C   0  0  0  0  0  0  0  0  0  0  0  0
   57.9560    5.6670    7.5850 C   0  0  0  0  0  0  0  0  0  0  0  0
   57.8870    5.0580    6.5180 O   0  0  0  0  0  0  0  0  0  0  0  0
   57.9920    6.9930    7.6650 N   0  0  0  0  0  0  0  0  0  0  0  0
   57.9600    7.8280    6.4690 C   0  0  2  0  0  0  0  0  0  0  0  0
   59.2040    7.6010    5.6160 C   0  0  0  0  0  0  0  0  0  0  0  0
   59.1310    7.5760    4.3880 O   0  0  0  0  0  0  0  0  0  0  0  0
   57.8660    9.3070    6.8510 C   0  0  0  0  0  0  0  0  0  0  0  0
   56.5440    9.7580    7.4800 C   0  0  0  0  0  0  0  0  0  0  0  0
   56.6490   11.2110    7.9150 C   0  0  0  0  0  0  0  0  0  0  0  0
   55.4130    9.5750    6.4740 C   0  0  0  0  0  0  0  0  0  0  0  0
   60.3520    7.4480    6.2700 N   0  0  0  0  0  0  0  0  0  0  0  0
   61.5930    7.2150    5.5490 C   0  0  2  0  0  0  0  0  0  0  0  0
   61.4580    5.8980    4.7950 C   0  0  0  0  0  0  0  0  0  0  0  0
   61.8870    5.7790    3.6500 O   0  0  0  0  0  0  0  0  0  0  0  0
   62.7720    7.1560    6.5220 C   0  0  0  0  0  0  0  0  0  0  0  0
   60.8450    4.9120    5.4420 N   0  0  0  0  0  0  0  0  0  0  0  0
   60.6470    3.6140    4.8200 C   0  0  2  0  0  0  0  0  0  0  0  0
   59.6730    3.7650    3.6540 C   0  0  0  0  0  0  0  0  0  0  0  0
   59.8610    3.1580    2.6020 O   0  0  0  0  0  0  0  0  0  0  0  0
   60.0890    2.6120    5.8390 C   0  0  0  0  0  0  0  0  0  0  0  0
   59.8610    1.1860    5.3320 C   0  0  0  0  0  0  0  0  0  0  0  0
   61.1550    0.6170    4.7650 C   0  0  0  0  0  0  0  0  0  0  0  0
   59.3580    0.3190    6.4790 C   0  0  0  0  0  0  0  0  0  0  0  0
   58.6450    4.5900    3.8450 N   0  0  0  0  0  0  0  0  0  0  0  0
   57.6380    4.8170    2.8050 C   0  0  2  0  0  0  0  0  0  0  0  0
   58.2740    5.3830    1.5440 C   0  0  0  0  0  0  0  0  0  0  0  0
   57.9470    4.9640    0.4320 O   0  0  0  0  0  0  0  0  0  0  0  0
   56.5650    5.7670    3.3130 C   0  0  0  0  0  0  0  0  0  0  0  0
   59.1830    6.3380    1.7220 N   0  0  0  0  0  0  0  0  0  0  0  0
   59.8670    6.9610    0.5930 C   0  0  0  0  0  0  0  0  0  0  0  0
   57.9710    3.8602    8.7214 H   0  0  0  0  0  0  0  0  0  0  0  0
   57.1688    5.1958    9.5123 H   0  0  0  0  0  0  0  0  0  0  0  0
   58.9133    5.1538    9.4226 H   0  0  0  0  0  0  0  0  0  0  0  0
   58.0413    7.4210    8.5502 H   0  0  0  0  0  0  0  0  0  0  0  0
   57.0955    7.5548    5.9007 H   0  0  0  0  0  0  0  0  0  0  0  0
   58.0193    9.8843    5.9632 H   0  0  0  0  0  0  0  0  0  0  0  0
   58.6093    9.4566    7.6060 H   0  0  0  0  0  0  0  0  0  0  0  0
   56.3345    9.1620    8.3436 H   0  0  0  0  0  0  0  0  0  0  0  0
   56.8586   11.8240    7.0634 H   0  0  0  0  0  0  0  0  0  0  0  0
   57.4379   11.3129    8.6307 H   0  0  0  0  0  0  0  0  0  0  0  0
   55.7244   11.5187    8.3570 H   0  0  0  0  0  0  0  0  0  0  0  0
   55.6101   10.1664    5.6043 H   0  0  0  0  0  0  0  0  0  0  0  0
   54.4893    9.8864    6.9153 H   0  0  0  0  0  0  0  0  0  0  0  0
   55.3459    8.5438    6.1964 H   0  0  0  0  0  0  0  0  0  0  0  0
   60.3616    7.4930    7.2534 H   0  0  0  0  0  0  0  0  0  0  0  0
   61.7776    8.0150    4.8629 H   0  0  0  0  0  0  0  0  0  0  0  0
   62.6163    6.3630    7.2233 H   0  0  0  0  0  0  0  0  0  0  0  0
   62.8488    8.0857    7.0461 H   0  0  0  0  0  0  0  0  0  0  0  0
   63.6755    6.9781    5.9771 H   0  0  0  0  0  0  0  0  0  0  0  0
   60.5195    5.0638    6.3586 H   0  0  0  0  0  0  0  0  0  0  0  0
   61.5862    3.2459    4.4633 H   0  0  0  0  0  0  0  0  0  0  0  0
   59.1496    2.9888    6.1861 H   0  0  0  0  0  0  0  0  0  0  0  0
   60.8388    2.5288    6.5978 H   0  0  0  0  0  0  0  0  0  0  0  0
   59.1287    1.1981    4.5519 H   0  0  0  0  0  0  0  0  0  0  0  0
   61.9015    0.5965    5.5313 H   0  0  0  0  0  0  0  0  0  0  0  0
   61.4908    1.2319    3.9563 H   0  0  0  0  0  0  0  0  0  0  0  0
   60.9817   -0.3771    4.4091 H   0  0  0  0  0  0  0  0  0  0  0  0
   60.0877    0.3042    7.2615 H   0  0  0  0  0  0  0  0  0  0  0  0
   59.1926   -0.6777    6.1267 H   0  0  0  0  0  0  0  0  0  0  0  0
   58.4404    0.7215    6.8545 H   0  0  0  0  0  0  0  0  0  0  0  0
   58.5596    5.0590    4.7064 H   0  0  0  0  0  0  0  0  0  0  0  0
   57.1910    3.8751    2.5644 H   0  0  0  0  0  0  0  0  0  0  0  0
   57.0090    6.7101    3.5545 H   0  0  0  0  0  0  0  0  0  0  0  0
   56.1077    5.3536    4.1876 H   0  0  0  0  0  0  0  0  0  0  0  0
   55.8233    5.9058    2.5544 H   0  0  0  0  0  0  0  0  0  0  0  0
   59.3994    6.6313    2.6365 H   0  0  0  0  0  0  0  0  0  0  0  0
   59.5155    6.5278   -0.3201 H   0  0  0  0  0  0  0  0  0  0  0  0
   60.9211    6.8000    0.6816 H   0  0  0  0  0  0  0  0  0  0  0  0
   59.6658    8.0119    0.5899 H   0  0  0  0  0  0  0  0  0  0  0  0
  1 32  1  0  0  0  0
  1 33  1  0  0  0  0
  1 34  1  0  0  0  0
  2  4  1  0  0  0  0
  2  1  1  0  0  0  0
  3  2  2  0  0  0  0
  4 35  1  0  0  0  0
  5  8  1  0  0  0  0
  5  4  1  0  0  0  0
  5 36  1  6  0  0  0
  6 12  1  0  0  0  0
  6  5  1  0  0  0  0
  7  6  2  0  0  0  0
  8  9  1  0  0  0  0
  8 37  1  0  0  0  0
  8 38  1  0  0  0  0
  9 10  1  0  0  0  0
  9 39  1  0  0  0  0
 10 40  1  0  0  0  0
 10 41  1  0  0  0  0
 10 42  1  0  0  0  0
 11  9  1  0  0  0  0
 11 43  1  0  0  0  0
 11 44  1  0  0  0  0
 11 45  1  0  0  0  0
 12 46  1  0  0  0  0
 13 12  1  0  0  0  0
 13 16  1  0  0  0  0
 13 47  1  6  0  0  0
 14 17  1  0  0  0  0
 14 13  1  0  0  0  0
 15 14  2  0  0  0  0
 16 48  1  0  0  0  0
 16 49  1  0  0  0  0
 16 50  1  0  0  0  0
 17 51  1  0  0  0  0
 18 17  1  0  0  0  0
 18 21  1  0  0  0  0
 18 52  1  6  0  0  0
 19 25  1  0  0  0  0
 19 18  1  0  0  0  0
 20 19  2  0  0  0  0
 21 53  1  0  0  0  0
 21 54  1  0  0  0  0
 22 21  1  0  0  0  0
 22 24  1  0  0  0  0
 22 55  1  0  0  0  0
 23 22  1  0  0  0  0
 23 56  1  0  0  0  0
 23 57  1  0  0  0  0
 23 58  1  0  0  0  0
 24 59  1  0  0  0  0
 24 60  1  0  0  0  0
 24 61  1  0  0  0  0
 25 62  1  0  0  0  0
 26 29  1  0  0  0  0
 26 25  1  0  0  0  0
 26 63  1  6  0  0  0
 27 30  1  0  0  0  0
 27 26  1  0  0  0  0
 28 27  2  0  0  0  0
 29 64  1  0  0  0  0
 29 65  1  0  0  0  0
 29 66  1  0  0  0  0
 30 67  1  0  0  0  0
 31 30  1  0  0  0  0
 31 68  1  0  0  0  0
 31 69  1  0  0  0  0
 31 70  1  0  0  0  0
M  END
>  <MODEL>
       0

$$$$
selected_4mers/LALA/166_noH.pdb
 OpenBabel03042517503D

 70 69  0  0  1  0  0  0  0  0999 V2000
   38.0090   17.4260   43.8170 C   0  0  0  0  0  0  0  0  0  0  0  0
   37.8760   16.0590   43.1570 C   0  0  0  0  0  0  0  0  0  0  0  0
   37.2990   15.9500   42.0780 O   0  0  0  0  0  0  0  0  0  0  0  0
   38.4240   15.0230   43.7880 N   0  0  0  0  0  0  0  0  0  0  0  0
   38.3410   13.6830   43.2100 C   0  0  2  0  0  0  0  0  0  0  0  0
   37.2820   12.8210   43.9000 C   0  0  0  0  0  0  0  0  0  0  0  0
   37.2680   11.5960   43.7390 O   0  0  0  0  0  0  0  0  0  0  0  0
   39.7140   12.9960   43.1700 C   0  0  0  0  0  0  0  0  0  0  0  0
   40.8110   13.6890   42.3430 C   0  0  0  0  0  0  0  0  0  0  0  0
   42.0640   12.8340   42.2990 C   0  0  0  0  0  0  0  0  0  0  0  0
   40.3410   14.0350   40.9200 C   0  0  0  0  0  0  0  0  0  0  0  0
   36.3910   13.4810   44.6450 N   0  0  0  0  0  0  0  0  0  0  0  0
   35.2460   12.8410   45.2960 C   0  0  2  0  0  0  0  0  0  0  0  0
   35.6540   11.6280   46.1420 C   0  0  0  0  0  0  0  0  0  0  0  0
   35.1210   10.5250   45.9780 O   0  0  0  0  0  0  0  0  0  0  0  0
   34.1800   12.4680   44.2590 C   0  0  0  0  0  0  0  0  0  0  0  0
   36.5970   11.8540   47.0530 N   0  0  0  0  0  0  0  0  0  0  0  0
   37.1690   10.7790   47.8670 C   0  0  2  0  0  0  0  0  0  0  0  0
   36.6440   10.7300   49.3060 C   0  0  0  0  0  0  0  0  0  0  0  0
   37.0090    9.8280   50.0710 O   0  0  0  0  0  0  0  0  0  0  0  0
   38.6980   10.8820   47.8740 C   0  0  0  0  0  0  0  0  0  0  0  0
   39.4230   10.7990   46.5270 C   0  0  0  0  0  0  0  0  0  0  0  0
   40.9050   11.0660   46.7200 C   0  0  0  0  0  0  0  0  0  0  0  0
   39.1930    9.4560   45.8380 C   0  0  0  0  0  0  0  0  0  0  0  0
   35.7800   11.6780   49.6710 N   0  0  0  0  0  0  0  0  0  0  0  0
   35.3250   11.8060   51.0610 C   0  0  2  0  0  0  0  0  0  0  0  0
   34.6650   10.5290   51.5850 C   0  0  0  0  0  0  0  0  0  0  0  0
   34.8040   10.1950   52.7610 O   0  0  0  0  0  0  0  0  0  0  0  0
   34.3900   12.9920   51.2170 C   0  0  0  0  0  0  0  0  0  0  0  0
   33.9640    9.8220   50.7010 N   0  0  0  0  0  0  0  0  0  0  0  0
   33.2620    8.5890   51.0640 C   0  0  0  0  0  0  0  0  0  0  0  0
   37.5280   18.1638   43.2094 H   0  0  0  0  0  0  0  0  0  0  0  0
   39.0450   17.6716   43.9231 H   0  0  0  0  0  0  0  0  0  0  0  0
   37.5474   17.4026   44.7820 H   0  0  0  0  0  0  0  0  0  0  0  0
   38.8865   15.1596   44.6463 H   0  0  0  0  0  0  0  0  0  0  0  0
   38.0212   13.7993   42.1955 H   0  0  0  0  0  0  0  0  0  0  0  0
   40.0673   12.9192   44.1771 H   0  0  0  0  0  0  0  0  0  0  0  0
   39.5448   12.0588   42.6823 H   0  0  0  0  0  0  0  0  0  0  0  0
   41.0371   14.6137   42.8315 H   0  0  0  0  0  0  0  0  0  0  0  0
   41.8461   11.9067   41.8116 H   0  0  0  0  0  0  0  0  0  0  0  0
   42.4001   12.6422   43.2966 H   0  0  0  0  0  0  0  0  0  0  0  0
   42.8292   13.3502   41.7578 H   0  0  0  0  0  0  0  0  0  0  0  0
   40.1034   13.1341   40.3939 H   0  0  0  0  0  0  0  0  0  0  0  0
   41.1207   14.5547   40.4033 H   0  0  0  0  0  0  0  0  0  0  0  0
   39.4719   14.6570   40.9728 H   0  0  0  0  0  0  0  0  0  0  0  0
   36.5107   14.4511   44.7629 H   0  0  0  0  0  0  0  0  0  0  0  0
   34.8255   13.5529   45.9752 H   0  0  0  0  0  0  0  0  0  0  0  0
   34.5854   11.7556   43.5712 H   0  0  0  0  0  0  0  0  0  0  0  0
   33.8777   13.3456   43.7267 H   0  0  0  0  0  0  0  0  0  0  0  0
   33.3330   12.0425   44.7554 H   0  0  0  0  0  0  0  0  0  0  0  0
   36.9211   12.7743   47.1843 H   0  0  0  0  0  0  0  0  0  0  0  0
   36.8548    9.8657   47.4065 H   0  0  0  0  0  0  0  0  0  0  0  0
   38.9530   11.8221   48.3169 H   0  0  0  0  0  0  0  0  0  0  0  0
   39.0251   10.0164   48.4112 H   0  0  0  0  0  0  0  0  0  0  0  0
   39.0151   11.5510   45.8843 H   0  0  0  0  0  0  0  0  0  0  0  0
   41.3215   10.3181   47.3620 H   0  0  0  0  0  0  0  0  0  0  0  0
   41.0389   12.0309   47.1627 H   0  0  0  0  0  0  0  0  0  0  0  0
   41.3991   11.0372   45.7714 H   0  0  0  0  0  0  0  0  0  0  0  0
   39.5870    8.6701   46.4479 H   0  0  0  0  0  0  0  0  0  0  0  0
   39.6871    9.4528   44.8889 H   0  0  0  0  0  0  0  0  0  0  0  0
   38.1437    9.3039   45.6943 H   0  0  0  0  0  0  0  0  0  0  0  0
   35.4397   12.3059   48.9934 H   0  0  0  0  0  0  0  0  0  0  0  0
   36.1989   11.9727   51.6555 H   0  0  0  0  0  0  0  0  0  0  0  0
   33.5123   12.8344   50.6257 H   0  0  0  0  0  0  0  0  0  0  0  0
   34.8854   13.8822   50.8898 H   0  0  0  0  0  0  0  0  0  0  0  0
   34.1134   13.0952   52.2455 H   0  0  0  0  0  0  0  0  0  0  0  0
   33.9159   10.1393   49.7703 H   0  0  0  0  0  0  0  0  0  0  0  0
   33.4136    8.3851   52.1034 H   0  0  0  0  0  0  0  0  0  0  0  0
   33.6438    7.7765   50.4818 H   0  0  0  0  0  0  0  0  0  0  0  0
   32.2157    8.7045   50.8721 H   0  0  0  0  0  0  0  0  0  0  0  0
  1 32  1  0  0  0  0
  1 33  1  0  0  0  0
  1 34  1  0  0  0  0
  2  4  1  0  0  0  0
  2  1  1  0  0  0  0
  3  2  2  0  0  0  0
  4 35  1  0  0  0  0
  5  4  1  0  0  0  0
  5  6  1  0  0  0  0
  5 36  1  6  0  0  0
  6 12  1  0  0  0  0
  7  6  2  0  0  0  0
  8  5  1  0  0  0  0
  8 37  1  0  0  0  0
  8 38  1  0  0  0  0
  9  8  1  0  0  0  0
  9 39  1  0  0  0  0
 10  9  1  0  0  0  0
 10 40  1  0  0  0  0
 10 41  1  0  0  0  0
 10 42  1  0  0  0  0
 11  9  1  0  0  0  0
 11 43  1  0  0  0  0
 11 44  1  0  0  0  0
 11 45  1  0  0  0  0
 12 13  1  0  0  0  0
 12 46  1  0  0  0  0
 13 14  1  0  0  0  0
 13 47  1  1  0  0  0
 14 17  1  0  0  0  0
 15 14  2  0  0  0  0
 16 13  1  0  0  0  0
 16 48  1  0  0  0  0
 16 49  1  0  0  0  0
 16 50  1  0  0  0  0
 17 18  1  0  0  0  0
 17 51  1  0  0  0  0
 18 21  1  0  0  0  0
 18 19  1  0  0  0  0
 18 52  1  6  0  0  0
 19 25  1  0  0  0  0
 19 20  2  0  0  0  0
 21 53  1  0  0  0  0
 21 54  1  0  0  0  0
 22 23  1  0  0  0  0
 22 21  1  0  0  0  0
 22 55  1  0  0  0  0
 23 56  1  0  0  0  0
 23 57  1  0  0  0  0
 23 58  1  0  0  0  0
 24 22  1  0  0  0  0
 24 59  1  0  0  0  0
 24 60  1  0  0  0  0
 24 61  1  0  0  0  0
 25 26  1  0  0  0  0
 25 62  1  0  0  0  0
 26 29  1  0  0  0  0
 26 27  1  0  0  0  0
 26 63  1  1  0  0  0
 27 28  2  0  0  0  0
 29 64  1  0  0  0  0
 29 65  1  0  0  0  0
 29 66  1  0  0  0  0
 30 31  1  0  0  0  0
 30 27  1  0  0  0  0
 30 67  1  0  0  0  0
 31 68  1  0  0  0  0
 31 69  1  0  0  0  0
 31 70  1  0  0  0  0
M  END
>  <MODEL>
       0

$$$$
selected_4mers/LALA/167_noH.pdb
 OpenBabel03042517503D

 70 69  0  0  1  0  0  0  0  0999 V2000
   53.2310   67.2900   11.9160 C   0  0  0  0  0  0  0  0  0  0  0  0
   53.0750   65.7670   11.8470 C   0  0  0  0  0  0  0  0  0  0  0  0
   53.5460   65.0390   12.7350 O   0  0  0  0  0  0  0  0  0  0  0  0
   52.4140   65.2830   10.8000 N   0  0  0  0  0  0  0  0  0  0  0  0
   52.2420   63.8450   10.6170 C   0  0  2  0  0  0  0  0  0  0  0  0
   53.5900   63.1340   10.4230 C   0  0  0  0  0  0  0  0  0  0  0  0
   53.8450   62.0620   11.0060 O   0  0  0  0  0  0  0  0  0  0  0  0
   51.2910   63.5680    9.4350 C   0  0  0  0  0  0  0  0  0  0  0  0
   51.1280   62.1030    9.0490 C   0  0  0  0  0  0  0  0  0  0  0  0
   50.3740   61.3630   10.1520 C   0  0  0  0  0  0  0  0  0  0  0  0
   50.3770   61.9890    7.7400 C   0  0  0  0  0  0  0  0  0  0  0  0
   54.4510   63.7240    9.5870 N   0  0  0  0  0  0  0  0  0  0  0  0
   55.7900   63.1580    9.3560 C   0  0  2  0  0  0  0  0  0  0  0  0
   56.5870   63.1020   10.6650 C   0  0  0  0  0  0  0  0  0  0  0  0
   57.2020   62.0690   10.9720 O   0  0  0  0  0  0  0  0  0  0  0  0
   56.5390   63.9430    8.2790 C   0  0  0  0  0  0  0  0  0  0  0  0
   56.5440   64.1750   11.4530 N   0  0  0  0  0  0  0  0  0  0  0  0
   57.2130   64.1900   12.7650 C   0  0  2  0  0  0  0  0  0  0  0  0
   56.6520   63.1150   13.6990 C   0  0  0  0  0  0  0  0  0  0  0  0
   57.3990   62.3820   14.3610 O   0  0  0  0  0  0  0  0  0  0  0  0
   57.0820   65.5720   13.4260 C   0  0  0  0  0  0  0  0  0  0  0  0
   57.9280   66.6830   12.7660 C   0  0  0  0  0  0  0  0  0  0  0  0
   57.4570   68.1010   13.1440 C   0  0  0  0  0  0  0  0  0  0  0  0
   59.4290   66.4860   13.0870 C   0  0  0  0  0  0  0  0  0  0  0  0
   55.3230   63.0370   13.7610 N   0  0  0  0  0  0  0  0  0  0  0  0
   54.6680   62.0370   14.5950 C   0  0  2  0  0  0  0  0  0  0  0  0
   55.1830   60.6210   14.2910 C   0  0  0  0  0  0  0  0  0  0  0  0
   55.4740   59.8350   15.2060 O   0  0  0  0  0  0  0  0  0  0  0  0
   53.1580   62.1140   14.3760 C   0  0  0  0  0  0  0  0  0  0  0  0
   55.3010   60.3040   12.9990 N   0  0  0  0  0  0  0  0  0  0  0  0
   55.6700   58.9500   12.5560 C   0  0  0  0  0  0  0  0  0  0  0  0
   52.7604   67.7357   11.0647 H   0  0  0  0  0  0  0  0  0  0  0  0
   54.2709   67.5421   11.9214 H   0  0  0  0  0  0  0  0  0  0  0  0
   52.7707   67.6555   12.8101 H   0  0  0  0  0  0  0  0  0  0  0  0
   52.0344   65.9044   10.1374 H   0  0  0  0  0  0  0  0  0  0  0  0
   51.8025   63.4472   11.5078 H   0  0  0  0  0  0  0  0  0  0  0  0
   50.3253   63.9495    9.6933 H   0  0  0  0  0  0  0  0  0  0  0  0
   51.7330   64.0464    8.5861 H   0  0  0  0  0  0  0  0  0  0  0  0
   52.0957   61.6628    8.9278 H   0  0  0  0  0  0  0  0  0  0  0  0
   49.4053   61.7999   10.2768 H   0  0  0  0  0  0  0  0  0  0  0  0
   50.9199   61.4378   11.0692 H   0  0  0  0  0  0  0  0  0  0  0  0
   50.2686   60.3328    9.8827 H   0  0  0  0  0  0  0  0  0  0  0  0
   49.4061   62.4258    7.8466 H   0  0  0  0  0  0  0  0  0  0  0  0
   50.2768   60.9572    7.4750 H   0  0  0  0  0  0  0  0  0  0  0  0
   50.9172   62.5034    6.9729 H   0  0  0  0  0  0  0  0  0  0  0  0
   54.1855   64.5487    9.1194 H   0  0  0  0  0  0  0  0  0  0  0  0
   55.6737   62.1557    9.0000 H   0  0  0  0  0  0  0  0  0  0  0  0
   56.6733   64.9539    8.6030 H   0  0  0  0  0  0  0  0  0  0  0  0
   55.9731   63.9317    7.3709 H   0  0  0  0  0  0  0  0  0  0  0  0
   57.4948   63.4929    8.1093 H   0  0  0  0  0  0  0  0  0  0  0  0
   56.0549   64.9747   11.1522 H   0  0  0  0  0  0  0  0  0  0  0  0
   58.2477   63.9772   12.5945 H   0  0  0  0  0  0  0  0  0  0  0  0
   57.3863   65.4834   14.4480 H   0  0  0  0  0  0  0  0  0  0  0  0
   56.0586   65.8647   13.3168 H   0  0  0  0  0  0  0  0  0  0  0  0
   57.7879   66.5948   11.7089 H   0  0  0  0  0  0  0  0  0  0  0  0
   57.5748   68.2470   14.1974 H   0  0  0  0  0  0  0  0  0  0  0  0
   56.4263   68.2164   12.8810 H   0  0  0  0  0  0  0  0  0  0  0  0
   58.0430   68.8240   12.6160 H   0  0  0  0  0  0  0  0  0  0  0  0
   59.5823   66.5720   14.1425 H   0  0  0  0  0  0  0  0  0  0  0  0
   60.0031   67.2339   12.5811 H   0  0  0  0  0  0  0  0  0  0  0  0
   59.7395   65.5159   12.7594 H   0  0  0  0  0  0  0  0  0  0  0  0
   54.7754   63.6642   13.2356 H   0  0  0  0  0  0  0  0  0  0  0  0
   54.8968   62.2442   15.6195 H   0  0  0  0  0  0  0  0  0  0  0  0
   52.9353   61.9060   13.3503 H   0  0  0  0  0  0  0  0  0  0  0  0
   52.8112   63.0953   14.6244 H   0  0  0  0  0  0  0  0  0  0  0  0
   52.6700   61.3947   14.9999 H   0  0  0  0  0  0  0  0  0  0  0  0
   55.1358   60.9985   12.3211 H   0  0  0  0  0  0  0  0  0  0  0  0
   55.8130   58.3218   13.4103 H   0  0  0  0  0  0  0  0  0  0  0  0
   56.5771   58.9947   11.9903 H   0  0  0  0  0  0  0  0  0  0  0  0
   54.8882   58.5491   11.9453 H   0  0  0  0  0  0  0  0  0  0  0  0
  1 32  1  0  0  0  0
  1 33  1  0  0  0  0
  1 34  1  0  0  0  0
  2  1  1  0  0  0  0
  2  3  2  0  0  0  0
  4  2  1  0  0  0  0
  4 35  1  0  0  0  0
  5  4  1  0  0  0  0
  5 36  1  1  0  0  0
  6  5  1  0  0  0  0
  6  7  2  0  0  0  0
  8  5  1  0  0  0  0
  8 37  1  0  0  0  0
  8 38  1  0  0  0  0
  9  8  1  0  0  0  0
  9 10  1  0  0  0  0
  9 39  1  0  0  0  0
 10 40  1  0  0  0  0
 10 41  1  0  0  0  0
 10 42  1  0  0  0  0
 11  9  1  0  0  0  0
 11 43  1  0  0  0  0
 11 44  1  0  0  0  0
 11 45  1  0  0  0  0
 12  6  1  0  0  0  0
 12 46  1  0  0  0  0
 13 12  1  0  0  0  0
 13 14  1  0  0  0  0
 13 47  1  6  0  0  0
 14 15  2  0  0  0  0
 14 17  1  0  0  0  0
 16 13  1  0  0  0  0
 16 48  1  0  0  0  0
 16 49  1  0  0  0  0
 16 50  1  0  0  0  0
 17 18  1  0  0  0  0
 17 51  1  0  0  0  0
 18 21  1  0  0  0  0
 18 19  1  0  0  0  0
 18 52  1  6  0  0  0
 19 25  1  0  0  0  0
 19 20  2  0  0  0  0
 21 53  1  0  0  0  0
 21 54  1  0  0  0  0
 22 24  1  0  0  0  0
 22 23  1  0  0  0  0
 22 21  1  0  0  0  0
 22 55  1  0  0  0  0
 23 56  1  0  0  0  0
 23 57  1  0  0  0  0
 23 58  1  0  0  0  0
 24 59  1  0  0  0  0
 24 60  1  0  0  0  0
 24 61  1  0  0  0  0
 25 26  1  0  0  0  0
 25 62  1  0  0  0  0
 26 63  1  1  0  0  0
 27 26  1  0  0  0  0
 27 28  2  0  0  0  0
 29 26  1  0  0  0  0
 29 64  1  0  0  0  0
 29 65  1  0  0  0  0
 29 66  1  0  0  0  0
 30 27  1  0  0  0  0
 30 67  1  0  0  0  0
 31 30  1  0  0  0  0
 31 68  1  0  0  0  0
 31 69  1  0  0  0  0
 31 70  1  0  0  0  0
M  END
>  <MODEL>
       0

$$$$
selected_4mers/LALA/168_noH.pdb
 OpenBabel03042517503D

 70 69  0  0  1  0  0  0  0  0999 V2000
    2.2570   21.7790   42.9760 C   0  0  0  0  0  0  0  0  0  0  0  0
    1.4010   22.7770   43.7350 C   0  0  0  0  0  0  0  0  0  0  0  0
    1.9260   23.6480   44.4340 O   0  0  0  0  0  0  0  0  0  0  0  0
    0.0820   22.6510   43.5830 N   0  0  0  0  0  0  0  0  0  0  0  0
   -0.8570   23.5310   44.2650 C   0  0  2  0  0  0  0  0  0  0  0  0
   -0.6850   23.4630   45.7750 C   0  0  0  0  0  0  0  0  0  0  0  0
   -0.8330   24.4680   46.4640 O   0  0  0  0  0  0  0  0  0  0  0  0
   -2.2980   23.1690   43.8860 C   0  0  0  0  0  0  0  0  0  0  0  0
   -2.7630   23.6730   42.5160 C   0  0  0  0  0  0  0  0  0  0  0  0
   -4.0690   23.0080   42.0950 C   0  0  0  0  0  0  0  0  0  0  0  0
   -2.9380   25.1800   42.5960 C   0  0  0  0  0  0  0  0  0  0  0  0
   -0.3780   22.2820   46.2960 N   0  0  0  0  0  0  0  0  0  0  0  0
   -0.1800   22.1440   47.7350 C   0  0  2  0  0  0  0  0  0  0  0  0
    1.0280   22.9670   48.2130 C   0  0  0  0  0  0  0  0  0  0  0  0
    1.1070   23.3500   49.3770 O   0  0  0  0  0  0  0  0  0  0  0  0
    0.0080   20.6880   48.0920 C   0  0  0  0  0  0  0  0  0  0  0  0
    1.9660   23.2450   47.3120 N   0  0  0  0  0  0  0  0  0  0  0  0
    3.1530   24.0190   47.6710 C   0  0  2  0  0  0  0  0  0  0  0  0
    2.9910   25.4910   47.3130 C   0  0  0  0  0  0  0  0  0  0  0  0
    3.8400   26.3210   47.6330 O   0  0  0  0  0  0  0  0  0  0  0  0
    4.3910   23.4460   46.9650 C   0  0  0  0  0  0  0  0  0  0  0  0
    4.7240   21.9960   47.3400 C   0  0  0  0  0  0  0  0  0  0  0  0
    5.9750   21.5330   46.6080 C   0  0  0  0  0  0  0  0  0  0  0  0
    4.9340   21.8990   48.8320 C   0  0  0  0  0  0  0  0  0  0  0  0
    1.8860   25.8100   46.6540 N   0  0  0  0  0  0  0  0  0  0  0  0
    1.6150   27.1780   46.2360 C   0  0  2  0  0  0  0  0  0  0  0  0
    1.0520   27.9890   47.3880 C   0  0  0  0  0  0  0  0  0  0  0  0
    0.6020   27.4280   48.3830 O   0  0  0  0  0  0  0  0  0  0  0  0
    0.6270   27.1830   45.0750 C   0  0  0  0  0  0  0  0  0  0  0  0
    1.0710   29.3110   47.2430 N   0  0  0  0  0  0  0  0  0  0  0  0
    0.5390   30.1810   48.2790 C   0  0  0  0  0  0  0  0  0  0  0  0
    1.6253   21.1087   42.4315 H   0  0  0  0  0  0  0  0  0  0  0  0
    2.8548   21.2231   43.6677 H   0  0  0  0  0  0  0  0  0  0  0  0
    2.8943   22.3019   42.2938 H   0  0  0  0  0  0  0  0  0  0  0  0
   -0.2665   21.9437   42.9936 H   0  0  0  0  0  0  0  0  0  0  0  0
   -0.6510   24.5330   43.9512 H   0  0  0  0  0  0  0  0  0  0  0  0
   -2.3829   22.1024   43.8917 H   0  0  0  0  0  0  0  0  0  0  0  0
   -2.9232   23.6537   44.6065 H   0  0  0  0  0  0  0  0  0  0  0  0
   -2.0287   23.4237   41.7788 H   0  0  0  0  0  0  0  0  0  0  0  0
   -4.8316   23.2349   42.8105 H   0  0  0  0  0  0  0  0  0  0  0  0
   -3.9299   21.9482   42.0458 H   0  0  0  0  0  0  0  0  0  0  0  0
   -4.3619   23.3743   41.1333 H   0  0  0  0  0  0  0  0  0  0  0  0
   -3.6742   25.4148   43.3361 H   0  0  0  0  0  0  0  0  0  0  0  0
   -3.2566   25.5530   41.6451 H   0  0  0  0  0  0  0  0  0  0  0  0
   -2.0064   25.6336   42.8631 H   0  0  0  0  0  0  0  0  0  0  0  0
   -0.2835   21.4966   45.7100 H   0  0  0  0  0  0  0  0  0  0  0  0
   -1.0514   22.5199   48.2292 H   0  0  0  0  0  0  0  0  0  0  0  0
    0.8789   20.3095   47.5990 H   0  0  0  0  0  0  0  0  0  0  0  0
   -0.8498   20.1303   47.7788 H   0  0  0  0  0  0  0  0  0  0  0  0
    0.1280   20.5930   49.1510 H   0  0  0  0  0  0  0  0  0  0  0  0
    1.8591   22.9240   46.3875 H   0  0  0  0  0  0  0  0  0  0  0  0
    3.2797   23.9472   48.7310 H   0  0  0  0  0  0  0  0  0  0  0  0
    4.2227   23.4878   45.9091 H   0  0  0  0  0  0  0  0  0  0  0  0
    5.2231   24.0403   47.2803 H   0  0  0  0  0  0  0  0  0  0  0  0
    3.9093   21.3648   47.0524 H   0  0  0  0  0  0  0  0  0  0  0  0
    6.8008   22.1546   46.8847 H   0  0  0  0  0  0  0  0  0  0  0  0
    5.8159   21.6004   45.5520 H   0  0  0  0  0  0  0  0  0  0  0  0
    6.1881   20.5183   46.8725 H   0  0  0  0  0  0  0  0  0  0  0  0
    5.7488   22.5303   49.1193 H   0  0  0  0  0  0  0  0  0  0  0  0
    5.1572   20.8863   49.0957 H   0  0  0  0  0  0  0  0  0  0  0  0
    4.0448   22.2117   49.3384 H   0  0  0  0  0  0  0  0  0  0  0  0
    1.2327   25.1047   46.4421 H   0  0  0  0  0  0  0  0  0  0  0  0
    2.5360   27.6223   45.9210 H   0  0  0  0  0  0  0  0  0  0  0  0
   -0.2945   26.7389   45.3889 H   0  0  0  0  0  0  0  0  0  0  0  0
    1.0330   26.6229   44.2587 H   0  0  0  0  0  0  0  0  0  0  0  0
    0.4490   28.1907   44.7625 H   0  0  0  0  0  0  0  0  0  0  0  0
    1.4499   29.7051   46.4242 H   0  0  0  0  0  0  0  0  0  0  0  0
    0.1717   29.5870   49.0897 H   0  0  0  0  0  0  0  0  0  0  0  0
   -0.2599   30.7680   47.8763 H   0  0  0  0  0  0  0  0  0  0  0  0
    1.3136   30.8284   48.6336 H   0  0  0  0  0  0  0  0  0  0  0  0
  1  2  1  0  0  0  0
  1 32  1  0  0  0  0
  1 33  1  0  0  0  0
  1 34  1  0  0  0  0
  2  3  2  0  0  0  0
  4  2  1  0  0  0  0
  4  5  1  0  0  0  0
  4 35  1  0  0  0  0
  5  6  1  0  0  0  0
  5 36  1  6  0  0  0
  6 12  1  0  0  0  0
  6  7  2  0  0  0  0
  8  5  1  0  0  0  0
  8 37  1  0  0  0  0
  8 38  1  0  0  0  0
  9 11  1  0  0  0  0
  9  8  1  0  0  0  0
  9 39  1  0  0  0  0
 10  9  1  0  0  0  0
 10 40  1  0  0  0  0
 10 41  1  0  0  0  0
 10 42  1  0  0  0  0
 11 43  1  0  0  0  0
 11 44  1  0  0  0  0
 11 45  1  0  0  0  0
 12 13  1  0  0  0  0
 12 46  1  0  0  0  0
 13 16  1  0  0  0  0
 13 14  1  0  0  0  0
 13 47  1  1  0  0  0
 14 15  2  0  0  0  0
 16 48  1  0  0  0  0
 16 49  1  0  0  0  0
 16 50  1  0  0  0  0
 17 18  1  0  0  0  0
 17 14  1  0  0  0  0
 17 51  1  0  0  0  0
 18 52  1  1  0  0  0
 19 20  2  0  0  0  0
 19 18  1  0  0  0  0
 21 22  1  0  0  0  0
 21 18  1  0  0  0  0
 21 53  1  0  0  0  0
 21 54  1  0  0  0  0
 22 24  1  0  0  0  0
 22 55  1  0  0  0  0
 23 22  1  0  0  0  0
 23 56  1  0  0  0  0
 23 57  1  0  0  0  0
 23 58  1  0  0  0  0
 24 59  1  0  0  0  0
 24 60  1  0  0  0  0
 24 61  1  0  0  0  0
 25 19  1  0  0  0  0
 25 62  1  0  0  0  0
 26 25  1  0  0  0  0
 26 27  1  0  0  0  0
 26 63  1  6  0  0  0
 27 28  2  0  0  0  0
 29 26  1  0  0  0  0
 29 64  1  0  0  0  0
 29 65  1  0  0  0  0
 29 66  1  0  0  0  0
 30 27  1  0  0  0  0
 30 31  1  0  0  0  0
 30 67  1  0  0  0  0
 31 68  1  0  0  0  0
 31 69  1  0  0  0  0
 31 70  1  0  0  0  0
M  END
>  <MODEL>
       0

$$$$
selected_4mers/LALA/169_noH.pdb
 OpenBabel03042517503D

 70 69  0  0  1  0  0  0  0  0999 V2000
   52.6190   31.4140  -26.2120 C   0  0  0  0  0  0  0  0  0  0  0  0
   54.1060   31.4770  -26.5460 C   0  0  0  0  0  0  0  0  0  0  0  0
   54.7450   32.5050  -26.3140 O   0  0  0  0  0  0  0  0  0  0  0  0
   54.6500   30.3830  -27.0460 N   0  0  0  0  0  0  0  0  0  0  0  0
   56.0480   30.3440  -27.4230 C   0  0  2  0  0  0  0  0  0  0  0  0
   56.3490   31.3490  -28.5320 C   0  0  0  0  0  0  0  0  0  0  0  0
   57.4500   31.8970  -28.5600 O   0  0  0  0  0  0  0  0  0  0  0  0
   56.4280   28.9560  -27.9170 C   0  0  0  0  0  0  0  0  0  0  0  0
   56.6710   27.9880  -26.7840 C   0  0  0  0  0  0  0  0  0  0  0  0
   56.8370   26.6150  -27.3950 C   0  0  0  0  0  0  0  0  0  0  0  0
   57.8550   28.3620  -25.8850 C   0  0  0  0  0  0  0  0  0  0  0  0
   55.4090   31.5390  -29.4370 N   0  0  0  0  0  0  0  0  0  0  0  0
   55.5980   32.4280  -30.5920 C   0  0  2  0  0  0  0  0  0  0  0  0
   55.3310   33.8890  -30.2420 C   0  0  0  0  0  0  0  0  0  0  0  0
   55.5820   34.7780  -31.0900 O   0  0  0  0  0  0  0  0  0  0  0  0
   54.6680   32.0660  -31.7180 C   0  0  0  0  0  0  0  0  0  0  0  0
   54.7600   34.1400  -29.0740 N   0  0  0  0  0  0  0  0  0  0  0  0
   54.4370   35.4800  -28.6560 C   0  0  2  0  0  0  0  0  0  0  0  0
   55.6420   36.1980  -28.1520 C   0  0  0  0  0  0  0  0  0  0  0  0
   56.2220   35.9060  -27.1210 O   0  0  0  0  0  0  0  0  0  0  0  0
   53.4070   35.4300  -27.5200 C   0  0  0  0  0  0  0  0  0  0  0  0
   52.9860   36.8470  -27.0620 C   0  0  0  0  0  0  0  0  0  0  0  0
   52.3630   37.6490  -28.1670 C   0  0  0  0  0  0  0  0  0  0  0  0
   51.9240   36.7260  -25.9370 C   0  0  0  0  0  0  0  0  0  0  0  0
   56.0450   37.2340  -28.8990 N   0  0  0  0  0  0  0  0  0  0  0  0
   57.2550   37.9400  -28.5290 C   0  0  2  0  0  0  0  0  0  0  0  0
   57.2190   38.6270  -27.1780 C   0  0  0  0  0  0  0  0  0  0  0  0
   56.1470   39.0320  -26.6680 O   0  0  0  0  0  0  0  0  0  0  0  0
   57.5010   38.9880  -29.6250 C   0  0  0  0  0  0  0  0  0  0  0  0
   58.3830   38.7850  -26.5740 N   0  0  0  0  0  0  0  0  0  0  0  0
   58.5190   39.4980  -25.3320 C   0  0  0  0  0  0  0  0  0  0  0  0
   52.2337   30.4525  -26.4801 H   0  0  0  0  0  0  0  0  0  0  0  0
   52.0982   32.1721  -26.7588 H   0  0  0  0  0  0  0  0  0  0  0  0
   52.4820   31.5733  -25.1628 H   0  0  0  0  0  0  0  0  0  0  0  0
   54.0951   29.5785  -27.1649 H   0  0  0  0  0  0  0  0  0  0  0  0
   56.6183   30.5938  -26.5528 H   0  0  0  0  0  0  0  0  0  0  0  0
   57.3210   29.0319  -28.5015 H   0  0  0  0  0  0  0  0  0  0  0  0
   55.6105   28.5810  -28.4966 H   0  0  0  0  0  0  0  0  0  0  0  0
   55.8307   28.0148  -26.1221 H   0  0  0  0  0  0  0  0  0  0  0  0
   57.6824   26.6163  -28.0509 H   0  0  0  0  0  0  0  0  0  0  0  0
   55.9568   26.3620  -27.9482 H   0  0  0  0  0  0  0  0  0  0  0  0
   56.9893   25.8950  -26.6183 H   0  0  0  0  0  0  0  0  0  0  0  0
   58.7554   28.3628  -26.4630 H   0  0  0  0  0  0  0  0  0  0  0  0
   57.9405   27.6482  -25.0925 H   0  0  0  0  0  0  0  0  0  0  0  0
   57.6955   29.3361  -25.4720 H   0  0  0  0  0  0  0  0  0  0  0  0
   54.5501   31.0687  -29.3354 H   0  0  0  0  0  0  0  0  0  0  0  0
   56.6189   32.3039  -30.8876 H   0  0  0  0  0  0  0  0  0  0  0  0
   53.6548   32.1975  -31.4000 H   0  0  0  0  0  0  0  0  0  0  0  0
   54.8249   31.0447  -31.9959 H   0  0  0  0  0  0  0  0  0  0  0  0
   54.8629   32.6984  -32.5588 H   0  0  0  0  0  0  0  0  0  0  0  0
   54.5500   33.3886  -28.4736 H   0  0  0  0  0  0  0  0  0  0  0  0
   54.0471   35.9991  -29.5065 H   0  0  0  0  0  0  0  0  0  0  0  0
   53.8341   34.9099  -26.6881 H   0  0  0  0  0  0  0  0  0  0  0  0
   52.5360   34.9258  -27.8833 H   0  0  0  0  0  0  0  0  0  0  0  0
   53.8758   37.3409  -26.7316 H   0  0  0  0  0  0  0  0  0  0  0  0
   51.4719   37.1612  -28.5031 H   0  0  0  0  0  0  0  0  0  0  0  0
   53.0530   37.7314  -28.9806 H   0  0  0  0  0  0  0  0  0  0  0  0
   52.1199   38.6262  -27.8051 H   0  0  0  0  0  0  0  0  0  0  0  0
   51.0571   36.2270  -26.3170 H   0  0  0  0  0  0  0  0  0  0  0  0
   51.6523   37.7033  -25.5964 H   0  0  0  0  0  0  0  0  0  0  0  0
   52.3303   36.1643  -25.1219 H   0  0  0  0  0  0  0  0  0  0  0  0
   55.5264   37.5119  -29.6884 H   0  0  0  0  0  0  0  0  0  0  0  0
   58.0369   37.2148  -28.4421 H   0  0  0  0  0  0  0  0  0  0  0  0
   56.6813   39.6752  -29.6518 H   0  0  0  0  0  0  0  0  0  0  0  0
   57.5877   38.4992  -30.5729 H   0  0  0  0  0  0  0  0  0  0  0  0
   58.4053   39.5195  -29.4137 H   0  0  0  0  0  0  0  0  0  0  0  0
   59.1882   38.4001  -26.9896 H   0  0  0  0  0  0  0  0  0  0  0  0
   57.5593   39.8503  -25.0161 H   0  0  0  0  0  0  0  0  0  0  0  0
   59.1772   40.3304  -25.4688 H   0  0  0  0  0  0  0  0  0  0  0  0
   58.9216   38.8436  -24.5873 H   0  0  0  0  0  0  0  0  0  0  0  0
  1 32  1  0  0  0  0
  1 33  1  0  0  0  0
  1 34  1  0  0  0  0
  2  3  2  0  0  0  0
  2  1  1  0  0  0  0
  4  2  1  0  0  0  0
  4 35  1  0  0  0  0
  5  4  1  0  0  0  0
  5 36  1  1  0  0  0
  6  5  1  0  0  0  0
  7  6  2  0  0  0  0
  8  5  1  0  0  0  0
  8  9  1  0  0  0  0
  8 37  1  0  0  0  0
  8 38  1  0  0  0  0
  9 11  1  0  0  0  0
  9 39  1  0  0  0  0
 10  9  1  0  0  0  0
 10 40  1  0  0  0  0
 10 41  1  0  0  0  0
 10 42  1  0  0  0  0
 11 43  1  0  0  0  0
 11 44  1  0  0  0  0
 11 45  1  0  0  0  0
 12  6  1  0  0  0  0
 12 46  1  0  0  0  0
 13 14  1  0  0  0  0
 13 12  1  0  0  0  0
 13 47  1  6  0  0  0
 14 17  1  0  0  0  0
 15 14  2  0  0  0  0
 16 13  1  0  0  0  0
 16 48  1  0  0  0  0
 16 49  1  0  0  0  0
 16 50  1  0  0  0  0
 17 18  1  0  0  0  0
 17 51  1  0  0  0  0
 18 19  1  0  0  0  0
 18 21  1  0  0  0  0
 18 52  1  6  0  0  0
 19 20  2  0  0  0  0
 21 22  1  0  0  0  0
 21 53  1  0  0  0  0
 21 54  1  0  0  0  0
 22 24  1  0  0  0  0
 22 55  1  0  0  0  0
 23 22  1  0  0  0  0
 23 56  1  0  0  0  0
 23 57  1  0  0  0  0
 23 58  1  0  0  0  0
 24 59  1  0  0  0  0
 24 60  1  0  0  0  0
 24 61  1  0  0  0  0
 25 26  1  0  0  0  0
 25 19  1  0  0  0  0
 25 62  1  0  0  0  0
 26 27  1  0  0  0  0
 26 63  1  6  0  0  0
 27 28  2  0  0  0  0
 27 30  1  0  0  0  0
 29 26  1  0  0  0  0
 29 64  1  0  0  0  0
 29 65  1  0  0  0  0
 29 66  1  0  0  0  0
 30 31  1  0  0  0  0
 30 67  1  0  0  0  0
 31 68  1  0  0  0  0
 31 69  1  0  0  0  0
 31 70  1  0  0  0  0
M  END
>  <MODEL>
       0

$$$$
