selected_4mers/LAPG/370_noH.pdb
 OpenBabel03042517593D

 62 62  0  0  1  0  0  0  0  0999 V2000
    6.1080   32.6550   15.9880 C   0  0  0  0  0  0  0  0  0  0  0  0
    4.8010   31.8820   16.1220 C   0  0  0  0  0  0  0  0  0  0  0  0
    3.7180   32.4280   15.9080 O   0  0  0  0  0  0  0  0  0  0  0  0
    4.9090   30.6060   16.4830 N   0  0  0  0  0  0  0  0  0  0  0  0
    3.7380   29.7510   16.6420 C   0  0  2  0  0  0  0  0  0  0  0  0
    2.8720   30.2180   17.8050 C   0  0  0  0  0  0  0  0  0  0  0  0
    1.6440   30.2810   17.6950 O   0  0  0  0  0  0  0  0  0  0  0  0
    4.1710   28.3040   16.8890 C   0  0  0  0  0  0  0  0  0  0  0  0
    3.0370   27.2940   17.0570 C   0  0  0  0  0  0  0  0  0  0  0  0
    2.3360   27.0790   15.7250 C   0  0  0  0  0  0  0  0  0  0  0  0
    3.5930   25.9850   17.5870 C   0  0  0  0  0  0  0  0  0  0  0  0
    3.5220   30.5330   18.9200 N   0  0  0  0  0  0  0  0  0  0  0  0
    2.8250   30.9760   20.1230 C   0  0  2  0  0  0  0  0  0  0  0  0
    3.5220   32.1890   20.7300 C   0  0  0  0  0  0  0  0  0  0  0  0
    4.3480   32.0610   21.6390 O   0  0  0  0  0  0  0  0  0  0  0  0
    2.7730   29.8400   21.1330 C   0  0  0  0  0  0  0  0  0  0  0  0
    3.2050   33.3900   20.2250 N   0  0  0  0  0  0  0  0  0  0  0  0
    3.8280   34.6070   20.7490 C   0  0  2  0  0  0  0  0  0  0  0  0
    3.7400   34.6970   22.2690 C   0  0  0  0  0  0  0  0  0  0  0  0
    2.6930   34.4170   22.8560 O   0  0  0  0  0  0  0  0  0  0  0  0
    3.0400   35.7210   20.0640 C   0  0  0  0  0  0  0  0  0  0  0  0
    2.6430   35.1150   18.7590 C   0  0  0  0  0  0  0  0  0  0  0  0
    2.2880   33.6890   19.1100 C   0  0  0  0  0  0  0  0  0  0  0  0
    4.8500   35.0720   22.8970 N   0  0  0  0  0  0  0  0  0  0  0  0
    4.8820   35.2060   24.3420 C   0  0  0  0  0  0  0  0  0  0  0  0
    5.1760   33.9200   25.0990 C   0  0  0  0  0  0  0  0  0  0  0  0
    5.1530   33.9080   26.3320 O   0  0  0  0  0  0  0  0  0  0  0  0
    5.4720   32.8400   24.3780 N   0  0  0  0  0  0  0  0  0  0  0  0
    5.7430   31.5580   25.0250 C   0  0  0  0  0  0  0  0  0  0  0  0
    5.8981   33.6625   15.6953 H   0  0  0  0  0  0  0  0  0  0  0  0
    6.7235   32.1892   15.2470 H   0  0  0  0  0  0  0  0  0  0  0  0
    6.6198   32.6559   16.9277 H   0  0  0  0  0  0  0  0  0  0  0  0
    5.8034   30.2287   16.6472 H   0  0  0  0  0  0  0  0  0  0  0  0
    3.1659   29.8093   15.7397 H   0  0  0  0  0  0  0  0  0  0  0  0
    4.7629   28.2853   17.7802 H   0  0  0  0  0  0  0  0  0  0  0  0
    4.7019   28.0037   16.0099 H   0  0  0  0  0  0  0  0  0  0  0  0
    2.3233   27.6719   17.7589 H   0  0  0  0  0  0  0  0  0  0  0  0
    3.0366   26.7006   15.0102 H   0  0  0  0  0  0  0  0  0  0  0  0
    1.9386   28.0094   15.3768 H   0  0  0  0  0  0  0  0  0  0  0  0
    1.5395   26.3756   15.8506 H   0  0  0  0  0  0  0  0  0  0  0  0
    4.3091   25.5951   16.8941 H   0  0  0  0  0  0  0  0  0  0  0  0
    2.7955   25.2821   17.7090 H   0  0  0  0  0  0  0  0  0  0  0  0
    4.0663   26.1549   18.5314 H   0  0  0  0  0  0  0  0  0  0  0  0
    4.5041   30.4655   18.9351 H   0  0  0  0  0  0  0  0  0  0  0  0
    1.8272   31.2586   19.8597 H   0  0  0  0  0  0  0  0  0  0  0  0
    3.7690   29.5538   21.3995 H   0  0  0  0  0  0  0  0  0  0  0  0
    2.2645   29.0028   20.7023 H   0  0  0  0  0  0  0  0  0  0  0  0
    2.2489   30.1642   22.0077 H   0  0  0  0  0  0  0  0  0  0  0  0
    4.8782   34.6517   20.5493 H   0  0  0  0  0  0  0  0  0  0  0  0
    2.1784   35.9893   20.6390 H   0  0  0  0  0  0  0  0  0  0  0  0
    3.6054   36.6223   19.9502 H   0  0  0  0  0  0  0  0  0  0  0  0
    1.7994   35.6256   18.3437 H   0  0  0  0  0  0  0  0  0  0  0  0
    3.4180   35.1770   18.0238 H   0  0  0  0  0  0  0  0  0  0  0  0
    2.4611   33.0336   18.2821 H   0  0  0  0  0  0  0  0  0  0  0  0
    1.2565   33.5589   19.3629 H   0  0  0  0  0  0  0  0  0  0  0  0
    5.6624   35.2617   22.3743 H   0  0  0  0  0  0  0  0  0  0  0  0
    3.9284   35.5699   24.6631 H   0  0  0  0  0  0  0  0  0  0  0  0
    5.6875   35.8747   24.5632 H   0  0  0  0  0  0  0  0  0  0  0  0
    5.5087   32.9062   23.3964 H   0  0  0  0  0  0  0  0  0  0  0  0
    5.6597   31.6693   26.0859 H   0  0  0  0  0  0  0  0  0  0  0  0
    6.7325   31.2353   24.7768 H   0  0  0  0  0  0  0  0  0  0  0  0
    5.0351   30.8307   24.6860 H   0  0  0  0  0  0  0  0  0  0  0  0
  1  2  1  0  0  0  0
  1 30  1  0  0  0  0
  1 31  1  0  0  0  0
  1 32  1  0  0  0  0
  2  4  1  0  0  0  0
  3  2  2  0  0  0  0
  4  5  1  0  0  0  0
  4 33  1  0  0  0  0
  5  8  1  0  0  0  0
  5  6  1  0  0  0  0
  5 34  1  6  0  0  0
  6 12  1  0  0  0  0
  7  6  2  0  0  0  0
  8  9  1  0  0  0  0
  8 35  1  0  0  0  0
  8 36  1  0  0  0  0
  9 11  1  0  0  0  0
  9 37  1  0  0  0  0
 10  9  1  0  0  0  0
 10 38  1  0  0  0  0
 10 39  1  0  0  0  0
 10 40  1  0  0  0  0
 11 41  1  0  0  0  0
 11 42  1  0  0  0  0
 11 43  1  0  0  0  0
 12 13  1  0  0  0  0
 12 44  1  0  0  0  0
 13 14  1  0  0  0  0
 13 16  1  0  0  0  0
 13 45  1  6  0  0  0
 14 15  2  0  0  0  0
 16 46  1  0  0  0  0
 16 47  1  0  0  0  0
 16 48  1  0  0  0  0
 17 14  1  0  0  0  0
 17 18  1  0  0  0  0
 18 19  1  0  0  0  0
 18 49  1  6  0  0  0
 19 20  2  0  0  0  0
 19 24  1  0  0  0  0
 21 18  1  0  0  0  0
 21 50  1  0  0  0  0
 21 51  1  0  0  0  0
 22 23  1  0  0  0  0
 22 21  1  0  0  0  0
 22 52  1  0  0  0  0
 22 53  1  0  0  0  0
 23 17  1  0  0  0  0
 23 54  1  0  0  0  0
 23 55  1  0  0  0  0
 24 25  1  0  0  0  0
 24 56  1  0  0  0  0
 25 26  1  0  0  0  0
 25 57  1  0  0  0  0
 25 58  1  0  0  0  0
 26 27  2  0  0  0  0
 28 29  1  0  0  0  0
 28 26  1  0  0  0  0
 28 59  1  0  0  0  0
 29 60  1  0  0  0  0
 29 61  1  0  0  0  0
 29 62  1  0  0  0  0
M  END
>  <MODEL>
       0

$$$$
selected_4mers/LAPG/371_noH.pdb
 OpenBabel03042517593D

 62 62  0  0  1  0  0  0  0  0999 V2000
   29.6600   -5.5740   86.8400 C   0  0  0  0  0  0  0  0  0  0  0  0
   28.9190   -4.2690   87.1380 C   0  0  0  0  0  0  0  0  0  0  0  0
   29.5340   -3.1900   87.0550 O   0  0  0  0  0  0  0  0  0  0  0  0
   27.6180   -4.3540   87.4830 N   0  0  0  0  0  0  0  0  0  0  0  0
   26.7900   -3.1930   87.8040 C   0  0  2  0  0  0  0  0  0  0  0  0
   26.9640   -2.6890   89.2190 C   0  0  0  0  0  0  0  0  0  0  0  0
   26.7610   -3.4630   90.1760 O   0  0  0  0  0  0  0  0  0  0  0  0
   25.3200   -3.5920   87.5790 C   0  0  0  0  0  0  0  0  0  0  0  0
   24.2920   -2.5230   87.3780 C   0  0  0  0  0  0  0  0  0  0  0  0
   24.7060   -1.7320   86.1230 C   0  0  0  0  0  0  0  0  0  0  0  0
   22.8930   -3.2320   87.2320 C   0  0  0  0  0  0  0  0  0  0  0  0
   27.3570   -1.4140   89.3710 N   0  0  0  0  0  0  0  0  0  0  0  0
   27.6700   -0.8520   90.6630 C   0  0  2  0  0  0  0  0  0  0  0  0
   26.3860   -0.8350   91.4690 C   0  0  0  0  0  0  0  0  0  0  0  0
   25.3170   -0.8750   90.8800 O   0  0  0  0  0  0  0  0  0  0  0  0
   28.2490    0.5640   90.5260 C   0  0  0  0  0  0  0  0  0  0  0  0
   26.4900   -0.8060   92.8090 N   0  0  0  0  0  0  0  0  0  0  0  0
   25.2460   -0.6710   93.5880 C   0  0  2  0  0  0  0  0  0  0  0  0
   24.4900    0.5890   93.2370 C   0  0  0  0  0  0  0  0  0  0  0  0
   25.1140    1.6320   93.1290 O   0  0  0  0  0  0  0  0  0  0  0  0
   25.7450   -0.5640   95.0400 C   0  0  0  0  0  0  0  0  0  0  0  0
   27.2570   -0.2290   94.9150 C   0  0  0  0  0  0  0  0  0  0  0  0
   27.6580   -0.9620   93.6880 C   0  0  0  0  0  0  0  0  0  0  0  0
   23.1640    0.5110   93.0730 N   0  0  0  0  0  0  0  0  0  0  0  0
   22.4010    1.6820   92.6760 C   0  0  0  0  0  0  0  0  0  0  0  0
   22.5510    2.0130   91.1780 C   0  0  0  0  0  0  0  0  0  0  0  0
   21.8450    2.8780   90.6510 O   0  0  0  0  0  0  0  0  0  0  0  0
   23.4370    1.2870   90.4840 N   0  0  0  0  0  0  0  0  0  0  0  0
   23.6370    1.4400   89.0540 C   0  0  0  0  0  0  0  0  0  0  0  0
   30.6754   -5.3567   86.5820 H   0  0  0  0  0  0  0  0  0  0  0  0
   29.1842   -6.0759   86.0235 H   0  0  0  0  0  0  0  0  0  0  0  0
   29.6386   -6.2021   87.7060 H   0  0  0  0  0  0  0  0  0  0  0  0
   27.2036   -5.2462   87.5207 H   0  0  0  0  0  0  0  0  0  0  0  0
   27.0951   -2.3889   87.1675 H   0  0  0  0  0  0  0  0  0  0  0  0
   25.2956   -4.2155   86.7098 H   0  0  0  0  0  0  0  0  0  0  0  0
   25.0362   -4.0445   88.5061 H   0  0  0  0  0  0  0  0  0  0  0  0
   24.2207   -1.8355   88.1948 H   0  0  0  0  0  0  0  0  0  0  0  0
   24.7842   -2.3995   85.2904 H   0  0  0  0  0  0  0  0  0  0  0  0
   25.6521   -1.2621   86.2935 H   0  0  0  0  0  0  0  0  0  0  0  0
   23.9694   -0.9848   85.9132 H   0  0  0  0  0  0  0  0  0  0  0  0
   22.9293   -3.9290   86.4209 H   0  0  0  0  0  0  0  0  0  0  0  0
   22.1395   -2.4976   87.0377 H   0  0  0  0  0  0  0  0  0  0  0  0
   22.6599   -3.7511   88.1382 H   0  0  0  0  0  0  0  0  0  0  0  0
   27.4343   -0.8425   88.5731 H   0  0  0  0  0  0  0  0  0  0  0  0
   28.4153   -1.4420   91.1543 H   0  0  0  0  0  0  0  0  0  0  0  0
   27.5362    1.1951   90.0376 H   0  0  0  0  0  0  0  0  0  0  0  0
   29.1483    0.5272   89.9473 H   0  0  0  0  0  0  0  0  0  0  0  0
   28.4659    0.9562   91.4976 H   0  0  0  0  0  0  0  0  0  0  0  0
   24.5764   -1.4852   93.4049 H   0  0  0  0  0  0  0  0  0  0  0  0
   25.6055   -1.4909   95.5560 H   0  0  0  0  0  0  0  0  0  0  0  0
   25.2113    0.1772   95.5974 H   0  0  0  0  0  0  0  0  0  0  0  0
   27.4101    0.8239   94.8019 H   0  0  0  0  0  0  0  0  0  0  0  0
   27.8245   -0.5074   95.7783 H   0  0  0  0  0  0  0  0  0  0  0  0
   28.5306   -0.5261   93.2482 H   0  0  0  0  0  0  0  0  0  0  0  0
   27.9110   -1.9850   93.8733 H   0  0  0  0  0  0  0  0  0  0  0  0
   22.7025   -0.3457   93.2224 H   0  0  0  0  0  0  0  0  0  0  0  0
   21.3669    1.5031   92.8847 H   0  0  0  0  0  0  0  0  0  0  0  0
   22.7792    2.5159   93.2296 H   0  0  0  0  0  0  0  0  0  0  0  0
   23.9772    0.6193   90.9653 H   0  0  0  0  0  0  0  0  0  0  0  0
   22.9807    2.1984   88.6812 H   0  0  0  0  0  0  0  0  0  0  0  0
   23.4260    0.5130   88.5631 H   0  0  0  0  0  0  0  0  0  0  0  0
   24.6517    1.7213   88.8639 H   0  0  0  0  0  0  0  0  0  0  0  0
  1  2  1  0  0  0  0
  1 30  1  0  0  0  0
  1 31  1  0  0  0  0
  1 32  1  0  0  0  0
  2  4  1  0  0  0  0
  3  2  2  0  0  0  0
  4  5  1  0  0  0  0
  4 33  1  0  0  0  0
  5  6  1  0  0  0  0
  5 34  1  6  0  0  0
  6 12  1  0  0  0  0
  6  7  2  0  0  0  0
  8  5  1  0  0  0  0
  8 35  1  0  0  0  0
  8 36  1  0  0  0  0
  9  8  1  0  0  0  0
  9 37  1  0  0  0  0
 10  9  1  0  0  0  0
 10 38  1  0  0  0  0
 10 39  1  0  0  0  0
 10 40  1  0  0  0  0
 11  9  1  0  0  0  0
 11 41  1  0  0  0  0
 11 42  1  0  0  0  0
 11 43  1  0  0  0  0
 12 13  1  0  0  0  0
 12 44  1  0  0  0  0
 13 14  1  0  0  0  0
 13 45  1  1  0  0  0
 14 17  1  0  0  0  0
 15 14  2  0  0  0  0
 16 13  1  0  0  0  0
 16 46  1  0  0  0  0
 16 47  1  0  0  0  0
 16 48  1  0  0  0  0
 17 18  1  0  0  0  0
 17 23  1  0  0  0  0
 18 21  1  0  0  0  0
 18 49  1  6  0  0  0
 19 18  1  0  0  0  0
 20 19  2  0  0  0  0
 21 50  1  0  0  0  0
 21 51  1  0  0  0  0
 22 21  1  0  0  0  0
 22 52  1  0  0  0  0
 22 53  1  0  0  0  0
 23 22  1  0  0  0  0
 23 54  1  0  0  0  0
 23 55  1  0  0  0  0
 24 19  1  0  0  0  0
 24 56  1  0  0  0  0
 25 24  1  0  0  0  0
 25 57  1  0  0  0  0
 25 58  1  0  0  0  0
 26 25  1  0  0  0  0
 27 26  2  0  0  0  0
 28 26  1  0  0  0  0
 28 59  1  0  0  0  0
 29 28  1  0  0  0  0
 29 60  1  0  0  0  0
 29 61  1  0  0  0  0
 29 62  1  0  0  0  0
M  END
>  <MODEL>
       0

$$$$
selected_4mers/LAPG/372_noH.pdb
 OpenBabel03042517593D

 62 62  0  0  1  0  0  0  0  0999 V2000
   19.6900   15.8470   59.0230 C   0  0  0  0  0  0  0  0  0  0  0  0
   20.9860   15.7540   58.2280 C   0  0  0  0  0  0  0  0  0  0  0  0
   21.8940   15.0110   58.5950 O   0  0  0  0  0  0  0  0  0  0  0  0
   21.0510   16.5030   57.1370 N   0  0  0  0  0  0  0  0  0  0  0  0
   22.2820   16.6190   56.3580 C   0  0  2  0  0  0  0  0  0  0  0  0
   22.7630   18.0630   56.4930 C   0  0  0  0  0  0  0  0  0  0  0  0
   22.1870   18.9680   55.8870 O   0  0  0  0  0  0  0  0  0  0  0  0
   22.0120   16.2600   54.8950 C   0  0  0  0  0  0  0  0  0  0  0  0
   21.4410   14.8490   54.6670 C   0  0  0  0  0  0  0  0  0  0  0  0
   21.1490   14.6170   53.1870 C   0  0  0  0  0  0  0  0  0  0  0  0
   22.3480   13.7500   55.2250 C   0  0  0  0  0  0  0  0  0  0  0  0
   23.7650   18.2740   57.3530 N   0  0  0  0  0  0  0  0  0  0  0  0
   24.3340   19.5960   57.6170 C   0  0  2  0  0  0  0  0  0  0  0  0
   25.7750   19.5930   57.1170 C   0  0  0  0  0  0  0  0  0  0  0  0
   26.4700   18.5900   57.2440 O   0  0  0  0  0  0  0  0  0  0  0  0
   24.3020   19.9000   59.1050 C   0  0  0  0  0  0  0  0  0  0  0  0
   26.2260   20.7100   56.5230 N   0  0  0  0  0  0  0  0  0  0  0  0
   27.5890   20.7380   56.0000 C   0  0  2  0  0  0  0  0  0  0  0  0
   28.6470   20.7750   57.0980 C   0  0  0  0  0  0  0  0  0  0  0  0
   28.4700   21.4620   58.1040 O   0  0  0  0  0  0  0  0  0  0  0  0
   27.6300   22.0480   55.2150 C   0  0  0  0  0  0  0  0  0  0  0  0
   26.6240   22.9150   55.8740 C   0  0  0  0  0  0  0  0  0  0  0  0
   25.5160   21.9760   56.2720 C   0  0  0  0  0  0  0  0  0  0  0  0
   29.7470   20.0570   56.8850 N   0  0  0  0  0  0  0  0  0  0  0  0
   30.9000   20.1530   57.7780 C   0  0  0  0  0  0  0  0  0  0  0  0
   31.7180   21.4030   57.5110 C   0  0  0  0  0  0  0  0  0  0  0  0
   31.3670   22.2090   56.6460 O   0  0  0  0  0  0  0  0  0  0  0  0
   32.8110   21.5590   58.2550 N   0  0  0  0  0  0  0  0  0  0  0  0
   33.6920   22.7160   58.1140 C   0  0  0  0  0  0  0  0  0  0  0  0
   19.0288   16.5409   58.5474 H   0  0  0  0  0  0  0  0  0  0  0  0
   19.9042   16.1820   60.0164 H   0  0  0  0  0  0  0  0  0  0  0  0
   19.2266   14.8834   59.0637 H   0  0  0  0  0  0  0  0  0  0  0  0
   20.2496   16.9939   56.8437 H   0  0  0  0  0  0  0  0  0  0  0  0
   23.0331   15.9457   56.7149 H   0  0  0  0  0  0  0  0  0  0  0  0
   21.3127   16.9686   54.5028 H   0  0  0  0  0  0  0  0  0  0  0  0
   22.9610   16.2823   54.4012 H   0  0  0  0  0  0  0  0  0  0  0  0
   20.5213   14.7935   55.2111 H   0  0  0  0  0  0  0  0  0  0  0  0
   22.0616   14.6699   52.6308 H   0  0  0  0  0  0  0  0  0  0  0  0
   20.4727   15.3677   52.8349 H   0  0  0  0  0  0  0  0  0  0  0  0
   20.7080   13.6507   53.0577 H   0  0  0  0  0  0  0  0  0  0  0  0
   23.2855   13.7653   54.7095 H   0  0  0  0  0  0  0  0  0  0  0  0
   21.8806   12.7975   55.0869 H   0  0  0  0  0  0  0  0  0  0  0  0
   22.5121   13.9188   56.2688 H   0  0  0  0  0  0  0  0  0  0  0  0
   24.1391   17.5002   57.8332 H   0  0  0  0  0  0  0  0  0  0  0  0
   23.7633   20.3486   57.1141 H   0  0  0  0  0  0  0  0  0  0  0  0
   24.8670   19.1600   59.6324 H   0  0  0  0  0  0  0  0  0  0  0  0
   23.2891   19.8882   59.4498 H   0  0  0  0  0  0  0  0  0  0  0  0
   24.7274   20.8659   59.2809 H   0  0  0  0  0  0  0  0  0  0  0  0
   27.8055   19.8611   55.4264 H   0  0  0  0  0  0  0  0  0  0  0  0
   28.6028   22.4902   55.2699 H   0  0  0  0  0  0  0  0  0  0  0  0
   27.4203   21.9033   54.1758 H   0  0  0  0  0  0  0  0  0  0  0  0
   26.2631   23.6587   55.1946 H   0  0  0  0  0  0  0  0  0  0  0  0
   27.0295   23.4426   56.7119 H   0  0  0  0  0  0  0  0  0  0  0  0
   24.8028   21.8665   55.4819 H   0  0  0  0  0  0  0  0  0  0  0  0
   24.9564   22.3194   57.1169 H   0  0  0  0  0  0  0  0  0  0  0  0
   29.7848   19.4496   56.1111 H   0  0  0  0  0  0  0  0  0  0  0  0
   31.5223   19.2946   57.6335 H   0  0  0  0  0  0  0  0  0  0  0  0
   30.5382   20.2012   58.7838 H   0  0  0  0  0  0  0  0  0  0  0  0
   33.0333   20.8710   58.9232 H   0  0  0  0  0  0  0  0  0  0  0  0
   33.3117   23.3631   57.3514 H   0  0  0  0  0  0  0  0  0  0  0  0
   34.6737   22.3861   57.8450 H   0  0  0  0  0  0  0  0  0  0  0  0
   33.7358   23.2462   59.0424 H   0  0  0  0  0  0  0  0  0  0  0  0
  1 30  1  0  0  0  0
  1 31  1  0  0  0  0
  1 32  1  0  0  0  0
  2  3  2  0  0  0  0
  2  1  1  0  0  0  0
  4  2  1  0  0  0  0
  4 33  1  0  0  0  0
  5  6  1  0  0  0  0
  5  4  1  0  0  0  0
  5 34  1  1  0  0  0
  6 12  1  0  0  0  0
  7  6  2  0  0  0  0
  8  5  1  0  0  0  0
  8 35  1  0  0  0  0
  8 36  1  0  0  0  0
  9  8  1  0  0  0  0
  9 11  1  0  0  0  0
  9 37  1  0  0  0  0
 10  9  1  0  0  0  0
 10 38  1  0  0  0  0
 10 39  1  0  0  0  0
 10 40  1  0  0  0  0
 11 41  1  0  0  0  0
 11 42  1  0  0  0  0
 11 43  1  0  0  0  0
 12 13  1  0  0  0  0
 12 44  1  0  0  0  0
 13 16  1  0  0  0  0
 13 45  1  6  0  0  0
 14 15  2  0  0  0  0
 14 13  1  0  0  0  0
 16 46  1  0  0  0  0
 16 47  1  0  0  0  0
 16 48  1  0  0  0  0
 17 14  1  0  0  0  0
 18 17  1  0  0  0  0
 18 19  1  0  0  0  0
 18 49  1  6  0  0  0
 19 20  2  0  0  0  0
 21 22  1  0  0  0  0
 21 18  1  0  0  0  0
 21 50  1  0  0  0  0
 21 51  1  0  0  0  0
 22 23  1  0  0  0  0
 22 52  1  0  0  0  0
 22 53  1  0  0  0  0
 23 17  1  0  0  0  0
 23 54  1  0  0  0  0
 23 55  1  0  0  0  0
 24 19  1  0  0  0  0
 24 25  1  0  0  0  0
 24 56  1  0  0  0  0
 25 57  1  0  0  0  0
 25 58  1  0  0  0  0
 26 25  1  0  0  0  0
 26 28  1  0  0  0  0
 27 26  2  0  0  0  0
 28 59  1  0  0  0  0
 29 28  1  0  0  0  0
 29 60  1  0  0  0  0
 29 61  1  0  0  0  0
 29 62  1  0  0  0  0
M  END
>  <MODEL>
       0

$$$$
selected_4mers/LAPG/373_noH.pdb
 OpenBabel03042517593D

 62 62  0  0  1  0  0  0  0  0999 V2000
  -13.6360   -5.2570   15.5230 C   0  0  0  0  0  0  0  0  0  0  0  0
  -14.0110   -3.8570   15.9910 C   0  0  0  0  0  0  0  0  0  0  0  0
  -15.0150   -3.6900   16.6700 O   0  0  0  0  0  0  0  0  0  0  0  0
  -13.2200   -2.8560   15.5850 N   0  0  0  0  0  0  0  0  0  0  0  0
  -13.4160   -1.4530   15.9780 C   0  0  2  0  0  0  0  0  0  0  0  0
  -13.8780   -0.5530   14.8370 C   0  0  0  0  0  0  0  0  0  0  0  0
  -14.5220    0.4780   15.0570 O   0  0  0  0  0  0  0  0  0  0  0  0
  -12.0980   -0.8590   16.4620 C   0  0  0  0  0  0  0  0  0  0  0  0
  -11.4410   -1.5190   17.6510 C   0  0  0  0  0  0  0  0  0  0  0  0
  -10.1010   -0.8740   17.8810 C   0  0  0  0  0  0  0  0  0  0  0  0
  -12.3280   -1.3820   18.8690 C   0  0  0  0  0  0  0  0  0  0  0  0
  -13.4570   -0.9210   13.6390 N   0  0  0  0  0  0  0  0  0  0  0  0
  -13.6820   -0.1550   12.4220 C   0  0  2  0  0  0  0  0  0  0  0  0
  -13.4140   -1.1220   11.2850 C   0  0  0  0  0  0  0  0  0  0  0  0
  -12.8960   -2.2210   11.5300 O   0  0  0  0  0  0  0  0  0  0  0  0
  -12.7340    1.0430   12.3610 C   0  0  0  0  0  0  0  0  0  0  0  0
  -13.7630   -0.7760   10.0520 N   0  0  0  0  0  0  0  0  0  0  0  0
  -13.5490   -1.7050    8.9360 C   0  0  2  0  0  0  0  0  0  0  0  0
  -12.0960   -2.1870    8.8130 C   0  0  0  0  0  0  0  0  0  0  0  0
  -11.1670   -1.4100    8.5780 O   0  0  0  0  0  0  0  0  0  0  0  0
  -13.9970   -0.8930    7.7160 C   0  0  0  0  0  0  0  0  0  0  0  0
  -14.9760    0.0910    8.2850 C   0  0  0  0  0  0  0  0  0  0  0  0
  -14.4100    0.4750    9.6040 C   0  0  0  0  0  0  0  0  0  0  0  0
  -11.9100   -3.4860    9.0270 N   0  0  0  0  0  0  0  0  0  0  0  0
  -10.6060   -4.1110    8.9410 C   0  0  0  0  0  0  0  0  0  0  0  0
   -9.7170   -3.9220   10.1610 C   0  0  0  0  0  0  0  0  0  0  0  0
   -8.5940   -4.4290   10.1810 O   0  0  0  0  0  0  0  0  0  0  0  0
  -10.2060   -3.1790   11.1540 N   0  0  0  0  0  0  0  0  0  0  0  0
   -9.4180   -2.8040   12.3200 C   0  0  0  0  0  0  0  0  0  0  0  0
  -12.7362   -5.2110   14.9458 H   0  0  0  0  0  0  0  0  0  0  0  0
  -14.4259   -5.6554   14.9211 H   0  0  0  0  0  0  0  0  0  0  0  0
  -13.4825   -5.8881   16.3733 H   0  0  0  0  0  0  0  0  0  0  0  0
  -12.4654   -3.0714   14.9904 H   0  0  0  0  0  0  0  0  0  0  0  0
  -14.1706   -1.4807   16.7361 H   0  0  0  0  0  0  0  0  0  0  0  0
  -12.2809    0.1629   16.7210 H   0  0  0  0  0  0  0  0  0  0  0  0
  -11.4146   -1.0052   15.6518 H   0  0  0  0  0  0  0  0  0  0  0  0
  -11.2982   -2.5629   17.4647 H   0  0  0  0  0  0  0  0  0  0  0  0
  -10.2355    0.1709   18.0681 H   0  0  0  0  0  0  0  0  0  0  0  0
   -9.4885   -1.0050   17.0135 H   0  0  0  0  0  0  0  0  0  0  0  0
   -9.6262   -1.3292   18.7249 H   0  0  0  0  0  0  0  0  0  0  0  0
  -12.4880   -0.3451   19.0789 H   0  0  0  0  0  0  0  0  0  0  0  0
  -11.8552   -1.8471   19.7087 H   0  0  0  0  0  0  0  0  0  0  0  0
  -13.2681   -1.8570   18.6808 H   0  0  0  0  0  0  0  0  0  0  0  0
  -12.9595   -1.7673   13.5654 H   0  0  0  0  0  0  0  0  0  0  0  0
  -14.6745    0.2418   12.3735 H   0  0  0  0  0  0  0  0  0  0  0  0
  -11.7217    0.6994   12.4063 H   0  0  0  0  0  0  0  0  0  0  0  0
  -12.9273    1.6933   13.1884 H   0  0  0  0  0  0  0  0  0  0  0  0
  -12.8896    1.5747   11.4456 H   0  0  0  0  0  0  0  0  0  0  0  0
  -14.0946   -2.6170    9.0604 H   0  0  0  0  0  0  0  0  0  0  0  0
  -13.1667   -0.3892    7.2669 H   0  0  0  0  0  0  0  0  0  0  0  0
  -14.4211   -1.5019    6.9451 H   0  0  0  0  0  0  0  0  0  0  0  0
  -15.9379   -0.3619    8.4057 H   0  0  0  0  0  0  0  0  0  0  0  0
  -15.1147    0.9370    7.6447 H   0  0  0  0  0  0  0  0  0  0  0  0
  -15.1807    0.7760   10.2825 H   0  0  0  0  0  0  0  0  0  0  0  0
  -13.7395    1.3074    9.5540 H   0  0  0  0  0  0  0  0  0  0  0  0
  -12.6886   -4.0447    9.2526 H   0  0  0  0  0  0  0  0  0  0  0  0
  -10.0973   -3.7009    8.0937 H   0  0  0  0  0  0  0  0  0  0  0  0
  -10.7848   -5.1631    8.8632 H   0  0  0  0  0  0  0  0  0  0  0  0
  -11.1392   -2.8708   11.0967 H   0  0  0  0  0  0  0  0  0  0  0  0
   -8.4335   -3.2136   12.2319 H   0  0  0  0  0  0  0  0  0  0  0  0
   -9.8852   -3.1854   13.2039 H   0  0  0  0  0  0  0  0  0  0  0  0
   -9.3564   -1.7375   12.3809 H   0  0  0  0  0  0  0  0  0  0  0  0
  1  2  1  0  0  0  0
  1 30  1  0  0  0  0
  1 31  1  0  0  0  0
  1 32  1  0  0  0  0
  2  3  2  0  0  0  0
  4  5  1  0  0  0  0
  4  2  1  0  0  0  0
  4 33  1  0  0  0  0
  5  8  1  0  0  0  0
  5 34  1  1  0  0  0
  6  7  2  0  0  0  0
  6  5  1  0  0  0  0
  8  9  1  0  0  0  0
  8 35  1  0  0  0  0
  8 36  1  0  0  0  0
  9 10  1  0  0  0  0
  9 11  1  0  0  0  0
  9 37  1  0  0  0  0
 10 38  1  0  0  0  0
 10 39  1  0  0  0  0
 10 40  1  0  0  0  0
 11 41  1  0  0  0  0
 11 42  1  0  0  0  0
 11 43  1  0  0  0  0
 12  6  1  0  0  0  0
 12 44  1  0  0  0  0
 13 12  1  0  0  0  0
 13 45  1  6  0  0  0
 14 15  2  0  0  0  0
 14 13  1  0  0  0  0
 16 13  1  0  0  0  0
 16 46  1  0  0  0  0
 16 47  1  0  0  0  0
 16 48  1  0  0  0  0
 17 14  1  0  0  0  0
 18 17  1  0  0  0  0
 18 49  1  1  0  0  0
 19 18  1  0  0  0  0
 19 24  1  0  0  0  0
 20 19  2  0  0  0  0
 21 22  1  0  0  0  0
 21 18  1  0  0  0  0
 21 50  1  0  0  0  0
 21 51  1  0  0  0  0
 22 23  1  0  0  0  0
 22 52  1  0  0  0  0
 22 53  1  0  0  0  0
 23 17  1  0  0  0  0
 23 54  1  0  0  0  0
 23 55  1  0  0  0  0
 24 56  1  0  0  0  0
 25 24  1  0  0  0  0
 25 26  1  0  0  0  0
 25 57  1  0  0  0  0
 25 58  1  0  0  0  0
 26 27  2  0  0  0  0
 26 28  1  0  0  0  0
 28 29  1  0  0  0  0
 28 59  1  0  0  0  0
 29 60  1  0  0  0  0
 29 61  1  0  0  0  0
 29 62  1  0  0  0  0
M  END
>  <MODEL>
       0

$$$$
selected_4mers/LAPG/374_noH.pdb
 OpenBabel03042517593D

 62 62  0  0  1  0  0  0  0  0999 V2000
    5.4810    2.2080  -13.2540 C   0  0  0  0  0  0  0  0  0  0  0  0
    4.9300    3.2780  -14.1690 C   0  0  0  0  0  0  0  0  0  0  0  0
    3.7940    3.7100  -14.0010 O   0  0  0  0  0  0  0  0  0  0  0  0
    5.7310    3.7170  -15.1390 N   0  0  0  0  0  0  0  0  0  0  0  0
    5.2870    4.7300  -16.0900 C   0  0  2  0  0  0  0  0  0  0  0  0
    4.4470    4.1270  -17.2050 C   0  0  0  0  0  0  0  0  0  0  0  0
    4.6100    2.9600  -17.5430 O   0  0  0  0  0  0  0  0  0  0  0  0
    6.4970    5.4290  -16.7180 C   0  0  0  0  0  0  0  0  0  0  0  0
    7.2670    6.3360  -15.7600 C   0  0  0  0  0  0  0  0  0  0  0  0
    8.6430    6.6870  -16.3160 C   0  0  0  0  0  0  0  0  0  0  0  0
    6.4500    7.5830  -15.4570 C   0  0  0  0  0  0  0  0  0  0  0  0
    3.5630    4.9270  -17.7920 N   0  0  0  0  0  0  0  0  0  0  0  0
    2.9220    4.5180  -19.0390 C   0  0  2  0  0  0  0  0  0  0  0  0
    3.9710    4.5600  -20.1470 C   0  0  0  0  0  0  0  0  0  0  0  0
    4.7780    5.5030  -20.2130 O   0  0  0  0  0  0  0  0  0  0  0  0
    1.7510    5.4420  -19.3670 C   0  0  0  0  0  0  0  0  0  0  0  0
    3.9900    3.5360  -21.0140 N   0  0  0  0  0  0  0  0  0  0  0  0
    4.9610    3.5540  -22.1130 C   0  0  2  0  0  0  0  0  0  0  0  0
    4.8810    4.8820  -22.8680 C   0  0  0  0  0  0  0  0  0  0  0  0
    3.7940    5.4400  -23.0260 O   0  0  0  0  0  0  0  0  0  0  0  0
    4.4900    2.3920  -23.0090 C   0  0  0  0  0  0  0  0  0  0  0  0
    3.8230    1.4370  -22.0350 C   0  0  0  0  0  0  0  0  0  0  0  0
    3.1140    2.3480  -21.0560 C   0  0  0  0  0  0  0  0  0  0  0  0
    6.0160    5.4010  -23.3170 N   0  0  0  0  0  0  0  0  0  0  0  0
    5.9890    6.6290  -24.0920 C   0  0  0  0  0  0  0  0  0  0  0  0
    6.7620    7.7720  -23.4520 C   0  0  0  0  0  0  0  0  0  0  0  0
    7.4100    7.5910  -22.4230 O   0  0  0  0  0  0  0  0  0  0  0  0
    6.6780    8.9480  -24.0650 N   0  0  0  0  0  0  0  0  0  0  0  0
    7.4910   10.0940  -23.6680 C   0  0  0  0  0  0  0  0  0  0  0  0
    6.4778    1.9608  -13.5541 H   0  0  0  0  0  0  0  0  0  0  0  0
    4.8640    1.3358  -13.3131 H   0  0  0  0  0  0  0  0  0  0  0  0
    5.4911    2.5702  -12.2472 H   0  0  0  0  0  0  0  0  0  0  0  0
    6.6414    3.3501  -15.2155 H   0  0  0  0  0  0  0  0  0  0  0  0
    4.6883    5.4314  -15.5473 H   0  0  0  0  0  0  0  0  0  0  0  0
    6.1520    6.0237  -17.5379 H   0  0  0  0  0  0  0  0  0  0  0  0
    7.1740    4.6572  -17.0195 H   0  0  0  0  0  0  0  0  0  0  0  0
    7.4276    5.8084  -14.8431 H   0  0  0  0  0  0  0  0  0  0  0  0
    8.5302    7.2185  -17.2378 H   0  0  0  0  0  0  0  0  0  0  0  0
    9.1980    5.7885  -16.4879 H   0  0  0  0  0  0  0  0  0  0  0  0
    9.1662    7.3003  -15.6124 H   0  0  0  0  0  0  0  0  0  0  0  0
    6.2782    8.1257  -16.3630 H   0  0  0  0  0  0  0  0  0  0  0  0
    6.9853    8.2012  -14.7670 H   0  0  0  0  0  0  0  0  0  0  0  0
    5.5118    7.2992  -15.0279 H   0  0  0  0  0  0  0  0  0  0  0  0
    3.3401    5.7958  -17.3861 H   0  0  0  0  0  0  0  0  0  0  0  0
    2.5314    3.5263  -18.9446 H   0  0  0  0  0  0  0  0  0  0  0  0
    2.1066    6.4460  -19.4688 H   0  0  0  0  0  0  0  0  0  0  0  0
    1.0296    5.3974  -18.5780 H   0  0  0  0  0  0  0  0  0  0  0  0
    1.2964    5.1299  -20.2840 H   0  0  0  0  0  0  0  0  0  0  0  0
    5.9757    3.4527  -21.7891 H   0  0  0  0  0  0  0  0  0  0  0  0
    5.3203    1.9237  -23.4950 H   0  0  0  0  0  0  0  0  0  0  0  0
    3.8350    2.7108  -23.7928 H   0  0  0  0  0  0  0  0  0  0  0  0
    4.5516    0.8341  -21.5343 H   0  0  0  0  0  0  0  0  0  0  0  0
    3.1563    0.7543  -22.5191 H   0  0  0  0  0  0  0  0  0  0  0  0
    3.0385    1.8915  -20.0912 H   0  0  0  0  0  0  0  0  0  0  0  0
    2.1087    2.5752  -21.3434 H   0  0  0  0  0  0  0  0  0  0  0  0
    6.8730    4.9558  -23.1258 H   0  0  0  0  0  0  0  0  0  0  0  0
    6.4134    6.4309  -25.0540 H   0  0  0  0  0  0  0  0  0  0  0  0
    4.9665    6.9382  -24.1532 H   0  0  0  0  0  0  0  0  0  0  0  0
    6.0457    9.0501  -24.8127 H   0  0  0  0  0  0  0  0  0  0  0  0
    8.1198    9.8181  -22.8474 H   0  0  0  0  0  0  0  0  0  0  0  0
    6.8517   10.8995  -23.3724 H   0  0  0  0  0  0  0  0  0  0  0  0
    8.0973   10.4042  -24.4933 H   0  0  0  0  0  0  0  0  0  0  0  0
  1 30  1  0  0  0  0
  1 31  1  0  0  0  0
  1 32  1  0  0  0  0
  2  3  2  0  0  0  0
  2  1  1  0  0  0  0
  4  2  1  0  0  0  0
  4 33  1  0  0  0  0
  5  4  1  0  0  0  0
  5 34  1  1  0  0  0
  6  5  1  0  0  0  0
  7  6  2  0  0  0  0
  8  5  1  0  0  0  0
  8  9  1  0  0  0  0
  8 35  1  0  0  0  0
  8 36  1  0  0  0  0
  9 11  1  0  0  0  0
  9 37  1  0  0  0  0
 10  9  1  0  0  0  0
 10 38  1  0  0  0  0
 10 39  1  0  0  0  0
 10 40  1  0  0  0  0
 11 41  1  0  0  0  0
 11 42  1  0  0  0  0
 11 43  1  0  0  0  0
 12  6  1  0  0  0  0
 12 44  1  0  0  0  0
 13 12  1  0  0  0  0
 13 45  1  1  0  0  0
 14 13  1  0  0  0  0
 15 14  2  0  0  0  0
 16 13  1  0  0  0  0
 16 46  1  0  0  0  0
 16 47  1  0  0  0  0
 16 48  1  0  0  0  0
 17 14  1  0  0  0  0
 18 17  1  0  0  0  0
 18 49  1  1  0  0  0
 19 18  1  0  0  0  0
 20 19  2  0  0  0  0
 21 18  1  0  0  0  0
 21 22  1  0  0  0  0
 21 50  1  0  0  0  0
 21 51  1  0  0  0  0
 22 23  1  0  0  0  0
 22 52  1  0  0  0  0
 22 53  1  0  0  0  0
 23 17  1  0  0  0  0
 23 54  1  0  0  0  0
 23 55  1  0  0  0  0
 24 19  1  0  0  0  0
 24 56  1  0  0  0  0
 25 26  1  0  0  0  0
 25 24  1  0  0  0  0
 25 57  1  0  0  0  0
 25 58  1  0  0  0  0
 26 27  2  0  0  0  0
 28 29  1  0  0  0  0
 28 26  1  0  0  0  0
 28 59  1  0  0  0  0
 29 60  1  0  0  0  0
 29 61  1  0  0  0  0
 29 62  1  0  0  0  0
M  END
>  <MODEL>
       0

$$$$
