selected_4mers/LAPL/355_noH.pdb
 OpenBabel03042517593D

 74 74  0  0  1  0  0  0  0  0999 V2000
   35.5820   23.3750   -4.2880 C   0  0  0  0  0  0  0  0  0  0  0  0
   34.4410   24.2590   -4.7930 C   0  0  0  0  0  0  0  0  0  0  0  0
   34.2440   24.3920   -5.9980 O   0  0  0  0  0  0  0  0  0  0  0  0
   33.6730   24.8380   -3.8700 N   0  0  0  0  0  0  0  0  0  0  0  0
   32.4590   25.5760   -4.2300 C   0  0  2  0  0  0  0  0  0  0  0  0
   32.6810   27.0630   -4.5040 C   0  0  0  0  0  0  0  0  0  0  0  0
   32.0710   27.6120   -5.4160 O   0  0  0  0  0  0  0  0  0  0  0  0
   31.3740   25.4210   -3.1650 C   0  0  0  0  0  0  0  0  0  0  0  0
   30.8480   24.0130   -2.9380 C   0  0  0  0  0  0  0  0  0  0  0  0
   29.9060   24.0460   -1.7440 C   0  0  0  0  0  0  0  0  0  0  0  0
   30.1180   23.5200   -4.1890 C   0  0  0  0  0  0  0  0  0  0  0  0
   33.5580   27.7000   -3.7270 N   0  0  0  0  0  0  0  0  0  0  0  0
   33.8300   29.1440   -3.8590 C   0  0  2  0  0  0  0  0  0  0  0  0
   34.1400   29.6490   -5.2840 C   0  0  0  0  0  0  0  0  0  0  0  0
   33.5800   30.6770   -5.6900 O   0  0  0  0  0  0  0  0  0  0  0  0
   34.9290   29.5830   -2.8740 C   0  0  0  0  0  0  0  0  0  0  0  0
   35.0150   28.9390   -6.0470 N   0  0  0  0  0  0  0  0  0  0  0  0
   35.3790   29.4010   -7.4090 C   0  0  2  0  0  0  0  0  0  0  0  0
   34.1840   29.5150   -8.3540 C   0  0  0  0  0  0  0  0  0  0  0  0
   34.2290   30.2750   -9.3340 O   0  0  0  0  0  0  0  0  0  0  0  0
   36.3170   28.2970   -7.9300 C   0  0  0  0  0  0  0  0  0  0  0  0
   36.8590   27.6420   -6.7070 C   0  0  0  0  0  0  0  0  0  0  0  0
   35.7420   27.6980   -5.6990 C   0  0  0  0  0  0  0  0  0  0  0  0
   33.1230   28.7610   -8.0600 N   0  0  0  0  0  0  0  0  0  0  0  0
   31.9510   28.7290   -8.9120 C   0  0  2  0  0  0  0  0  0  0  0  0
   31.0840   29.9770   -8.7950 C   0  0  0  0  0  0  0  0  0  0  0  0
   30.2380   30.2300   -9.6520 O   0  0  0  0  0  0  0  0  0  0  0  0
   31.1180   27.4740   -8.6330 C   0  0  0  0  0  0  0  0  0  0  0  0
   31.8490   26.1390   -8.7480 C   0  0  0  0  0  0  0  0  0  0  0  0
   30.9050   25.0360   -8.3100 C   0  0  0  0  0  0  0  0  0  0  0  0
   32.3460   25.8730  -10.1700 C   0  0  0  0  0  0  0  0  0  0  0  0
   31.3020   30.7670   -7.7470 N   0  0  0  0  0  0  0  0  0  0  0  0
   30.4870   31.9520   -7.5280 C   0  0  0  0  0  0  0  0  0  0  0  0
   36.1181   22.9733   -5.1224 H   0  0  0  0  0  0  0  0  0  0  0  0
   35.1806   22.5741   -3.7029 H   0  0  0  0  0  0  0  0  0  0  0  0
   36.2458   23.9591   -3.6854 H   0  0  0  0  0  0  0  0  0  0  0  0
   33.9280   24.7680   -2.9217 H   0  0  0  0  0  0  0  0  0  0  0  0
   32.1411   25.1322   -5.1503 H   0  0  0  0  0  0  0  0  0  0  0  0
   30.5463   26.0358   -3.4512 H   0  0  0  0  0  0  0  0  0  0  0  0
   31.8373   25.7041   -2.2430 H   0  0  0  0  0  0  0  0  0  0  0  0
   31.6558   23.3393   -2.7420 H   0  0  0  0  0  0  0  0  0  0  0  0
   29.1000   24.7206   -1.9442 H   0  0  0  0  0  0  0  0  0  0  0  0
   30.4401   24.3755   -0.8774 H   0  0  0  0  0  0  0  0  0  0  0  0
   29.5154   23.0650   -1.5706 H   0  0  0  0  0  0  0  0  0  0  0  0
   29.3028   24.1774   -4.4086 H   0  0  0  0  0  0  0  0  0  0  0  0
   29.7435   22.5324   -4.0175 H   0  0  0  0  0  0  0  0  0  0  0  0
   30.7971   23.5054   -5.0157 H   0  0  0  0  0  0  0  0  0  0  0  0
   34.0419   27.1875   -3.0397 H   0  0  0  0  0  0  0  0  0  0  0  0
   32.8996   29.6109   -3.6116 H   0  0  0  0  0  0  0  0  0  0  0  0
   35.8518   29.1082   -3.1345 H   0  0  0  0  0  0  0  0  0  0  0  0
   34.6507   29.3007   -1.8801 H   0  0  0  0  0  0  0  0  0  0  0  0
   35.0482   30.6452   -2.9229 H   0  0  0  0  0  0  0  0  0  0  0  0
   35.8084   30.3803   -7.3690 H   0  0  0  0  0  0  0  0  0  0  0  0
   37.1088   28.7202   -8.5122 H   0  0  0  0  0  0  0  0  0  0  0  0
   35.8068   27.6030   -8.5648 H   0  0  0  0  0  0  0  0  0  0  0  0
   37.7161   28.1716   -6.3466 H   0  0  0  0  0  0  0  0  0  0  0  0
   37.1740   26.6375   -6.8984 H   0  0  0  0  0  0  0  0  0  0  0  0
   36.1295   27.7497   -4.7030 H   0  0  0  0  0  0  0  0  0  0  0  0
   35.1164   26.8304   -5.7257 H   0  0  0  0  0  0  0  0  0  0  0  0
   33.1367   28.2120   -7.2429 H   0  0  0  0  0  0  0  0  0  0  0  0
   32.3124   28.7032   -9.9188 H   0  0  0  0  0  0  0  0  0  0  0  0
   30.3045   27.4613   -9.3279 H   0  0  0  0  0  0  0  0  0  0  0  0
   30.8214   27.5500   -7.6077 H   0  0  0  0  0  0  0  0  0  0  0  0
   32.7136   26.1687   -8.1184 H   0  0  0  0  0  0  0  0  0  0  0  0
   30.0487   25.0237   -8.9515 H   0  0  0  0  0  0  0  0  0  0  0  0
   30.5929   25.2130   -7.3019 H   0  0  0  0  0  0  0  0  0  0  0  0
   31.4073   24.0930   -8.3675 H   0  0  0  0  0  0  0  0  0  0  0  0
   31.5112   25.8348  -10.8383 H   0  0  0  0  0  0  0  0  0  0  0  0
   32.8673   24.9390  -10.1967 H   0  0  0  0  0  0  0  0  0  0  0  0
   33.0071   26.6592  -10.4697 H   0  0  0  0  0  0  0  0  0  0  0  0
   32.0224   30.5474   -7.1130 H   0  0  0  0  0  0  0  0  0  0  0  0
   29.7594   32.0337   -8.3083 H   0  0  0  0  0  0  0  0  0  0  0  0
   31.1122   32.8204   -7.5309 H   0  0  0  0  0  0  0  0  0  0  0  0
   29.9900   31.8735   -6.5837 H   0  0  0  0  0  0  0  0  0  0  0  0
  1 34  1  0  0  0  0
  1 35  1  0  0  0  0
  1 36  1  0  0  0  0
  2  1  1  0  0  0  0
  2  4  1  0  0  0  0
  3  2  2  0  0  0  0
  4 37  1  0  0  0  0
  5  4  1  0  0  0  0
  5  8  1  0  0  0  0
  5 38  1  6  0  0  0
  6  5  1  0  0  0  0
  6 12  1  0  0  0  0
  7  6  2  0  0  0  0
  8  9  1  0  0  0  0
  8 39  1  0  0  0  0
  8 40  1  0  0  0  0
  9 10  1  0  0  0  0
  9 41  1  0  0  0  0
 10 42  1  0  0  0  0
 10 43  1  0  0  0  0
 10 44  1  0  0  0  0
 11  9  1  0  0  0  0
 11 45  1  0  0  0  0
 11 46  1  0  0  0  0
 11 47  1  0  0  0  0
 12 48  1  0  0  0  0
 13 12  1  0  0  0  0
 13 16  1  0  0  0  0
 13 49  1  1  0  0  0
 14 13  1  0  0  0  0
 15 14  2  0  0  0  0
 16 50  1  0  0  0  0
 16 51  1  0  0  0  0
 16 52  1  0  0  0  0
 17 23  1  0  0  0  0
 17 14  1  0  0  0  0
 18 17  1  0  0  0  0
 18 53  1  1  0  0  0
 19 24  1  0  0  0  0
 19 18  1  0  0  0  0
 20 19  2  0  0  0  0
 21 18  1  0  0  0  0
 21 22  1  0  0  0  0
 21 54  1  0  0  0  0
 21 55  1  0  0  0  0
 22 23  1  0  0  0  0
 22 56  1  0  0  0  0
 22 57  1  0  0  0  0
 23 58  1  0  0  0  0
 23 59  1  0  0  0  0
 24 60  1  0  0  0  0
 25 26  1  0  0  0  0
 25 28  1  0  0  0  0
 25 24  1  0  0  0  0
 25 61  1  6  0  0  0
 26 32  1  0  0  0  0
 27 26  2  0  0  0  0
 28 62  1  0  0  0  0
 28 63  1  0  0  0  0
 29 28  1  0  0  0  0
 29 30  1  0  0  0  0
 29 64  1  0  0  0  0
 30 65  1  0  0  0  0
 30 66  1  0  0  0  0
 30 67  1  0  0  0  0
 31 29  1  0  0  0  0
 31 68  1  0  0  0  0
 31 69  1  0  0  0  0
 31 70  1  0  0  0  0
 32 33  1  0  0  0  0
 32 71  1  0  0  0  0
 33 72  1  0  0  0  0
 33 73  1  0  0  0  0
 33 74  1  0  0  0  0
M  END
>  <MODEL>
       0

$$$$
selected_4mers/LAPL/356_noH.pdb
 OpenBabel03042517593D

 74 74  0  0  1  0  0  0  0  0999 V2000
   17.3180  -11.1070   -2.5010 C   0  0  0  0  0  0  0  0  0  0  0  0
   16.3200  -10.3420   -1.6360 C   0  0  0  0  0  0  0  0  0  0  0  0
   15.6670   -9.4020   -2.0990 O   0  0  0  0  0  0  0  0  0  0  0  0
   16.2030  -10.7660   -0.3810 N   0  0  0  0  0  0  0  0  0  0  0  0
   15.3730  -10.0890    0.6140 C   0  0  2  0  0  0  0  0  0  0  0  0
   16.0650  -10.1480    1.9670 C   0  0  0  0  0  0  0  0  0  0  0  0
   16.8440  -11.0640    2.2340 O   0  0  0  0  0  0  0  0  0  0  0  0
   14.0030  -10.7630    0.7340 C   0  0  0  0  0  0  0  0  0  0  0  0
   13.0180  -10.5980   -0.4210 C   0  0  0  0  0  0  0  0  0  0  0  0
   11.7890  -11.4600   -0.1720 C   0  0  0  0  0  0  0  0  0  0  0  0
   12.6370   -9.1200   -0.5950 C   0  0  0  0  0  0  0  0  0  0  0  0
   15.7790   -9.1760    2.8260 N   0  0  0  0  0  0  0  0  0  0  0  0
   16.2320   -9.2570    4.2050 C   0  0  2  0  0  0  0  0  0  0  0  0
   15.6060  -10.4950    4.8250 C   0  0  0  0  0  0  0  0  0  0  0  0
   14.4780  -10.8490    4.4860 O   0  0  0  0  0  0  0  0  0  0  0  0
   15.8090   -8.0210    4.9740 C   0  0  0  0  0  0  0  0  0  0  0  0
   16.3360  -11.1620    5.7290 N   0  0  0  0  0  0  0  0  0  0  0  0
   15.7960  -12.3510    6.3960 C   0  0  2  0  0  0  0  0  0  0  0  0
   14.3930  -12.1300    6.9700 C   0  0  0  0  0  0  0  0  0  0  0  0
   13.5270  -12.9880    6.8050 O   0  0  0  0  0  0  0  0  0  0  0  0
   16.8100  -12.6070    7.5120 C   0  0  0  0  0  0  0  0  0  0  0  0
   18.1020  -12.1090    6.9400 C   0  0  0  0  0  0  0  0  0  0  0  0
   17.7400  -10.9080    6.1000 C   0  0  0  0  0  0  0  0  0  0  0  0
   14.1650  -10.9980    7.6270 N   0  0  0  0  0  0  0  0  0  0  0  0
   12.8480  -10.7210    8.1920 C   0  0  2  0  0  0  0  0  0  0  0  0
   11.7730  -10.6720    7.1070 C   0  0  0  0  0  0  0  0  0  0  0  0
   10.6740  -11.2080    7.2810 O   0  0  0  0  0  0  0  0  0  0  0  0
   12.8610   -9.4030    8.9780 C   0  0  0  0  0  0  0  0  0  0  0  0
   11.5120   -8.8850    9.4720 C   0  0  0  0  0  0  0  0  0  0  0  0
   10.9430   -9.8210   10.5350 C   0  0  0  0  0  0  0  0  0  0  0  0
   11.6550   -7.4850   10.0360 C   0  0  0  0  0  0  0  0  0  0  0  0
   12.0850  -10.0330    5.9830 N   0  0  0  0  0  0  0  0  0  0  0  0
   11.1130   -9.9110    4.9020 C   0  0  0  0  0  0  0  0  0  0  0  0
   17.3332  -10.6864   -3.4848 H   0  0  0  0  0  0  0  0  0  0  0  0
   17.0268  -12.1351   -2.5571 H   0  0  0  0  0  0  0  0  0  0  0  0
   18.2937  -11.0358   -2.0676 H   0  0  0  0  0  0  0  0  0  0  0  0
   16.6979  -11.5726   -0.1096 H   0  0  0  0  0  0  0  0  0  0  0  0
   15.2349   -9.0741    0.3044 H   0  0  0  0  0  0  0  0  0  0  0  0
   14.1745  -11.8118    0.8583 H   0  0  0  0  0  0  0  0  0  0  0  0
   13.5333  -10.2676    1.5579 H   0  0  0  0  0  0  0  0  0  0  0  0
   13.4805  -10.9219   -1.3299 H   0  0  0  0  0  0  0  0  0  0  0  0
   11.3132  -11.1493    0.7346 H   0  0  0  0  0  0  0  0  0  0  0  0
   12.0836  -12.4851   -0.0870 H   0  0  0  0  0  0  0  0  0  0  0  0
   11.1060  -11.3517   -0.9885 H   0  0  0  0  0  0  0  0  0  0  0  0
   12.1704   -8.7642    0.2998 H   0  0  0  0  0  0  0  0  0  0  0  0
   11.9572   -9.0211   -1.4153 H   0  0  0  0  0  0  0  0  0  0  0  0
   13.5180   -8.5452   -0.7906 H   0  0  0  0  0  0  0  0  0  0  0  0
   15.2573   -8.3964    2.5271 H   0  0  0  0  0  0  0  0  0  0  0  0
   17.2997   -9.3170    4.2404 H   0  0  0  0  0  0  0  0  0  0  0  0
   14.7425   -7.9364    4.9545 H   0  0  0  0  0  0  0  0  0  0  0  0
   16.2438   -7.1538    4.5225 H   0  0  0  0  0  0  0  0  0  0  0  0
   16.1421   -8.1003    5.9877 H   0  0  0  0  0  0  0  0  0  0  0  0
   15.6758  -13.1713    5.7196 H   0  0  0  0  0  0  0  0  0  0  0  0
   16.8709  -13.6507    7.7400 H   0  0  0  0  0  0  0  0  0  0  0  0
   16.5484  -12.1216    8.4290 H   0  0  0  0  0  0  0  0  0  0  0  0
   18.7733  -11.8273    7.7241 H   0  0  0  0  0  0  0  0  0  0  0  0
   18.5943  -12.8623    6.3611 H   0  0  0  0  0  0  0  0  0  0  0  0
   17.8292  -10.0041    6.6656 H   0  0  0  0  0  0  0  0  0  0  0  0
   18.3803  -10.7827    5.2519 H   0  0  0  0  0  0  0  0  0  0  0  0
   14.8902  -10.3407    7.7336 H   0  0  0  0  0  0  0  0  0  0  0  0
   12.6111  -11.5222    8.8604 H   0  0  0  0  0  0  0  0  0  0  0  0
   13.2843   -8.6519    8.3443 H   0  0  0  0  0  0  0  0  0  0  0  0
   13.4240   -9.6099    9.8641 H   0  0  0  0  0  0  0  0  0  0  0  0
   10.8378   -8.8527    8.6417 H   0  0  0  0  0  0  0  0  0  0  0  0
   11.6107   -9.8600   11.3702 H   0  0  0  0  0  0  0  0  0  0  0  0
   10.8297  -10.8019   10.1228 H   0  0  0  0  0  0  0  0  0  0  0  0
    9.9897   -9.4572   10.8572 H   0  0  0  0  0  0  0  0  0  0  0  0
   12.3274   -7.5027   10.8681 H   0  0  0  0  0  0  0  0  0  0  0  0
   10.6981   -7.1308   10.3581 H   0  0  0  0  0  0  0  0  0  0  0  0
   12.0404   -6.8335    9.2798 H   0  0  0  0  0  0  0  0  0  0  0  0
   12.9810   -9.6383    5.8795 H   0  0  0  0  0  0  0  0  0  0  0  0
   10.2016  -10.3946    5.1856 H   0  0  0  0  0  0  0  0  0  0  0  0
   11.5020  -10.3729    4.0187 H   0  0  0  0  0  0  0  0  0  0  0  0
   10.9224   -8.8760    4.7088 H   0  0  0  0  0  0  0  0  0  0  0  0
  1  2  1  0  0  0  0
  1 34  1  0  0  0  0
  1 35  1  0  0  0  0
  1 36  1  0  0  0  0
  2  4  1  0  0  0  0
  3  2  2  0  0  0  0
  4  5  1  0  0  0  0
  4 37  1  0  0  0  0
  5  8  1  0  0  0  0
  5  6  1  0  0  0  0
  5 38  1  6  0  0  0
  6  7  2  0  0  0  0
  6 12  1  0  0  0  0
  8 39  1  0  0  0  0
  8 40  1  0  0  0  0
  9 10  1  0  0  0  0
  9  8  1  0  0  0  0
  9 41  1  0  0  0  0
 10 42  1  0  0  0  0
 10 43  1  0  0  0  0
 10 44  1  0  0  0  0
 11  9  1  0  0  0  0
 11 45  1  0  0  0  0
 11 46  1  0  0  0  0
 11 47  1  0  0  0  0
 12 13  1  0  0  0  0
 12 48  1  0  0  0  0
 13 14  1  0  0  0  0
 13 16  1  0  0  0  0
 13 49  1  1  0  0  0
 14 17  1  0  0  0  0
 15 14  2  0  0  0  0
 16 50  1  0  0  0  0
 16 51  1  0  0  0  0
 16 52  1  0  0  0  0
 17 23  1  0  0  0  0
 17 18  1  0  0  0  0
 18 19  1  0  0  0  0
 18 21  1  0  0  0  0
 18 53  1  6  0  0  0
 19 24  1  0  0  0  0
 20 19  2  0  0  0  0
 21 54  1  0  0  0  0
 21 55  1  0  0  0  0
 22 21  1  0  0  0  0
 22 56  1  0  0  0  0
 22 57  1  0  0  0  0
 23 22  1  0  0  0  0
 23 58  1  0  0  0  0
 23 59  1  0  0  0  0
 24 25  1  0  0  0  0
 24 60  1  0  0  0  0
 25 28  1  0  0  0  0
 25 61  1  1  0  0  0
 26 27  2  0  0  0  0
 26 25  1  0  0  0  0
 28 29  1  0  0  0  0
 28 62  1  0  0  0  0
 28 63  1  0  0  0  0
 29 31  1  0  0  0  0
 29 30  1  0  0  0  0
 29 64  1  0  0  0  0
 30 65  1  0  0  0  0
 30 66  1  0  0  0  0
 30 67  1  0  0  0  0
 31 68  1  0  0  0  0
 31 69  1  0  0  0  0
 31 70  1  0  0  0  0
 32 26  1  0  0  0  0
 32 71  1  0  0  0  0
 33 32  1  0  0  0  0
 33 72  1  0  0  0  0
 33 73  1  0  0  0  0
 33 74  1  0  0  0  0
M  END
>  <MODEL>
       0

$$$$
selected_4mers/LAPL/357_noH.pdb
 OpenBabel03042517593D

 74 74  0  0  1  0  0  0  0  0999 V2000
   27.5790   -9.0860   56.2400 C   0  0  0  0  0  0  0  0  0  0  0  0
   26.9240   -7.8440   55.6450 C   0  0  0  0  0  0  0  0  0  0  0  0
   26.0290   -7.2380   56.2400 O   0  0  0  0  0  0  0  0  0  0  0  0
   27.3840   -7.4770   54.4500 N   0  0  0  0  0  0  0  0  0  0  0  0
   26.8800   -6.3280   53.6940 C   0  0  2  0  0  0  0  0  0  0  0  0
   27.1470   -4.9390   54.2900 C   0  0  0  0  0  0  0  0  0  0  0  0
   26.5820   -3.9470   53.8280 O   0  0  0  0  0  0  0  0  0  0  0  0
   25.3760   -6.4860   53.4230 C   0  0  0  0  0  0  0  0  0  0  0  0
   24.9220   -7.8540   52.9020 C   0  0  0  0  0  0  0  0  0  0  0  0
   23.4140   -7.8240   52.6260 C   0  0  0  0  0  0  0  0  0  0  0  0
   25.7000   -8.2280   51.6430 C   0  0  0  0  0  0  0  0  0  0  0  0
   27.9980   -4.8580   55.3070 N   0  0  0  0  0  0  0  0  0  0  0  0
   28.3210   -3.5620   55.9070 C   0  0  2  0  0  0  0  0  0  0  0  0
   29.4470   -2.9080   55.1100 C   0  0  0  0  0  0  0  0  0  0  0  0
   30.0960   -3.5630   54.2950 O   0  0  0  0  0  0  0  0  0  0  0  0
   28.7650   -3.7450   57.3640 C   0  0  0  0  0  0  0  0  0  0  0  0
   29.6770   -1.6020   55.3170 N   0  0  0  0  0  0  0  0  0  0  0  0
   30.7600   -0.9460   54.5760 C   0  0  2  0  0  0  0  0  0  0  0  0
   32.1010   -1.3170   55.2140 C   0  0  0  0  0  0  0  0  0  0  0  0
   32.1460   -1.7570   56.3700 O   0  0  0  0  0  0  0  0  0  0  0  0
   30.4330    0.5380   54.7280 C   0  0  0  0  0  0  0  0  0  0  0  0
   29.8330    0.6020   56.0930 C   0  0  0  0  0  0  0  0  0  0  0  0
   28.9310   -0.6270   56.1360 C   0  0  0  0  0  0  0  0  0  0  0  0
   33.1860   -1.1470   54.4620 N   0  0  0  0  0  0  0  0  0  0  0  0
   34.5280   -1.4660   54.9560 C   0  0  2  0  0  0  0  0  0  0  0  0
   34.7970   -0.9400   56.3610 C   0  0  0  0  0  0  0  0  0  0  0  0
   34.4960    0.2160   56.6660 O   0  0  0  0  0  0  0  0  0  0  0  0
   35.5920   -0.8820   54.0230 C   0  0  0  0  0  0  0  0  0  0  0  0
   35.9060   -1.5670   52.6980 C   0  0  0  0  0  0  0  0  0  0  0  0
   36.8630   -0.6720   51.9160 C   0  0  0  0  0  0  0  0  0  0  0  0
   36.5390   -2.9530   52.9510 C   0  0  0  0  0  0  0  0  0  0  0  0
   35.3780   -1.7950   57.2010 N   0  0  0  0  0  0  0  0  0  0  0  0
   35.7130   -1.4090   58.5600 C   0  0  0  0  0  0  0  0  0  0  0  0
   28.3248   -9.4533   55.5664 H   0  0  0  0  0  0  0  0  0  0  0  0
   26.8367   -9.8406   56.3961 H   0  0  0  0  0  0  0  0  0  0  0  0
   28.0351   -8.8355   57.1750 H   0  0  0  0  0  0  0  0  0  0  0  0
   28.1078   -8.0112   54.0500 H   0  0  0  0  0  0  0  0  0  0  0  0
   27.4522   -6.3500   52.7901 H   0  0  0  0  0  0  0  0  0  0  0  0
   24.8576   -6.2975   54.3398 H   0  0  0  0  0  0  0  0  0  0  0  0
   25.1520   -5.7926   52.6395 H   0  0  0  0  0  0  0  0  0  0  0  0
   25.1203   -8.5988   53.6442 H   0  0  0  0  0  0  0  0  0  0  0  0
   23.2018   -7.0823   51.8845 H   0  0  0  0  0  0  0  0  0  0  0  0
   22.8909   -7.5859   53.5285 H   0  0  0  0  0  0  0  0  0  0  0  0
   23.0970   -8.7828   52.2724 H   0  0  0  0  0  0  0  0  0  0  0  0
   25.5194   -7.4978   50.8820 H   0  0  0  0  0  0  0  0  0  0  0  0
   25.3799   -9.1890   51.2982 H   0  0  0  0  0  0  0  0  0  0  0  0
   26.7460   -8.2594   51.8662 H   0  0  0  0  0  0  0  0  0  0  0  0
   28.4152   -5.6767   55.6604 H   0  0  0  0  0  0  0  0  0  0  0  0
   27.4505   -2.9401   55.8876 H   0  0  0  0  0  0  0  0  0  0  0  0
   29.6358   -4.3659   57.3962 H   0  0  0  0  0  0  0  0  0  0  0  0
   27.9771   -4.2066   57.9217 H   0  0  0  0  0  0  0  0  0  0  0  0
   28.9918   -2.7902   57.7904 H   0  0  0  0  0  0  0  0  0  0  0  0
   30.8368   -1.2302   53.5473 H   0  0  0  0  0  0  0  0  0  0  0  0
   29.7339    0.8575   53.9836 H   0  0  0  0  0  0  0  0  0  0  0  0
   31.2839    1.1754   54.6072 H   0  0  0  0  0  0  0  0  0  0  0  0
   29.2646    1.4996   56.2205 H   0  0  0  0  0  0  0  0  0  0  0  0
   30.5655    0.6121   56.8729 H   0  0  0  0  0  0  0  0  0  0  0  0
   28.8062   -0.9798   57.1384 H   0  0  0  0  0  0  0  0  0  0  0  0
   27.9399   -0.4405   55.7784 H   0  0  0  0  0  0  0  0  0  0  0  0
   33.0839   -0.7968   53.5476 H   0  0  0  0  0  0  0  0  0  0  0  0
   34.5783   -2.5345   54.9840 H   0  0  0  0  0  0  0  0  0  0  0  0
   35.2831    0.1154   53.7890 H   0  0  0  0  0  0  0  0  0  0  0  0
   36.4978   -0.9999   54.5803 H   0  0  0  0  0  0  0  0  0  0  0  0
   35.0082   -1.7167   52.1355 H   0  0  0  0  0  0  0  0  0  0  0  0
   37.7585   -0.5259   52.4831 H   0  0  0  0  0  0  0  0  0  0  0  0
   36.3979    0.2742   51.7338 H   0  0  0  0  0  0  0  0  0  0  0  0
   37.1037   -1.1367   50.9827 H   0  0  0  0  0  0  0  0  0  0  0  0
   37.4417   -2.8355   53.5133 H   0  0  0  0  0  0  0  0  0  0  0  0
   36.7606   -3.4203   52.0143 H   0  0  0  0  0  0  0  0  0  0  0  0
   35.8532   -3.5633   53.5007 H   0  0  0  0  0  0  0  0  0  0  0  0
   35.5845   -2.7074   56.8941 H   0  0  0  0  0  0  0  0  0  0  0  0
   35.4218   -0.3925   58.7241 H   0  0  0  0  0  0  0  0  0  0  0  0
   36.7682   -1.5062   58.7086 H   0  0  0  0  0  0  0  0  0  0  0  0
   35.1959   -2.0438   59.2488 H   0  0  0  0  0  0  0  0  0  0  0  0
  1 34  1  0  0  0  0
  1 35  1  0  0  0  0
  1 36  1  0  0  0  0
  2  3  2  0  0  0  0
  2  1  1  0  0  0  0
  4  2  1  0  0  0  0
  4 37  1  0  0  0  0
  5  6  1  0  0  0  0
  5  4  1  0  0  0  0
  5 38  1  6  0  0  0
  6 12  1  0  0  0  0
  7  6  2  0  0  0  0
  8  5  1  0  0  0  0
  8 39  1  0  0  0  0
  8 40  1  0  0  0  0
  9  8  1  0  0  0  0
  9 41  1  0  0  0  0
 10  9  1  0  0  0  0
 10 42  1  0  0  0  0
 10 43  1  0  0  0  0
 10 44  1  0  0  0  0
 11  9  1  0  0  0  0
 11 45  1  0  0  0  0
 11 46  1  0  0  0  0
 11 47  1  0  0  0  0
 12 13  1  0  0  0  0
 12 48  1  0  0  0  0
 13 16  1  0  0  0  0
 13 49  1  6  0  0  0
 14 17  1  0  0  0  0
 14 13  1  0  0  0  0
 15 14  2  0  0  0  0
 16 50  1  0  0  0  0
 16 51  1  0  0  0  0
 16 52  1  0  0  0  0
 17 23  1  0  0  0  0
 18 21  1  0  0  0  0
 18 19  1  0  0  0  0
 18 17  1  0  0  0  0
 18 53  1  6  0  0  0
 19 20  2  0  0  0  0
 21 22  1  0  0  0  0
 21 54  1  0  0  0  0
 21 55  1  0  0  0  0
 22 23  1  0  0  0  0
 22 56  1  0  0  0  0
 22 57  1  0  0  0  0
 23 58  1  0  0  0  0
 23 59  1  0  0  0  0
 24 25  1  0  0  0  0
 24 19  1  0  0  0  0
 24 60  1  0  0  0  0
 25 26  1  0  0  0  0
 25 61  1  1  0  0  0
 26 27  2  0  0  0  0
 26 32  1  0  0  0  0
 28 25  1  0  0  0  0
 28 62  1  0  0  0  0
 28 63  1  0  0  0  0
 29 31  1  0  0  0  0
 29 28  1  0  0  0  0
 29 64  1  0  0  0  0
 30 29  1  0  0  0  0
 30 65  1  0  0  0  0
 30 66  1  0  0  0  0
 30 67  1  0  0  0  0
 31 68  1  0  0  0  0
 31 69  1  0  0  0  0
 31 70  1  0  0  0  0
 32 33  1  0  0  0  0
 32 71  1  0  0  0  0
 33 72  1  0  0  0  0
 33 73  1  0  0  0  0
 33 74  1  0  0  0  0
M  END
>  <MODEL>
       0

$$$$
selected_4mers/LAPL/358_noH.pdb
 OpenBabel03042517593D

 74 74  0  0  1  0  0  0  0  0999 V2000
   62.5160    9.1070    2.2780 C   0  0  0  0  0  0  0  0  0  0  0  0
   61.0970    8.5680    2.1260 C   0  0  0  0  0  0  0  0  0  0  0  0
   60.1790    8.9760    2.8510 O   0  0  0  0  0  0  0  0  0  0  0  0
   60.9180    7.6300    1.2020 N   0  0  0  0  0  0  0  0  0  0  0  0
   59.6190    7.0200    0.9620 C   0  0  2  0  0  0  0  0  0  0  0  0
   59.6820    5.5650    1.4050 C   0  0  0  0  0  0  0  0  0  0  0  0
   60.5140    4.7980    0.9270 O   0  0  0  0  0  0  0  0  0  0  0  0
   59.2320    7.1390   -0.5190 C   0  0  0  0  0  0  0  0  0  0  0  0
   59.1310    8.5470   -1.1230 C   0  0  0  0  0  0  0  0  0  0  0  0
   58.8050    8.4520   -2.6070 C   0  0  0  0  0  0  0  0  0  0  0  0
   58.0880    9.4060   -0.4180 C   0  0  0  0  0  0  0  0  0  0  0  0
   58.8180    5.1970    2.3440 N   0  0  0  0  0  0  0  0  0  0  0  0
   58.8090    3.8480    2.9020 C   0  0  2  0  0  0  0  0  0  0  0  0
   58.2110    2.8810    1.8880 C   0  0  0  0  0  0  0  0  0  0  0  0
   57.3300    3.2700    1.1220 O   0  0  0  0  0  0  0  0  0  0  0  0
   57.9930    3.8160    4.2000 C   0  0  0  0  0  0  0  0  0  0  0  0
   58.6590    1.6050    1.9060 N   0  0  0  0  0  0  0  0  0  0  0  0
   58.0730    0.6480    0.9680 C   0  0  2  0  0  0  0  0  0  0  0  0
   56.5440    0.5610    1.0970 C   0  0  0  0  0  0  0  0  0  0  0  0
   55.9970    0.5880    2.1990 O   0  0  0  0  0  0  0  0  0  0  0  0
   58.7430   -0.6800    1.3560 C   0  0  0  0  0  0  0  0  0  0  0  0
   60.0060   -0.3010    2.0420 C   0  0  0  0  0  0  0  0  0  0  0  0
   59.6810    0.9750    2.7700 C   0  0  0  0  0  0  0  0  0  0  0  0
   55.8610    0.4950   -0.0350 N   0  0  0  0  0  0  0  0  0  0  0  0
   54.4110    0.4490   -0.0420 C   0  0  2  0  0  0  0  0  0  0  0  0
   53.9030   -0.8740    0.5570 C   0  0  0  0  0  0  0  0  0  0  0  0
   54.2920   -1.9430    0.0840 O   0  0  0  0  0  0  0  0  0  0  0  0
   53.9090    0.6190   -1.4790 C   0  0  0  0  0  0  0  0  0  0  0  0
   52.4100    0.7630   -1.6590 C   0  0  0  0  0  0  0  0  0  0  0  0
   51.9230    2.0580   -1.0120 C   0  0  0  0  0  0  0  0  0  0  0  0
   52.0670    0.7690   -3.1500 C   0  0  0  0  0  0  0  0  0  0  0  0
   53.0670   -0.8300    1.6200 N   0  0  0  0  0  0  0  0  0  0  0  0
   52.5810   -2.1000    2.1610 C   0  0  0  0  0  0  0  0  0  0  0  0
   63.1564    8.6316    1.5647 H   0  0  0  0  0  0  0  0  0  0  0  0
   62.8707    8.9038    3.2669 H   0  0  0  0  0  0  0  0  0  0  0  0
   62.5162   10.1636    2.1091 H   0  0  0  0  0  0  0  0  0  0  0  0
   61.6885    7.3386    0.6629 H   0  0  0  0  0  0  0  0  0  0  0  0
   58.8641    7.5281    1.5249 H   0  0  0  0  0  0  0  0  0  0  0  0
   59.9644    6.6014   -1.0842 H   0  0  0  0  0  0  0  0  0  0  0  0
   58.2352    6.7532   -0.5683 H   0  0  0  0  0  0  0  0  0  0  0  0
   60.0806    9.0212   -0.9875 H   0  0  0  0  0  0  0  0  0  0  0  0
   57.8546    7.9770   -2.7337 H   0  0  0  0  0  0  0  0  0  0  0  0
   59.5598    7.8773   -3.1019 H   0  0  0  0  0  0  0  0  0  0  0  0
   58.7715    9.4349   -3.0285 H   0  0  0  0  0  0  0  0  0  0  0  0
   57.1220    8.9604   -0.5331 H   0  0  0  0  0  0  0  0  0  0  0  0
   58.0825   10.3855   -0.8485 H   0  0  0  0  0  0  0  0  0  0  0  0
   58.3272    9.4751    0.6226 H   0  0  0  0  0  0  0  0  0  0  0  0
   58.1634    5.8542    2.6740 H   0  0  0  0  0  0  0  0  0  0  0  0
   59.8140    3.5543    3.1224 H   0  0  0  0  0  0  0  0  0  0  0  0
   56.9843    4.1079    3.9945 H   0  0  0  0  0  0  0  0  0  0  0  0
   58.4229    4.4930    4.9084 H   0  0  0  0  0  0  0  0  0  0  0  0
   58.0024    2.8248    4.6028 H   0  0  0  0  0  0  0  0  0  0  0  0
   58.2382    0.9257   -0.0520 H   0  0  0  0  0  0  0  0  0  0  0  0
   58.9517   -1.2628    0.4832 H   0  0  0  0  0  0  0  0  0  0  0  0
   58.1127   -1.2744    1.9839 H   0  0  0  0  0  0  0  0  0  0  0  0
   60.7879   -0.1397    1.3296 H   0  0  0  0  0  0  0  0  0  0  0  0
   60.3509   -1.0671    2.7046 H   0  0  0  0  0  0  0  0  0  0  0  0
   59.2877    0.7717    3.7441 H   0  0  0  0  0  0  0  0  0  0  0  0
   60.5369    1.5969    2.9301 H   0  0  0  0  0  0  0  0  0  0  0  0
   56.3476    0.4767   -0.8907 H   0  0  0  0  0  0  0  0  0  0  0  0
   54.0314    1.2460    0.5626 H   0  0  0  0  0  0  0  0  0  0  0  0
   54.3707    1.4955   -1.8832 H   0  0  0  0  0  0  0  0  0  0  0  0
   54.1684   -0.2906   -1.9793 H   0  0  0  0  0  0  0  0  0  0  0  0
   51.9231   -0.0644   -1.1865 H   0  0  0  0  0  0  0  0  0  0  0  0
   52.4043    2.8924   -1.4778 H   0  0  0  0  0  0  0  0  0  0  0  0
   52.1599    2.0465    0.0314 H   0  0  0  0  0  0  0  0  0  0  0  0
   50.8636    2.1424   -1.1363 H   0  0  0  0  0  0  0  0  0  0  0  0
   52.5530    1.5958   -3.6245 H   0  0  0  0  0  0  0  0  0  0  0  0
   51.0079    0.8600   -3.2720 H   0  0  0  0  0  0  0  0  0  0  0  0
   52.4003   -0.1446   -3.5963 H   0  0  0  0  0  0  0  0  0  0  0  0
   52.7944    0.0288    2.0168 H   0  0  0  0  0  0  0  0  0  0  0  0
   52.9905   -2.9094    1.5935 H   0  0  0  0  0  0  0  0  0  0  0  0
   51.5130   -2.1274    2.1020 H   0  0  0  0  0  0  0  0  0  0  0  0
   52.8842   -2.1917    3.1830 H   0  0  0  0  0  0  0  0  0  0  0  0
  1 34  1  0  0  0  0
  1 35  1  0  0  0  0
  1 36  1  0  0  0  0
  2  1  1  0  0  0  0
  2  3  2  0  0  0  0
  4  2  1  0  0  0  0
  4 37  1  0  0  0  0
  5  4  1  0  0  0  0
  5  6  1  0  0  0  0
  5 38  1  1  0  0  0
  6 12  1  0  0  0  0
  7  6  2  0  0  0  0
  8  5  1  0  0  0  0
  8 39  1  0  0  0  0
  8 40  1  0  0  0  0
  9  8  1  0  0  0  0
  9 11  1  0  0  0  0
  9 41  1  0  0  0  0
 10  9  1  0  0  0  0
 10 42  1  0  0  0  0
 10 43  1  0  0  0  0
 10 44  1  0  0  0  0
 11 45  1  0  0  0  0
 11 46  1  0  0  0  0
 11 47  1  0  0  0  0
 12 13  1  0  0  0  0
 12 48  1  0  0  0  0
 13 16  1  0  0  0  0
 13 49  1  1  0  0  0
 14 17  1  0  0  0  0
 14 13  1  0  0  0  0
 15 14  2  0  0  0  0
 16 50  1  0  0  0  0
 16 51  1  0  0  0  0
 16 52  1  0  0  0  0
 17 23  1  0  0  0  0
 18 19  1  0  0  0  0
 18 21  1  0  0  0  0
 18 17  1  0  0  0  0
 18 53  1  6  0  0  0
 19 20  2  0  0  0  0
 21 22  1  0  0  0  0
 21 54  1  0  0  0  0
 21 55  1  0  0  0  0
 22 23  1  0  0  0  0
 22 56  1  0  0  0  0
 22 57  1  0  0  0  0
 23 58  1  0  0  0  0
 23 59  1  0  0  0  0
 24 19  1  0  0  0  0
 24 60  1  0  0  0  0
 25 24  1  0  0  0  0
 25 26  1  0  0  0  0
 25 61  1  1  0  0  0
 26 32  1  0  0  0  0
 27 26  2  0  0  0  0
 28 25  1  0  0  0  0
 28 62  1  0  0  0  0
 28 63  1  0  0  0  0
 29 28  1  0  0  0  0
 29 30  1  0  0  0  0
 29 64  1  0  0  0  0
 30 65  1  0  0  0  0
 30 66  1  0  0  0  0
 30 67  1  0  0  0  0
 31 29  1  0  0  0  0
 31 68  1  0  0  0  0
 31 69  1  0  0  0  0
 31 70  1  0  0  0  0
 32 33  1  0  0  0  0
 32 71  1  0  0  0  0
 33 72  1  0  0  0  0
 33 73  1  0  0  0  0
 33 74  1  0  0  0  0
M  END
>  <MODEL>
       0

$$$$
selected_4mers/LAPL/359_noH.pdb
 OpenBabel03042517593D

 74 74  0  0  1  0  0  0  0  0999 V2000
   -0.6420   16.9560   22.2190 C   0  0  0  0  0  0  0  0  0  0  0  0
    0.1540   18.1550   22.7080 C   0  0  0  0  0  0  0  0  0  0  0  0
    0.8590   18.0880   23.7190 O   0  0  0  0  0  0  0  0  0  0  0  0
    0.0690   19.2410   21.9550 N   0  0  0  0  0  0  0  0  0  0  0  0
    0.7760   20.4670   22.2760 C   0  0  2  0  0  0  0  0  0  0  0  0
   -0.2340   21.5870   22.4490 C   0  0  0  0  0  0  0  0  0  0  0  0
   -1.2480   21.6280   21.7440 O   0  0  0  0  0  0  0  0  0  0  0  0
    1.7610   20.8210   21.1550 C   0  0  0  0  0  0  0  0  0  0  0  0
    2.8780   19.8210   20.8620 C   0  0  0  0  0  0  0  0  0  0  0  0
    3.6980   20.2950   19.6610 C   0  0  0  0  0  0  0  0  0  0  0  0
    3.7820   19.6300   22.0690 C   0  0  0  0  0  0  0  0  0  0  0  0
    0.0270   22.4900   23.3880 N   0  0  0  0  0  0  0  0  0  0  0  0
   -0.7840   23.6920   23.5130 C   0  0  2  0  0  0  0  0  0  0  0  0
   -0.5890   24.5400   22.2610 C   0  0  0  0  0  0  0  0  0  0  0  0
    0.3950   24.3670   21.5420 O   0  0  0  0  0  0  0  0  0  0  0  0
   -0.4060   24.4670   24.7690 C   0  0  0  0  0  0  0  0  0  0  0  0
   -1.5370   25.4410   21.9710 N   0  0  0  0  0  0  0  0  0  0  0  0
   -1.4630   26.2140   20.7250 C   0  0  2  0  0  0  0  0  0  0  0  0
   -0.1290   26.9560   20.5400 C   0  0  0  0  0  0  0  0  0  0  0  0
    0.5150   26.8120   19.5010 O   0  0  0  0  0  0  0  0  0  0  0  0
   -2.6420   27.1890   20.8520 C   0  0  0  0  0  0  0  0  0  0  0  0
   -3.6350   26.4450   21.7020 C   0  0  0  0  0  0  0  0  0  0  0  0
   -2.7970   25.6770   22.7020 C   0  0  0  0  0  0  0  0  0  0  0  0
    0.3040   27.7220   21.5350 N   0  0  0  0  0  0  0  0  0  0  0  0
    1.5430   28.4870   21.4050 C   0  0  2  0  0  0  0  0  0  0  0  0
    2.7540   27.5570   21.3550 C   0  0  0  0  0  0  0  0  0  0  0  0
    3.6950   27.7520   20.5710 O   0  0  0  0  0  0  0  0  0  0  0  0
    1.6840   29.4570   22.5740 C   0  0  0  0  0  0  0  0  0  0  0  0
    2.6190   30.6480   22.3920 C   0  0  0  0  0  0  0  0  0  0  0  0
    2.2300   31.4390   21.1500 C   0  0  0  0  0  0  0  0  0  0  0  0
    2.5800   31.5340   23.6320 C   0  0  0  0  0  0  0  0  0  0  0  0
    2.7270   26.5500   22.2160 N   0  0  0  0  0  0  0  0  0  0  0  0
    3.7550   25.5190   22.2290 C   0  0  0  0  0  0  0  0  0  0  0  0
   -1.1818   17.2229   21.3345 H   0  0  0  0  0  0  0  0  0  0  0  0
   -1.3309   16.6513   22.9789 H   0  0  0  0  0  0  0  0  0  0  0  0
    0.0263   16.1498   21.9993 H   0  0  0  0  0  0  0  0  0  0  0  0
   -0.4944   19.2157   21.1480 H   0  0  0  0  0  0  0  0  0  0  0  0
    1.3280   20.3331   23.1828 H   0  0  0  0  0  0  0  0  0  0  0  0
    1.1942   20.9424   20.2556 H   0  0  0  0  0  0  0  0  0  0  0  0
    2.2634   21.7010   21.4986 H   0  0  0  0  0  0  0  0  0  0  0  0
    2.4282   18.8768   20.6361 H   0  0  0  0  0  0  0  0  0  0  0  0
    4.1479   21.2392   19.8866 H   0  0  0  0  0  0  0  0  0  0  0  0
    3.0572   20.3994   18.8105 H   0  0  0  0  0  0  0  0  0  0  0  0
    4.4625   19.5780   19.4458 H   0  0  0  0  0  0  0  0  0  0  0  0
    4.2463   20.5613   22.3178 H   0  0  0  0  0  0  0  0  0  0  0  0
    4.5355   18.9059   21.8392 H   0  0  0  0  0  0  0  0  0  0  0  0
    3.2005   19.2883   22.8996 H   0  0  0  0  0  0  0  0  0  0  0  0
    0.7785   22.3442   24.0071 H   0  0  0  0  0  0  0  0  0  0  0  0
   -1.8168   23.4275   23.6044 H   0  0  0  0  0  0  0  0  0  0  0  0
    0.6243   24.7511   24.7163 H   0  0  0  0  0  0  0  0  0  0  0  0
   -0.5623   23.8502   25.6293 H   0  0  0  0  0  0  0  0  0  0  0  0
   -1.0144   25.3440   24.8436 H   0  0  0  0  0  0  0  0  0  0  0  0
   -1.5154   25.5845   19.8613 H   0  0  0  0  0  0  0  0  0  0  0  0
   -3.0558   27.4135   19.8911 H   0  0  0  0  0  0  0  0  0  0  0  0
   -2.3570   28.1289   21.2766 H   0  0  0  0  0  0  0  0  0  0  0  0
   -4.2146   25.7740   21.1030 H   0  0  0  0  0  0  0  0  0  0  0  0
   -4.3281   27.1047   22.1809 H   0  0  0  0  0  0  0  0  0  0  0  0
   -3.2663   24.7527   22.9670 H   0  0  0  0  0  0  0  0  0  0  0  0
   -2.6566   26.2014   23.6241 H   0  0  0  0  0  0  0  0  0  0  0  0
   -0.2154   27.7752   22.3696 H   0  0  0  0  0  0  0  0  0  0  0  0
    1.5011   29.0393   20.4895 H   0  0  0  0  0  0  0  0  0  0  0  0
    2.0381   28.8970   23.4142 H   0  0  0  0  0  0  0  0  0  0  0  0
    0.7117   29.8888   22.6886 H   0  0  0  0  0  0  0  0  0  0  0  0
    3.6190   30.2906   22.2609 H   0  0  0  0  0  0  0  0  0  0  0  0
    1.2312   31.8068   21.2597 H   0  0  0  0  0  0  0  0  0  0  0  0
    2.2837   30.8033   20.2910 H   0  0  0  0  0  0  0  0  0  0  0  0
    2.9018   32.2626   21.0268 H   0  0  0  0  0  0  0  0  0  0  0  0
    1.5852   31.9002   23.7775 H   0  0  0  0  0  0  0  0  0  0  0  0
    3.2484   32.3593   23.5018 H   0  0  0  0  0  0  0  0  0  0  0  0
    2.8790   30.9643   24.4870 H   0  0  0  0  0  0  0  0  0  0  0  0
    1.9898   26.4974   22.8663 H   0  0  0  0  0  0  0  0  0  0  0  0
    4.4756   25.7242   21.4652 H   0  0  0  0  0  0  0  0  0  0  0  0
    3.3056   24.5649   22.0483 H   0  0  0  0  0  0  0  0  0  0  0  0
    4.2392   25.5102   23.1831 H   0  0  0  0  0  0  0  0  0  0  0  0
  1  2  1  0  0  0  0
  1 34  1  0  0  0  0
  1 35  1  0  0  0  0
  1 36  1  0  0  0  0
  2  3  2  0  0  0  0
  4  5  1  0  0  0  0
  4  2  1  0  0  0  0
  4 37  1  0  0  0  0
  5  6  1  0  0  0  0
  5 38  1  1  0  0  0
  6 12  1  0  0  0  0
  7  6  2  0  0  0  0
  8  5  1  0  0  0  0
  8 39  1  0  0  0  0
  8 40  1  0  0  0  0
  9  8  1  0  0  0  0
  9 11  1  0  0  0  0
  9 41  1  0  0  0  0
 10  9  1  0  0  0  0
 10 42  1  0  0  0  0
 10 43  1  0  0  0  0
 10 44  1  0  0  0  0
 11 45  1  0  0  0  0
 11 46  1  0  0  0  0
 11 47  1  0  0  0  0
 12 13  1  0  0  0  0
 12 48  1  0  0  0  0
 13 16  1  0  0  0  0
 13 49  1  1  0  0  0
 14 13  1  0  0  0  0
 15 14  2  0  0  0  0
 16 50  1  0  0  0  0
 16 51  1  0  0  0  0
 16 52  1  0  0  0  0
 17 14  1  0  0  0  0
 17 23  1  0  0  0  0
 18 21  1  0  0  0  0
 18 17  1  0  0  0  0
 18 53  1  6  0  0  0
 19 18  1  0  0  0  0
 19 24  1  0  0  0  0
 20 19  2  0  0  0  0
 21 22  1  0  0  0  0
 21 54  1  0  0  0  0
 21 55  1  0  0  0  0
 22 23  1  0  0  0  0
 22 56  1  0  0  0  0
 22 57  1  0  0  0  0
 23 58  1  0  0  0  0
 23 59  1  0  0  0  0
 24 60  1  0  0  0  0
 25 24  1  0  0  0  0
 25 28  1  0  0  0  0
 25 61  1  6  0  0  0
 26 25  1  0  0  0  0
 26 32  1  0  0  0  0
 27 26  2  0  0  0  0
 28 62  1  0  0  0  0
 28 63  1  0  0  0  0
 29 28  1  0  0  0  0
 29 31  1  0  0  0  0
 29 64  1  0  0  0  0
 30 29  1  0  0  0  0
 30 65  1  0  0  0  0
 30 66  1  0  0  0  0
 30 67  1  0  0  0  0
 31 68  1  0  0  0  0
 31 69  1  0  0  0  0
 31 70  1  0  0  0  0
 32 33  1  0  0  0  0
 32 71  1  0  0  0  0
 33 72  1  0  0  0  0
 33 73  1  0  0  0  0
 33 74  1  0  0  0  0
M  END
>  <MODEL>
       0

$$$$
