selected_4mers/LATG/440_noH.pdb
 OpenBabel03042517593D

 62 61  0  0  1  0  0  0  0  0999 V2000
   16.7520   16.0430   20.7430 C   0  0  0  0  0  0  0  0  0  0  0  0
   15.5630   15.1380   20.5670 C   0  0  0  0  0  0  0  0  0  0  0  0
   14.4720   15.3860   21.0740 O   0  0  0  0  0  0  0  0  0  0  0  0
   15.7770   14.0330   19.8610 N   0  0  0  0  0  0  0  0  0  0  0  0
   14.6970   13.1060   19.6330 C   0  0  2  0  0  0  0  0  0  0  0  0
   14.2550   12.4910   20.9570 C   0  0  0  0  0  0  0  0  0  0  0  0
   13.0870   12.2950   21.1850 O   0  0  0  0  0  0  0  0  0  0  0  0
   15.1260   11.9810   18.7200 C   0  0  0  0  0  0  0  0  0  0  0  0
   15.2300   12.3860   17.2540 C   0  0  0  0  0  0  0  0  0  0  0  0
   15.6890   11.1450   16.4770 C   0  0  0  0  0  0  0  0  0  0  0  0
   13.8560   12.8660   16.7620 C   0  0  0  0  0  0  0  0  0  0  0  0
   15.2180   12.1550   21.8090 N   0  0  0  0  0  0  0  0  0  0  0  0
   14.9060   11.3790   23.0380 C   0  0  2  0  0  0  0  0  0  0  0  0
   14.2980   12.2670   24.1040 C   0  0  0  0  0  0  0  0  0  0  0  0
   13.5480   11.8170   24.9560 O   0  0  0  0  0  0  0  0  0  0  0  0
   16.1570   10.6920   23.5990 C   0  0  0  0  0  0  0  0  0  0  0  0
   14.6530   13.5370   24.0660 N   0  0  0  0  0  0  0  0  0  0  0  0
   14.3710   14.4630   25.1930 C   0  0  2  0  0  0  0  0  0  0  0  0
   13.5460   15.7020   24.8530 C   0  0  0  0  0  0  0  0  0  0  0  0
   12.9690   16.3320   25.7340 O   0  0  0  0  0  0  0  0  0  0  0  0
   15.6700   14.9830   25.8600 C   0  0  2  0  0  0  0  0  0  0  0  0
   16.3320   15.9010   24.9920 O   0  0  0  0  0  0  0  0  0  0  0  0
   16.5900   13.8310   26.2730 C   0  0  0  0  0  0  0  0  0  0  0  0
   13.5340   16.0610   23.5830 N   0  0  0  0  0  0  0  0  0  0  0  0
   12.7920   17.2080   23.0740 C   0  0  0  0  0  0  0  0  0  0  0  0
   13.5310   18.5130   23.2990 C   0  0  0  0  0  0  0  0  0  0  0  0
   13.0260   19.6060   23.0640 O   0  0  0  0  0  0  0  0  0  0  0  0
   14.7520   18.3760   23.7790 N   0  0  0  0  0  0  0  0  0  0  0  0
   15.6530   19.5260   23.9440 C   0  0  0  0  0  0  0  0  0  0  0  0
   17.5911   15.6355   20.2187 H   0  0  0  0  0  0  0  0  0  0  0  0
   16.9871   16.1247   21.7837 H   0  0  0  0  0  0  0  0  0  0  0  0
   16.5234   17.0123   20.3518 H   0  0  0  0  0  0  0  0  0  0  0  0
   16.6716   13.8477   19.4942 H   0  0  0  0  0  0  0  0  0  0  0  0
   13.8957   13.6499   19.1781 H   0  0  0  0  0  0  0  0  0  0  0  0
   16.0844   11.6313   19.0425 H   0  0  0  0  0  0  0  0  0  0  0  0
   14.3725   11.2238   18.7821 H   0  0  0  0  0  0  0  0  0  0  0  0
   15.9264   13.1859   17.1123 H   0  0  0  0  0  0  0  0  0  0  0  0
   14.9866   10.3515   16.6251 H   0  0  0  0  0  0  0  0  0  0  0  0
   16.6519   10.8394   16.8296 H   0  0  0  0  0  0  0  0  0  0  0  0
   15.7485   11.3787   15.4345 H   0  0  0  0  0  0  0  0  0  0  0  0
   13.1374   12.0839   16.8920 H   0  0  0  0  0  0  0  0  0  0  0  0
   13.9185   13.1242   15.7255 H   0  0  0  0  0  0  0  0  0  0  0  0
   13.5551   13.7242   17.3258 H   0  0  0  0  0  0  0  0  0  0  0  0
   16.1473   12.4227   21.6244 H   0  0  0  0  0  0  0  0  0  0  0  0
   14.1958   10.6279   22.7617 H   0  0  0  0  0  0  0  0  0  0  0  0
   16.8757   11.4335   23.8793 H   0  0  0  0  0  0  0  0  0  0  0  0
   16.5777   10.0519   22.8519 H   0  0  0  0  0  0  0  0  0  0  0  0
   15.8904   10.1113   24.4573 H   0  0  0  0  0  0  0  0  0  0  0  0
   15.1176   13.8806   23.2689 H   0  0  0  0  0  0  0  0  0  0  0  0
   13.7933   13.8425   25.8458 H   0  0  0  0  0  0  0  0  0  0  0  0
   15.4051   15.5016   26.7577 H   0  0  0  0  0  0  0  0  0  0  0  0
   16.5804   15.4480   24.1710 H   0  0  0  0  0  0  0  0  0  0  0  0
   16.8834   13.2798   25.4041 H   0  0  0  0  0  0  0  0  0  0  0  0
   16.0698   13.1834   26.9474 H   0  0  0  0  0  0  0  0  0  0  0  0
   17.4598   14.2248   26.7561 H   0  0  0  0  0  0  0  0  0  0  0  0
   14.0554   15.5240   22.9435 H   0  0  0  0  0  0  0  0  0  0  0  0
   12.6341   17.0779   22.0237 H   0  0  0  0  0  0  0  0  0  0  0  0
   11.8636   17.2603   23.6035 H   0  0  0  0  0  0  0  0  0  0  0  0
   15.0686   17.4793   24.0337 H   0  0  0  0  0  0  0  0  0  0  0  0
   15.1562   20.4174   23.6223 H   0  0  0  0  0  0  0  0  0  0  0  0
   16.5338   19.3763   23.3552 H   0  0  0  0  0  0  0  0  0  0  0  0
   15.9247   19.6212   24.9745 H   0  0  0  0  0  0  0  0  0  0  0  0
  1 30  1  0  0  0  0
  1 31  1  0  0  0  0
  1 32  1  0  0  0  0
  2  1  1  0  0  0  0
  2  3  2  0  0  0  0
  4  2  1  0  0  0  0
  4 33  1  0  0  0  0
  5  4  1  0  0  0  0
  5  6  1  0  0  0  0
  5 34  1  6  0  0  0
  6  7  2  0  0  0  0
  6 12  1  0  0  0  0
  8  5  1  0  0  0  0
  8 35  1  0  0  0  0
  8 36  1  0  0  0  0
  9  8  1  0  0  0  0
  9 37  1  0  0  0  0
 10  9  1  0  0  0  0
 10 38  1  0  0  0  0
 10 39  1  0  0  0  0
 10 40  1  0  0  0  0
 11  9  1  0  0  0  0
 11 41  1  0  0  0  0
 11 42  1  0  0  0  0
 11 43  1  0  0  0  0
 12 13  1  0  0  0  0
 12 44  1  0  0  0  0
 13 16  1  0  0  0  0
 13 14  1  0  0  0  0
 13 45  1  6  0  0  0
 14 15  2  0  0  0  0
 16 46  1  0  0  0  0
 16 47  1  0  0  0  0
 16 48  1  0  0  0  0
 17 14  1  0  0  0  0
 17 18  1  0  0  0  0
 17 49  1  0  0  0  0
 18 21  1  0  0  0  0
 18 50  1  1  0  0  0
 19 18  1  0  0  0  0
 19 20  2  0  0  0  0
 21 23  1  0  0  0  0
 21 51  1  1  0  0  0
 22 21  1  0  0  0  0
 22 52  1  0  0  0  0
 23 53  1  0  0  0  0
 23 54  1  0  0  0  0
 23 55  1  0  0  0  0
 24 19  1  0  0  0  0
 24 56  1  0  0  0  0
 25 26  1  0  0  0  0
 25 24  1  0  0  0  0
 25 57  1  0  0  0  0
 25 58  1  0  0  0  0
 26 28  1  0  0  0  0
 27 26  2  0  0  0  0
 28 29  1  0  0  0  0
 28 59  1  0  0  0  0
 29 60  1  0  0  0  0
 29 61  1  0  0  0  0
 29 62  1  0  0  0  0
M  END
>  <MODEL>
       0

$$$$
selected_4mers/LATG/441_noH.pdb
 OpenBabel03042517593D

 62 61  0  0  1  0  0  0  0  0999 V2000
   51.0890  -29.9170   -4.8320 C   0  0  0  0  0  0  0  0  0  0  0  0
   50.5880  -28.9870   -3.7300 C   0  0  0  0  0  0  0  0  0  0  0  0
   50.9900  -29.0880   -2.5690 O   0  0  0  0  0  0  0  0  0  0  0  0
   49.7190  -28.0550   -4.0990 N   0  0  0  0  0  0  0  0  0  0  0  0
   49.1170  -27.1580   -3.1150 C   0  0  2  0  0  0  0  0  0  0  0  0
   48.1760  -27.9480   -2.2110 C   0  0  0  0  0  0  0  0  0  0  0  0
   48.1320  -27.7220   -1.0070 O   0  0  0  0  0  0  0  0  0  0  0  0
   48.3940  -26.0020   -3.8150 C   0  0  0  0  0  0  0  0  0  0  0  0
   49.3020  -25.0020   -4.5340 C   0  0  0  0  0  0  0  0  0  0  0  0
   48.5370  -24.1930   -5.5930 C   0  0  0  0  0  0  0  0  0  0  0  0
   50.0230  -24.0930   -3.5440 C   0  0  0  0  0  0  0  0  0  0  0  0
   47.4640  -28.9180   -2.7870 N   0  0  0  0  0  0  0  0  0  0  0  0
   46.5040  -29.7250   -2.0370 C   0  0  2  0  0  0  0  0  0  0  0  0
   47.1450  -30.5770   -0.9400 C   0  0  0  0  0  0  0  0  0  0  0  0
   46.5210  -30.8270    0.0920 O   0  0  0  0  0  0  0  0  0  0  0  0
   45.7190  -30.6120   -2.9890 C   0  0  0  0  0  0  0  0  0  0  0  0
   48.3740  -31.0390   -1.1650 N   0  0  0  0  0  0  0  0  0  0  0  0
   49.0860  -31.8410   -0.1670 C   0  0  2  0  0  0  0  0  0  0  0  0
   49.8800  -30.9940    0.8270 C   0  0  0  0  0  0  0  0  0  0  0  0
   50.3720  -31.5060    1.8370 O   0  0  0  0  0  0  0  0  0  0  0  0
   50.0660  -32.7970   -0.8500 C   0  0  2  0  0  0  0  0  0  0  0  0
   50.9890  -32.0470   -1.6510 O   0  0  0  0  0  0  0  0  0  0  0  0
   49.3100  -33.8000   -1.7310 C   0  0  0  0  0  0  0  0  0  0  0  0
   50.0150  -29.7110    0.5300 N   0  0  0  0  0  0  0  0  0  0  0  0
   50.8640  -28.8190    1.3120 C   0  0  0  0  0  0  0  0  0  0  0  0
   52.3370  -28.9040    0.9500 C   0  0  0  0  0  0  0  0  0  0  0  0
   53.1530  -28.2160    1.5580 O   0  0  0  0  0  0  0  0  0  0  0  0
   52.6800  -29.7420   -0.0330 N   0  0  0  0  0  0  0  0  0  0  0  0
   54.0500  -29.8440   -0.5630 C   0  0  0  0  0  0  0  0  0  0  0  0
   50.6170  -29.6603   -5.7573 H   0  0  0  0  0  0  0  0  0  0  0  0
   50.8519  -30.9294   -4.5795 H   0  0  0  0  0  0  0  0  0  0  0  0
   52.1493  -29.8132   -4.9316 H   0  0  0  0  0  0  0  0  0  0  0  0
   49.4763  -27.9665   -5.0490 H   0  0  0  0  0  0  0  0  0  0  0  0
   49.8848  -26.7296   -2.5051 H   0  0  0  0  0  0  0  0  0  0  0  0
   47.7250  -26.4200   -4.5379 H   0  0  0  0  0  0  0  0  0  0  0  0
   47.9004  -25.4506   -3.0421 H   0  0  0  0  0  0  0  0  0  0  0  0
   50.0479  -25.5675   -5.0523 H   0  0  0  0  0  0  0  0  0  0  0  0
   47.7773  -23.6097   -5.1161 H   0  0  0  0  0  0  0  0  0  0  0  0
   48.0849  -24.8621   -6.2950 H   0  0  0  0  0  0  0  0  0  0  0  0
   49.2161  -23.5440   -6.1053 H   0  0  0  0  0  0  0  0  0  0  0  0
   49.3045  -23.5105   -3.0061 H   0  0  0  0  0  0  0  0  0  0  0  0
   50.6849  -23.4413   -4.0750 H   0  0  0  0  0  0  0  0  0  0  0  0
   50.5854  -24.6895   -2.8564 H   0  0  0  0  0  0  0  0  0  0  0  0
   47.5892  -29.0957   -3.7472 H   0  0  0  0  0  0  0  0  0  0  0  0
   45.8500  -29.0372   -1.5429 H   0  0  0  0  0  0  0  0  0  0  0  0
   46.3866  -31.2930   -3.4743 H   0  0  0  0  0  0  0  0  0  0  0  0
   45.2330  -30.0045   -3.7236 H   0  0  0  0  0  0  0  0  0  0  0  0
   44.9847  -31.1630   -2.4394 H   0  0  0  0  0  0  0  0  0  0  0  0
   48.8141  -30.8367   -2.0221 H   0  0  0  0  0  0  0  0  0  0  0  0
   48.3297  -32.3760    0.3685 H   0  0  0  0  0  0  0  0  0  0  0  0
   50.6020  -33.3380   -0.0984 H   0  0  0  0  0  0  0  0  0  0  0  0
   50.5021  -31.5570   -2.3320 H   0  0  0  0  0  0  0  0  0  0  0  0
   48.7686  -33.2724   -2.4882 H   0  0  0  0  0  0  0  0  0  0  0  0
   48.6260  -34.3597   -1.1279 H   0  0  0  0  0  0  0  0  0  0  0  0
   50.0082  -34.4675   -2.1913 H   0  0  0  0  0  0  0  0  0  0  0  0
   49.5267  -29.3471   -0.2436 H   0  0  0  0  0  0  0  0  0  0  0  0
   50.7554  -29.0702    2.3464 H   0  0  0  0  0  0  0  0  0  0  0  0
   50.5470  -27.8195    1.0989 H   0  0  0  0  0  0  0  0  0  0  0  0
   51.9832  -30.3189   -0.4214 H   0  0  0  0  0  0  0  0  0  0  0  0
   54.6858  -29.1588   -0.0423 H   0  0  0  0  0  0  0  0  0  0  0  0
   54.0475  -29.6059   -1.6062 H   0  0  0  0  0  0  0  0  0  0  0  0
   54.4122  -30.8414   -0.4257 H   0  0  0  0  0  0  0  0  0  0  0  0
  1  2  1  0  0  0  0
  1 30  1  0  0  0  0
  1 31  1  0  0  0  0
  1 32  1  0  0  0  0
  2  3  2  0  0  0  0
  4  2  1  0  0  0  0
  4  5  1  0  0  0  0
  4 33  1  0  0  0  0
  5  6  1  0  0  0  0
  5 34  1  1  0  0  0
  6  7  2  0  0  0  0
  8  5  1  0  0  0  0
  8 35  1  0  0  0  0
  8 36  1  0  0  0  0
  9  8  1  0  0  0  0
  9 11  1  0  0  0  0
  9 37  1  0  0  0  0
 10  9  1  0  0  0  0
 10 38  1  0  0  0  0
 10 39  1  0  0  0  0
 10 40  1  0  0  0  0
 11 41  1  0  0  0  0
 11 42  1  0  0  0  0
 11 43  1  0  0  0  0
 12  6  1  0  0  0  0
 12 13  1  0  0  0  0
 12 44  1  0  0  0  0
 13 14  1  0  0  0  0
 13 45  1  1  0  0  0
 14 15  2  0  0  0  0
 16 13  1  0  0  0  0
 16 46  1  0  0  0  0
 16 47  1  0  0  0  0
 16 48  1  0  0  0  0
 17 14  1  0  0  0  0
 17 18  1  0  0  0  0
 17 49  1  0  0  0  0
 18 19  1  0  0  0  0
 18 50  1  1  0  0  0
 19 20  2  0  0  0  0
 21 18  1  0  0  0  0
 21 51  1  1  0  0  0
 22 21  1  0  0  0  0
 22 52  1  0  0  0  0
 23 21  1  0  0  0  0
 23 53  1  0  0  0  0
 23 54  1  0  0  0  0
 23 55  1  0  0  0  0
 24 19  1  0  0  0  0
 24 25  1  0  0  0  0
 24 56  1  0  0  0  0
 25 57  1  0  0  0  0
 25 58  1  0  0  0  0
 26 25  1  0  0  0  0
 26 27  2  0  0  0  0
 28 26  1  0  0  0  0
 28 59  1  0  0  0  0
 29 28  1  0  0  0  0
 29 60  1  0  0  0  0
 29 61  1  0  0  0  0
 29 62  1  0  0  0  0
M  END
>  <MODEL>
       0

$$$$
selected_4mers/LATG/442_noH.pdb
 OpenBabel03042517593D

 62 61  0  0  1  0  0  0  0  0999 V2000
   -4.5890   -3.5250   56.7870 C   0  0  0  0  0  0  0  0  0  0  0  0
   -3.2730   -3.9150   56.1390 C   0  0  0  0  0  0  0  0  0  0  0  0
   -3.2420   -4.2520   54.9500 O   0  0  0  0  0  0  0  0  0  0  0  0
   -2.2180   -3.8920   56.9240 N   0  0  0  0  0  0  0  0  0  0  0  0
   -0.8970   -4.2450   56.3810 C   0  0  2  0  0  0  0  0  0  0  0  0
   -0.4850   -5.6500   56.8630 C   0  0  0  0  0  0  0  0  0  0  0  0
   -0.6170   -5.9760   58.0460 O   0  0  0  0  0  0  0  0  0  0  0  0
    0.1710   -3.2490   56.8360 C   0  0  0  0  0  0  0  0  0  0  0  0
   -0.2220   -1.7760   56.7960 C   0  0  0  0  0  0  0  0  0  0  0  0
    0.9100   -0.8820   57.3150 C   0  0  0  0  0  0  0  0  0  0  0  0
   -0.7330   -1.3840   55.4060 C   0  0  0  0  0  0  0  0  0  0  0  0
    0.0310   -6.4590   55.9440 N   0  0  0  0  0  0  0  0  0  0  0  0
    0.4650   -7.8520   56.2750 C   0  0  2  0  0  0  0  0  0  0  0  0
    1.6740   -8.2400   55.4820 C   0  0  0  0  0  0  0  0  0  0  0  0
    1.7620   -7.8900   54.3100 O   0  0  0  0  0  0  0  0  0  0  0  0
   -0.6870   -8.8340   55.9300 C   0  0  0  0  0  0  0  0  0  0  0  0
    2.6410   -8.9400   56.1160 N   0  0  0  0  0  0  0  0  0  0  0  0
    3.6710   -9.6450   55.3790 C   0  0  2  0  0  0  0  0  0  0  0  0
    3.3510  -11.1180   55.2940 C   0  0  0  0  0  0  0  0  0  0  0  0
    2.7790  -11.7070   56.2360 O   0  0  0  0  0  0  0  0  0  0  0  0
    4.9730   -9.5230   56.1130 C   0  0  2  0  0  0  0  0  0  0  0  0
    4.8110  -10.0860   57.4360 O   0  0  0  0  0  0  0  0  0  0  0  0
    5.3080   -8.0620   56.2280 C   0  0  0  0  0  0  0  0  0  0  0  0
    3.7000  -11.7080   54.1570 N   0  0  0  0  0  0  0  0  0  0  0  0
    3.7150  -13.1640   53.9990 C   0  0  0  0  0  0  0  0  0  0  0  0
    2.4200  -13.8170   54.3710 C   0  0  0  0  0  0  0  0  0  0  0  0
    1.3580  -13.4420   53.8560 O   0  0  0  0  0  0  0  0  0  0  0  0
    2.4600  -14.7780   55.2790 N   0  0  0  0  0  0  0  0  0  0  0  0
    1.2250  -15.4890   55.5770 C   0  0  0  0  0  0  0  0  0  0  0  0
   -5.3735   -3.5786   56.0614 H   0  0  0  0  0  0  0  0  0  0  0  0
   -4.5189   -2.5258   57.1634 H   0  0  0  0  0  0  0  0  0  0  0  0
   -4.8022   -4.1956   57.5930 H   0  0  0  0  0  0  0  0  0  0  0  0
   -2.3119   -3.6396   57.8710 H   0  0  0  0  0  0  0  0  0  0  0  0
   -0.9707   -4.2228   55.3138 H   0  0  0  0  0  0  0  0  0  0  0  0
    1.0259   -3.3761   56.2053 H   0  0  0  0  0  0  0  0  0  0  0  0
    0.3483   -3.4704   57.8677 H   0  0  0  0  0  0  0  0  0  0  0  0
   -1.0409   -1.6193   57.4666 H   0  0  0  0  0  0  0  0  0  0  0  0
    1.7678   -0.9907   56.6848 H   0  0  0  0  0  0  0  0  0  0  0  0
    1.1626   -1.1702   58.3140 H   0  0  0  0  0  0  0  0  0  0  0  0
    0.5897    0.1389   57.3085 H   0  0  0  0  0  0  0  0  0  0  0  0
    0.0479   -1.5206   54.6873 H   0  0  0  0  0  0  0  0  0  0  0  0
   -1.0353   -0.3576   55.4135 H   0  0  0  0  0  0  0  0  0  0  0  0
   -1.5685   -2.0000   55.1463 H   0  0  0  0  0  0  0  0  0  0  0  0
    0.1304   -6.1330   55.0204 H   0  0  0  0  0  0  0  0  0  0  0  0
    0.7053   -7.8942   57.3168 H   0  0  0  0  0  0  0  0  0  0  0  0
   -0.9072   -8.7723   54.8847 H   0  0  0  0  0  0  0  0  0  0  0  0
   -1.5583   -8.5739   56.4940 H   0  0  0  0  0  0  0  0  0  0  0  0
   -0.3894   -9.8325   56.1735 H   0  0  0  0  0  0  0  0  0  0  0  0
    2.6459   -8.9717   57.1000 H   0  0  0  0  0  0  0  0  0  0  0  0
    3.7276   -9.2202   54.3986 H   0  0  0  0  0  0  0  0  0  0  0  0
    5.7541  -10.0401   55.5959 H   0  0  0  0  0  0  0  0  0  0  0  0
    4.1026   -9.6159   57.9029 H   0  0  0  0  0  0  0  0  0  0  0  0
    4.5209   -7.5553   56.7462 H   0  0  0  0  0  0  0  0  0  0  0  0
    5.4182   -7.6432   55.2495 H   0  0  0  0  0  0  0  0  0  0  0  0
    6.2234   -7.9476   56.7701 H   0  0  0  0  0  0  0  0  0  0  0  0
    3.9584  -11.1457   53.3913 H   0  0  0  0  0  0  0  0  0  0  0  0
    4.4877  -13.5645   54.6214 H   0  0  0  0  0  0  0  0  0  0  0  0
    3.8841  -13.3670   52.9621 H   0  0  0  0  0  0  0  0  0  0  0  0
    3.2998  -15.0057   55.7395 H   0  0  0  0  0  0  0  0  0  0  0  0
    0.4326  -15.0951   54.9754 H   0  0  0  0  0  0  0  0  0  0  0  0
    0.9828  -15.3648   56.6118 H   0  0  0  0  0  0  0  0  0  0  0  0
    1.3519  -16.5296   55.3628 H   0  0  0  0  0  0  0  0  0  0  0  0
  1 30  1  0  0  0  0
  1 31  1  0  0  0  0
  1 32  1  0  0  0  0
  2  1  1  0  0  0  0
  2  4  1  0  0  0  0
  3  2  2  0  0  0  0
  4 33  1  0  0  0  0
  5  8  1  0  0  0  0
  5  6  1  0  0  0  0
  5  4  1  0  0  0  0
  5 34  1  6  0  0  0
  6  7  2  0  0  0  0
  8 35  1  0  0  0  0
  8 36  1  0  0  0  0
  9  8  1  0  0  0  0
  9 10  1  0  0  0  0
  9 37  1  0  0  0  0
 10 38  1  0  0  0  0
 10 39  1  0  0  0  0
 10 40  1  0  0  0  0
 11  9  1  0  0  0  0
 11 41  1  0  0  0  0
 11 42  1  0  0  0  0
 11 43  1  0  0  0  0
 12 13  1  0  0  0  0
 12  6  1  0  0  0  0
 12 44  1  0  0  0  0
 13 45  1  1  0  0  0
 14 17  1  0  0  0  0
 14 13  1  0  0  0  0
 15 14  2  0  0  0  0
 16 13  1  0  0  0  0
 16 46  1  0  0  0  0
 16 47  1  0  0  0  0
 16 48  1  0  0  0  0
 17 49  1  0  0  0  0
 18 21  1  0  0  0  0
 18 17  1  0  0  0  0
 18 50  1  6  0  0  0
 19 18  1  0  0  0  0
 19 20  2  0  0  0  0
 21 23  1  0  0  0  0
 21 22  1  0  0  0  0
 21 51  1  6  0  0  0
 22 52  1  0  0  0  0
 23 53  1  0  0  0  0
 23 54  1  0  0  0  0
 23 55  1  0  0  0  0
 24 19  1  0  0  0  0
 24 56  1  0  0  0  0
 25 24  1  0  0  0  0
 25 26  1  0  0  0  0
 25 57  1  0  0  0  0
 25 58  1  0  0  0  0
 26 28  1  0  0  0  0
 27 26  2  0  0  0  0
 28 29  1  0  0  0  0
 28 59  1  0  0  0  0
 29 60  1  0  0  0  0
 29 61  1  0  0  0  0
 29 62  1  0  0  0  0
M  END
>  <MODEL>
       0

$$$$
selected_4mers/LATG/443_noH.pdb
 OpenBabel03042517593D

 62 61  0  0  1  0  0  0  0  0999 V2000
   18.5110   22.8880    6.7030 C   0  0  0  0  0  0  0  0  0  0  0  0
   18.9340   24.2920    7.1250 C   0  0  0  0  0  0  0  0  0  0  0  0
   19.9870   24.4730    7.7340 O   0  0  0  0  0  0  0  0  0  0  0  0
   18.1790   25.2920    6.6810 N   0  0  0  0  0  0  0  0  0  0  0  0
   18.4890   26.6810    7.0080 C   0  0  2  0  0  0  0  0  0  0  0  0
   17.5200   27.2120    8.0620 C   0  0  0  0  0  0  0  0  0  0  0  0
   16.3810   27.5700    7.7560 O   0  0  0  0  0  0  0  0  0  0  0  0
   18.4320   27.5610    5.7520 C   0  0  0  0  0  0  0  0  0  0  0  0
   19.2930   27.1540    4.5490 C   0  0  0  0  0  0  0  0  0  0  0  0
   19.0960   28.1550    3.4230 C   0  0  0  0  0  0  0  0  0  0  0  0
   20.7510   27.0810    4.9470 C   0  0  0  0  0  0  0  0  0  0  0  0
   17.9810   27.2280    9.3090 N   0  0  0  0  0  0  0  0  0  0  0  0
   17.1820   27.6770   10.4440 C   0  0  2  0  0  0  0  0  0  0  0  0
   17.7590   28.9740   10.9970 C   0  0  0  0  0  0  0  0  0  0  0  0
   18.8450   28.9870   11.5750 O   0  0  0  0  0  0  0  0  0  0  0  0
   17.1750   26.6120   11.5220 C   0  0  0  0  0  0  0  0  0  0  0  0
   17.0210   30.0600   10.8240 N   0  0  0  0  0  0  0  0  0  0  0  0
   17.4900   31.3780   11.2220 C   0  0  2  0  0  0  0  0  0  0  0  0
   17.6560   31.5540   12.7480 C   0  0  0  0  0  0  0  0  0  0  0  0
   18.5580   32.2560   13.2020 O   0  0  0  0  0  0  0  0  0  0  0  0
   16.5680   32.4760   10.6270 C   0  0  2  0  0  0  0  0  0  0  0  0
   15.1920   32.0850   10.7400 O   0  0  0  0  0  0  0  0  0  0  0  0
   16.9000   32.6930    9.1560 C   0  0  0  0  0  0  0  0  0  0  0  0
   16.8760   30.8140   13.5310 N   0  0  0  0  0  0  0  0  0  0  0  0
   17.0910   30.7720   14.9670 C   0  0  0  0  0  0  0  0  0  0  0  0
   18.4320   30.1690   15.3630 C   0  0  0  0  0  0  0  0  0  0  0  0
   19.1330   30.7190   16.2130 O   0  0  0  0  0  0  0  0  0  0  0  0
   18.7890   29.0360   14.7630 N   0  0  0  0  0  0  0  0  0  0  0  0
   20.0860   28.4070   15.0130 C   0  0  0  0  0  0  0  0  0  0  0  0
   17.5738   22.9372    6.1890 H   0  0  0  0  0  0  0  0  0  0  0  0
   18.4099   22.2700    7.5706 H   0  0  0  0  0  0  0  0  0  0  0  0
   19.2526   22.4722    6.0534 H   0  0  0  0  0  0  0  0  0  0  0  0
   17.3949   25.0921    6.1203 H   0  0  0  0  0  0  0  0  0  0  0  0
   19.4825   26.7148    7.4038 H   0  0  0  0  0  0  0  0  0  0  0  0
   17.4141   27.5806    5.4229 H   0  0  0  0  0  0  0  0  0  0  0  0
   18.8365   28.5009    6.0650 H   0  0  0  0  0  0  0  0  0  0  0  0
   18.9912   26.1849    4.2104 H   0  0  0  0  0  0  0  0  0  0  0  0
   19.3958   29.1274    3.7538 H   0  0  0  0  0  0  0  0  0  0  0  0
   18.0640   28.1765    3.1414 H   0  0  0  0  0  0  0  0  0  0  0  0
   19.6896   27.8660    2.5809 H   0  0  0  0  0  0  0  0  0  0  0  0
   21.0756   28.0412    5.2898 H   0  0  0  0  0  0  0  0  0  0  0  0
   21.3372   26.7872    4.1015 H   0  0  0  0  0  0  0  0  0  0  0  0
   20.8711   26.3630    5.7311 H   0  0  0  0  0  0  0  0  0  0  0  0
   18.9026   26.9233    9.4737 H   0  0  0  0  0  0  0  0  0  0  0  0
   16.1768   27.8506   10.1209 H   0  0  0  0  0  0  0  0  0  0  0  0
   18.1769   26.4315   11.8516 H   0  0  0  0  0  0  0  0  0  0  0  0
   16.7610   25.7077   11.1273 H   0  0  0  0  0  0  0  0  0  0  0  0
   16.5822   26.9448   12.3483 H   0  0  0  0  0  0  0  0  0  0  0  0
   16.1300   29.9727   10.4145 H   0  0  0  0  0  0  0  0  0  0  0  0
   18.4758   31.4815   10.8190 H   0  0  0  0  0  0  0  0  0  0  0  0
   16.7273   33.3828   11.1722 H   0  0  0  0  0  0  0  0  0  0  0  0
   15.0478   31.2629   10.2457 H   0  0  0  0  0  0  0  0  0  0  0  0
   16.7390   31.7834    8.6161 H   0  0  0  0  0  0  0  0  0  0  0  0
   17.9243   32.9875    9.0612 H   0  0  0  0  0  0  0  0  0  0  0  0
   16.2699   33.4606    8.7576 H   0  0  0  0  0  0  0  0  0  0  0  0
   16.1447   30.2888   13.1328 H   0  0  0  0  0  0  0  0  0  0  0  0
   16.3124   30.1861   15.4090 H   0  0  0  0  0  0  0  0  0  0  0  0
   17.0855   31.7835   15.3158 H   0  0  0  0  0  0  0  0  0  0  0  0
   18.1633   28.6095   14.1338 H   0  0  0  0  0  0  0  0  0  0  0  0
   20.6381   28.9953   15.7159 H   0  0  0  0  0  0  0  0  0  0  0  0
   20.6330   28.3408   14.0958 H   0  0  0  0  0  0  0  0  0  0  0  0
   19.9355   27.4249   15.4102 H   0  0  0  0  0  0  0  0  0  0  0  0
  1  2  1  0  0  0  0
  1 30  1  0  0  0  0
  1 31  1  0  0  0  0
  1 32  1  0  0  0  0
  2  3  2  0  0  0  0
  4  5  1  0  0  0  0
  4  2  1  0  0  0  0
  4 33  1  0  0  0  0
  5  6  1  0  0  0  0
  5 34  1  1  0  0  0
  6 12  1  0  0  0  0
  7  6  2  0  0  0  0
  8  5  1  0  0  0  0
  8 35  1  0  0  0  0
  8 36  1  0  0  0  0
  9 11  1  0  0  0  0
  9  8  1  0  0  0  0
  9 37  1  0  0  0  0
 10  9  1  0  0  0  0
 10 38  1  0  0  0  0
 10 39  1  0  0  0  0
 10 40  1  0  0  0  0
 11 41  1  0  0  0  0
 11 42  1  0  0  0  0
 11 43  1  0  0  0  0
 12 13  1  0  0  0  0
 12 44  1  0  0  0  0
 13 14  1  0  0  0  0
 13 16  1  0  0  0  0
 13 45  1  6  0  0  0
 14 15  2  0  0  0  0
 16 46  1  0  0  0  0
 16 47  1  0  0  0  0
 16 48  1  0  0  0  0
 17 14  1  0  0  0  0
 17 18  1  0  0  0  0
 17 49  1  0  0  0  0
 18 19  1  0  0  0  0
 18 50  1  6  0  0  0
 19 20  2  0  0  0  0
 19 24  1  0  0  0  0
 21 22  1  0  0  0  0
 21 18  1  0  0  0  0
 21 51  1  1  0  0  0
 22 52  1  0  0  0  0
 23 21  1  0  0  0  0
 23 53  1  0  0  0  0
 23 54  1  0  0  0  0
 23 55  1  0  0  0  0
 24 25  1  0  0  0  0
 24 56  1  0  0  0  0
 25 26  1  0  0  0  0
 25 57  1  0  0  0  0
 25 58  1  0  0  0  0
 26 27  2  0  0  0  0
 28 29  1  0  0  0  0
 28 26  1  0  0  0  0
 28 59  1  0  0  0  0
 29 60  1  0  0  0  0
 29 61  1  0  0  0  0
 29 62  1  0  0  0  0
M  END
>  <MODEL>
       0

$$$$
selected_4mers/LATG/444_noH.pdb
 OpenBabel03042517593D

 62 61  0  0  1  0  0  0  0  0999 V2000
  101.7840   97.4910  133.6630 C   0  0  0  0  0  0  0  0  0  0  0  0
  102.6010   96.7070  134.6810 C   0  0  0  0  0  0  0  0  0  0  0  0
  102.3490   96.8120  135.8790 O   0  0  0  0  0  0  0  0  0  0  0  0
  103.5490   95.9060  134.1890 N   0  0  0  0  0  0  0  0  0  0  0  0
  104.4410   95.0870  135.0280 C   0  0  2  0  0  0  0  0  0  0  0  0
  103.7040   94.0690  135.9130 C   0  0  0  0  0  0  0  0  0  0  0  0
  104.1860   93.7000  136.9950 O   0  0  0  0  0  0  0  0  0  0  0  0
  105.3990   95.9850  135.8570 C   0  0  0  0  0  0  0  0  0  0  0  0
  106.2430   96.9610  135.0220 C   0  0  0  0  0  0  0  0  0  0  0  0
  107.1350   97.8500  135.9060 C   0  0  0  0  0  0  0  0  0  0  0  0
  107.0930   96.2070  133.9880 C   0  0  0  0  0  0  0  0  0  0  0  0
  102.5540   93.5940  135.4400 N   0  0  0  0  0  0  0  0  0  0  0  0
  101.8220   92.5520  136.1470 C   0  0  2  0  0  0  0  0  0  0  0  0
  102.6810   91.3010  136.2350 C   0  0  0  0  0  0  0  0  0  0  0  0
  102.7320   90.6370  137.2880 O   0  0  0  0  0  0  0  0  0  0  0  0
  100.4960   92.2470  135.4460 C   0  0  0  0  0  0  0  0  0  0  0  0
  103.3790   90.9930  135.1400 N   0  0  0  0  0  0  0  0  0  0  0  0
  104.2950   89.8510  135.1120 C   0  0  2  0  0  0  0  0  0  0  0  0
  105.6380   90.2200  134.5030 C   0  0  0  0  0  0  0  0  0  0  0  0
  106.6490   89.5650  134.7830 O   0  0  0  0  0  0  0  0  0  0  0  0
  103.7060   88.6220  134.3550 C   0  0  2  0  0  0  0  0  0  0  0  0
  103.1490   89.0410  133.1050 O   0  0  0  0  0  0  0  0  0  0  0  0
  102.6220   87.9210  135.1760 C   0  0  0  0  0  0  0  0  0  0  0  0
  105.6530   91.2600  133.6680 N   0  0  0  0  0  0  0  0  0  0  0  0
  106.8970   91.7400  133.0750 C   0  0  0  0  0  0  0  0  0  0  0  0
  107.7910   92.4250  134.0980 C   0  0  0  0  0  0  0  0  0  0  0  0
  107.3430   92.7550  135.2010 O   0  0  0  0  0  0  0  0  0  0  0  0
  109.0460   92.6440  133.7110 N   0  0  0  0  0  0  0  0  0  0  0  0
  110.0610   93.2280  134.5840 C   0  0  0  0  0  0  0  0  0  0  0  0
  102.1419   97.2771  132.6776 H   0  0  0  0  0  0  0  0  0  0  0  0
  101.8813   98.5385  133.8582 H   0  0  0  0  0  0  0  0  0  0  0  0
  100.7547   97.2083  133.7378 H   0  0  0  0  0  0  0  0  0  0  0  0
  103.6580   95.8601  133.2116 H   0  0  0  0  0  0  0  0  0  0  0  0
  105.0257   94.4974  134.3532 H   0  0  0  0  0  0  0  0  0  0  0  0
  104.8102   96.5562  136.5440 H   0  0  0  0  0  0  0  0  0  0  0  0
  106.0884   95.3262  136.3424 H   0  0  0  0  0  0  0  0  0  0  0  0
  105.5610   97.6012  134.5025 H   0  0  0  0  0  0  0  0  0  0  0  0
  107.8306   97.2376  136.4407 H   0  0  0  0  0  0  0  0  0  0  0  0
  106.5251   98.3877  136.6016 H   0  0  0  0  0  0  0  0  0  0  0  0
  107.6696   98.5430  135.2905 H   0  0  0  0  0  0  0  0  0  0  0  0
  107.7807   95.5619  134.4938 H   0  0  0  0  0  0  0  0  0  0  0  0
  107.6361   96.9102  133.3918 H   0  0  0  0  0  0  0  0  0  0  0  0
  106.4542   95.6237  133.3582 H   0  0  0  0  0  0  0  0  0  0  0  0
  102.1920   93.9532  134.5978 H   0  0  0  0  0  0  0  0  0  0  0  0
  101.5973   92.8945  137.1355 H   0  0  0  0  0  0  0  0  0  0  0  0
  100.6893   91.9012  134.4520 H   0  0  0  0  0  0  0  0  0  0  0  0
   99.9015   93.1357  135.4052 H   0  0  0  0  0  0  0  0  0  0  0  0
   99.9702   91.4909  135.9908 H   0  0  0  0  0  0  0  0  0  0  0  0
  103.2756   91.5464  134.3324 H   0  0  0  0  0  0  0  0  0  0  0  0
  104.4366   89.5743  136.1359 H   0  0  0  0  0  0  0  0  0  0  0  0
  104.5055   87.9303  134.1897 H   0  0  0  0  0  0  0  0  0  0  0  0
  102.4260   89.6671  133.2668 H   0  0  0  0  0  0  0  0  0  0  0  0
  101.8130   88.5990  135.3513 H   0  0  0  0  0  0  0  0  0  0  0  0
  103.0321   87.6053  136.1125 H   0  0  0  0  0  0  0  0  0  0  0  0
  102.2628   87.0684  134.6384 H   0  0  0  0  0  0  0  0  0  0  0  0
  104.8074   91.7132  133.4472 H   0  0  0  0  0  0  0  0  0  0  0  0
  106.6625   92.4384  132.2990 H   0  0  0  0  0  0  0  0  0  0  0  0
  107.4261   90.8940  132.6886 H   0  0  0  0  0  0  0  0  0  0  0  0
  109.3022   92.4006  132.7921 H   0  0  0  0  0  0  0  0  0  0  0  0
  109.6311   93.4360  135.5415 H   0  0  0  0  0  0  0  0  0  0  0  0
  110.4239   94.1367  134.1510 H   0  0  0  0  0  0  0  0  0  0  0  0
  110.8716   92.5391  134.6991 H   0  0  0  0  0  0  0  0  0  0  0  0
  1  2  1  0  0  0  0
  1 30  1  0  0  0  0
  1 31  1  0  0  0  0
  1 32  1  0  0  0  0
  2  3  2  0  0  0  0
  4  2  1  0  0  0  0
  4  5  1  0  0  0  0
  4 33  1  0  0  0  0
  5  8  1  0  0  0  0
  5  6  1  0  0  0  0
  5 34  1  6  0  0  0
  6  7  2  0  0  0  0
  8 35  1  0  0  0  0
  8 36  1  0  0  0  0
  9  8  1  0  0  0  0
  9 10  1  0  0  0  0
  9 37  1  0  0  0  0
 10 38  1  0  0  0  0
 10 39  1  0  0  0  0
 10 40  1  0  0  0  0
 11  9  1  0  0  0  0
 11 41  1  0  0  0  0
 11 42  1  0  0  0  0
 11 43  1  0  0  0  0
 12  6  1  0  0  0  0
 12 13  1  0  0  0  0
 12 44  1  0  0  0  0
 13 14  1  0  0  0  0
 13 45  1  1  0  0  0
 14 15  2  0  0  0  0
 16 13  1  0  0  0  0
 16 46  1  0  0  0  0
 16 47  1  0  0  0  0
 16 48  1  0  0  0  0
 17 14  1  0  0  0  0
 17 49  1  0  0  0  0
 18 17  1  0  0  0  0
 18 50  1  1  0  0  0
 19 20  2  0  0  0  0
 19 18  1  0  0  0  0
 21 18  1  0  0  0  0
 21 23  1  0  0  0  0
 21 51  1  6  0  0  0
 22 21  1  0  0  0  0
 22 52  1  0  0  0  0
 23 53  1  0  0  0  0
 23 54  1  0  0  0  0
 23 55  1  0  0  0  0
 24 19  1  0  0  0  0
 24 56  1  0  0  0  0
 25 24  1  0  0  0  0
 25 26  1  0  0  0  0
 25 57  1  0  0  0  0
 25 58  1  0  0  0  0
 26 27  2  0  0  0  0
 28 26  1  0  0  0  0
 28 29  1  0  0  0  0
 28 59  1  0  0  0  0
 29 60  1  0  0  0  0
 29 61  1  0  0  0  0
 29 62  1  0  0  0  0
M  END
>  <MODEL>
       0

$$$$
