selected_4mers/LDAV/270_noH.pdb
 OpenBabel03042517593D

 69 68  0  0  1  0  0  0  0  0999 V2000
   90.9000   91.8330   97.5360 C   0  0  0  0  0  0  0  0  0  0  0  0
   89.8340   91.9450   98.6010 C   0  0  0  0  0  0  0  0  0  0  0  0
   90.1390   92.3720   99.7120 O   0  0  0  0  0  0  0  0  0  0  0  0
   88.6130   91.5600   98.2670 N   0  0  0  0  0  0  0  0  0  0  0  0
   87.4920   91.5610   99.2040 C   0  0  2  0  0  0  0  0  0  0  0  0
   86.8360   90.1990   99.1950 C   0  0  0  0  0  0  0  0  0  0  0  0
   86.4480   89.7120   98.1230 O   0  0  0  0  0  0  0  0  0  0  0  0
   86.4190   92.5680   98.7640 C   0  0  0  0  0  0  0  0  0  0  0  0
   86.8000   94.0380   98.6000 C   0  0  0  0  0  0  0  0  0  0  0  0
   85.6640   94.7870   97.8830 C   0  0  0  0  0  0  0  0  0  0  0  0
   87.0910   94.6570   99.9410 C   0  0  0  0  0  0  0  0  0  0  0  0
   86.7010   89.5780  100.3640 N   0  0  0  0  0  0  0  0  0  0  0  0
   85.8850   88.3690  100.4720 C   0  0  2  0  0  0  0  0  0  0  0  0
   84.5760   88.8420  101.0910 C   0  0  0  0  0  0  0  0  0  0  0  0
   84.5400   89.1960  102.2670 O   0  0  0  0  0  0  0  0  0  0  0  0
   86.5180   87.3130  101.3730 C   0  0  0  0  0  0  0  0  0  0  0  0
   87.6610   86.5800  100.6970 C   0  0  0  0  0  0  0  0  0  0  0  0
   88.0010   86.9220   99.5470 O   0  0  0  0  0  0  0  0  0  0  0  0
   88.2780   85.6500  101.2470 O   0  0  0  0  0  0  0  0  0  0  0  0
   83.5110   88.8120  100.3110 N   0  0  0  0  0  0  0  0  0  0  0  0
   82.2550   89.4330  100.7380 C   0  0  2  0  0  0  0  0  0  0  0  0
   81.0260   88.7260  100.2340 C   0  0  0  0  0  0  0  0  0  0  0  0
   81.0600   88.0310   99.2170 O   0  0  0  0  0  0  0  0  0  0  0  0
   82.2190   90.8690  100.1890 C   0  0  0  0  0  0  0  0  0  0  0  0
   79.9170   88.9500  100.9200 N   0  0  0  0  0  0  0  0  0  0  0  0
   78.6390   88.5410  100.3500 C   0  0  2  0  0  0  0  0  0  0  0  0
   78.1760   89.7730   99.6000 C   0  0  0  0  0  0  0  0  0  0  0  0
   77.9030   90.7980  100.2080 O   0  0  0  0  0  0  0  0  0  0  0  0
   77.6030   88.1750  101.4270 C   0  0  0  0  0  0  0  0  0  0  0  0
   76.2520   87.8200  100.7550 C   0  0  0  0  0  0  0  0  0  0  0  0
   78.1290   87.0210  102.2650 C   0  0  0  0  0  0  0  0  0  0  0  0
   78.0950   89.6950   98.2750 N   0  0  0  0  0  0  0  0  0  0  0  0
   77.7670   90.8760   97.4870 C   0  0  0  0  0  0  0  0  0  0  0  0
   90.4669   91.4467   96.6371 H   0  0  0  0  0  0  0  0  0  0  0  0
   91.6721   91.1729   97.8722 H   0  0  0  0  0  0  0  0  0  0  0  0
   91.3159   92.8001   97.3446 H   0  0  0  0  0  0  0  0  0  0  0  0
   88.4523   91.2587   97.3436 H   0  0  0  0  0  0  0  0  0  0  0  0
   87.8706   91.8159  100.1718 H   0  0  0  0  0  0  0  0  0  0  0  0
   86.0459   92.2343   97.8183 H   0  0  0  0  0  0  0  0  0  0  0  0
   85.7258   92.5739   99.5790 H   0  0  0  0  0  0  0  0  0  0  0  0
   87.6872   94.1097   98.0061 H   0  0  0  0  0  0  0  0  0  0  0  0
   84.7700   94.7228   98.4673 H   0  0  0  0  0  0  0  0  0  0  0  0
   85.4954   94.3449   96.9233 H   0  0  0  0  0  0  0  0  0  0  0  0
   85.9364   95.8144   97.7596 H   0  0  0  0  0  0  0  0  0  0  0  0
   86.2184   94.5990  100.5575 H   0  0  0  0  0  0  0  0  0  0  0  0
   87.3664   95.6824   99.8083 H   0  0  0  0  0  0  0  0  0  0  0  0
   87.8950   94.1296  100.4104 H   0  0  0  0  0  0  0  0  0  0  0  0
   87.1537   89.9349  101.1621 H   0  0  0  0  0  0  0  0  0  0  0  0
   85.7672   87.9072   99.5140 H   0  0  0  0  0  0  0  0  0  0  0  0
   85.7676   86.6007  101.6459 H   0  0  0  0  0  0  0  0  0  0  0  0
   86.9160   87.8144  102.2304 H   0  0  0  0  0  0  0  0  0  0  0  0
   83.5616   88.3679   99.4338 H   0  0  0  0  0  0  0  0  0  0  0  0
   82.2362   89.3895  101.8070 H   0  0  0  0  0  0  0  0  0  0  0  0
   82.2401   90.8426   99.1195 H   0  0  0  0  0  0  0  0  0  0  0  0
   83.0690   91.4100  100.5493 H   0  0  0  0  0  0  0  0  0  0  0  0
   81.3229   91.3536  100.5162 H   0  0  0  0  0  0  0  0  0  0  0  0
   79.9543   89.3862  101.8018 H   0  0  0  0  0  0  0  0  0  0  0  0
   78.7436   87.6670   99.7416 H   0  0  0  0  0  0  0  0  0  0  0  0
   77.4384   89.0103  102.0752 H   0  0  0  0  0  0  0  0  0  0  0  0
   76.3882   86.9854  100.0994 H   0  0  0  0  0  0  0  0  0  0  0  0
   75.9010   88.6607  100.1939 H   0  0  0  0  0  0  0  0  0  0  0  0
   75.5343   87.5689  101.5078 H   0  0  0  0  0  0  0  0  0  0  0  0
   78.3011   86.1728  101.6359 H   0  0  0  0  0  0  0  0  0  0  0  0
   77.4095   86.7682  103.0155 H   0  0  0  0  0  0  0  0  0  0  0  0
   79.0467   87.3097  102.7335 H   0  0  0  0  0  0  0  0  0  0  0  0
   78.2575   88.8350   97.8242 H   0  0  0  0  0  0  0  0  0  0  0  0
   77.6250   91.7120   98.1395 H   0  0  0  0  0  0  0  0  0  0  0  0
   76.8680   90.6979   96.9348 H   0  0  0  0  0  0  0  0  0  0  0  0
   78.5671   91.0853   96.8081 H   0  0  0  0  0  0  0  0  0  0  0  0
  1  2  1  0  0  0  0
  1 34  1  0  0  0  0
  1 35  1  0  0  0  0
  1 36  1  0  0  0  0
  2  3  2  0  0  0  0
  4  2  1  0  0  0  0
  4  5  1  0  0  0  0
  4 37  1  0  0  0  0
  5 38  1  1  0  0  0
  6  5  1  0  0  0  0
  6 12  1  0  0  0  0
  7  6  2  0  0  0  0
  8  5  1  0  0  0  0
  8 39  1  0  0  0  0
  8 40  1  0  0  0  0
  9  8  1  0  0  0  0
  9 11  1  0  0  0  0
  9 41  1  0  0  0  0
 10  9  1  0  0  0  0
 10 42  1  0  0  0  0
 10 43  1  0  0  0  0
 10 44  1  0  0  0  0
 11 45  1  0  0  0  0
 11 46  1  0  0  0  0
 11 47  1  0  0  0  0
 12 13  1  0  0  0  0
 12 48  1  0  0  0  0
 13 14  1  0  0  0  0
 13 16  1  0  0  0  0
 13 49  1  6  0  0  0
 14 15  2  0  0  0  0
 16 50  1  0  0  0  0
 16 51  1  0  0  0  0
 17 19  1  0  0  0  0
 17 16  1  0  0  0  0
 18 17  2  0  0  0  0
 20 21  1  0  0  0  0
 20 14  1  0  0  0  0
 20 52  1  0  0  0  0
 21 53  1  1  0  0  0
 22 21  1  0  0  0  0
 22 25  1  0  0  0  0
 23 22  2  0  0  0  0
 24 21  1  0  0  0  0
 24 54  1  0  0  0  0
 24 55  1  0  0  0  0
 24 56  1  0  0  0  0
 25 57  1  0  0  0  0
 26 25  1  0  0  0  0
 26 29  1  0  0  0  0
 26 58  1  6  0  0  0
 27 28  2  0  0  0  0
 27 26  1  0  0  0  0
 29 31  1  0  0  0  0
 29 59  1  0  0  0  0
 30 29  1  0  0  0  0
 30 60  1  0  0  0  0
 30 61  1  0  0  0  0
 30 62  1  0  0  0  0
 31 63  1  0  0  0  0
 31 64  1  0  0  0  0
 31 65  1  0  0  0  0
 32 27  1  0  0  0  0
 32 66  1  0  0  0  0
 33 32  1  0  0  0  0
 33 67  1  0  0  0  0
 33 68  1  0  0  0  0
 33 69  1  0  0  0  0
M  CHG  1  19  -1
M  END
>  <MODEL>
       0

$$$$
selected_4mers/LDAV/271_noH.pdb
 OpenBabel03042517593D

 69 68  0  0  1  0  0  0  0  0999 V2000
   36.8170    3.0360    2.4560 C   0  0  0  0  0  0  0  0  0  0  0  0
   35.3350    3.2940    2.1720 C   0  0  0  0  0  0  0  0  0  0  0  0
   34.9880    4.0980    1.2930 O   0  0  0  0  0  0  0  0  0  0  0  0
   34.4490    2.5930    2.8810 N   0  0  0  0  0  0  0  0  0  0  0  0
   33.0160    2.6250    2.5920 C   0  0  2  0  0  0  0  0  0  0  0  0
   32.2880    3.7140    3.3770 C   0  0  0  0  0  0  0  0  0  0  0  0
   32.7280    4.1240    4.4460 O   0  0  0  0  0  0  0  0  0  0  0  0
   32.3570    1.2810    2.9440 C   0  0  0  0  0  0  0  0  0  0  0  0
   32.7860    0.0530    2.0950 C   0  0  0  0  0  0  0  0  0  0  0  0
   32.3010   -1.2330    2.7060 C   0  0  0  0  0  0  0  0  0  0  0  0
   32.2660    0.2170    0.6720 C   0  0  0  0  0  0  0  0  0  0  0  0
   31.1510    4.1350    2.8350 N   0  0  0  0  0  0  0  0  0  0  0  0
   30.1820    4.9380    3.5470 C   0  0  2  0  0  0  0  0  0  0  0  0
   29.4200    4.0860    4.5800 C   0  0  0  0  0  0  0  0  0  0  0  0
   29.4920    2.8520    4.5690 O   0  0  0  0  0  0  0  0  0  0  0  0
   29.1980    5.5170    2.5620 C   0  0  0  0  0  0  0  0  0  0  0  0
   28.4730    4.4340    1.7980 C   0  0  0  0  0  0  0  0  0  0  0  0
   29.0320    3.9810    0.7820 O   0  0  0  0  0  0  0  0  0  0  0  0
   27.4080    3.9640    2.3010 O   0  0  0  0  0  0  0  0  0  0  0  0
   28.6980    4.7600    5.4800 N   0  0  0  0  0  0  0  0  0  0  0  0
   28.0260    4.0770    6.5820 C   0  0  2  0  0  0  0  0  0  0  0  0
   27.0230    2.9770    6.1800 C   0  0  0  0  0  0  0  0  0  0  0  0
   26.9010    1.9410    6.8560 O   0  0  0  0  0  0  0  0  0  0  0  0
   27.3440    5.1110    7.4860 C   0  0  0  0  0  0  0  0  0  0  0  0
   26.2960    3.1920    5.1120 N   0  0  0  0  0  0  0  0  0  0  0  0
   25.2720    2.2010    4.7030 C   0  0  2  0  0  0  0  0  0  0  0  0
   25.9870    0.9690    4.1910 C   0  0  0  0  0  0  0  0  0  0  0  0
   25.6700   -0.1480    4.5880 O   0  0  0  0  0  0  0  0  0  0  0  0
   24.3070    2.7790    3.6780 C   0  0  0  0  0  0  0  0  0  0  0  0
   23.3110    1.7500    3.1660 C   0  0  0  0  0  0  0  0  0  0  0  0
   23.5240    3.9890    4.2780 C   0  0  0  0  0  0  0  0  0  0  0  0
   26.9890    1.1630    3.3280 N   0  0  0  0  0  0  0  0  0  0  0  0
   27.7120    0.0070    2.7960 C   0  0  0  0  0  0  0  0  0  0  0  0
   37.4150    3.6587    1.8238 H   0  0  0  0  0  0  0  0  0  0  0  0
   37.0437    2.0084    2.2620 H   0  0  0  0  0  0  0  0  0  0  0  0
   37.0282    3.2606    3.4806 H   0  0  0  0  0  0  0  0  0  0  0  0
   34.7712    2.0345    3.6250 H   0  0  0  0  0  0  0  0  0  0  0  0
   32.9328    2.8285    1.5448 H   0  0  0  0  0  0  0  0  0  0  0  0
   32.5863    1.0649    3.9665 H   0  0  0  0  0  0  0  0  0  0  0  0
   31.3153    1.4153    2.7398 H   0  0  0  0  0  0  0  0  0  0  0  0
   33.8547    0.0039    2.0734 H   0  0  0  0  0  0  0  0  0  0  0  0
   31.2318   -1.2272    2.7475 H   0  0  0  0  0  0  0  0  0  0  0  0
   32.6959   -1.3288    3.6959 H   0  0  0  0  0  0  0  0  0  0  0  0
   32.6303   -2.0579    2.1093 H   0  0  0  0  0  0  0  0  0  0  0  0
   31.1973    0.2668    0.6863 H   0  0  0  0  0  0  0  0  0  0  0  0
   32.5762   -0.6189    0.0804 H   0  0  0  0  0  0  0  0  0  0  0  0
   32.6594    1.1182    0.2501 H   0  0  0  0  0  0  0  0  0  0  0  0
   30.9583    3.8880    1.9017 H   0  0  0  0  0  0  0  0  0  0  0  0
   30.6981    5.7217    4.0611 H   0  0  0  0  0  0  0  0  0  0  0  0
   28.4806    6.1065    3.0937 H   0  0  0  0  0  0  0  0  0  0  0  0
   29.7401    6.1158    1.8603 H   0  0  0  0  0  0  0  0  0  0  0  0
   28.6174    5.7378    5.3984 H   0  0  0  0  0  0  0  0  0  0  0  0
   28.8012    3.5538    7.1018 H   0  0  0  0  0  0  0  0  0  0  0  0
   26.5764    5.6143    6.9362 H   0  0  0  0  0  0  0  0  0  0  0  0
   28.0679    5.8238    7.8219 H   0  0  0  0  0  0  0  0  0  0  0  0
   26.9118    4.6164    8.3307 H   0  0  0  0  0  0  0  0  0  0  0  0
   26.4293    4.0106    4.5815 H   0  0  0  0  0  0  0  0  0  0  0  0
   24.6674    1.9331    5.5442 H   0  0  0  0  0  0  0  0  0  0  0  0
   24.9055    3.1013    2.8517 H   0  0  0  0  0  0  0  0  0  0  0  0
   22.6994    1.4117    3.9762 H   0  0  0  0  0  0  0  0  0  0  0  0
   23.8398    0.9194    2.7473 H   0  0  0  0  0  0  0  0  0  0  0  0
   22.6930    2.1950    2.4143 H   0  0  0  0  0  0  0  0  0  0  0  0
   22.9295    3.6555    5.1028 H   0  0  0  0  0  0  0  0  0  0  0  0
   22.8883    4.4100    3.5273 H   0  0  0  0  0  0  0  0  0  0  0  0
   24.2175    4.7308    4.6151 H   0  0  0  0  0  0  0  0  0  0  0  0
   27.2383    2.0748    3.0528 H   0  0  0  0  0  0  0  0  0  0  0  0
   27.3008   -0.8911    3.2074 H   0  0  0  0  0  0  0  0  0  0  0  0
   28.7460    0.0801    3.0613 H   0  0  0  0  0  0  0  0  0  0  0  0
   27.6177   -0.0131    1.7303 H   0  0  0  0  0  0  0  0  0  0  0  0
  1 34  1  0  0  0  0
  1 35  1  0  0  0  0
  1 36  1  0  0  0  0
  2  1  1  0  0  0  0
  2  4  1  0  0  0  0
  3  2  2  0  0  0  0
  4 37  1  0  0  0  0
  5  4  1  0  0  0  0
  5  8  1  0  0  0  0
  5  6  1  0  0  0  0
  5 38  1  6  0  0  0
  6  7  2  0  0  0  0
  8 39  1  0  0  0  0
  8 40  1  0  0  0  0
  9 10  1  0  0  0  0
  9  8  1  0  0  0  0
  9 41  1  0  0  0  0
 10 42  1  0  0  0  0
 10 43  1  0  0  0  0
 10 44  1  0  0  0  0
 11  9  1  0  0  0  0
 11 45  1  0  0  0  0
 11 46  1  0  0  0  0
 11 47  1  0  0  0  0
 12  6  1  0  0  0  0
 12 13  1  0  0  0  0
 12 48  1  0  0  0  0
 13 14  1  0  0  0  0
 13 49  1  1  0  0  0
 14 20  1  0  0  0  0
 15 14  2  0  0  0  0
 16 13  1  0  0  0  0
 16 50  1  0  0  0  0
 16 51  1  0  0  0  0
 17 19  1  0  0  0  0
 17 16  1  0  0  0  0
 18 17  2  0  0  0  0
 20 21  1  0  0  0  0
 20 52  1  0  0  0  0
 21 24  1  0  0  0  0
 21 53  1  1  0  0  0
 22 21  1  0  0  0  0
 22 23  2  0  0  0  0
 24 54  1  0  0  0  0
 24 55  1  0  0  0  0
 24 56  1  0  0  0  0
 25 22  1  0  0  0  0
 25 57  1  0  0  0  0
 26 25  1  0  0  0  0
 26 58  1  1  0  0  0
 27 28  2  0  0  0  0
 27 26  1  0  0  0  0
 29 31  1  0  0  0  0
 29 26  1  0  0  0  0
 29 59  1  0  0  0  0
 30 29  1  0  0  0  0
 30 60  1  0  0  0  0
 30 61  1  0  0  0  0
 30 62  1  0  0  0  0
 31 63  1  0  0  0  0
 31 64  1  0  0  0  0
 31 65  1  0  0  0  0
 32 27  1  0  0  0  0
 32 66  1  0  0  0  0
 33 32  1  0  0  0  0
 33 67  1  0  0  0  0
 33 68  1  0  0  0  0
 33 69  1  0  0  0  0
M  CHG  1  19  -1
M  END
>  <MODEL>
       0

$$$$
selected_4mers/LDAV/272_noH.pdb
 OpenBabel03042517593D

 69 68  0  0  1  0  0  0  0  0999 V2000
   58.3880  -27.0870    4.2290 C   0  0  0  0  0  0  0  0  0  0  0  0
   59.5860  -27.0380    5.1680 C   0  0  0  0  0  0  0  0  0  0  0  0
   59.9330  -25.9630    5.6910 O   0  0  0  0  0  0  0  0  0  0  0  0
   60.1750  -28.2020    5.4410 N   0  0  0  0  0  0  0  0  0  0  0  0
   61.2890  -28.2780    6.3830 C   0  0  2  0  0  0  0  0  0  0  0  0
   62.5270  -27.5250    5.8510 C   0  0  0  0  0  0  0  0  0  0  0  0
   63.1830  -26.8110    6.6260 O   0  0  0  0  0  0  0  0  0  0  0  0
   61.6120  -29.7310    6.7470 C   0  0  0  0  0  0  0  0  0  0  0  0
   60.4460  -30.5330    7.3560 C   0  0  0  0  0  0  0  0  0  0  0  0
   60.9210  -31.9510    7.6980 C   0  0  0  0  0  0  0  0  0  0  0  0
   59.8440  -29.8620    8.5850 C   0  0  0  0  0  0  0  0  0  0  0  0
   62.8280  -27.6460    4.5460 N   0  0  0  0  0  0  0  0  0  0  0  0
   63.9390  -26.8790    3.9480 C   0  0  2  0  0  0  0  0  0  0  0  0
   63.6940  -25.3700    4.0390 C   0  0  0  0  0  0  0  0  0  0  0  0
   64.6100  -24.5990    4.3740 O   0  0  0  0  0  0  0  0  0  0  0  0
   64.1350  -27.2490    2.4670 C   0  0  0  0  0  0  0  0  0  0  0  0
   64.7790  -28.6220    2.2600 C   0  0  0  0  0  0  0  0  0  0  0  0
   64.7630  -29.0970    1.1010 O   0  0  0  0  0  0  0  0  0  0  0  0
   65.3110  -29.2050    3.2240 O   0  0  0  0  0  0  0  0  0  0  0  0
   62.4590  -24.9430    3.7610 N   0  0  0  0  0  0  0  0  0  0  0  0
   62.1260  -23.5150    3.8470 C   0  0  2  0  0  0  0  0  0  0  0  0
   62.3010  -22.9390    5.2470 C   0  0  0  0  0  0  0  0  0  0  0  0
   62.8810  -21.8550    5.3900 O   0  0  0  0  0  0  0  0  0  0  0  0
   60.7330  -23.2400    3.3180 C   0  0  0  0  0  0  0  0  0  0  0  0
   61.8250  -23.6500    6.2780 N   0  0  0  0  0  0  0  0  0  0  0  0
   61.9730  -23.1930    7.6670 C   0  0  2  0  0  0  0  0  0  0  0  0
   63.4470  -23.1210    8.0950 C   0  0  0  0  0  0  0  0  0  0  0  0
   63.8490  -22.1720    8.7970 O   0  0  0  0  0  0  0  0  0  0  0  0
   61.1310  -24.0830    8.6720 C   0  0  0  0  0  0  0  0  0  0  0  0
   61.5860  -23.9390   10.1310 C   0  0  0  0  0  0  0  0  0  0  0  0
   59.6550  -23.7960    8.5340 C   0  0  0  0  0  0  0  0  0  0  0  0
   64.2370  -24.1260    7.7050 N   0  0  0  0  0  0  0  0  0  0  0  0
   65.6960  -24.0900    7.9340 C   0  0  0  0  0  0  0  0  0  0  0  0
   58.2471  -28.0895    3.8827 H   0  0  0  0  0  0  0  0  0  0  0  0
   58.5633  -26.4423    3.3932 H   0  0  0  0  0  0  0  0  0  0  0  0
   57.5119  -26.7636    4.7514 H   0  0  0  0  0  0  0  0  0  0  0  0
   59.8547  -29.0226    5.0014 H   0  0  0  0  0  0  0  0  0  0  0  0
   60.9886  -27.7879    7.2855 H   0  0  0  0  0  0  0  0  0  0  0  0
   62.4136  -29.7237    7.4557 H   0  0  0  0  0  0  0  0  0  0  0  0
   61.8571  -30.2187    5.8267 H   0  0  0  0  0  0  0  0  0  0  0  0
   59.6686  -30.5752    6.6220 H   0  0  0  0  0  0  0  0  0  0  0  0
   61.6978  -31.8996    8.4321 H   0  0  0  0  0  0  0  0  0  0  0  0
   61.2958  -32.4243    6.8146 H   0  0  0  0  0  0  0  0  0  0  0  0
   60.1007  -32.5181    8.0858 H   0  0  0  0  0  0  0  0  0  0  0  0
   60.5852  -29.7948    9.3537 H   0  0  0  0  0  0  0  0  0  0  0  0
   59.0159  -30.4406    8.9376 H   0  0  0  0  0  0  0  0  0  0  0  0
   59.5082  -28.8795    8.3264 H   0  0  0  0  0  0  0  0  0  0  0  0
   62.2998  -28.2550    3.9809 H   0  0  0  0  0  0  0  0  0  0  0  0
   64.8172  -27.1312    4.5049 H   0  0  0  0  0  0  0  0  0  0  0  0
   63.1780  -27.2483    1.9884 H   0  0  0  0  0  0  0  0  0  0  0  0
   64.7998  -26.5234    2.0470 H   0  0  0  0  0  0  0  0  0  0  0  0
   61.7665  -25.5908    3.4963 H   0  0  0  0  0  0  0  0  0  0  0  0
   62.8327  -23.0102    3.2220 H   0  0  0  0  0  0  0  0  0  0  0  0
   60.0131  -23.7386    3.9329 H   0  0  0  0  0  0  0  0  0  0  0  0
   60.6552  -23.6008    2.3137 H   0  0  0  0  0  0  0  0  0  0  0  0
   60.5470  -22.1864    3.3338 H   0  0  0  0  0  0  0  0  0  0  0  0
   61.3637  -24.5014    6.1004 H   0  0  0  0  0  0  0  0  0  0  0  0
   61.5791  -22.1989    7.7059 H   0  0  0  0  0  0  0  0  0  0  0  0
   61.3115  -25.1022    8.4010 H   0  0  0  0  0  0  0  0  0  0  0  0
   61.4272  -22.9321   10.4564 H   0  0  0  0  0  0  0  0  0  0  0  0
   62.6263  -24.1780   10.2054 H   0  0  0  0  0  0  0  0  0  0  0  0
   61.0217  -24.6065   10.7481 H   0  0  0  0  0  0  0  0  0  0  0  0
   59.4629  -22.7783    8.8028 H   0  0  0  0  0  0  0  0  0  0  0  0
   59.1033  -24.4460    9.1806 H   0  0  0  0  0  0  0  0  0  0  0  0
   59.3529  -23.9604    7.5208 H   0  0  0  0  0  0  0  0  0  0  0  0
   63.8385  -24.9062    7.2559 H   0  0  0  0  0  0  0  0  0  0  0  0
   65.9569  -23.1781    8.4292 H   0  0  0  0  0  0  0  0  0  0  0  0
   66.2059  -24.1444    6.9949 H   0  0  0  0  0  0  0  0  0  0  0  0
   65.9820  -24.9215    8.5438 H   0  0  0  0  0  0  0  0  0  0  0  0
  1  2  1  0  0  0  0
  1 34  1  0  0  0  0
  1 35  1  0  0  0  0
  1 36  1  0  0  0  0
  2  4  1  0  0  0  0
  2  3  2  0  0  0  0
  4  5  1  0  0  0  0
  4 37  1  0  0  0  0
  5  8  1  0  0  0  0
  5 38  1  1  0  0  0
  6  5  1  0  0  0  0
  6  7  2  0  0  0  0
  8  9  1  0  0  0  0
  8 39  1  0  0  0  0
  8 40  1  0  0  0  0
  9 10  1  0  0  0  0
  9 11  1  0  0  0  0
  9 41  1  0  0  0  0
 10 42  1  0  0  0  0
 10 43  1  0  0  0  0
 10 44  1  0  0  0  0
 11 45  1  0  0  0  0
 11 46  1  0  0  0  0
 11 47  1  0  0  0  0
 12  6  1  0  0  0  0
 12 48  1  0  0  0  0
 13 14  1  0  0  0  0
 13 12  1  0  0  0  0
 13 49  1  1  0  0  0
 14 15  2  0  0  0  0
 16 13  1  0  0  0  0
 16 50  1  0  0  0  0
 16 51  1  0  0  0  0
 17 16  1  0  0  0  0
 17 19  1  0  0  0  0
 18 17  2  0  0  0  0
 20 21  1  0  0  0  0
 20 14  1  0  0  0  0
 20 52  1  0  0  0  0
 21 22  1  0  0  0  0
 21 53  1  6  0  0  0
 22 23  2  0  0  0  0
 22 25  1  0  0  0  0
 24 21  1  0  0  0  0
 24 54  1  0  0  0  0
 24 55  1  0  0  0  0
 24 56  1  0  0  0  0
 25 26  1  0  0  0  0
 25 57  1  0  0  0  0
 26 27  1  0  0  0  0
 26 29  1  0  0  0  0
 26 58  1  1  0  0  0
 27 28  2  0  0  0  0
 29 30  1  0  0  0  0
 29 59  1  0  0  0  0
 30 60  1  0  0  0  0
 30 61  1  0  0  0  0
 30 62  1  0  0  0  0
 31 29  1  0  0  0  0
 31 63  1  0  0  0  0
 31 64  1  0  0  0  0
 31 65  1  0  0  0  0
 32 33  1  0  0  0  0
 32 27  1  0  0  0  0
 32 66  1  0  0  0  0
 33 67  1  0  0  0  0
 33 68  1  0  0  0  0
 33 69  1  0  0  0  0
M  CHG  1  19  -1
M  END
>  <MODEL>
       0

$$$$
selected_4mers/LDAV/273_noH.pdb
 OpenBabel03042517593D

 69 68  0  0  1  0  0  0  0  0999 V2000
   55.6420    2.3030  -10.1170 C   0  0  0  0  0  0  0  0  0  0  0  0
   56.0290    3.7270   -9.7200 C   0  0  0  0  0  0  0  0  0  0  0  0
   55.1740    4.5670   -9.4470 O   0  0  0  0  0  0  0  0  0  0  0  0
   57.3260    3.9990   -9.6780 N   0  0  0  0  0  0  0  0  0  0  0  0
   57.7770    5.3160   -9.2640 C   0  0  2  0  0  0  0  0  0  0  0  0
   57.3930    6.3920  -10.2770 C   0  0  0  0  0  0  0  0  0  0  0  0
   57.0610    7.5170   -9.8970 O   0  0  0  0  0  0  0  0  0  0  0  0
   59.2830    5.3120   -8.9830 C   0  0  0  0  0  0  0  0  0  0  0  0
   59.6840    4.4710   -7.7580 C   0  0  0  0  0  0  0  0  0  0  0  0
   61.1990    4.4190   -7.6080 C   0  0  0  0  0  0  0  0  0  0  0  0
   59.0480    5.0000   -6.4830 C   0  0  0  0  0  0  0  0  0  0  0  0
   57.4110    6.0460  -11.5610 N   0  0  0  0  0  0  0  0  0  0  0  0
   57.0460    7.0070  -12.6070 C   0  0  2  0  0  0  0  0  0  0  0  0
   55.5480    7.3210  -12.6000 C   0  0  0  0  0  0  0  0  0  0  0  0
   55.1210    8.3640  -13.0980 O   0  0  0  0  0  0  0  0  0  0  0  0
   57.4620    6.4980  -13.9940 C   0  0  0  0  0  0  0  0  0  0  0  0
   58.9550    6.6320  -14.2560 C   0  0  0  0  0  0  0  0  0  0  0  0
   59.6690    7.2580  -13.4450 O   0  0  0  0  0  0  0  0  0  0  0  0
   59.4130    6.1130  -15.2910 O   0  0  0  0  0  0  0  0  0  0  0  0
   54.7480    6.4190  -12.0420 N   0  0  0  0  0  0  0  0  0  0  0  0
   53.3040    6.6250  -11.9590 C   0  0  2  0  0  0  0  0  0  0  0  0
   52.9080    7.5610  -10.8270 C   0  0  0  0  0  0  0  0  0  0  0  0
   51.7890    8.0670  -10.8010 O   0  0  0  0  0  0  0  0  0  0  0  0
   52.5910    5.2840  -11.7930 C   0  0  0  0  0  0  0  0  0  0  0  0
   53.8140    7.7760   -9.8840 N   0  0  0  0  0  0  0  0  0  0  0  0
   53.5190    8.6060   -8.7220 C   0  0  2  0  0  0  0  0  0  0  0  0
   53.2350   10.0490   -9.1360 C   0  0  0  0  0  0  0  0  0  0  0  0
   53.9990   10.6500   -9.8950 O   0  0  0  0  0  0  0  0  0  0  0  0
   54.6860    8.5870   -7.7000 C   0  0  0  0  0  0  0  0  0  0  0  0
   54.4800    9.6480   -6.6220 C   0  0  0  0  0  0  0  0  0  0  0  0
   54.8310    7.2020   -7.0730 C   0  0  0  0  0  0  0  0  0  0  0  0
   52.1260   10.5940   -8.6470 N   0  0  0  0  0  0  0  0  0  0  0  0
   51.8120   12.0060   -8.8310 C   0  0  0  0  0  0  0  0  0  0  0  0
   56.5270    1.7343  -10.3128 H   0  0  0  0  0  0  0  0  0  0  0  0
   55.0340    2.3308  -10.9970 H   0  0  0  0  0  0  0  0  0  0  0  0
   55.0941    1.8467   -9.3192 H   0  0  0  0  0  0  0  0  0  0  0  0
   57.9826    3.3090   -9.9272 H   0  0  0  0  0  0  0  0  0  0  0  0
   57.2748    5.5602   -8.3513 H   0  0  0  0  0  0  0  0  0  0  0  0
   59.5979    6.3211   -8.8172 H   0  0  0  0  0  0  0  0  0  0  0  0
   59.7576    4.8695   -9.8338 H   0  0  0  0  0  0  0  0  0  0  0  0
   59.3199    3.4782   -7.9212 H   0  0  0  0  0  0  0  0  0  0  0  0
   61.5753    5.4071   -7.4441 H   0  0  0  0  0  0  0  0  0  0  0  0
   61.6320    4.0157   -8.4995 H   0  0  0  0  0  0  0  0  0  0  0  0
   61.4538    3.7976   -6.7750 H   0  0  0  0  0  0  0  0  0  0  0  0
   59.3966    5.9943   -6.2965 H   0  0  0  0  0  0  0  0  0  0  0  0
   59.3160    4.3682   -5.6620 H   0  0  0  0  0  0  0  0  0  0  0  0
   57.9837    5.0099   -6.5928 H   0  0  0  0  0  0  0  0  0  0  0  0
   57.6732    5.1312  -11.8131 H   0  0  0  0  0  0  0  0  0  0  0  0
   57.5766    7.9110  -12.3921 H   0  0  0  0  0  0  0  0  0  0  0  0
   57.1939    5.4651  -14.0722 H   0  0  0  0  0  0  0  0  0  0  0  0
   56.9555    7.0994  -14.7197 H   0  0  0  0  0  0  0  0  0  0  0  0
   55.1374    5.5923  -11.6758 H   0  0  0  0  0  0  0  0  0  0  0  0
   53.0032    7.0893  -12.8749 H   0  0  0  0  0  0  0  0  0  0  0  0
   52.8981    4.8280  -10.8751 H   0  0  0  0  0  0  0  0  0  0  0  0
   52.8426    4.6425  -12.6116 H   0  0  0  0  0  0  0  0  0  0  0  0
   51.5329    5.4423  -11.7761 H   0  0  0  0  0  0  0  0  0  0  0  0
   54.7052    7.3666   -9.9699 H   0  0  0  0  0  0  0  0  0  0  0  0
   52.6472    8.1943   -8.2580 H   0  0  0  0  0  0  0  0  0  0  0  0
   55.5911    8.8150   -8.2232 H   0  0  0  0  0  0  0  0  0  0  0  0
   53.5785    9.4400   -6.0845 H   0  0  0  0  0  0  0  0  0  0  0  0
   54.4078   10.6124   -7.0799 H   0  0  0  0  0  0  0  0  0  0  0  0
   55.3093    9.6354   -5.9460 H   0  0  0  0  0  0  0  0  0  0  0  0
   53.9345    6.9544   -6.5439 H   0  0  0  0  0  0  0  0  0  0  0  0
   55.6575    7.2029   -6.3935 H   0  0  0  0  0  0  0  0  0  0  0  0
   55.0025    6.4784   -7.8423 H   0  0  0  0  0  0  0  0  0  0  0  0
   51.4970   10.0269   -8.1450 H   0  0  0  0  0  0  0  0  0  0  0  0
   52.5923   12.4745   -9.3935 H   0  0  0  0  0  0  0  0  0  0  0  0
   51.7272   12.4800   -7.8755 H   0  0  0  0  0  0  0  0  0  0  0  0
   50.8861   12.0996   -9.3590 H   0  0  0  0  0  0  0  0  0  0  0  0
  1  2  1  0  0  0  0
  1 34  1  0  0  0  0
  1 35  1  0  0  0  0
  1 36  1  0  0  0  0
  2  4  1  0  0  0  0
  2  3  2  0  0  0  0
  4  5  1  0  0  0  0
  4 37  1  0  0  0  0
  5  8  1  0  0  0  0
  5 38  1  1  0  0  0
  6  7  2  0  0  0  0
  6  5  1  0  0  0  0
  8  9  1  0  0  0  0
  8 39  1  0  0  0  0
  8 40  1  0  0  0  0
  9 10  1  0  0  0  0
  9 11  1  0  0  0  0
  9 41  1  0  0  0  0
 10 42  1  0  0  0  0
 10 43  1  0  0  0  0
 10 44  1  0  0  0  0
 11 45  1  0  0  0  0
 11 46  1  0  0  0  0
 11 47  1  0  0  0  0
 12  6  1  0  0  0  0
 12 48  1  0  0  0  0
 13 14  1  0  0  0  0
 13 12  1  0  0  0  0
 13 49  1  1  0  0  0
 14 20  1  0  0  0  0
 15 14  2  0  0  0  0
 16 13  1  0  0  0  0
 16 50  1  0  0  0  0
 16 51  1  0  0  0  0
 17 16  1  0  0  0  0
 17 18  1  0  0  0  0
 19 17  2  0  0  0  0
 20 21  1  0  0  0  0
 20 52  1  0  0  0  0
 21 24  1  0  0  0  0
 21 22  1  0  0  0  0
 21 53  1  6  0  0  0
 22 23  2  0  0  0  0
 22 25  1  0  0  0  0
 24 54  1  0  0  0  0
 24 55  1  0  0  0  0
 24 56  1  0  0  0  0
 25 26  1  0  0  0  0
 25 57  1  0  0  0  0
 26 29  1  0  0  0  0
 26 58  1  1  0  0  0
 27 26  1  0  0  0  0
 27 32  1  0  0  0  0
 28 27  2  0  0  0  0
 29 31  1  0  0  0  0
 29 30  1  0  0  0  0
 29 59  1  0  0  0  0
 30 60  1  0  0  0  0
 30 61  1  0  0  0  0
 30 62  1  0  0  0  0
 31 63  1  0  0  0  0
 31 64  1  0  0  0  0
 31 65  1  0  0  0  0
 32 66  1  0  0  0  0
 33 32  1  0  0  0  0
 33 67  1  0  0  0  0
 33 68  1  0  0  0  0
 33 69  1  0  0  0  0
M  CHG  1  18  -1
M  END
>  <MODEL>
       0

$$$$
selected_4mers/LDAV/274_noH.pdb
 OpenBabel03042517593D

 69 68  0  0  1  0  0  0  0  0999 V2000
  -12.2670   26.4550  -26.2750 C   0  0  0  0  0  0  0  0  0  0  0  0
  -10.7950   26.8460  -26.1820 C   0  0  0  0  0  0  0  0  0  0  0  0
  -10.4280   27.9860  -26.4960 O   0  0  0  0  0  0  0  0  0  0  0  0
   -9.9320   25.8960  -25.8140 N   0  0  0  0  0  0  0  0  0  0  0  0
   -8.5050   26.1660  -25.8190 C   0  0  2  0  0  0  0  0  0  0  0  0
   -8.0450   26.5070  -27.2370 C   0  0  0  0  0  0  0  0  0  0  0  0
   -8.4840   25.8690  -28.2110 O   0  0  0  0  0  0  0  0  0  0  0  0
   -7.7060   24.9560  -25.2970 C   0  0  0  0  0  0  0  0  0  0  0  0
   -7.9660   24.5700  -23.8450 C   0  0  0  0  0  0  0  0  0  0  0  0
   -7.3710   23.1910  -23.5440 C   0  0  0  0  0  0  0  0  0  0  0  0
   -7.3550   25.6030  -22.8970 C   0  0  0  0  0  0  0  0  0  0  0  0
   -7.1300   27.4630  -27.3450 N   0  0  0  0  0  0  0  0  0  0  0  0
   -6.5680   27.8520  -28.6420 C   0  0  2  0  0  0  0  0  0  0  0  0
   -5.9760   26.6560  -29.3870 C   0  0  0  0  0  0  0  0  0  0  0  0
   -6.2590   26.4500  -30.5740 O   0  0  0  0  0  0  0  0  0  0  0  0
   -5.4820   28.9110  -28.4790 C   0  0  0  0  0  0  0  0  0  0  0  0
   -6.0200   30.2440  -27.9560 C   0  0  0  0  0  0  0  0  0  0  0  0
   -7.2400   30.4580  -27.9340 O   0  0  0  0  0  0  0  0  0  0  0  0
   -5.2030   31.0810  -27.5600 O   0  0  0  0  0  0  0  0  0  0  0  0
   -5.1290   25.8730  -28.7210 N   0  0  0  0  0  0  0  0  0  0  0  0
   -4.4750   24.7780  -29.4400 C   0  0  2  0  0  0  0  0  0  0  0  0
   -5.4990   23.7350  -29.9320 C   0  0  0  0  0  0  0  0  0  0  0  0
   -5.2750   23.0870  -30.9830 O   0  0  0  0  0  0  0  0  0  0  0  0
   -3.3740   24.1100  -28.5780 C   0  0  0  0  0  0  0  0  0  0  0  0
   -6.5750   23.5520  -29.1670 N   0  0  0  0  0  0  0  0  0  0  0  0
   -7.5960   22.5460  -29.4580 C   0  0  2  0  0  0  0  0  0  0  0  0
   -8.3820   22.9840  -30.7040 C   0  0  0  0  0  0  0  0  0  0  0  0
   -8.5010   22.2140  -31.6770 O   0  0  0  0  0  0  0  0  0  0  0  0
   -8.5200   22.2870  -28.2580 C   0  0  0  0  0  0  0  0  0  0  0  0
   -9.6660   21.3490  -28.6170 C   0  0  0  0  0  0  0  0  0  0  0  0
   -7.7280   21.6470  -27.1060 C   0  0  0  0  0  0  0  0  0  0  0  0
   -8.8260   24.2440  -30.6890 N   0  0  0  0  0  0  0  0  0  0  0  0
   -9.4770   24.8760  -31.8580 C   0  0  0  0  0  0  0  0  0  0  0  0
  -12.8432   27.3042  -26.5778 H   0  0  0  0  0  0  0  0  0  0  0  0
  -12.6071   26.1159  -25.3188 H   0  0  0  0  0  0  0  0  0  0  0  0
  -12.3830   25.6707  -26.9935 H   0  0  0  0  0  0  0  0  0  0  0  0
  -10.2636   25.0108  -25.5388 H   0  0  0  0  0  0  0  0  0  0  0  0
   -8.3237   26.9966  -25.1693 H   0  0  0  0  0  0  0  0  0  0  0  0
   -6.6648   25.1819  -25.3959 H   0  0  0  0  0  0  0  0  0  0  0  0
   -8.0256   24.1199  -25.8833 H   0  0  0  0  0  0  0  0  0  0  0  0
   -9.0249   24.5387  -23.6948 H   0  0  0  0  0  0  0  0  0  0  0  0
   -6.3119   23.2192  -23.6934 H   0  0  0  0  0  0  0  0  0  0  0  0
   -7.8044   22.4648  -24.1995 H   0  0  0  0  0  0  0  0  0  0  0  0
   -7.5811   22.9257  -22.5289 H   0  0  0  0  0  0  0  0  0  0  0  0
   -6.2956   25.6384  -23.0430 H   0  0  0  0  0  0  0  0  0  0  0  0
   -7.5665   25.3274  -21.8850 H   0  0  0  0  0  0  0  0  0  0  0  0
   -7.7754   26.5658  -23.0998 H   0  0  0  0  0  0  0  0  0  0  0  0
   -6.8204   27.9233  -26.5317 H   0  0  0  0  0  0  0  0  0  0  0  0
   -7.3792   28.2528  -29.2132 H   0  0  0  0  0  0  0  0  0  0  0  0
   -5.0235   29.0785  -29.4312 H   0  0  0  0  0  0  0  0  0  0  0  0
   -4.7824   28.5433  -27.7577 H   0  0  0  0  0  0  0  0  0  0  0  0
   -4.9466   26.0272  -27.7659 H   0  0  0  0  0  0  0  0  0  0  0  0
   -4.0021   25.2028  -30.3007 H   0  0  0  0  0  0  0  0  0  0  0  0
   -3.8179   23.6748  -27.7071 H   0  0  0  0  0  0  0  0  0  0  0  0
   -2.6565   24.8467  -28.2824 H   0  0  0  0  0  0  0  0  0  0  0  0
   -2.8874   23.3473  -29.1493 H   0  0  0  0  0  0  0  0  0  0  0  0
   -6.6876   24.1194  -28.3704 H   0  0  0  0  0  0  0  0  0  0  0  0
   -7.1140   21.6112  -29.6547 H   0  0  0  0  0  0  0  0  0  0  0  0
   -8.9202   23.2349  -27.9644 H   0  0  0  0  0  0  0  0  0  0  0  0
   -9.2707   20.3993  -28.9114 H   0  0  0  0  0  0  0  0  0  0  0  0
  -10.2291   21.7669  -29.4252 H   0  0  0  0  0  0  0  0  0  0  0  0
  -10.3029   21.2222  -27.7666 H   0  0  0  0  0  0  0  0  0  0  0  0
   -7.3384   20.7021  -27.4227 H   0  0  0  0  0  0  0  0  0  0  0  0
   -8.3745   21.5027  -26.2657 H   0  0  0  0  0  0  0  0  0  0  0  0
   -6.9199   22.2908  -26.8279 H   0  0  0  0  0  0  0  0  0  0  0  0
   -8.7155   24.7737  -29.8665 H   0  0  0  0  0  0  0  0  0  0  0  0
   -9.5204   24.1744  -32.6647 H   0  0  0  0  0  0  0  0  0  0  0  0
   -8.9123   25.7330  -32.1607 H   0  0  0  0  0  0  0  0  0  0  0  0
  -10.4691   25.1777  -31.5939 H   0  0  0  0  0  0  0  0  0  0  0  0
  1  2  1  0  0  0  0
  1 34  1  0  0  0  0
  1 35  1  0  0  0  0
  1 36  1  0  0  0  0
  2  4  1  0  0  0  0
  3  2  2  0  0  0  0
  4 37  1  0  0  0  0
  5  4  1  0  0  0  0
  5  8  1  0  0  0  0
  5 38  1  1  0  0  0
  6  5  1  0  0  0  0
  7  6  2  0  0  0  0
  8  9  1  0  0  0  0
  8 39  1  0  0  0  0
  8 40  1  0  0  0  0
  9 10  1  0  0  0  0
  9 11  1  0  0  0  0
  9 41  1  0  0  0  0
 10 42  1  0  0  0  0
 10 43  1  0  0  0  0
 10 44  1  0  0  0  0
 11 45  1  0  0  0  0
 11 46  1  0  0  0  0
 11 47  1  0  0  0  0
 12  6  1  0  0  0  0
 12 48  1  0  0  0  0
 13 16  1  0  0  0  0
 13 12  1  0  0  0  0
 13 49  1  6  0  0  0
 14 20  1  0  0  0  0
 14 13  1  0  0  0  0
 15 14  2  0  0  0  0
 16 17  1  0  0  0  0
 16 50  1  0  0  0  0
 16 51  1  0  0  0  0
 17 18  2  0  0  0  0
 17 19  1  0  0  0  0
 20 52  1  0  0  0  0
 21 20  1  0  0  0  0
 21 24  1  0  0  0  0
 21 53  1  6  0  0  0
 22 21  1  0  0  0  0
 22 25  1  0  0  0  0
 23 22  2  0  0  0  0
 24 54  1  0  0  0  0
 24 55  1  0  0  0  0
 24 56  1  0  0  0  0
 25 57  1  0  0  0  0
 26 25  1  0  0  0  0
 26 29  1  0  0  0  0
 26 58  1  6  0  0  0
 27 32  1  0  0  0  0
 27 26  1  0  0  0  0
 28 27  2  0  0  0  0
 29 31  1  0  0  0  0
 29 59  1  0  0  0  0
 30 29  1  0  0  0  0
 30 60  1  0  0  0  0
 30 61  1  0  0  0  0
 30 62  1  0  0  0  0
 31 63  1  0  0  0  0
 31 64  1  0  0  0  0
 31 65  1  0  0  0  0
 32 66  1  0  0  0  0
 33 32  1  0  0  0  0
 33 67  1  0  0  0  0
 33 68  1  0  0  0  0
 33 69  1  0  0  0  0
M  CHG  1  19  -1
M  END
>  <MODEL>
       0

$$$$
