selected_4mers/LDLP/255_noH.pdb
 OpenBabel03042517503D

 76 76  0  0  1  0  0  0  0  0999 V2000
   26.8380   32.7490   20.9530 C   0  0  0  0  0  0  0  0  0  0  0  0
   26.9400   31.2560   20.7140 C   0  0  0  0  0  0  0  0  0  0  0  0
   26.2030   30.4650   21.2960 O   0  0  0  0  0  0  0  0  0  0  0  0
   27.8650   30.8780   19.8460 N   0  0  0  0  0  0  0  0  0  0  0  0
   28.1860   29.4850   19.6240 C   0  0  2  0  0  0  0  0  0  0  0  0
   29.5500   29.1520   20.2420 C   0  0  0  0  0  0  0  0  0  0  0  0
   30.5450   29.8370   19.9630 O   0  0  0  0  0  0  0  0  0  0  0  0
   28.2300   29.1860   18.1260 C   0  0  0  0  0  0  0  0  0  0  0  0
   28.6610   27.7360   17.8050 C   0  0  0  0  0  0  0  0  0  0  0  0
   27.5970   26.7190   18.2960 C   0  0  0  0  0  0  0  0  0  0  0  0
   28.8970   27.5840   16.3150 C   0  0  0  0  0  0  0  0  0  0  0  0
   29.5850   28.1110   21.0740 N   0  0  0  0  0  0  0  0  0  0  0  0
   30.8450   27.6250   21.6360 C   0  0  2  0  0  0  0  0  0  0  0  0
   31.2150   26.4250   20.8180 C   0  0  0  0  0  0  0  0  0  0  0  0
   30.4870   25.4300   20.8090 O   0  0  0  0  0  0  0  0  0  0  0  0
   30.6950   27.2210   23.1110 C   0  0  0  0  0  0  0  0  0  0  0  0
   30.5980   28.4220   24.0510 C   0  0  0  0  0  0  0  0  0  0  0  0
   30.7480   29.5670   23.5830 O   0  0  0  0  0  0  0  0  0  0  0  0
   30.3820   28.2160   25.2710 O   0  0  0  0  0  0  0  0  0  0  0  0
   32.3530   26.5080   20.1410 N   0  0  0  0  0  0  0  0  0  0  0  0
   32.7320   25.5080   19.1640 C   0  0  2  0  0  0  0  0  0  0  0  0
   34.0710   24.8490   19.5520 C   0  0  0  0  0  0  0  0  0  0  0  0
   35.1200   25.4850   19.4690 O   0  0  0  0  0  0  0  0  0  0  0  0
   32.8830   26.1940   17.8140 C   0  0  0  0  0  0  0  0  0  0  0  0
   33.2700   25.3440   16.6130 C   0  0  0  0  0  0  0  0  0  0  0  0
   32.1370   24.3320   16.2640 C   0  0  0  0  0  0  0  0  0  0  0  0
   33.5480   26.2850   15.4530 C   0  0  0  0  0  0  0  0  0  0  0  0
   34.0290   23.5860   19.9870 N   0  0  0  0  0  0  0  0  0  0  0  0
   35.3090   22.8970   20.2560 C   0  0  2  0  0  0  0  0  0  0  0  0
   36.2400   22.8670   19.0410 C   0  0  0  0  0  0  0  0  0  0  0  0
   35.7900   22.9410   17.8930 O   0  0  0  0  0  0  0  0  0  0  0  0
   34.8740   21.4680   20.6260 C   0  0  0  0  0  0  0  0  0  0  0  0
   33.4500   21.6310   21.1810 C   0  0  0  0  0  0  0  0  0  0  0  0
   32.8570   22.7450   20.3020 C   0  0  0  0  0  0  0  0  0  0  0  0
   37.5440   22.7420   19.2880 N   0  0  0  0  0  0  0  0  0  0  0  0
   38.5190   22.6830   18.1940 C   0  0  0  0  0  0  0  0  0  0  0  0
   27.5640   33.2567   20.3529 H   0  0  0  0  0  0  0  0  0  0  0  0
   27.0204   32.9581   21.9864 H   0  0  0  0  0  0  0  0  0  0  0  0
   25.8577   33.0864   20.6885 H   0  0  0  0  0  0  0  0  0  0  0  0
   28.3497   31.5663   19.3355 H   0  0  0  0  0  0  0  0  0  0  0  0
   27.4286   28.8863   20.0853 H   0  0  0  0  0  0  0  0  0  0  0  0
   27.2542   29.3486   17.7183 H   0  0  0  0  0  0  0  0  0  0  0  0
   28.9607   29.8373   17.6938 H   0  0  0  0  0  0  0  0  0  0  0  0
   29.5744   27.5305   18.3230 H   0  0  0  0  0  0  0  0  0  0  0  0
   26.6704   26.9015   17.7931 H   0  0  0  0  0  0  0  0  0  0  0  0
   27.4580   26.8297   19.3511 H   0  0  0  0  0  0  0  0  0  0  0  0
   27.9289   25.7245   18.0824 H   0  0  0  0  0  0  0  0  0  0  0  0
   27.9886   27.7876   15.7874 H   0  0  0  0  0  0  0  0  0  0  0  0
   29.2154   26.5844   16.1045 H   0  0  0  0  0  0  0  0  0  0  0  0
   29.6535   28.2727   16.0016 H   0  0  0  0  0  0  0  0  0  0  0  0
   28.7442   27.6593   21.3155 H   0  0  0  0  0  0  0  0  0  0  0  0
   31.5911   28.3913   21.6047 H   0  0  0  0  0  0  0  0  0  0  0  0
   31.5451   26.6353   23.3924 H   0  0  0  0  0  0  0  0  0  0  0  0
   29.7828   26.6690   23.2010 H   0  0  0  0  0  0  0  0  0  0  0  0
   32.9554   27.2688   20.3069 H   0  0  0  0  0  0  0  0  0  0  0  0
   31.9802   24.7478   19.1225 H   0  0  0  0  0  0  0  0  0  0  0  0
   31.9449   26.6557   17.5864 H   0  0  0  0  0  0  0  0  0  0  0  0
   33.7117   26.8578   17.9461 H   0  0  0  0  0  0  0  0  0  0  0  0
   34.1436   24.7653   16.8297 H   0  0  0  0  0  0  0  0  0  0  0  0
   31.2380   24.8668   16.0387 H   0  0  0  0  0  0  0  0  0  0  0  0
   31.9672   23.6848   17.0990 H   0  0  0  0  0  0  0  0  0  0  0  0
   32.4280   23.7497   15.4148 H   0  0  0  0  0  0  0  0  0  0  0  0
   32.6707   26.8601   15.2421 H   0  0  0  0  0  0  0  0  0  0  0  0
   33.8175   25.7153   14.5883 H   0  0  0  0  0  0  0  0  0  0  0  0
   34.3517   26.9423   15.7117 H   0  0  0  0  0  0  0  0  0  0  0  0
   35.8693   23.3969   21.0182 H   0  0  0  0  0  0  0  0  0  0  0  0
   35.5244   21.0549   21.3685 H   0  0  0  0  0  0  0  0  0  0  0  0
   34.9110   20.8019   19.7894 H   0  0  0  0  0  0  0  0  0  0  0  0
   32.8921   20.7237   21.0792 H   0  0  0  0  0  0  0  0  0  0  0  0
   33.4302   21.8643   22.2251 H   0  0  0  0  0  0  0  0  0  0  0  0
   32.4240   22.3410   19.4108 H   0  0  0  0  0  0  0  0  0  0  0  0
   32.0698   23.2859   20.7844 H   0  0  0  0  0  0  0  0  0  0  0  0
   37.8576   22.6884   20.2197 H   0  0  0  0  0  0  0  0  0  0  0  0
   38.0080   22.7546   17.2566 H   0  0  0  0  0  0  0  0  0  0  0  0
   39.0512   21.7559   18.2402 H   0  0  0  0  0  0  0  0  0  0  0  0
   39.2091   23.4954   18.2871 H   0  0  0  0  0  0  0  0  0  0  0  0
  1 37  1  0  0  0  0
  1 38  1  0  0  0  0
  1 39  1  0  0  0  0
  2  1  1  0  0  0  0
  2  3  2  0  0  0  0
  4  2  1  0  0  0  0
  4 40  1  0  0  0  0
  5  4  1  0  0  0  0
  5  6  1  0  0  0  0
  5 41  1  1  0  0  0
  6 12  1  0  0  0  0
  7  6  2  0  0  0  0
  8  5  1  0  0  0  0
  8 42  1  0  0  0  0
  8 43  1  0  0  0  0
  9  8  1  0  0  0  0
  9 10  1  0  0  0  0
  9 44  1  0  0  0  0
 10 45  1  0  0  0  0
 10 46  1  0  0  0  0
 10 47  1  0  0  0  0
 11  9  1  0  0  0  0
 11 48  1  0  0  0  0
 11 49  1  0  0  0  0
 11 50  1  0  0  0  0
 12 13  1  0  0  0  0
 12 51  1  0  0  0  0
 13 16  1  0  0  0  0
 13 52  1  6  0  0  0
 14 13  1  0  0  0  0
 15 14  2  0  0  0  0
 16 17  1  0  0  0  0
 16 53  1  0  0  0  0
 16 54  1  0  0  0  0
 17 19  1  0  0  0  0
 18 17  2  0  0  0  0
 20 14  1  0  0  0  0
 20 55  1  0  0  0  0
 21 22  1  0  0  0  0
 21 20  1  0  0  0  0
 21 56  1  6  0  0  0
 22 28  1  0  0  0  0
 23 22  2  0  0  0  0
 24 21  1  0  0  0  0
 24 57  1  0  0  0  0
 24 58  1  0  0  0  0
 25 24  1  0  0  0  0
 25 59  1  0  0  0  0
 26 25  1  0  0  0  0
 26 60  1  0  0  0  0
 26 61  1  0  0  0  0
 26 62  1  0  0  0  0
 27 25  1  0  0  0  0
 27 63  1  0  0  0  0
 27 64  1  0  0  0  0
 27 65  1  0  0  0  0
 28 29  1  0  0  0  0
 28 34  1  0  0  0  0
 29 32  1  0  0  0  0
 29 66  1  1  0  0  0
 30 35  1  0  0  0  0
 30 29  1  0  0  0  0
 31 30  2  0  0  0  0
 32 33  1  0  0  0  0
 32 67  1  0  0  0  0
 32 68  1  0  0  0  0
 33 69  1  0  0  0  0
 33 70  1  0  0  0  0
 34 33  1  0  0  0  0
 34 71  1  0  0  0  0
 34 72  1  0  0  0  0
 35 73  1  0  0  0  0
 36 35  1  0  0  0  0
 36 74  1  0  0  0  0
 36 75  1  0  0  0  0
 36 76  1  0  0  0  0
M  CHG  1  19  -1
M  END
>  <MODEL>
       0

$$$$
selected_4mers/LDLP/256_noH.pdb
 OpenBabel03042517503D

 76 76  0  0  1  0  0  0  0  0999 V2000
   -3.7410   23.5550   18.6970 C   0  0  0  0  0  0  0  0  0  0  0  0
   -2.2710   23.1480   18.8580 C   0  0  0  0  0  0  0  0  0  0  0  0
   -1.4610   23.2440   17.8850 O   0  0  0  0  0  0  0  0  0  0  0  0
   -1.9210   22.6600   20.0490 N   0  0  0  0  0  0  0  0  0  0  0  0
   -0.5380   22.3680   20.4160 C   0  0  2  0  0  0  0  0  0  0  0  0
   -0.3950   20.9620   20.9950 C   0  0  0  0  0  0  0  0  0  0  0  0
    0.5010   20.7180   21.8490 O   0  0  0  0  0  0  0  0  0  0  0  0
    0.0060   23.3930   21.3980 C   0  0  0  0  0  0  0  0  0  0  0  0
    0.1680   24.8030   20.8280 C   0  0  0  0  0  0  0  0  0  0  0  0
    0.5440   25.7800   21.9500 C   0  0  0  0  0  0  0  0  0  0  0  0
    1.1310   24.7920   19.6390 C   0  0  0  0  0  0  0  0  0  0  0  0
   -1.2470   20.0720   20.4800 N   0  0  0  0  0  0  0  0  0  0  0  0
   -1.2540   18.6400   20.8110 C   0  0  2  0  0  0  0  0  0  0  0  0
   -0.0960   17.9230   20.1480 C   0  0  0  0  0  0  0  0  0  0  0  0
   -0.2150   17.5140   18.9910 O   0  0  0  0  0  0  0  0  0  0  0  0
   -2.5720   17.9690   20.4030 C   0  0  0  0  0  0  0  0  0  0  0  0
   -2.6020   16.4890   20.7490 C   0  0  0  0  0  0  0  0  0  0  0  0
   -1.7480   16.0480   21.6010 O   0  0  0  0  0  0  0  0  0  0  0  0
   -3.5010   15.8130   20.1820 O   0  0  0  0  0  0  0  0  0  0  0  0
    1.0110   17.8320   20.8890 N   0  0  0  0  0  0  0  0  0  0  0  0
    2.2970   17.3310   20.3650 C   0  0  2  0  0  0  0  0  0  0  0  0
    2.9250   16.4360   21.4230 C   0  0  0  0  0  0  0  0  0  0  0  0
    2.6290   16.5850   22.6240 O   0  0  0  0  0  0  0  0  0  0  0  0
    3.2180   18.4950   20.0290 C   0  0  0  0  0  0  0  0  0  0  0  0
    2.7400   19.3420   18.8490 C   0  0  0  0  0  0  0  0  0  0  0  0
    3.3740   20.7140   18.9030 C   0  0  0  0  0  0  0  0  0  0  0  0
    2.9700   18.6230   17.5030 C   0  0  0  0  0  0  0  0  0  0  0  0
    3.7880   15.5160   21.0280 N   0  0  0  0  0  0  0  0  0  0  0  0
    4.3940   14.6120   21.9920 C   0  0  2  0  0  0  0  0  0  0  0  0
    5.4250   15.3060   22.8630 C   0  0  0  0  0  0  0  0  0  0  0  0
    6.4180   15.8680   22.3670 O   0  0  0  0  0  0  0  0  0  0  0  0
    5.0660   13.5540   21.1070 C   0  0  0  0  0  0  0  0  0  0  0  0
    5.3070   14.2390   19.8250 C   0  0  0  0  0  0  0  0  0  0  0  0
    4.1310   15.1360   19.6450 C   0  0  0  0  0  0  0  0  0  0  0  0
    5.2350   15.2510   24.1710 N   0  0  0  0  0  0  0  0  0  0  0  0
    6.1950   15.8460   25.1010 C   0  0  0  0  0  0  0  0  0  0  0  0
   -3.9012   23.9292   17.7074 H   0  0  0  0  0  0  0  0  0  0  0  0
   -3.9803   24.3167   19.4094 H   0  0  0  0  0  0  0  0  0  0  0  0
   -4.3671   22.7031   18.8619 H   0  0  0  0  0  0  0  0  0  0  0  0
   -2.6284   22.4886   20.7119 H   0  0  0  0  0  0  0  0  0  0  0  0
    0.0383   22.4219   19.5161 H   0  0  0  0  0  0  0  0  0  0  0  0
    0.9651   23.0570   21.7330 H   0  0  0  0  0  0  0  0  0  0  0  0
   -0.7138   23.4672   22.1862 H   0  0  0  0  0  0  0  0  0  0  0  0
   -0.7613   25.1566   20.4328 H   0  0  0  0  0  0  0  0  0  0  0  0
    1.4720   25.4787   22.3892 H   0  0  0  0  0  0  0  0  0  0  0  0
   -0.2219   25.7768   22.6972 H   0  0  0  0  0  0  0  0  0  0  0  0
    0.6440   26.7657   21.5460 H   0  0  0  0  0  0  0  0  0  0  0  0
    2.0910   24.4459   19.9608 H   0  0  0  0  0  0  0  0  0  0  0  0
    1.2226   25.7826   19.2450 H   0  0  0  0  0  0  0  0  0  0  0  0
    0.7528   24.1398   18.8797 H   0  0  0  0  0  0  0  0  0  0  0  0
   -1.9158   20.3971   19.8348 H   0  0  0  0  0  0  0  0  0  0  0  0
   -1.1512   18.5672   21.8736 H   0  0  0  0  0  0  0  0  0  0  0  0
   -3.3774   18.4568   20.9113 H   0  0  0  0  0  0  0  0  0  0  0  0
   -2.6670   18.0571   19.3409 H   0  0  0  0  0  0  0  0  0  0  0  0
    0.9675   18.1129   21.8316 H   0  0  0  0  0  0  0  0  0  0  0  0
    2.1380   16.7722   19.4665 H   0  0  0  0  0  0  0  0  0  0  0  0
    3.2906   19.1266   20.8897 H   0  0  0  0  0  0  0  0  0  0  0  0
    4.1608   18.0742   19.7479 H   0  0  0  0  0  0  0  0  0  0  0  0
    1.6815   19.4773   18.9269 H   0  0  0  0  0  0  0  0  0  0  0  0
    4.4371   20.6189   18.8276 H   0  0  0  0  0  0  0  0  0  0  0  0
    3.1230   21.1867   19.8296 H   0  0  0  0  0  0  0  0  0  0  0  0
    3.0104   21.3072   18.0901 H   0  0  0  0  0  0  0  0  0  0  0  0
    4.0175   18.4560   17.3623 H   0  0  0  0  0  0  0  0  0  0  0  0
    2.5953   19.2303   16.7057 H   0  0  0  0  0  0  0  0  0  0  0  0
    2.4567   17.6842   17.5078 H   0  0  0  0  0  0  0  0  0  0  0  0
    3.6747   14.2120   22.6758 H   0  0  0  0  0  0  0  0  0  0  0  0
    5.9886   13.2295   21.5410 H   0  0  0  0  0  0  0  0  0  0  0  0
    4.4615   12.6787   20.9916 H   0  0  0  0  0  0  0  0  0  0  0  0
    6.2122   14.8081   19.8662 H   0  0  0  0  0  0  0  0  0  0  0  0
    5.4171   13.5501   19.0137 H   0  0  0  0  0  0  0  0  0  0  0  0
    3.3205   14.6180   19.1764 H   0  0  0  0  0  0  0  0  0  0  0  0
    4.3347   15.9767   19.0152 H   0  0  0  0  0  0  0  0  0  0  0  0
    4.4336   14.8018   24.5248 H   0  0  0  0  0  0  0  0  0  0  0  0
    6.9985   16.2881   24.5498 H   0  0  0  0  0  0  0  0  0  0  0  0
    6.5818   15.0870   25.7485 H   0  0  0  0  0  0  0  0  0  0  0  0
    5.7068   16.5981   25.6849 H   0  0  0  0  0  0  0  0  0  0  0  0
  1  2  1  0  0  0  0
  1 37  1  0  0  0  0
  1 38  1  0  0  0  0
  1 39  1  0  0  0  0
  2  4  1  0  0  0  0
  3  2  2  0  0  0  0
  4  5  1  0  0  0  0
  4 40  1  0  0  0  0
  5  6  1  0  0  0  0
  5  8  1  0  0  0  0
  5 41  1  6  0  0  0
  6  7  2  0  0  0  0
  8 42  1  0  0  0  0
  8 43  1  0  0  0  0
  9  8  1  0  0  0  0
  9 10  1  0  0  0  0
  9 44  1  0  0  0  0
 10 45  1  0  0  0  0
 10 46  1  0  0  0  0
 10 47  1  0  0  0  0
 11  9  1  0  0  0  0
 11 48  1  0  0  0  0
 11 49  1  0  0  0  0
 11 50  1  0  0  0  0
 12 13  1  0  0  0  0
 12  6  1  0  0  0  0
 12 51  1  0  0  0  0
 13 52  1  1  0  0  0
 14 13  1  0  0  0  0
 14 20  1  0  0  0  0
 15 14  2  0  0  0  0
 16 17  1  0  0  0  0
 16 13  1  0  0  0  0
 16 53  1  0  0  0  0
 16 54  1  0  0  0  0
 17 18  1  0  0  0  0
 19 17  2  0  0  0  0
 20 55  1  0  0  0  0
 21 20  1  0  0  0  0
 21 22  1  0  0  0  0
 21 56  1  6  0  0  0
 22 23  2  0  0  0  0
 24 21  1  0  0  0  0
 24 57  1  0  0  0  0
 24 58  1  0  0  0  0
 25 26  1  0  0  0  0
 25 24  1  0  0  0  0
 25 59  1  0  0  0  0
 26 60  1  0  0  0  0
 26 61  1  0  0  0  0
 26 62  1  0  0  0  0
 27 25  1  0  0  0  0
 27 63  1  0  0  0  0
 27 64  1  0  0  0  0
 27 65  1  0  0  0  0
 28 22  1  0  0  0  0
 28 29  1  0  0  0  0
 29 30  1  0  0  0  0
 29 66  1  1  0  0  0
 30 35  1  0  0  0  0
 31 30  2  0  0  0  0
 32 29  1  0  0  0  0
 32 67  1  0  0  0  0
 32 68  1  0  0  0  0
 33 32  1  0  0  0  0
 33 69  1  0  0  0  0
 33 70  1  0  0  0  0
 34 33  1  0  0  0  0
 34 28  1  0  0  0  0
 34 71  1  0  0  0  0
 34 72  1  0  0  0  0
 35 36  1  0  0  0  0
 35 73  1  0  0  0  0
 36 74  1  0  0  0  0
 36 75  1  0  0  0  0
 36 76  1  0  0  0  0
M  CHG  1  18  -1
M  END
>  <MODEL>
       0

$$$$
selected_4mers/LDLP/257_noH.pdb
 OpenBabel03042517503D

 76 76  0  0  1  0  0  0  0  0999 V2000
   39.7490   23.6940   -6.7110 C   0  0  0  0  0  0  0  0  0  0  0  0
   40.0670   25.1000   -6.2170 C   0  0  0  0  0  0  0  0  0  0  0  0
   41.0860   25.6800   -6.5940 O   0  0  0  0  0  0  0  0  0  0  0  0
   39.1970   25.6420   -5.3700 N   0  0  0  0  0  0  0  0  0  0  0  0
   39.3960   26.9790   -4.8230 C   0  0  2  0  0  0  0  0  0  0  0  0
   40.1300   26.9280   -3.4850 C   0  0  0  0  0  0  0  0  0  0  0  0
   40.2900   27.9510   -2.8180 O   0  0  0  0  0  0  0  0  0  0  0  0
   38.0460   27.6830   -4.6460 C   0  0  0  0  0  0  0  0  0  0  0  0
   37.2370   27.8990   -5.9270 C   0  0  0  0  0  0  0  0  0  0  0  0
   35.9160   28.5760   -5.5930 C   0  0  0  0  0  0  0  0  0  0  0  0
   38.0440   28.7430   -6.9050 C   0  0  0  0  0  0  0  0  0  0  0  0
   40.5680   25.7290   -3.1070 N   0  0  0  0  0  0  0  0  0  0  0  0
   41.2860   25.4990   -1.8560 C   0  0  2  0  0  0  0  0  0  0  0  0
   40.5490   25.9950   -0.6140 C   0  0  0  0  0  0  0  0  0  0  0  0
   41.1510   26.6050    0.2720 O   0  0  0  0  0  0  0  0  0  0  0  0
   42.6800   26.1360   -1.9170 C   0  0  0  0  0  0  0  0  0  0  0  0
   43.5210   25.5880   -3.0560 C   0  0  0  0  0  0  0  0  0  0  0  0
   43.5840   24.3490   -3.2130 O   0  0  0  0  0  0  0  0  0  0  0  0
   44.1250   26.3940   -3.7930 O   0  0  0  0  0  0  0  0  0  0  0  0
   39.2470   25.7280   -0.5480 N   0  0  0  0  0  0  0  0  0  0  0  0
   38.4420   26.1340    0.5990 C   0  0  2  0  0  0  0  0  0  0  0  0
   38.2010   24.9550    1.5350 C   0  0  0  0  0  0  0  0  0  0  0  0
   37.8830   23.8530    1.0860 O   0  0  0  0  0  0  0  0  0  0  0  0
   37.0840   26.6800    0.1400 C   0  0  0  0  0  0  0  0  0  0  0  0
   37.0710   27.8980   -0.7830 C   0  0  0  0  0  0  0  0  0  0  0  0
   35.6280   28.3360   -1.0240 C   0  0  0  0  0  0  0  0  0  0  0  0
   37.8630   29.0280   -0.1510 C   0  0  0  0  0  0  0  0  0  0  0  0
   38.3590   25.1650    2.8510 N   0  0  0  0  0  0  0  0  0  0  0  0
   38.1250   24.0580    3.7840 C   0  0  2  0  0  0  0  0  0  0  0  0
   36.6350   23.7180    3.7700 C   0  0  0  0  0  0  0  0  0  0  0  0
   35.7900   24.6100    3.7920 O   0  0  0  0  0  0  0  0  0  0  0  0
   38.5910   24.6280    5.1230 C   0  0  0  0  0  0  0  0  0  0  0  0
   38.3140   26.0970    4.9810 C   0  0  0  0  0  0  0  0  0  0  0  0
   38.7680   26.3880    3.5660 C   0  0  0  0  0  0  0  0  0  0  0  0
   36.3160   22.4300    3.7230 N   0  0  0  0  0  0  0  0  0  0  0  0
   34.9220   22.0030    3.6820 C   0  0  0  0  0  0  0  0  0  0  0  0
   40.5170   23.3694   -7.3816 H   0  0  0  0  0  0  0  0  0  0  0  0
   38.8086   23.6995   -7.2215 H   0  0  0  0  0  0  0  0  0  0  0  0
   39.6981   23.0259   -5.8768 H   0  0  0  0  0  0  0  0  0  0  0  0
   38.3996   25.1285   -5.1059 H   0  0  0  0  0  0  0  0  0  0  0  0
   39.9981   27.5300   -5.5150 H   0  0  0  0  0  0  0  0  0  0  0  0
   37.4530   27.0937   -3.9782 H   0  0  0  0  0  0  0  0  0  0  0  0
   38.2734   28.6610   -4.2764 H   0  0  0  0  0  0  0  0  0  0  0  0
   37.0275   26.9542   -6.3835 H   0  0  0  0  0  0  0  0  0  0  0  0
   36.1069   29.5240   -5.1349 H   0  0  0  0  0  0  0  0  0  0  0  0
   35.3598   27.9594   -4.9183 H   0  0  0  0  0  0  0  0  0  0  0  0
   35.3524   28.7208   -6.4909 H   0  0  0  0  0  0  0  0  0  0  0  0
   38.2614   29.6923   -6.4618 H   0  0  0  0  0  0  0  0  0  0  0  0
   37.4782   28.8890   -7.8014 H   0  0  0  0  0  0  0  0  0  0  0  0
   38.9593   28.2406   -7.1388 H   0  0  0  0  0  0  0  0  0  0  0  0
   40.3999   24.9606   -3.6990 H   0  0  0  0  0  0  0  0  0  0  0  0
   41.3634   24.4363   -1.7579 H   0  0  0  0  0  0  0  0  0  0  0  0
   42.5691   27.1919   -2.0497 H   0  0  0  0  0  0  0  0  0  0  0  0
   43.1831   25.9049   -1.0014 H   0  0  0  0  0  0  0  0  0  0  0  0
   38.8170   25.2453   -1.2905 H   0  0  0  0  0  0  0  0  0  0  0  0
   38.9823   26.8986    1.1171 H   0  0  0  0  0  0  0  0  0  0  0  0
   36.5802   25.8876   -0.3730 H   0  0  0  0  0  0  0  0  0  0  0  0
   36.6181   27.0237    1.0398 H   0  0  0  0  0  0  0  0  0  0  0  0
   37.5212   27.6435   -1.7197 H   0  0  0  0  0  0  0  0  0  0  0  0
   35.1723   28.5919   -0.0903 H   0  0  0  0  0  0  0  0  0  0  0  0
   35.0835   27.5352   -1.4790 H   0  0  0  0  0  0  0  0  0  0  0  0
   35.6172   29.1878   -1.6715 H   0  0  0  0  0  0  0  0  0  0  0  0
   37.4217   29.2915    0.7875 H   0  0  0  0  0  0  0  0  0  0  0  0
   37.8528   29.8778   -0.8011 H   0  0  0  0  0  0  0  0  0  0  0  0
   38.8729   28.7113    0.0062 H   0  0  0  0  0  0  0  0  0  0  0  0
   38.6379   23.1481    3.5519 H   0  0  0  0  0  0  0  0  0  0  0  0
   39.6344   24.4466    5.2757 H   0  0  0  0  0  0  0  0  0  0  0  0
   38.0981   24.1858    5.9634 H   0  0  0  0  0  0  0  0  0  0  0  0
   37.2717   26.3063    5.1022 H   0  0  0  0  0  0  0  0  0  0  0  0
   38.8100   26.6950    5.7167 H   0  0  0  0  0  0  0  0  0  0  0  0
   38.2758   27.2518    3.1704 H   0  0  0  0  0  0  0  0  0  0  0  0
   39.8129   26.6039    3.4856 H   0  0  0  0  0  0  0  0  0  0  0  0
   37.0310   21.7532    3.7157 H   0  0  0  0  0  0  0  0  0  0  0  0
   34.2851   22.8627    3.6966 H   0  0  0  0  0  0  0  0  0  0  0  0
   34.7119   21.3890    4.5327 H   0  0  0  0  0  0  0  0  0  0  0  0
   34.7463   21.4441    2.7866 H   0  0  0  0  0  0  0  0  0  0  0  0
  1  2  1  0  0  0  0
  1 37  1  0  0  0  0
  1 38  1  0  0  0  0
  1 39  1  0  0  0  0
  2  4  1  0  0  0  0
  3  2  2  0  0  0  0
  4  5  1  0  0  0  0
  4 40  1  0  0  0  0
  5  8  1  0  0  0  0
  5  6  1  0  0  0  0
  5 41  1  6  0  0  0
  6 12  1  0  0  0  0
  6  7  2  0  0  0  0
  8 42  1  0  0  0  0
  8 43  1  0  0  0  0
  9 10  1  0  0  0  0
  9  8  1  0  0  0  0
  9 44  1  0  0  0  0
 10 45  1  0  0  0  0
 10 46  1  0  0  0  0
 10 47  1  0  0  0  0
 11  9  1  0  0  0  0
 11 48  1  0  0  0  0
 11 49  1  0  0  0  0
 11 50  1  0  0  0  0
 12 13  1  0  0  0  0
 12 51  1  0  0  0  0
 13 14  1  0  0  0  0
 13 52  1  1  0  0  0
 14 20  1  0  0  0  0
 14 15  2  0  0  0  0
 16 13  1  0  0  0  0
 16 53  1  0  0  0  0
 16 54  1  0  0  0  0
 17 16  1  0  0  0  0
 18 17  1  0  0  0  0
 19 17  2  0  0  0  0
 20 21  1  0  0  0  0
 20 55  1  0  0  0  0
 21 22  1  0  0  0  0
 21 56  1  1  0  0  0
 22 28  1  0  0  0  0
 23 22  2  0  0  0  0
 24 21  1  0  0  0  0
 24 57  1  0  0  0  0
 24 58  1  0  0  0  0
 25 27  1  0  0  0  0
 25 24  1  0  0  0  0
 25 59  1  0  0  0  0
 26 25  1  0  0  0  0
 26 60  1  0  0  0  0
 26 61  1  0  0  0  0
 26 62  1  0  0  0  0
 27 63  1  0  0  0  0
 27 64  1  0  0  0  0
 27 65  1  0  0  0  0
 28 34  1  0  0  0  0
 28 29  1  0  0  0  0
 29 32  1  0  0  0  0
 29 66  1  6  0  0  0
 30 29  1  0  0  0  0
 30 31  2  0  0  0  0
 32 67  1  0  0  0  0
 32 68  1  0  0  0  0
 33 32  1  0  0  0  0
 33 69  1  0  0  0  0
 33 70  1  0  0  0  0
 34 33  1  0  0  0  0
 34 71  1  0  0  0  0
 34 72  1  0  0  0  0
 35 30  1  0  0  0  0
 35 73  1  0  0  0  0
 36 35  1  0  0  0  0
 36 74  1  0  0  0  0
 36 75  1  0  0  0  0
 36 76  1  0  0  0  0
M  CHG  1  18  -1
M  END
>  <MODEL>
       0

$$$$
selected_4mers/LDLP/258_noH.pdb
 OpenBabel03042517503D

 76 76  0  0  1  0  0  0  0  0999 V2000
    7.8270   39.8600  102.9430 C   0  0  0  0  0  0  0  0  0  0  0  0
    9.1470   40.0350  103.6690 C   0  0  0  0  0  0  0  0  0  0  0  0
    9.2600   40.9000  104.5380 O   0  0  0  0  0  0  0  0  0  0  0  0
   10.1400   39.2190  103.3120 N   0  0  0  0  0  0  0  0  0  0  0  0
   11.5170   39.3900  103.7720 C   0  0  2  0  0  0  0  0  0  0  0  0
   12.4360   39.3910  102.5630 C   0  0  0  0  0  0  0  0  0  0  0  0
   12.0130   39.0110  101.4680 O   0  0  0  0  0  0  0  0  0  0  0  0
   11.9140   38.2940  104.7520 C   0  0  0  0  0  0  0  0  0  0  0  0
   11.1170   38.3120  106.0700 C   0  0  0  0  0  0  0  0  0  0  0  0
   11.4880   37.1140  106.9230 C   0  0  0  0  0  0  0  0  0  0  0  0
   11.3360   39.6190  106.8460 C   0  0  0  0  0  0  0  0  0  0  0  0
   13.6710   39.8610  102.7350 N   0  0  0  0  0  0  0  0  0  0  0  0
   14.5770   39.9990  101.5990 C   0  0  2  0  0  0  0  0  0  0  0  0
   14.6580   38.6610  100.8530 C   0  0  0  0  0  0  0  0  0  0  0  0
   14.9460   37.6260  101.4620 O   0  0  0  0  0  0  0  0  0  0  0  0
   15.9980   40.3610  102.0340 C   0  0  0  0  0  0  0  0  0  0  0  0
   16.1270   41.7280  102.6940 C   0  0  0  0  0  0  0  0  0  0  0  0
   15.1580   42.4900  102.8500 O   0  0  0  0  0  0  0  0  0  0  0  0
   17.2530   42.1180  103.0800 O   0  0  0  0  0  0  0  0  0  0  0  0
   14.4380   38.7030   99.5420 N   0  0  0  0  0  0  0  0  0  0  0  0
   14.3250   37.5060   98.7160 C   0  0  2  0  0  0  0  0  0  0  0  0
   14.5770   37.9270   97.2630 C   0  0  0  0  0  0  0  0  0  0  0  0
   14.2630   39.0520   96.8900 O   0  0  0  0  0  0  0  0  0  0  0  0
   12.9120   36.9260   98.8910 C   0  0  0  0  0  0  0  0  0  0  0  0
   12.5680   35.5080   98.4240 C   0  0  0  0  0  0  0  0  0  0  0  0
   13.3120   34.4580   99.1750 C   0  0  0  0  0  0  0  0  0  0  0  0
   11.0280   35.2990   98.5450 C   0  0  0  0  0  0  0  0  0  0  0  0
   15.1410   37.0630   96.4270 N   0  0  0  0  0  0  0  0  0  0  0  0
   15.3430   37.4390   95.0230 C   0  0  2  0  0  0  0  0  0  0  0  0
   14.0880   38.0050   94.3570 C   0  0  0  0  0  0  0  0  0  0  0  0
   12.9660   37.5490   94.5900 O   0  0  0  0  0  0  0  0  0  0  0  0
   15.7790   36.1270   94.3700 C   0  0  0  0  0  0  0  0  0  0  0  0
   16.4570   35.4020   95.4550 C   0  0  0  0  0  0  0  0  0  0  0  0
   15.6390   35.7050   96.6970 C   0  0  0  0  0  0  0  0  0  0  0  0
   14.3110   39.0230   93.5370 N   0  0  0  0  0  0  0  0  0  0  0  0
   13.2710   39.6780   92.7440 C   0  0  0  0  0  0  0  0  0  0  0  0
    7.9150   39.0682  102.2287 H   0  0  0  0  0  0  0  0  0  0  0  0
    7.5742   40.7691  102.4384 H   0  0  0  0  0  0  0  0  0  0  0  0
    7.0605   39.6193  103.6497 H   0  0  0  0  0  0  0  0  0  0  0  0
    9.9360   38.4666  102.7107 H   0  0  0  0  0  0  0  0  0  0  0  0
   11.6018   40.3211  104.2924 H   0  0  0  0  0  0  0  0  0  0  0  0
   12.9518   38.4109  104.9849 H   0  0  0  0  0  0  0  0  0  0  0  0
   11.7010   37.3604  104.2746 H   0  0  0  0  0  0  0  0  0  0  0  0
   10.0767   38.2550  105.8262 H   0  0  0  0  0  0  0  0  0  0  0  0
   12.5274   37.1619  107.1723 H   0  0  0  0  0  0  0  0  0  0  0  0
   11.2930   36.2140  106.3781 H   0  0  0  0  0  0  0  0  0  0  0  0
   10.9053   37.1209  107.8204 H   0  0  0  0  0  0  0  0  0  0  0  0
   12.3696   39.7097  107.1074 H   0  0  0  0  0  0  0  0  0  0  0  0
   10.7425   39.6089  107.7363 H   0  0  0  0  0  0  0  0  0  0  0  0
   11.0484   40.4490  106.2350 H   0  0  0  0  0  0  0  0  0  0  0  0
   13.9748   40.1173  103.6357 H   0  0  0  0  0  0  0  0  0  0  0  0
   14.1898   40.7819  100.9809 H   0  0  0  0  0  0  0  0  0  0  0  0
   16.6265   40.3472  101.1681 H   0  0  0  0  0  0  0  0  0  0  0  0
   16.2845   39.6391  102.7700 H   0  0  0  0  0  0  0  0  0  0  0  0
   14.3472   39.5825   99.1091 H   0  0  0  0  0  0  0  0  0  0  0  0
   15.0338   36.7548   98.9958 H   0  0  0  0  0  0  0  0  0  0  0  0
   12.6992   36.9591   99.9391 H   0  0  0  0  0  0  0  0  0  0  0  0
   12.3291   37.5344   98.2314 H   0  0  0  0  0  0  0  0  0  0  0  0
   12.8721   35.4081   97.4030 H   0  0  0  0  0  0  0  0  0  0  0  0
   13.0490   34.5065  100.2110 H   0  0  0  0  0  0  0  0  0  0  0  0
   14.3641   34.6196   99.0662 H   0  0  0  0  0  0  0  0  0  0  0  0
   13.0572   33.4939   98.7871 H   0  0  0  0  0  0  0  0  0  0  0  0
   10.7336   35.4008   99.5687 H   0  0  0  0  0  0  0  0  0  0  0  0
   10.7724   34.3204   98.1959 H   0  0  0  0  0  0  0  0  0  0  0  0
   10.5210   36.0324   97.9535 H   0  0  0  0  0  0  0  0  0  0  0  0
   16.0576   38.2291   94.9230 H   0  0  0  0  0  0  0  0  0  0  0  0
   16.4500   36.3106   93.5570 H   0  0  0  0  0  0  0  0  0  0  0  0
   14.9586   35.5787   93.9561 H   0  0  0  0  0  0  0  0  0  0  0  0
   17.4616   35.7516   95.5712 H   0  0  0  0  0  0  0  0  0  0  0  0
   16.5200   34.3518   95.2602 H   0  0  0  0  0  0  0  0  0  0  0  0
   16.2487   35.6844   97.5761 H   0  0  0  0  0  0  0  0  0  0  0  0
   14.8607   34.9937   96.8791 H   0  0  0  0  0  0  0  0  0  0  0  0
   15.2331   39.3585   93.4571 H   0  0  0  0  0  0  0  0  0  0  0  0
   12.3286   39.2083   92.9341 H   0  0  0  0  0  0  0  0  0  0  0  0
   13.5086   39.5929   91.7042 H   0  0  0  0  0  0  0  0  0  0  0  0
   13.2150   40.7120   93.0136 H   0  0  0  0  0  0  0  0  0  0  0  0
  1  2  1  0  0  0  0
  1 37  1  0  0  0  0
  1 38  1  0  0  0  0
  1 39  1  0  0  0  0
  2  3  2  0  0  0  0
  4  2  1  0  0  0  0
  4  5  1  0  0  0  0
  4 40  1  0  0  0  0
  5  8  1  0  0  0  0
  5 41  1  1  0  0  0
  6 12  1  0  0  0  0
  6  5  1  0  0  0  0
  7  6  2  0  0  0  0
  8  9  1  0  0  0  0
  8 42  1  0  0  0  0
  8 43  1  0  0  0  0
  9 11  1  0  0  0  0
  9 10  1  0  0  0  0
  9 44  1  0  0  0  0
 10 45  1  0  0  0  0
 10 46  1  0  0  0  0
 10 47  1  0  0  0  0
 11 48  1  0  0  0  0
 11 49  1  0  0  0  0
 11 50  1  0  0  0  0
 12 51  1  0  0  0  0
 13 16  1  0  0  0  0
 13 12  1  0  0  0  0
 13 52  1  6  0  0  0
 14 15  2  0  0  0  0
 14 13  1  0  0  0  0
 16 17  1  0  0  0  0
 16 53  1  0  0  0  0
 16 54  1  0  0  0  0
 17 18  2  0  0  0  0
 17 19  1  0  0  0  0
 20 14  1  0  0  0  0
 20 55  1  0  0  0  0
 21 24  1  0  0  0  0
 21 20  1  0  0  0  0
 21 56  1  1  0  0  0
 22 21  1  0  0  0  0
 23 22  2  0  0  0  0
 24 57  1  0  0  0  0
 24 58  1  0  0  0  0
 25 27  1  0  0  0  0
 25 24  1  0  0  0  0
 25 26  1  0  0  0  0
 25 59  1  0  0  0  0
 26 60  1  0  0  0  0
 26 61  1  0  0  0  0
 26 62  1  0  0  0  0
 27 63  1  0  0  0  0
 27 64  1  0  0  0  0
 27 65  1  0  0  0  0
 28 34  1  0  0  0  0
 28 22  1  0  0  0  0
 29 28  1  0  0  0  0
 29 66  1  6  0  0  0
 30 31  2  0  0  0  0
 30 29  1  0  0  0  0
 32 29  1  0  0  0  0
 32 33  1  0  0  0  0
 32 67  1  0  0  0  0
 32 68  1  0  0  0  0
 33 34  1  0  0  0  0
 33 69  1  0  0  0  0
 33 70  1  0  0  0  0
 34 71  1  0  0  0  0
 34 72  1  0  0  0  0
 35 30  1  0  0  0  0
 35 73  1  0  0  0  0
 36 35  1  0  0  0  0
 36 74  1  0  0  0  0
 36 75  1  0  0  0  0
 36 76  1  0  0  0  0
M  CHG  1  19  -1
M  END
>  <MODEL>
       0

$$$$
selected_4mers/LDLP/259_noH.pdb
 OpenBabel03042517503D

 76 76  0  0  1  0  0  0  0  0999 V2000
   64.7400   46.1020   67.9960 C   0  0  0  0  0  0  0  0  0  0  0  0
   65.8960   45.3570   68.6960 C   0  0  0  0  0  0  0  0  0  0  0  0
   65.8970   45.1340   69.9410 O   0  0  0  0  0  0  0  0  0  0  0  0
   66.8980   45.0140   67.8970 N   0  0  0  0  0  0  0  0  0  0  0  0
   68.1220   44.3670   68.3760 C   0  0  2  0  0  0  0  0  0  0  0  0
   69.1910   45.3520   68.8480 C   0  0  0  0  0  0  0  0  0  0  0  0
   70.2400   44.9370   69.3400 O   0  0  0  0  0  0  0  0  0  0  0  0
   68.6890   43.4570   67.2830 C   0  0  0  0  0  0  0  0  0  0  0  0
   68.2910   41.9800   67.2010 C   0  0  0  0  0  0  0  0  0  0  0  0
   66.8060   41.6870   67.4370 C   0  0  0  0  0  0  0  0  0  0  0  0
   68.7560   41.4390   65.8730 C   0  0  0  0  0  0  0  0  0  0  0  0
   68.9060   46.6470   68.7490 N   0  0  0  0  0  0  0  0  0  0  0  0
   69.7780   47.7050   69.2540 C   0  0  2  0  0  0  0  0  0  0  0  0
   71.1200   47.7160   68.4930 C   0  0  0  0  0  0  0  0  0  0  0  0
   72.1890   47.8790   69.0830 O   0  0  0  0  0  0  0  0  0  0  0  0
   69.9620   47.5450   70.7850 C   0  0  0  0  0  0  0  0  0  0  0  0
   70.4990   48.7850   71.4560 C   0  0  0  0  0  0  0  0  0  0  0  0
   70.6160   48.7660   72.7050 O   0  0  0  0  0  0  0  0  0  0  0  0
   70.8220   49.7680   70.7590 O   0  0  0  0  0  0  0  0  0  0  0  0
   71.0430   47.5580   67.1710 N   0  0  0  0  0  0  0  0  0  0  0  0
   72.2450   47.4860   66.3420 C   0  0  2  0  0  0  0  0  0  0  0  0
   72.4130   48.7160   65.4700 C   0  0  0  0  0  0  0  0  0  0  0  0
   71.4470   49.1730   64.8340 O   0  0  0  0  0  0  0  0  0  0  0  0
   72.2210   46.2390   65.4550 C   0  0  0  0  0  0  0  0  0  0  0  0
   72.6670   44.9700   66.1740 C   0  0  0  0  0  0  0  0  0  0  0  0
   72.1110   43.7410   65.5170 C   0  0  0  0  0  0  0  0  0  0  0  0
   74.2030   44.9000   66.2810 C   0  0  0  0  0  0  0  0  0  0  0  0
   73.6440   49.2470   65.4100 N   0  0  0  0  0  0  0  0  0  0  0  0
   73.9610   50.2490   64.3930 C   0  0  2  0  0  0  0  0  0  0  0  0
   74.1010   49.6370   62.9750 C   0  0  0  0  0  0  0  0  0  0  0  0
   74.5110   48.4760   62.8150 O   0  0  0  0  0  0  0  0  0  0  0  0
   75.3120   50.8280   64.8620 C   0  0  0  0  0  0  0  0  0  0  0  0
   75.5800   50.2380   66.1950 C   0  0  0  0  0  0  0  0  0  0  0  0
   74.7940   48.9640   66.2870 C   0  0  0  0  0  0  0  0  0  0  0  0
   73.7790   50.4370   61.9660 N   0  0  0  0  0  0  0  0  0  0  0  0
   73.8740   50.0480   60.5570 C   0  0  0  0  0  0  0  0  0  0  0  0
   64.9470   46.1781   66.9490 H   0  0  0  0  0  0  0  0  0  0  0  0
   64.6436   47.0828   68.4127 H   0  0  0  0  0  0  0  0  0  0  0  0
   63.8279   45.5617   68.1409 H   0  0  0  0  0  0  0  0  0  0  0  0
   66.8149   45.2036   66.9345 H   0  0  0  0  0  0  0  0  0  0  0  0
   67.8473   43.7903   69.2344 H   0  0  0  0  0  0  0  0  0  0  0  0
   68.4152   43.8982   66.3475 H   0  0  0  0  0  0  0  0  0  0  0  0
   69.7280   43.4071   67.5339 H   0  0  0  0  0  0  0  0  0  0  0  0
   68.7752   41.4802   68.0138 H   0  0  0  0  0  0  0  0  0  0  0  0
   66.2245   42.1493   66.6669 H   0  0  0  0  0  0  0  0  0  0  0  0
   66.5123   42.0776   68.3889 H   0  0  0  0  0  0  0  0  0  0  0  0
   66.6440   40.6295   67.4200 H   0  0  0  0  0  0  0  0  0  0  0  0
   68.2555   41.9571   65.0818 H   0  0  0  0  0  0  0  0  0  0  0  0
   68.5301   40.3948   65.8144 H   0  0  0  0  0  0  0  0  0  0  0  0
   69.8124   41.5812   65.7801 H   0  0  0  0  0  0  0  0  0  0  0  0
   68.0627   46.9067   68.3123 H   0  0  0  0  0  0  0  0  0  0  0  0
   69.3229   48.6579   69.0813 H   0  0  0  0  0  0  0  0  0  0  0  0
   70.6447   46.7405   70.9625 H   0  0  0  0  0  0  0  0  0  0  0  0
   68.9951   47.3537   71.2014 H   0  0  0  0  0  0  0  0  0  0  0  0
   70.1584   47.4884   66.7445 H   0  0  0  0  0  0  0  0  0  0  0  0
   73.0764   47.4343   67.0135 H   0  0  0  0  0  0  0  0  0  0  0  0
   71.2214   46.0942   65.1018 H   0  0  0  0  0  0  0  0  0  0  0  0
   72.9138   46.4078   64.6573 H   0  0  0  0  0  0  0  0  0  0  0  0
   72.2723   45.0085   67.1678 H   0  0  0  0  0  0  0  0  0  0  0  0
   72.4862   43.6702   64.5174 H   0  0  0  0  0  0  0  0  0  0  0  0
   71.0430   43.8012   65.4936 H   0  0  0  0  0  0  0  0  0  0  0  0
   72.4074   42.8751   66.0714 H   0  0  0  0  0  0  0  0  0  0  0  0
   74.6275   44.8604   65.2996 H   0  0  0  0  0  0  0  0  0  0  0  0
   74.4829   44.0230   66.8263 H   0  0  0  0  0  0  0  0  0  0  0  0
   74.5649   45.7680   66.7914 H   0  0  0  0  0  0  0  0  0  0  0  0
   73.1842   50.9795   64.3049 H   0  0  0  0  0  0  0  0  0  0  0  0
   75.2527   51.8939   64.9342 H   0  0  0  0  0  0  0  0  0  0  0  0
   76.0947   50.5955   64.1704 H   0  0  0  0  0  0  0  0  0  0  0  0
   75.2707   50.9150   66.9637 H   0  0  0  0  0  0  0  0  0  0  0  0
   76.6253   50.0473   66.3208 H   0  0  0  0  0  0  0  0  0  0  0  0
   75.3610   48.1309   65.9273 H   0  0  0  0  0  0  0  0  0  0  0  0
   74.5185   48.6993   67.2864 H   0  0  0  0  0  0  0  0  0  0  0  0
   73.4580   51.3436   62.1766 H   0  0  0  0  0  0  0  0  0  0  0  0
   74.2351   49.0432   60.4880 H   0  0  0  0  0  0  0  0  0  0  0  0
   74.5493   50.7053   60.0503 H   0  0  0  0  0  0  0  0  0  0  0  0
   72.9069   50.1114   60.1035 H   0  0  0  0  0  0  0  0  0  0  0  0
  1  2  1  0  0  0  0
  1 37  1  0  0  0  0
  1 38  1  0  0  0  0
  1 39  1  0  0  0  0
  2  3  2  0  0  0  0
  4  5  1  0  0  0  0
  4  2  1  0  0  0  0
  4 40  1  0  0  0  0
  5  6  1  0  0  0  0
  5 41  1  1  0  0  0
  6  7  2  0  0  0  0
  8  5  1  0  0  0  0
  8 42  1  0  0  0  0
  8 43  1  0  0  0  0
  9  8  1  0  0  0  0
  9 10  1  0  0  0  0
  9 44  1  0  0  0  0
 10 45  1  0  0  0  0
 10 46  1  0  0  0  0
 10 47  1  0  0  0  0
 11  9  1  0  0  0  0
 11 48  1  0  0  0  0
 11 49  1  0  0  0  0
 11 50  1  0  0  0  0
 12  6  1  0  0  0  0
 12 13  1  0  0  0  0
 12 51  1  0  0  0  0
 13 16  1  0  0  0  0
 13 52  1  6  0  0  0
 14 15  2  0  0  0  0
 14 13  1  0  0  0  0
 16 17  1  0  0  0  0
 16 53  1  0  0  0  0
 16 54  1  0  0  0  0
 17 18  1  0  0  0  0
 19 17  2  0  0  0  0
 20 14  1  0  0  0  0
 20 55  1  0  0  0  0
 21 20  1  0  0  0  0
 21 56  1  1  0  0  0
 22 21  1  0  0  0  0
 23 22  2  0  0  0  0
 24 25  1  0  0  0  0
 24 21  1  0  0  0  0
 24 57  1  0  0  0  0
 24 58  1  0  0  0  0
 25 27  1  0  0  0  0
 25 59  1  0  0  0  0
 26 25  1  0  0  0  0
 26 60  1  0  0  0  0
 26 61  1  0  0  0  0
 26 62  1  0  0  0  0
 27 63  1  0  0  0  0
 27 64  1  0  0  0  0
 27 65  1  0  0  0  0
 28 22  1  0  0  0  0
 28 34  1  0  0  0  0
 29 32  1  0  0  0  0
 29 28  1  0  0  0  0
 29 66  1  6  0  0  0
 30 29  1  0  0  0  0
 31 30  2  0  0  0  0
 32 33  1  0  0  0  0
 32 67  1  0  0  0  0
 32 68  1  0  0  0  0
 33 34  1  0  0  0  0
 33 69  1  0  0  0  0
 33 70  1  0  0  0  0
 34 71  1  0  0  0  0
 34 72  1  0  0  0  0
 35 30  1  0  0  0  0
 35 73  1  0  0  0  0
 36 35  1  0  0  0  0
 36 74  1  0  0  0  0
 36 75  1  0  0  0  0
 36 76  1  0  0  0  0
M  CHG  1  18  -1
M  END
>  <MODEL>
       0

$$$$
