selected_4mers/LEAA/125_noH.pdb
 OpenBabel03042517503D

 66 65  0  0  1  0  0  0  0  0999 V2000
   25.7800   -1.2780   15.0600 C   0  0  0  0  0  0  0  0  0  0  0  0
   25.1440   -0.8340   16.3640 C   0  0  0  0  0  0  0  0  0  0  0  0
   25.6590   -1.1540   17.4370 O   0  0  0  0  0  0  0  0  0  0  0  0
   24.0450   -0.0940   16.2780 N   0  0  0  0  0  0  0  0  0  0  0  0
   23.3620    0.3730   17.4860 C   0  0  2  0  0  0  0  0  0  0  0  0
   22.8010   -0.8050   18.2670 C   0  0  0  0  0  0  0  0  0  0  0  0
   22.9540   -0.8740   19.4870 O   0  0  0  0  0  0  0  0  0  0  0  0
   22.2370    1.3560   17.1500 C   0  0  0  0  0  0  0  0  0  0  0  0
   21.4180    1.8410   18.3590 C   0  0  0  0  0  0  0  0  0  0  0  0
   22.3380    2.4310   19.4330 C   0  0  0  0  0  0  0  0  0  0  0  0
   20.3970    2.8630   17.9020 C   0  0  0  0  0  0  0  0  0  0  0  0
   22.1610   -1.7370   17.5640 N   0  0  0  0  0  0  0  0  0  0  0  0
   21.6000   -2.9120   18.2270 C   0  0  2  0  0  0  0  0  0  0  0  0
   22.7120   -3.7060   18.9120 C   0  0  0  0  0  0  0  0  0  0  0  0
   22.5500   -4.1760   20.0420 O   0  0  0  0  0  0  0  0  0  0  0  0
   20.8700   -3.8150   17.2340 C   0  0  0  0  0  0  0  0  0  0  0  0
   20.0680   -4.9030   17.9460 C   0  0  0  0  0  0  0  0  0  0  0  0
   19.5910   -6.0150   17.0350 C   0  0  0  0  0  0  0  0  0  0  0  0
   19.4610   -5.8070   15.8090 O   0  0  0  0  0  0  0  0  0  0  0  0
   19.3470   -7.1140   17.5660 O   0  0  0  0  0  0  0  0  0  0  0  0
   23.8370   -3.8600   18.2180 N   0  0  0  0  0  0  0  0  0  0  0  0
   24.9810   -4.5840   18.7670 C   0  0  2  0  0  0  0  0  0  0  0  0
   25.5040   -3.9350   20.0490 C   0  0  0  0  0  0  0  0  0  0  0  0
   25.8300   -4.6320   21.0150 O   0  0  0  0  0  0  0  0  0  0  0  0
   26.1000   -4.6720   17.7290 C   0  0  0  0  0  0  0  0  0  0  0  0
   25.5790   -2.6040   20.0600 N   0  0  0  0  0  0  0  0  0  0  0  0
   26.0750   -1.8750   21.2260 C   0  0  2  0  0  0  0  0  0  0  0  0
   25.1350   -2.0270   22.4170 C   0  0  0  0  0  0  0  0  0  0  0  0
   25.5820   -2.1950   23.5530 O   0  0  0  0  0  0  0  0  0  0  0  0
   26.2670   -0.3910   20.8860 C   0  0  0  0  0  0  0  0  0  0  0  0
   23.8330   -1.9360   22.1580 N   0  0  0  0  0  0  0  0  0  0  0  0
   22.8300   -2.0770   23.2110 C   0  0  0  0  0  0  0  0  0  0  0  0
   25.2014   -0.9114   14.2380 H   0  0  0  0  0  0  0  0  0  0  0  0
   25.8123   -2.3469   15.0247 H   0  0  0  0  0  0  0  0  0  0  0  0
   26.7748   -0.8888   14.9977 H   0  0  0  0  0  0  0  0  0  0  0  0
   23.6856    0.1432   15.3927 H   0  0  0  0  0  0  0  0  0  0  0  0
   24.0839    0.8848   18.0875 H   0  0  0  0  0  0  0  0  0  0  0  0
   21.5684    0.8751   16.4669 H   0  0  0  0  0  0  0  0  0  0  0  0
   22.7094    2.2240   16.7398 H   0  0  0  0  0  0  0  0  0  0  0  0
   20.9045    1.0079   18.7915 H   0  0  0  0  0  0  0  0  0  0  0  0
   22.8667    3.2688   19.0287 H   0  0  0  0  0  0  0  0  0  0  0  0
   23.0382    1.6869   19.7508 H   0  0  0  0  0  0  0  0  0  0  0  0
   21.7515    2.7493   20.2694 H   0  0  0  0  0  0  0  0  0  0  0  0
   20.9010    3.7010   17.4675 H   0  0  0  0  0  0  0  0  0  0  0  0
   19.8194    3.1901   18.7413 H   0  0  0  0  0  0  0  0  0  0  0  0
   19.7496    2.4197   17.1745 H   0  0  0  0  0  0  0  0  0  0  0  0
   22.0650   -1.6337   16.5897 H   0  0  0  0  0  0  0  0  0  0  0  0
   20.8950   -2.5712   18.9563 H   0  0  0  0  0  0  0  0  0  0  0  0
   20.2020   -3.2184   16.6486 H   0  0  0  0  0  0  0  0  0  0  0  0
   21.6014   -4.2904   16.6144 H   0  0  0  0  0  0  0  0  0  0  0  0
   20.6861   -5.3331   18.7062 H   0  0  0  0  0  0  0  0  0  0  0  0
   19.1930   -4.4320   18.3427 H   0  0  0  0  0  0  0  0  0  0  0  0
   23.8998   -3.4770   17.3132 H   0  0  0  0  0  0  0  0  0  0  0  0
   24.6483   -5.5704   19.0144 H   0  0  0  0  0  0  0  0  0  0  0  0
   26.4341   -3.6864   17.4802 H   0  0  0  0  0  0  0  0  0  0  0  0
   25.7326   -5.1569   16.8487 H   0  0  0  0  0  0  0  0  0  0  0  0
   26.9165   -5.2343   18.1315 H   0  0  0  0  0  0  0  0  0  0  0  0
   25.2935   -2.1000   19.2639 H   0  0  0  0  0  0  0  0  0  0  0  0
   27.0210   -2.2950   21.4972 H   0  0  0  0  0  0  0  0  0  0  0  0
   25.3251    0.0372   20.6134 H   0  0  0  0  0  0  0  0  0  0  0  0
   26.9510   -0.2980   20.0685 H   0  0  0  0  0  0  0  0  0  0  0  0
   26.6588    0.1226   21.7390 H   0  0  0  0  0  0  0  0  0  0  0  0
   23.5381   -1.7695   21.2336 H   0  0  0  0  0  0  0  0  0  0  0  0
   23.3178   -2.2525   24.1470 H   0  0  0  0  0  0  0  0  0  0  0  0
   22.1875   -2.9018   22.9835 H   0  0  0  0  0  0  0  0  0  0  0  0
   22.2501   -1.1799   23.2737 H   0  0  0  0  0  0  0  0  0  0  0  0
  1  2  1  0  0  0  0
  1 33  1  0  0  0  0
  1 34  1  0  0  0  0
  1 35  1  0  0  0  0
  2  3  2  0  0  0  0
  4  2  1  0  0  0  0
  4  5  1  0  0  0  0
  4 36  1  0  0  0  0
  5  6  1  0  0  0  0
  5 37  1  1  0  0  0
  6  7  2  0  0  0  0
  8  5  1  0  0  0  0
  8  9  1  0  0  0  0
  8 38  1  0  0  0  0
  8 39  1  0  0  0  0
  9 10  1  0  0  0  0
  9 40  1  0  0  0  0
 10 41  1  0  0  0  0
 10 42  1  0  0  0  0
 10 43  1  0  0  0  0
 11  9  1  0  0  0  0
 11 44  1  0  0  0  0
 11 45  1  0  0  0  0
 11 46  1  0  0  0  0
 12 13  1  0  0  0  0
 12  6  1  0  0  0  0
 12 47  1  0  0  0  0
 13 14  1  0  0  0  0
 13 48  1  1  0  0  0
 14 15  2  0  0  0  0
 16 17  1  0  0  0  0
 16 13  1  0  0  0  0
 16 49  1  0  0  0  0
 16 50  1  0  0  0  0
 17 51  1  0  0  0  0
 17 52  1  0  0  0  0
 18 20  1  0  0  0  0
 18 17  1  0  0  0  0
 19 18  2  0  0  0  0
 21 22  1  0  0  0  0
 21 14  1  0  0  0  0
 21 53  1  0  0  0  0
 22 23  1  0  0  0  0
 22 54  1  1  0  0  0
 23 26  1  0  0  0  0
 23 24  2  0  0  0  0
 25 22  1  0  0  0  0
 25 55  1  0  0  0  0
 25 56  1  0  0  0  0
 25 57  1  0  0  0  0
 26 27  1  0  0  0  0
 26 58  1  0  0  0  0
 27 28  1  0  0  0  0
 27 59  1  1  0  0  0
 28 29  2  0  0  0  0
 30 27  1  0  0  0  0
 30 60  1  0  0  0  0
 30 61  1  0  0  0  0
 30 62  1  0  0  0  0
 31 28  1  0  0  0  0
 31 32  1  0  0  0  0
 31 63  1  0  0  0  0
 32 64  1  0  0  0  0
 32 65  1  0  0  0  0
 32 66  1  0  0  0  0
M  CHG  1  20  -1
M  END
>  <MODEL>
       0

$$$$
selected_4mers/LEAA/126_noH.pdb
 OpenBabel03042517503D

 66 65  0  0  1  0  0  0  0  0999 V2000
  -15.2970   28.3540    4.1720 C   0  0  0  0  0  0  0  0  0  0  0  0
  -14.4420   29.3260    3.3660 C   0  0  0  0  0  0  0  0  0  0  0  0
  -14.1950   30.4780    3.7600 O   0  0  0  0  0  0  0  0  0  0  0  0
  -14.0090   28.8480    2.2020 N   0  0  0  0  0  0  0  0  0  0  0  0
  -13.1910   29.6500    1.3180 C   0  0  2  0  0  0  0  0  0  0  0  0
  -14.1650   30.3730    0.4150 C   0  0  0  0  0  0  0  0  0  0  0  0
  -14.4640   29.9160   -0.7020 O   0  0  0  0  0  0  0  0  0  0  0  0
  -12.2590   28.7150    0.5540 C   0  0  0  0  0  0  0  0  0  0  0  0
  -11.0070   29.2130   -0.1600 C   0  0  0  0  0  0  0  0  0  0  0  0
  -10.1710   30.0380    0.7260 C   0  0  0  0  0  0  0  0  0  0  0  0
  -10.2340   27.9690   -0.6160 C   0  0  0  0  0  0  0  0  0  0  0  0
  -14.7160   31.4600    0.9330 N   0  0  0  0  0  0  0  0  0  0  0  0
  -15.9080   32.0860    0.3500 C   0  0  2  0  0  0  0  0  0  0  0  0
  -15.5670   33.1750   -0.6620 C   0  0  0  0  0  0  0  0  0  0  0  0
  -16.3380   34.1380   -0.8520 O   0  0  0  0  0  0  0  0  0  0  0  0
  -16.8560   32.5960    1.4430 C   0  0  0  0  0  0  0  0  0  0  0  0
  -16.3200   33.6940    2.3490 C   0  0  0  0  0  0  0  0  0  0  0  0
  -17.3930   34.2540    3.2870 C   0  0  0  0  0  0  0  0  0  0  0  0
  -17.1040   35.2470    3.9970 O   0  0  0  0  0  0  0  0  0  0  0  0
  -18.5250   33.7160    3.3120 O   0  0  0  0  0  0  0  0  0  0  0  0
  -14.4020   33.0090   -1.2950 N   0  0  0  0  0  0  0  0  0  0  0  0
  -14.0090   33.7380   -2.5030 C   0  0  2  0  0  0  0  0  0  0  0  0
  -13.2520   32.7820   -3.4370 C   0  0  0  0  0  0  0  0  0  0  0  0
  -12.7080   31.7720   -2.9970 O   0  0  0  0  0  0  0  0  0  0  0  0
  -13.1640   34.9280   -2.1480 C   0  0  0  0  0  0  0  0  0  0  0  0
  -13.2280   33.0860   -4.7340 N   0  0  0  0  0  0  0  0  0  0  0  0
  -12.5600   32.2200   -5.6870 C   0  0  2  0  0  0  0  0  0  0  0  0
  -11.0670   32.2540   -5.3480 C   0  0  0  0  0  0  0  0  0  0  0  0
  -10.4970   33.3410   -5.1700 O   0  0  0  0  0  0  0  0  0  0  0  0
  -12.8220   32.7200   -7.1310 C   0  0  0  0  0  0  0  0  0  0  0  0
  -10.4620   31.0770   -5.1750 N   0  0  0  0  0  0  0  0  0  0  0  0
   -9.0520   30.9820   -4.7670 C   0  0  0  0  0  0  0  0  0  0  0  0
  -15.3763   27.4266    3.6443 H   0  0  0  0  0  0  0  0  0  0  0  0
  -16.2731   28.7692    4.3121 H   0  0  0  0  0  0  0  0  0  0  0  0
  -14.8415   28.1842    5.1252 H   0  0  0  0  0  0  0  0  0  0  0  0
  -14.2499   27.9309    1.9372 H   0  0  0  0  0  0  0  0  0  0  0  0
  -12.5721   30.3628    1.8218 H   0  0  0  0  0  0  0  0  0  0  0  0
  -11.9274   27.9829    1.2604 H   0  0  0  0  0  0  0  0  0  0  0  0
  -12.8750   28.4124   -0.2669 H   0  0  0  0  0  0  0  0  0  0  0  0
  -11.2766   29.8322   -0.9900 H   0  0  0  0  0  0  0  0  0  0  0  0
   -9.8741   29.4601    1.5762 H   0  0  0  0  0  0  0  0  0  0  0  0
  -10.7297   30.8905    1.0517 H   0  0  0  0  0  0  0  0  0  0  0  0
   -9.3012   30.3634    0.1945 H   0  0  0  0  0  0  0  0  0  0  0  0
   -9.9809   27.3740    0.2365 H   0  0  0  0  0  0  0  0  0  0  0  0
   -9.3390   28.2698   -1.1194 H   0  0  0  0  0  0  0  0  0  0  0  0
  -10.8429   27.3954   -1.2832 H   0  0  0  0  0  0  0  0  0  0  0  0
  -14.3123   31.8615    1.7362 H   0  0  0  0  0  0  0  0  0  0  0  0
  -16.4218   31.3244   -0.1985 H   0  0  0  0  0  0  0  0  0  0  0  0
  -17.1169   31.7628    2.0616 H   0  0  0  0  0  0  0  0  0  0  0  0
  -17.6790   33.0370    0.9205 H   0  0  0  0  0  0  0  0  0  0  0  0
  -15.9469   34.4905    1.7396 H   0  0  0  0  0  0  0  0  0  0  0  0
  -15.5476   33.2683    2.9549 H   0  0  0  0  0  0  0  0  0  0  0  0
  -13.7666   32.3541   -0.9254 H   0  0  0  0  0  0  0  0  0  0  0  0
  -14.8812   34.1014   -3.0051 H   0  0  0  0  0  0  0  0  0  0  0  0
  -12.2799   34.5996   -1.6425 H   0  0  0  0  0  0  0  0  0  0  0  0
  -13.7191   35.5814   -1.5078 H   0  0  0  0  0  0  0  0  0  0  0  0
  -12.8910   35.4507   -3.0408 H   0  0  0  0  0  0  0  0  0  0  0  0
  -13.6688   33.9079   -5.0493 H   0  0  0  0  0  0  0  0  0  0  0  0
  -12.9280   31.2169   -5.6305 H   0  0  0  0  0  0  0  0  0  0  0  0
  -12.4670   33.7245   -7.2305 H   0  0  0  0  0  0  0  0  0  0  0  0
  -13.8723   32.6912   -7.3334 H   0  0  0  0  0  0  0  0  0  0  0  0
  -12.3075   32.0894   -7.8257 H   0  0  0  0  0  0  0  0  0  0  0  0
  -10.9737   30.2493   -5.3246 H   0  0  0  0  0  0  0  0  0  0  0  0
   -8.6480   31.9657   -4.6483 H   0  0  0  0  0  0  0  0  0  0  0  0
   -8.4982   30.4571   -5.5172 H   0  0  0  0  0  0  0  0  0  0  0  0
   -8.9841   30.4541   -3.8388 H   0  0  0  0  0  0  0  0  0  0  0  0
  1 33  1  0  0  0  0
  1 34  1  0  0  0  0
  1 35  1  0  0  0  0
  2  3  2  0  0  0  0
  2  1  1  0  0  0  0
  4  2  1  0  0  0  0
  4 36  1  0  0  0  0
  5  4  1  0  0  0  0
  5 37  1  1  0  0  0
  6 12  1  0  0  0  0
  6  5  1  0  0  0  0
  7  6  2  0  0  0  0
  8  5  1  0  0  0  0
  8 38  1  0  0  0  0
  8 39  1  0  0  0  0
  9  8  1  0  0  0  0
  9 10  1  0  0  0  0
  9 40  1  0  0  0  0
 10 41  1  0  0  0  0
 10 42  1  0  0  0  0
 10 43  1  0  0  0  0
 11  9  1  0  0  0  0
 11 44  1  0  0  0  0
 11 45  1  0  0  0  0
 11 46  1  0  0  0  0
 12 47  1  0  0  0  0
 13 12  1  0  0  0  0
 13 16  1  0  0  0  0
 13 48  1  6  0  0  0
 14 13  1  0  0  0  0
 15 14  2  0  0  0  0
 16 17  1  0  0  0  0
 16 49  1  0  0  0  0
 16 50  1  0  0  0  0
 17 18  1  0  0  0  0
 17 51  1  0  0  0  0
 17 52  1  0  0  0  0
 18 20  2  0  0  0  0
 18 19  1  0  0  0  0
 21 14  1  0  0  0  0
 21 53  1  0  0  0  0
 22 25  1  0  0  0  0
 22 21  1  0  0  0  0
 22 54  1  6  0  0  0
 23 24  2  0  0  0  0
 23 22  1  0  0  0  0
 25 55  1  0  0  0  0
 25 56  1  0  0  0  0
 25 57  1  0  0  0  0
 26 23  1  0  0  0  0
 26 58  1  0  0  0  0
 27 28  1  0  0  0  0
 27 26  1  0  0  0  0
 27 59  1  1  0  0  0
 28 31  1  0  0  0  0
 28 29  2  0  0  0  0
 30 27  1  0  0  0  0
 30 60  1  0  0  0  0
 30 61  1  0  0  0  0
 30 62  1  0  0  0  0
 31 32  1  0  0  0  0
 31 63  1  0  0  0  0
 32 64  1  0  0  0  0
 32 65  1  0  0  0  0
 32 66  1  0  0  0  0
M  CHG  1  19  -1
M  END
>  <MODEL>
       0

$$$$
selected_4mers/LEAA/127_noH.pdb
 OpenBabel03042517503D

 66 65  0  0  1  0  0  0  0  0999 V2000
   33.8990   19.8840   20.9190 C   0  0  0  0  0  0  0  0  0  0  0  0
   32.7100   19.1690   20.2960 C   0  0  0  0  0  0  0  0  0  0  0  0
   32.2720   18.1210   20.7880 O   0  0  0  0  0  0  0  0  0  0  0  0
   32.1750   19.7540   19.2290 N   0  0  0  0  0  0  0  0  0  0  0  0
   31.0080   19.1960   18.5530 C   0  0  2  0  0  0  0  0  0  0  0  0
   31.0160   19.5270   17.0650 C   0  0  0  0  0  0  0  0  0  0  0  0
   31.8760   20.2740   16.5860 O   0  0  0  0  0  0  0  0  0  0  0  0
   29.7010   19.6660   19.2200 C   0  0  0  0  0  0  0  0  0  0  0  0
   29.5110   21.1310   19.6390 C   0  0  0  0  0  0  0  0  0  0  0  0
   29.6350   22.0990   18.4690 C   0  0  0  0  0  0  0  0  0  0  0  0
   28.1700   21.3060   20.3220 C   0  0  0  0  0  0  0  0  0  0  0  0
   30.0510   18.9610   16.3490 N   0  0  0  0  0  0  0  0  0  0  0  0
   29.9220   19.1540   14.9140 C   0  0  2  0  0  0  0  0  0  0  0  0
   29.0430   20.3700   14.6420 C   0  0  0  0  0  0  0  0  0  0  0  0
   27.8210   20.3050   14.7730 O   0  0  0  0  0  0  0  0  0  0  0  0
   29.3380   17.8860   14.2760 C   0  0  0  0  0  0  0  0  0  0  0  0
   29.6770   17.7030   12.8030 C   0  0  0  0  0  0  0  0  0  0  0  0
   28.9020   18.6500   11.9100 C   0  0  0  0  0  0  0  0  0  0  0  0
   27.7050   18.3940   11.6610 O   0  0  0  0  0  0  0  0  0  0  0  0
   29.4930   19.6560   11.4640 O   0  0  0  0  0  0  0  0  0  0  0  0
   29.6820   21.4710   14.2530 N   0  0  0  0  0  0  0  0  0  0  0  0
   29.0150   22.7680   14.1470 C   0  0  2  0  0  0  0  0  0  0  0  0
   28.9650   23.3240   12.7190 C   0  0  0  0  0  0  0  0  0  0  0  0
   28.6030   24.4870   12.5180 O   0  0  0  0  0  0  0  0  0  0  0  0
   29.6920   23.7730   15.0750 C   0  0  0  0  0  0  0  0  0  0  0  0
   29.3080   22.4900   11.7390 N   0  0  0  0  0  0  0  0  0  0  0  0
   29.4820   22.9530   10.3570 C   0  0  2  0  0  0  0  0  0  0  0  0
   28.1980   22.9780    9.5320 C   0  0  0  0  0  0  0  0  0  0  0  0
   28.1220   23.6790    8.5210 O   0  0  0  0  0  0  0  0  0  0  0  0
   30.5540   22.1300    9.6470 C   0  0  0  0  0  0  0  0  0  0  0  0
   27.2020   22.2060    9.9610 N   0  0  0  0  0  0  0  0  0  0  0  0
   25.9490   22.0610    9.2210 C   0  0  0  0  0  0  0  0  0  0  0  0
   34.1235   20.7633   20.3521 H   0  0  0  0  0  0  0  0  0  0  0  0
   34.7477   19.2324   20.9176 H   0  0  0  0  0  0  0  0  0  0  0  0
   33.6623   20.1593   21.9255 H   0  0  0  0  0  0  0  0  0  0  0  0
   32.5762   20.5850   18.8859 H   0  0  0  0  0  0  0  0  0  0  0  0
   31.0591   18.1314   18.6472 H   0  0  0  0  0  0  0  0  0  0  0  0
   29.5829   19.0781   20.1062 H   0  0  0  0  0  0  0  0  0  0  0  0
   28.9812   19.5493   18.4369 H   0  0  0  0  0  0  0  0  0  0  0  0
   30.2994   21.3666   20.3230 H   0  0  0  0  0  0  0  0  0  0  0  0
   28.8621   21.8984   17.7567 H   0  0  0  0  0  0  0  0  0  0  0  0
   30.5903   21.9750   18.0032 H   0  0  0  0  0  0  0  0  0  0  0  0
   29.5397   23.1034   18.8254 H   0  0  0  0  0  0  0  0  0  0  0  0
   27.3856   21.0692   19.6338 H   0  0  0  0  0  0  0  0  0  0  0  0
   28.0650   22.3199   20.6473 H   0  0  0  0  0  0  0  0  0  0  0  0
   28.1122   20.6524   21.1672 H   0  0  0  0  0  0  0  0  0  0  0  0
   29.3963   18.3873   16.8090 H   0  0  0  0  0  0  0  0  0  0  0  0
   30.8830   19.3327   14.4788 H   0  0  0  0  0  0  0  0  0  0  0  0
   29.7131   17.0395   14.8123 H   0  0  0  0  0  0  0  0  0  0  0  0
   28.2737   17.9811   14.3324 H   0  0  0  0  0  0  0  0  0  0  0  0
   30.7232   17.8809   12.6665 H   0  0  0  0  0  0  0  0  0  0  0  0
   29.4100   16.7039   12.5285 H   0  0  0  0  0  0  0  0  0  0  0  0
   30.6386   21.4099   14.0285 H   0  0  0  0  0  0  0  0  0  0  0  0
   27.9983   22.6107   14.4411 H   0  0  0  0  0  0  0  0  0  0  0  0
   30.7061   23.9171   14.7657 H   0  0  0  0  0  0  0  0  0  0  0  0
   29.6745   23.4004   16.0779 H   0  0  0  0  0  0  0  0  0  0  0  0
   29.1700   24.7060   15.0320 H   0  0  0  0  0  0  0  0  0  0  0  0
   29.4485   21.5380   11.9469 H   0  0  0  0  0  0  0  0  0  0  0  0
   29.7954   23.9731   10.4349 H   0  0  0  0  0  0  0  0  0  0  0  0
   30.2320   21.1122    9.5737 H   0  0  0  0  0  0  0  0  0  0  0  0
   31.4664   22.1762   10.2041 H   0  0  0  0  0  0  0  0  0  0  0  0
   30.7149   22.5247    8.6656 H   0  0  0  0  0  0  0  0  0  0  0  0
   27.3129   21.7149   10.8070 H   0  0  0  0  0  0  0  0  0  0  0  0
   25.9891   22.6550    8.3319 H   0  0  0  0  0  0  0  0  0  0  0  0
   25.1339   22.3883    9.8321 H   0  0  0  0  0  0  0  0  0  0  0  0
   25.8072   21.0337    8.9576 H   0  0  0  0  0  0  0  0  0  0  0  0
  1 33  1  0  0  0  0
  1 34  1  0  0  0  0
  1 35  1  0  0  0  0
  2  3  2  0  0  0  0
  2  1  1  0  0  0  0
  4  2  1  0  0  0  0
  4 36  1  0  0  0  0
  5  8  1  0  0  0  0
  5  4  1  0  0  0  0
  5 37  1  1  0  0  0
  6  5  1  0  0  0  0
  7  6  2  0  0  0  0
  8  9  1  0  0  0  0
  8 38  1  0  0  0  0
  8 39  1  0  0  0  0
  9 11  1  0  0  0  0
  9 40  1  0  0  0  0
 10  9  1  0  0  0  0
 10 41  1  0  0  0  0
 10 42  1  0  0  0  0
 10 43  1  0  0  0  0
 11 44  1  0  0  0  0
 11 45  1  0  0  0  0
 11 46  1  0  0  0  0
 12  6  1  0  0  0  0
 12 47  1  0  0  0  0
 13 12  1  0  0  0  0
 13 48  1  6  0  0  0
 14 15  2  0  0  0  0
 14 13  1  0  0  0  0
 16 13  1  0  0  0  0
 16 49  1  0  0  0  0
 16 50  1  0  0  0  0
 17 16  1  0  0  0  0
 17 51  1  0  0  0  0
 17 52  1  0  0  0  0
 18 17  1  0  0  0  0
 19 18  1  0  0  0  0
 20 18  2  0  0  0  0
 21 14  1  0  0  0  0
 21 53  1  0  0  0  0
 22 21  1  0  0  0  0
 22 25  1  0  0  0  0
 22 54  1  1  0  0  0
 23 22  1  0  0  0  0
 24 23  2  0  0  0  0
 25 55  1  0  0  0  0
 25 56  1  0  0  0  0
 25 57  1  0  0  0  0
 26 23  1  0  0  0  0
 26 58  1  0  0  0  0
 27 26  1  0  0  0  0
 27 59  1  1  0  0  0
 28 31  1  0  0  0  0
 28 27  1  0  0  0  0
 29 28  2  0  0  0  0
 30 27  1  0  0  0  0
 30 60  1  0  0  0  0
 30 61  1  0  0  0  0
 30 62  1  0  0  0  0
 31 63  1  0  0  0  0
 32 31  1  0  0  0  0
 32 64  1  0  0  0  0
 32 65  1  0  0  0  0
 32 66  1  0  0  0  0
M  CHG  1  19  -1
M  END
>  <MODEL>
       0

$$$$
selected_4mers/LEAA/128_noH.pdb
 OpenBabel03042517503D

 66 65  0  0  1  0  0  0  0  0999 V2000
    8.0010    8.1590   16.3870 C   0  0  0  0  0  0  0  0  0  0  0  0
    6.7720    7.4790   16.9830 C   0  0  0  0  0  0  0  0  0  0  0  0
    6.7920    7.0230   18.1250 O   0  0  0  0  0  0  0  0  0  0  0  0
    5.7010    7.4100   16.2000 N   0  0  0  0  0  0  0  0  0  0  0  0
    4.4800    6.7650   16.6640 C   0  0  2  0  0  0  0  0  0  0  0  0
    4.7320    5.2800   16.9050 C   0  0  0  0  0  0  0  0  0  0  0  0
    4.2160    4.7040   17.8620 O   0  0  0  0  0  0  0  0  0  0  0  0
    3.3570    6.9440   15.6390 C   0  0  0  0  0  0  0  0  0  0  0  0
    2.7600    8.3490   15.5350 C   0  0  0  0  0  0  0  0  0  0  0  0
    1.7910    8.4160   14.3660 C   0  0  0  0  0  0  0  0  0  0  0  0
    2.0550    8.6980   16.8380 C   0  0  0  0  0  0  0  0  0  0  0  0
    5.5370    4.6680   16.0400 N   0  0  0  0  0  0  0  0  0  0  0  0
    5.8520    3.2500   16.1730 C   0  0  2  0  0  0  0  0  0  0  0  0
    6.5400    2.9850   17.5110 C   0  0  0  0  0  0  0  0  0  0  0  0
    6.2370    2.0090   18.1960 O   0  0  0  0  0  0  0  0  0  0  0  0
    6.7600    2.7940   15.0280 C   0  0  0  0  0  0  0  0  0  0  0  0
    6.8350    1.2790   14.8740 C   0  0  0  0  0  0  0  0  0  0  0  0
    7.8700    0.8350   13.8580 C   0  0  0  0  0  0  0  0  0  0  0  0
    8.2470    1.6490   12.9900 O   0  0  0  0  0  0  0  0  0  0  0  0
    8.2980   -0.3380   13.9220 O   0  0  0  0  0  0  0  0  0  0  0  0
    7.4700    3.8610   17.8800 N   0  0  0  0  0  0  0  0  0  0  0  0
    8.1890    3.7160   19.1410 C   0  0  2  0  0  0  0  0  0  0  0  0
    7.2270    3.8380   20.3200 C   0  0  0  0  0  0  0  0  0  0  0  0
    7.3050    3.0720   21.2800 O   0  0  0  0  0  0  0  0  0  0  0  0
    9.2780    4.7770   19.2450 C   0  0  0  0  0  0  0  0  0  0  0  0
    6.3160    4.8020   20.2390 N   0  0  0  0  0  0  0  0  0  0  0  0
    5.3480    5.0200   21.3070 C   0  0  2  0  0  0  0  0  0  0  0  0
    4.4040    3.8310   21.4780 C   0  0  0  0  0  0  0  0  0  0  0  0
    4.0830    3.4400   22.6000 O   0  0  0  0  0  0  0  0  0  0  0  0
    4.5500    6.2880   21.0340 C   0  0  0  0  0  0  0  0  0  0  0  0
    3.9550    3.2590   20.3670 N   0  0  0  0  0  0  0  0  0  0  0  0
    3.0550    2.1150   20.4370 C   0  0  0  0  0  0  0  0  0  0  0  0
    7.7811    8.4843   15.3916 H   0  0  0  0  0  0  0  0  0  0  0  0
    8.8160    7.4661   16.3640 H   0  0  0  0  0  0  0  0  0  0  0  0
    8.2677    9.0035   16.9875 H   0  0  0  0  0  0  0  0  0  0  0  0
    5.7328    7.7991   15.2962 H   0  0  0  0  0  0  0  0  0  0  0  0
    4.1811    7.2234   17.5835 H   0  0  0  0  0  0  0  0  0  0  0  0
    3.7468    6.6822   14.6775 H   0  0  0  0  0  0  0  0  0  0  0  0
    2.5583    6.3158   15.9742 H   0  0  0  0  0  0  0  0  0  0  0  0
    3.5422    9.0589   15.3645 H   0  0  0  0  0  0  0  0  0  0  0  0
    0.9997    7.7120   14.5179 H   0  0  0  0  0  0  0  0  0  0  0  0
    2.3087    8.1806   13.4597 H   0  0  0  0  0  0  0  0  0  0  0  0
    1.3824    9.4026   14.2975 H   0  0  0  0  0  0  0  0  0  0  0  0
    1.2700    7.9937   17.0185 H   0  0  0  0  0  0  0  0  0  0  0  0
    1.6417    9.6824   16.7673 H   0  0  0  0  0  0  0  0  0  0  0  0
    2.7577    8.6633   17.6441 H   0  0  0  0  0  0  0  0  0  0  0  0
    5.9272    5.1819   15.2964 H   0  0  0  0  0  0  0  0  0  0  0  0
    4.9372    2.6964   16.1324 H   0  0  0  0  0  0  0  0  0  0  0  0
    6.3869    3.2087   14.1149 H   0  0  0  0  0  0  0  0  0  0  0  0
    7.7481    3.1352   15.2565 H   0  0  0  0  0  0  0  0  0  0  0  0
    7.0843    0.8521   15.8230 H   0  0  0  0  0  0  0  0  0  0  0  0
    5.8804    0.9462   14.5235 H   0  0  0  0  0  0  0  0  0  0  0  0
    7.6773    4.6220   17.2908 H   0  0  0  0  0  0  0  0  0  0  0  0
    8.6412    2.7466   19.1674 H   0  0  0  0  0  0  0  0  0  0  0  0
    8.8322    5.7494   19.2192 H   0  0  0  0  0  0  0  0  0  0  0  0
    9.9562    4.6737   18.4239 H   0  0  0  0  0  0  0  0  0  0  0  0
    9.8102    4.6529   20.1649 H   0  0  0  0  0  0  0  0  0  0  0  0
    6.2944    5.3801   19.4424 H   0  0  0  0  0  0  0  0  0  0  0  0
    5.8939    5.1287   22.2208 H   0  0  0  0  0  0  0  0  0  0  0  0
    4.0052    6.1767   20.1199 H   0  0  0  0  0  0  0  0  0  0  0  0
    5.2185    7.1194   20.9518 H   0  0  0  0  0  0  0  0  0  0  0  0
    3.8656    6.4589   21.8386 H   0  0  0  0  0  0  0  0  0  0  0  0
    4.2320    3.6102   19.4900 H   0  0  0  0  0  0  0  0  0  0  0  0
    2.8641    1.8735   21.4618 H   0  0  0  0  0  0  0  0  0  0  0  0
    3.5067    1.2756   19.9509 H   0  0  0  0  0  0  0  0  0  0  0  0
    2.1334    2.3559   19.9497 H   0  0  0  0  0  0  0  0  0  0  0  0
  1  2  1  0  0  0  0
  1 33  1  0  0  0  0
  1 34  1  0  0  0  0
  1 35  1  0  0  0  0
  2  3  2  0  0  0  0
  4  5  1  0  0  0  0
  4  2  1  0  0  0  0
  4 36  1  0  0  0  0
  5  6  1  0  0  0  0
  5 37  1  1  0  0  0
  6  7  2  0  0  0  0
  8  5  1  0  0  0  0
  8 38  1  0  0  0  0
  8 39  1  0  0  0  0
  9  8  1  0  0  0  0
  9 11  1  0  0  0  0
  9 40  1  0  0  0  0
 10  9  1  0  0  0  0
 10 41  1  0  0  0  0
 10 42  1  0  0  0  0
 10 43  1  0  0  0  0
 11 44  1  0  0  0  0
 11 45  1  0  0  0  0
 11 46  1  0  0  0  0
 12 13  1  0  0  0  0
 12  6  1  0  0  0  0
 12 47  1  0  0  0  0
 13 14  1  0  0  0  0
 13 48  1  6  0  0  0
 14 21  1  0  0  0  0
 14 15  2  0  0  0  0
 16 13  1  0  0  0  0
 16 49  1  0  0  0  0
 16 50  1  0  0  0  0
 17 16  1  0  0  0  0
 17 51  1  0  0  0  0
 17 52  1  0  0  0  0
 18 20  1  0  0  0  0
 18 17  1  0  0  0  0
 19 18  2  0  0  0  0
 21 22  1  0  0  0  0
 21 53  1  0  0  0  0
 22 25  1  0  0  0  0
 22 23  1  0  0  0  0
 22 54  1  1  0  0  0
 23 24  2  0  0  0  0
 25 55  1  0  0  0  0
 25 56  1  0  0  0  0
 25 57  1  0  0  0  0
 26 23  1  0  0  0  0
 26 27  1  0  0  0  0
 26 58  1  0  0  0  0
 27 28  1  0  0  0  0
 27 59  1  1  0  0  0
 28 29  2  0  0  0  0
 30 27  1  0  0  0  0
 30 60  1  0  0  0  0
 30 61  1  0  0  0  0
 30 62  1  0  0  0  0
 31 32  1  0  0  0  0
 31 28  1  0  0  0  0
 31 63  1  0  0  0  0
 32 64  1  0  0  0  0
 32 65  1  0  0  0  0
 32 66  1  0  0  0  0
M  CHG  1  20  -1
M  END
>  <MODEL>
       0

$$$$
selected_4mers/LEAA/129_noH.pdb
 OpenBabel03042517503D

 66 65  0  0  1  0  0  0  0  0999 V2000
   21.5140   33.6530    1.2460 C   0  0  0  0  0  0  0  0  0  0  0  0
   22.4770   32.6290    1.8470 C   0  0  0  0  0  0  0  0  0  0  0  0
   23.0650   32.8920    2.9060 O   0  0  0  0  0  0  0  0  0  0  0  0
   22.6110   31.4720    1.2090 N   0  0  0  0  0  0  0  0  0  0  0  0
   23.5330   30.4630    1.7000 C   0  0  2  0  0  0  0  0  0  0  0  0
   24.9760   30.9400    1.5550 C   0  0  0  0  0  0  0  0  0  0  0  0
   25.7620   30.7070    2.4600 O   0  0  0  0  0  0  0  0  0  0  0  0
   23.3000   29.1030    1.0400 C   0  0  0  0  0  0  0  0  0  0  0  0
   24.2500   27.9730    1.4990 C   0  0  0  0  0  0  0  0  0  0  0  0
   24.1150   27.7860    3.0370 C   0  0  0  0  0  0  0  0  0  0  0  0
   23.9050   26.7080    0.7330 C   0  0  0  0  0  0  0  0  0  0  0  0
   25.3260   31.6440    0.4650 N   0  0  0  0  0  0  0  0  0  0  0  0
   26.6300   32.2510    0.3590 C   0  0  2  0  0  0  0  0  0  0  0  0
   26.8970   33.1860    1.4640 C   0  0  0  0  0  0  0  0  0  0  0  0
   27.9730   33.1220    2.1030 O   0  0  0  0  0  0  0  0  0  0  0  0
   26.8400   32.9740   -0.9830 C   0  0  0  0  0  0  0  0  0  0  0  0
   27.6410   32.1540   -1.9610 C   0  0  0  0  0  0  0  0  0  0  0  0
   27.8760   32.8590   -3.3110 C   0  0  0  0  0  0  0  0  0  0  0  0
   29.0050   32.7750   -3.8020 O   0  0  0  0  0  0  0  0  0  0  0  0
   26.9510   33.5370   -3.8210 O   0  0  0  0  0  0  0  0  0  0  0  0
   25.9340   34.0650    1.7390 N   0  0  0  0  0  0  0  0  0  0  0  0
   26.0620   35.0060    2.7980 C   0  0  2  0  0  0  0  0  0  0  0  0
   26.1870   34.2650    4.1410 C   0  0  0  0  0  0  0  0  0  0  0  0
   26.9740   34.6830    4.9780 O   0  0  0  0  0  0  0  0  0  0  0  0
   24.8370   35.9660    2.8380 C   0  0  0  0  0  0  0  0  0  0  0  0
   25.4040   33.1880    4.3400 N   0  0  0  0  0  0  0  0  0  0  0  0
   25.4770   32.4490    5.5730 C   0  0  2  0  0  0  0  0  0  0  0  0
   26.8720   31.8220    5.8040 C   0  0  0  0  0  0  0  0  0  0  0  0
   27.3170   31.7760    6.9410 O   0  0  0  0  0  0  0  0  0  0  0  0
   24.3480   31.3310    5.6630 C   0  0  0  0  0  0  0  0  0  0  0  0
   27.5550   31.3800    4.7480 N   0  0  0  0  0  0  0  0  0  0  0  0
   28.9090   30.8720    4.9020 C   0  0  0  0  0  0  0  0  0  0  0  0
   21.0991   33.2635    0.3399 H   0  0  0  0  0  0  0  0  0  0  0  0
   22.0427   34.5592    1.0356 H   0  0  0  0  0  0  0  0  0  0  0  0
   20.7262   33.8531    1.9419 H   0  0  0  0  0  0  0  0  0  0  0  0
   22.0817   31.2971    0.3976 H   0  0  0  0  0  0  0  0  0  0  0  0
   23.3424   30.3206    2.7432 H   0  0  0  0  0  0  0  0  0  0  0  0
   22.2969   28.7990    1.2551 H   0  0  0  0  0  0  0  0  0  0  0  0
   23.4915   29.2443   -0.0032 H   0  0  0  0  0  0  0  0  0  0  0  0
   25.2711   28.2175    1.2927 H   0  0  0  0  0  0  0  0  0  0  0  0
   23.1022   27.5397    3.2788 H   0  0  0  0  0  0  0  0  0  0  0  0
   24.3892   28.6941    3.5321 H   0  0  0  0  0  0  0  0  0  0  0  0
   24.7608   26.9956    3.3582 H   0  0  0  0  0  0  0  0  0  0  0  0
   22.8862   26.4423    0.9235 H   0  0  0  0  0  0  0  0  0  0  0  0
   24.5464   25.9126    1.0506 H   0  0  0  0  0  0  0  0  0  0  0  0
   24.0393   26.8777   -0.3149 H   0  0  0  0  0  0  0  0  0  0  0  0
   24.6822   31.7470   -0.2727 H   0  0  0  0  0  0  0  0  0  0  0  0
   27.3252   31.4396    0.4158 H   0  0  0  0  0  0  0  0  0  0  0  0
   25.8830   33.1832   -1.4135 H   0  0  0  0  0  0  0  0  0  0  0  0
   27.3877   33.8719   -0.7864 H   0  0  0  0  0  0  0  0  0  0  0  0
   28.5926   31.9385   -1.5219 H   0  0  0  0  0  0  0  0  0  0  0  0
   27.0762   31.2682   -2.1640 H   0  0  0  0  0  0  0  0  0  0  0  0
   25.1131   34.0631    1.1955 H   0  0  0  0  0  0  0  0  0  0  0  0
   26.9430   35.5889    2.6276 H   0  0  0  0  0  0  0  0  0  0  0  0
   23.9453   35.3995    3.0078 H   0  0  0  0  0  0  0  0  0  0  0  0
   24.7586   36.4832    1.9046 H   0  0  0  0  0  0  0  0  0  0  0  0
   24.9652   36.6750    3.6290 H   0  0  0  0  0  0  0  0  0  0  0  0
   24.7766   32.9037    3.6366 H   0  0  0  0  0  0  0  0  0  0  0  0
   25.3071   33.1615    6.3530 H   0  0  0  0  0  0  0  0  0  0  0  0
   24.5003   30.6072    4.8898 H   0  0  0  0  0  0  0  0  0  0  0  0
   23.3864   31.7846    5.5425 H   0  0  0  0  0  0  0  0  0  0  0  0
   24.3982   30.8494    6.6172 H   0  0  0  0  0  0  0  0  0  0  0  0
   27.1391   31.3976    3.8558 H   0  0  0  0  0  0  0  0  0  0  0  0
   29.1959   30.9277    5.9313 H   0  0  0  0  0  0  0  0  0  0  0  0
   29.5801   31.4609    4.3123 H   0  0  0  0  0  0  0  0  0  0  0  0
   28.9472   29.8537    4.5757 H   0  0  0  0  0  0  0  0  0  0  0  0
  1  2  1  0  0  0  0
  1 33  1  0  0  0  0
  1 34  1  0  0  0  0
  1 35  1  0  0  0  0
  2  3  2  0  0  0  0
  4  5  1  0  0  0  0
  4  2  1  0  0  0  0
  4 36  1  0  0  0  0
  5 37  1  1  0  0  0
  6  5  1  0  0  0  0
  6  7  2  0  0  0  0
  8  9  1  0  0  0  0
  8  5  1  0  0  0  0
  8 38  1  0  0  0  0
  8 39  1  0  0  0  0
  9 10  1  0  0  0  0
  9 40  1  0  0  0  0
 10 41  1  0  0  0  0
 10 42  1  0  0  0  0
 10 43  1  0  0  0  0
 11  9  1  0  0  0  0
 11 44  1  0  0  0  0
 11 45  1  0  0  0  0
 11 46  1  0  0  0  0
 12  6  1  0  0  0  0
 12 47  1  0  0  0  0
 13 12  1  0  0  0  0
 13 14  1  0  0  0  0
 13 48  1  1  0  0  0
 14 21  1  0  0  0  0
 14 15  2  0  0  0  0
 16 13  1  0  0  0  0
 16 49  1  0  0  0  0
 16 50  1  0  0  0  0
 17 16  1  0  0  0  0
 17 51  1  0  0  0  0
 17 52  1  0  0  0  0
 18 17  1  0  0  0  0
 19 18  1  0  0  0  0
 20 18  2  0  0  0  0
 21 22  1  0  0  0  0
 21 53  1  0  0  0  0
 22 25  1  0  0  0  0
 22 23  1  0  0  0  0
 22 54  1  6  0  0  0
 23 26  1  0  0  0  0
 23 24  2  0  0  0  0
 25 55  1  0  0  0  0
 25 56  1  0  0  0  0
 25 57  1  0  0  0  0
 26 27  1  0  0  0  0
 26 58  1  0  0  0  0
 27 30  1  0  0  0  0
 27 28  1  0  0  0  0
 27 59  1  1  0  0  0
 28 29  2  0  0  0  0
 30 60  1  0  0  0  0
 30 61  1  0  0  0  0
 30 62  1  0  0  0  0
 31 32  1  0  0  0  0
 31 28  1  0  0  0  0
 31 63  1  0  0  0  0
 32 64  1  0  0  0  0
 32 65  1  0  0  0  0
 32 66  1  0  0  0  0
M  CHG  1  19  -1
M  END
>  <MODEL>
       0

$$$$
