selected_4mers/LEAI/280_noH.pdb
 OpenBabel03042517593D

 75 74  0  0  1  0  0  0  0  0999 V2000
   59.4160 -153.1700  262.0070 C   0  0  0  0  0  0  0  0  0  0  0  0
   60.1450 -154.3770  261.4200 C   0  0  0  0  0  0  0  0  0  0  0  0
   60.6830 -154.2970  260.3160 O   0  0  0  0  0  0  0  0  0  0  0  0
   60.1410 -155.4950  262.1480 N   0  0  0  0  0  0  0  0  0  0  0  0
   60.7280 -156.7430  261.6510 C   0  0  2  0  0  0  0  0  0  0  0  0
   60.0620 -157.2090  260.3590 C   0  0  0  0  0  0  0  0  0  0  0  0
   60.7460 -157.6270  259.4210 O   0  0  0  0  0  0  0  0  0  0  0  0
   60.6600 -157.8500  262.7100 C   0  0  0  0  0  0  0  0  0  0  0  0
   61.5920 -157.7220  263.9160 C   0  0  0  0  0  0  0  0  0  0  0  0
   61.1700 -158.7050  264.9990 C   0  0  0  0  0  0  0  0  0  0  0  0
   63.0550 -157.9330  263.5250 C   0  0  0  0  0  0  0  0  0  0  0  0
   58.7340 -157.1250  260.3150 N   0  0  0  0  0  0  0  0  0  0  0  0
   57.9800 -157.5040  259.1220 C   0  0  2  0  0  0  0  0  0  0  0  0
   58.3150 -156.5930  257.9400 C   0  0  0  0  0  0  0  0  0  0  0  0
   58.4600 -157.0670  256.8130 O   0  0  0  0  0  0  0  0  0  0  0  0
   56.4750 -157.5040  259.3930 C   0  0  0  0  0  0  0  0  0  0  0  0
   55.6760 -158.2760  258.3450 C   0  0  0  0  0  0  0  0  0  0  0  0
   54.1760 -158.1680  258.5400 C   0  0  0  0  0  0  0  0  0  0  0  0
   53.4890 -157.7190  257.5950 O   0  0  0  0  0  0  0  0  0  0  0  0
   53.6810 -158.5300  259.6330 O   0  0  0  0  0  0  0  0  0  0  0  0
   58.4460 -155.2930  258.2050 N   0  0  0  0  0  0  0  0  0  0  0  0
   58.8280 -154.3320  257.1680 C   0  0  2  0  0  0  0  0  0  0  0  0
   60.2030 -154.6670  256.5800 C   0  0  0  0  0  0  0  0  0  0  0  0
   60.3810 -154.6400  255.3600 O   0  0  0  0  0  0  0  0  0  0  0  0
   58.7940 -152.9050  257.7110 C   0  0  0  0  0  0  0  0  0  0  0  0
   61.1600 -155.0070  257.4460 N   0  0  0  0  0  0  0  0  0  0  0  0
   62.5130 -155.3910  257.0080 C   0  0  2  0  0  0  0  0  0  0  0  0
   62.5140 -156.6790  256.1710 C   0  0  0  0  0  0  0  0  0  0  0  0
   63.1890 -156.7500  255.1450 O   0  0  0  0  0  0  0  0  0  0  0  0
   63.5130 -155.5010  258.1960 C   0  0  2  0  0  0  0  0  0  0  0  0
   63.6060 -154.1650  258.9430 C   0  0  0  0  0  0  0  0  0  0  0  0
   64.9080 -155.9050  257.7040 C   0  0  0  0  0  0  0  0  0  0  0  0
   64.4510 -154.2080  260.1980 C   0  0  0  0  0  0  0  0  0  0  0  0
   61.7490 -157.6800  256.6030 N   0  0  0  0  0  0  0  0  0  0  0  0
   61.5950 -158.9290  255.8470 C   0  0  0  0  0  0  0  0  0  0  0  0
   59.4925 -152.3439  261.3313 H   0  0  0  0  0  0  0  0  0  0  0  0
   59.8598 -152.9065  262.9443 H   0  0  0  0  0  0  0  0  0  0  0  0
   58.3850 -153.4141  262.1566 H   0  0  0  0  0  0  0  0  0  0  0  0
   59.7326 -155.4815  263.0437 H   0  0  0  0  0  0  0  0  0  0  0  0
   61.7561 -156.5378  261.4372 H   0  0  0  0  0  0  0  0  0  0  0  0
   60.8883 -158.7753  262.2235 H   0  0  0  0  0  0  0  0  0  0  0  0
   59.6724 -157.7826  263.1163 H   0  0  0  0  0  0  0  0  0  0  0  0
   61.5113 -156.7258  264.2981 H   0  0  0  0  0  0  0  0  0  0  0  0
   61.2481 -159.7041  264.6240 H   0  0  0  0  0  0  0  0  0  0  0  0
   60.1573 -158.5090  265.2836 H   0  0  0  0  0  0  0  0  0  0  0  0
   61.8079 -158.5928  265.8507 H   0  0  0  0  0  0  0  0  0  0  0  0
   63.1811 -158.9217  263.1358 H   0  0  0  0  0  0  0  0  0  0  0  0
   63.6763 -157.8070  264.3870 H   0  0  0  0  0  0  0  0  0  0  0  0
   63.3314 -157.2179  262.7785 H   0  0  0  0  0  0  0  0  0  0  0  0
   58.2475 -156.7992  261.1065 H   0  0  0  0  0  0  0  0  0  0  0  0
   58.2706 -158.5011  258.8645 H   0  0  0  0  0  0  0  0  0  0  0  0
   56.3016 -157.9503  260.3499 H   0  0  0  0  0  0  0  0  0  0  0  0
   56.1453 -156.4866  259.3589 H   0  0  0  0  0  0  0  0  0  0  0  0
   55.9220 -157.8906  257.3776 H   0  0  0  0  0  0  0  0  0  0  0  0
   55.9363 -159.3092  258.4435 H   0  0  0  0  0  0  0  0  0  0  0  0
   58.2818 -154.9710  259.1207 H   0  0  0  0  0  0  0  0  0  0  0  0
   58.1123 -154.4015  256.3756 H   0  0  0  0  0  0  0  0  0  0  0  0
   59.5028 -152.8092  258.5068 H   0  0  0  0  0  0  0  0  0  0  0  0
   57.8132 -152.6866  258.0788 H   0  0  0  0  0  0  0  0  0  0  0  0
   59.0421 -152.2194  256.9279 H   0  0  0  0  0  0  0  0  0  0  0  0
   60.9550 -155.0010  258.4089 H   0  0  0  0  0  0  0  0  0  0  0  0
   62.8506 -154.5962  256.3761 H   0  0  0  0  0  0  0  0  0  0  0  0
   63.1479 -156.2561  258.8604 H   0  0  0  0  0  0  0  0  0  0  0  0
   62.6160 -153.8647  259.2162 H   0  0  0  0  0  0  0  0  0  0  0  0
   64.0823 -153.4756  258.2776 H   0  0  0  0  0  0  0  0  0  0  0  0
   65.2823 -155.1556  257.0383 H   0  0  0  0  0  0  0  0  0  0  0  0
   64.8474 -156.8411  257.1893 H   0  0  0  0  0  0  0  0  0  0  0  0
   65.5677 -156.0002  258.5410 H   0  0  0  0  0  0  0  0  0  0  0  0
   64.0139 -154.8878  260.8992 H   0  0  0  0  0  0  0  0  0  0  0  0
   64.4973 -153.2304  260.6305 H   0  0  0  0  0  0  0  0  0  0  0  0
   65.4392 -154.5362  259.9516 H   0  0  0  0  0  0  0  0  0  0  0  0
   61.2709 -157.5790  257.4577 H   0  0  0  0  0  0  0  0  0  0  0  0
   62.1756 -158.8767  254.9498 H   0  0  0  0  0  0  0  0  0  0  0  0
   60.5642 -159.0698  255.5971 H   0  0  0  0  0  0  0  0  0  0  0  0
   61.9329 -159.7508  256.4432 H   0  0  0  0  0  0  0  0  0  0  0  0
  1 36  1  0  0  0  0
  1 37  1  0  0  0  0
  1 38  1  0  0  0  0
  2  1  1  0  0  0  0
  2  4  1  0  0  0  0
  3  2  2  0  0  0  0
  4 39  1  0  0  0  0
  5  4  1  0  0  0  0
  5  8  1  0  0  0  0
  5 40  1  6  0  0  0
  6  5  1  0  0  0  0
  7  6  2  0  0  0  0
  8  9  1  0  0  0  0
  8 41  1  0  0  0  0
  8 42  1  0  0  0  0
  9 10  1  0  0  0  0
  9 43  1  0  0  0  0
 10 44  1  0  0  0  0
 10 45  1  0  0  0  0
 10 46  1  0  0  0  0
 11  9  1  0  0  0  0
 11 47  1  0  0  0  0
 11 48  1  0  0  0  0
 11 49  1  0  0  0  0
 12  6  1  0  0  0  0
 12 50  1  0  0  0  0
 13 16  1  0  0  0  0
 13 12  1  0  0  0  0
 13 51  1  6  0  0  0
 14 21  1  0  0  0  0
 14 13  1  0  0  0  0
 15 14  2  0  0  0  0
 16 52  1  0  0  0  0
 16 53  1  0  0  0  0
 17 18  1  0  0  0  0
 17 16  1  0  0  0  0
 17 54  1  0  0  0  0
 17 55  1  0  0  0  0
 18 20  1  0  0  0  0
 19 18  2  0  0  0  0
 21 56  1  0  0  0  0
 22 25  1  0  0  0  0
 22 21  1  0  0  0  0
 22 57  1  6  0  0  0
 23 22  1  0  0  0  0
 23 26  1  0  0  0  0
 24 23  2  0  0  0  0
 25 58  1  0  0  0  0
 25 59  1  0  0  0  0
 25 60  1  0  0  0  0
 26 61  1  0  0  0  0
 27 26  1  0  0  0  0
 27 30  1  0  0  0  0
 27 62  1  6  0  0  0
 28 34  1  0  0  0  0
 28 27  1  0  0  0  0
 29 28  2  0  0  0  0
 30 31  1  0  0  0  0
 30 63  1  1  0  0  0
 31 33  1  0  0  0  0
 31 64  1  0  0  0  0
 31 65  1  0  0  0  0
 32 30  1  0  0  0  0
 32 66  1  0  0  0  0
 32 67  1  0  0  0  0
 32 68  1  0  0  0  0
 33 69  1  0  0  0  0
 33 70  1  0  0  0  0
 33 71  1  0  0  0  0
 34 72  1  0  0  0  0
 35 34  1  0  0  0  0
 35 73  1  0  0  0  0
 35 74  1  0  0  0  0
 35 75  1  0  0  0  0
M  CHG  1  20  -1
M  END
>  <MODEL>
       0

$$$$
selected_4mers/LEAI/281_noH.pdb
 OpenBabel03042517593D

 75 74  0  0  1  0  0  0  0  0999 V2000
    9.2980    7.0650   -9.6690 C   0  0  0  0  0  0  0  0  0  0  0  0
   10.3750    6.7380   -8.6270 C   0  0  0  0  0  0  0  0  0  0  0  0
   10.1590    5.9570   -7.6960 O   0  0  0  0  0  0  0  0  0  0  0  0
   11.5260    7.3850   -8.7720 N   0  0  0  0  0  0  0  0  0  0  0  0
   12.6340    7.3150   -7.8400 C   0  0  2  0  0  0  0  0  0  0  0  0
   12.9620    8.7120   -7.3430 C   0  0  0  0  0  0  0  0  0  0  0  0
   13.2680    9.6230   -8.1370 O   0  0  0  0  0  0  0  0  0  0  0  0
   13.8810    6.6940   -8.4990 C   0  0  0  0  0  0  0  0  0  0  0  0
   15.1360    6.6440   -7.6180 C   0  0  0  0  0  0  0  0  0  0  0  0
   14.9110    5.6900   -6.4520 C   0  0  0  0  0  0  0  0  0  0  0  0
   16.3610    6.2220   -8.4260 C   0  0  0  0  0  0  0  0  0  0  0  0
   12.8700    8.9310   -6.0380 N   0  0  0  0  0  0  0  0  0  0  0  0
   13.1290   10.2240   -5.4250 C   0  0  2  0  0  0  0  0  0  0  0  0
   13.9540   10.0540   -4.1540 C   0  0  0  0  0  0  0  0  0  0  0  0
   13.7480    9.0700   -3.4280 O   0  0  0  0  0  0  0  0  0  0  0  0
   11.8260   10.9560   -5.0720 C   0  0  0  0  0  0  0  0  0  0  0  0
   10.8930   11.3040   -6.2170 C   0  0  0  0  0  0  0  0  0  0  0  0
   11.3840   12.3760   -7.1610 C   0  0  0  0  0  0  0  0  0  0  0  0
   12.4110   13.0300   -6.8780 O   0  0  0  0  0  0  0  0  0  0  0  0
   10.7600   12.5880   -8.2270 O   0  0  0  0  0  0  0  0  0  0  0  0
   14.8490   10.9610   -3.8340 N   0  0  0  0  0  0  0  0  0  0  0  0
   15.5730   10.9180   -2.5600 C   0  0  2  0  0  0  0  0  0  0  0  0
   14.8500   11.8160   -1.5600 C   0  0  0  0  0  0  0  0  0  0  0  0
   14.4110   12.9030   -1.9450 O   0  0  0  0  0  0  0  0  0  0  0  0
   17.0070   11.3740   -2.7680 C   0  0  0  0  0  0  0  0  0  0  0  0
   14.7110   11.3950   -0.2970 N   0  0  0  0  0  0  0  0  0  0  0  0
   14.0900   12.3180    0.6590 C   0  0  2  0  0  0  0  0  0  0  0  0
   15.1480   12.8750    1.6080 C   0  0  0  0  0  0  0  0  0  0  0  0
   16.1990   12.2790    1.8320 O   0  0  0  0  0  0  0  0  0  0  0  0
   12.9110   11.7530    1.4560 C   0  0  2  0  0  0  0  0  0  0  0  0
   13.3340   10.5480    2.3020 C   0  0  0  0  0  0  0  0  0  0  0  0
   11.7230   11.3750    0.5790 C   0  0  0  0  0  0  0  0  0  0  0  0
   12.3920   10.3130    3.4780 C   0  0  0  0  0  0  0  0  0  0  0  0
   14.8440   14.0260    2.1800 N   0  0  0  0  0  0  0  0  0  0  0  0
   15.6660   14.7070    3.1480 C   0  0  0  0  0  0  0  0  0  0  0  0
    9.6912    7.7583  -10.3829 H   0  0  0  0  0  0  0  0  0  0  0  0
    8.4496    7.4979   -9.1813 H   0  0  0  0  0  0  0  0  0  0  0  0
    9.0018    6.1670  -10.1697 H   0  0  0  0  0  0  0  0  0  0  0  0
   11.6343    7.9525   -9.5692 H   0  0  0  0  0  0  0  0  0  0  0  0
   12.3462    6.6912   -7.0197 H   0  0  0  0  0  0  0  0  0  0  0  0
   14.1132    7.2677   -9.3718 H   0  0  0  0  0  0  0  0  0  0  0  0
   13.6273    5.6758   -8.7081 H   0  0  0  0  0  0  0  0  0  0  0  0
   15.3206    7.6265   -7.2364 H   0  0  0  0  0  0  0  0  0  0  0  0
   14.7258    4.7053   -6.8275 H   0  0  0  0  0  0  0  0  0  0  0  0
   14.0682    6.0181   -5.8802 H   0  0  0  0  0  0  0  0  0  0  0  0
   15.7810    5.6765   -5.8292 H   0  0  0  0  0  0  0  0  0  0  0  0
   16.2061    5.2401   -8.8220 H   0  0  0  0  0  0  0  0  0  0  0  0
   17.2228    6.2190   -7.7918 H   0  0  0  0  0  0  0  0  0  0  0  0
   16.5125    6.9112   -9.2303 H   0  0  0  0  0  0  0  0  0  0  0  0
   12.6134    8.1803   -5.4550 H   0  0  0  0  0  0  0  0  0  0  0  0
   13.6700   10.8078   -6.1402 H   0  0  0  0  0  0  0  0  0  0  0  0
   11.2822   10.3348   -4.3914 H   0  0  0  0  0  0  0  0  0  0  0  0
   12.1388   11.8992   -4.6752 H   0  0  0  0  0  0  0  0  0  0  0  0
   10.7275   10.4143   -6.7879 H   0  0  0  0  0  0  0  0  0  0  0  0
   10.0089   11.6994   -5.7622 H   0  0  0  0  0  0  0  0  0  0  0  0
   15.0388   11.6901   -4.4677 H   0  0  0  0  0  0  0  0  0  0  0  0
   15.5987    9.9188   -2.1782 H   0  0  0  0  0  0  0  0  0  0  0  0
   17.0116   12.3733   -3.1505 H   0  0  0  0  0  0  0  0  0  0  0  0
   17.4907   10.7228   -3.4657 H   0  0  0  0  0  0  0  0  0  0  0  0
   17.5288   11.3471   -1.8342 H   0  0  0  0  0  0  0  0  0  0  0  0
   15.0140   10.5001   -0.0203 H   0  0  0  0  0  0  0  0  0  0  0  0
   13.6653   13.0945    0.0577 H   0  0  0  0  0  0  0  0  0  0  0  0
   12.5938   12.5445    2.1024 H   0  0  0  0  0  0  0  0  0  0  0  0
   14.3203   10.7206    2.6793 H   0  0  0  0  0  0  0  0  0  0  0  0
   13.3035    9.6800    1.6771 H   0  0  0  0  0  0  0  0  0  0  0  0
   12.0058   10.5830   -0.0826 H   0  0  0  0  0  0  0  0  0  0  0  0
   11.4172   12.2258    0.0066 H   0  0  0  0  0  0  0  0  0  0  0  0
   10.9121   11.0509    1.1973 H   0  0  0  0  0  0  0  0  0  0  0  0
   12.4035   11.1684    4.1206 H   0  0  0  0  0  0  0  0  0  0  0  0
   12.7128    9.4514    4.0253 H   0  0  0  0  0  0  0  0  0  0  0  0
   11.3987   10.1543    3.1132 H   0  0  0  0  0  0  0  0  0  0  0  0
   13.9926   14.4502    1.9262 H   0  0  0  0  0  0  0  0  0  0  0  0
   16.5532   14.1362    3.3271 H   0  0  0  0  0  0  0  0  0  0  0  0
   15.1223   14.8176    4.0629 H   0  0  0  0  0  0  0  0  0  0  0  0
   15.9330   15.6728    2.7728 H   0  0  0  0  0  0  0  0  0  0  0  0
  1  2  1  0  0  0  0
  1 36  1  0  0  0  0
  1 37  1  0  0  0  0
  1 38  1  0  0  0  0
  2  3  2  0  0  0  0
  4  2  1  0  0  0  0
  4  5  1  0  0  0  0
  4 39  1  0  0  0  0
  5  6  1  0  0  0  0
  5 40  1  1  0  0  0
  6 12  1  0  0  0  0
  7  6  2  0  0  0  0
  8  5  1  0  0  0  0
  8  9  1  0  0  0  0
  8 41  1  0  0  0  0
  8 42  1  0  0  0  0
  9 10  1  0  0  0  0
  9 43  1  0  0  0  0
 10 44  1  0  0  0  0
 10 45  1  0  0  0  0
 10 46  1  0  0  0  0
 11  9  1  0  0  0  0
 11 47  1  0  0  0  0
 11 48  1  0  0  0  0
 11 49  1  0  0  0  0
 12 13  1  0  0  0  0
 12 50  1  0  0  0  0
 13 16  1  0  0  0  0
 13 14  1  0  0  0  0
 13 51  1  6  0  0  0
 14 21  1  0  0  0  0
 14 15  2  0  0  0  0
 16 52  1  0  0  0  0
 16 53  1  0  0  0  0
 17 16  1  0  0  0  0
 17 54  1  0  0  0  0
 17 55  1  0  0  0  0
 18 19  1  0  0  0  0
 18 17  1  0  0  0  0
 20 18  2  0  0  0  0
 21 22  1  0  0  0  0
 21 56  1  0  0  0  0
 22 23  1  0  0  0  0
 22 57  1  1  0  0  0
 23 26  1  0  0  0  0
 24 23  2  0  0  0  0
 25 22  1  0  0  0  0
 25 58  1  0  0  0  0
 25 59  1  0  0  0  0
 25 60  1  0  0  0  0
 26 27  1  0  0  0  0
 26 61  1  0  0  0  0
 27 30  1  0  0  0  0
 27 28  1  0  0  0  0
 27 62  1  6  0  0  0
 28 29  2  0  0  0  0
 28 34  1  0  0  0  0
 30 31  1  0  0  0  0
 30 63  1  1  0  0  0
 31 33  1  0  0  0  0
 31 64  1  0  0  0  0
 31 65  1  0  0  0  0
 32 30  1  0  0  0  0
 32 66  1  0  0  0  0
 32 67  1  0  0  0  0
 32 68  1  0  0  0  0
 33 69  1  0  0  0  0
 33 70  1  0  0  0  0
 33 71  1  0  0  0  0
 34 35  1  0  0  0  0
 34 72  1  0  0  0  0
 35 73  1  0  0  0  0
 35 74  1  0  0  0  0
 35 75  1  0  0  0  0
M  CHG  1  19  -1
M  END
>  <MODEL>
       0

$$$$
selected_4mers/LEAI/282_noH.pdb
 OpenBabel03042517593D

 75 74  0  0  1  0  0  0  0  0999 V2000
   38.5740   33.1450   30.5440 C   0  0  0  0  0  0  0  0  0  0  0  0
   38.0560   34.3080   31.3900 C   0  0  0  0  0  0  0  0  0  0  0  0
   37.8790   34.1560   32.5960 O   0  0  0  0  0  0  0  0  0  0  0  0
   37.8120   35.4590   30.7650 N   0  0  0  0  0  0  0  0  0  0  0  0
   37.5760   36.6990   31.5030 C   0  0  2  0  0  0  0  0  0  0  0  0
   36.1240   37.1650   31.4640 C   0  0  0  0  0  0  0  0  0  0  0  0
   35.7990   38.2140   32.0180 O   0  0  0  0  0  0  0  0  0  0  0  0
   38.4780   37.8260   30.9840 C   0  0  0  0  0  0  0  0  0  0  0  0
   39.9880   37.6910   31.1640 C   0  0  0  0  0  0  0  0  0  0  0  0
   40.6510   39.0460   30.9700 C   0  0  0  0  0  0  0  0  0  0  0  0
   40.3430   37.1190   32.5230 C   0  0  0  0  0  0  0  0  0  0  0  0
   35.2630   36.3900   30.8140 N   0  0  0  0  0  0  0  0  0  0  0  0
   33.8840   36.7940   30.5860 C   0  0  2  0  0  0  0  0  0  0  0  0
   33.0280   36.3920   31.7930 C   0  0  0  0  0  0  0  0  0  0  0  0
   32.7920   35.2130   32.0220 O   0  0  0  0  0  0  0  0  0  0  0  0
   33.3500   36.1850   29.2790 C   0  0  0  0  0  0  0  0  0  0  0  0
   31.8940   36.5270   28.9790 C   0  0  0  0  0  0  0  0  0  0  0  0
   31.4600   36.3040   27.5320 C   0  0  0  0  0  0  0  0  0  0  0  0
   31.9240   35.3410   26.8710 O   0  0  0  0  0  0  0  0  0  0  0  0
   30.6290   37.1080   27.0500 O   0  0  0  0  0  0  0  0  0  0  0  0
   32.5740   37.3740   32.5700 N   0  0  0  0  0  0  0  0  0  0  0  0
   31.7870   37.0870   33.7720 C   0  0  2  0  0  0  0  0  0  0  0  0
   30.4630   36.4310   33.4240 C   0  0  0  0  0  0  0  0  0  0  0  0
   29.9760   35.5700   34.1590 O   0  0  0  0  0  0  0  0  0  0  0  0
   31.5350   38.3550   34.5720 C   0  0  0  0  0  0  0  0  0  0  0  0
   29.8840   36.8400   32.3040 N   0  0  0  0  0  0  0  0  0  0  0  0
   28.5300   36.4190   31.9530 C   0  0  2  0  0  0  0  0  0  0  0  0
   28.5400   35.9180   30.5230 C   0  0  0  0  0  0  0  0  0  0  0  0
   28.9420   36.6450   29.6170 O   0  0  0  0  0  0  0  0  0  0  0  0
   27.5500   37.6050   32.1220 C   0  0  2  0  0  0  0  0  0  0  0  0
   27.4770   38.0140   33.6000 C   0  0  0  0  0  0  0  0  0  0  0  0
   26.1500   37.2430   31.5920 C   0  0  0  0  0  0  0  0  0  0  0  0
   26.9080   39.4130   33.8110 C   0  0  0  0  0  0  0  0  0  0  0  0
   28.1150   34.6750   30.3250 N   0  0  0  0  0  0  0  0  0  0  0  0
   28.0840   34.1230   28.9790 C   0  0  0  0  0  0  0  0  0  0  0  0
   38.6661   33.4584   29.5251 H   0  0  0  0  0  0  0  0  0  0  0  0
   37.8876   32.3264   30.6047 H   0  0  0  0  0  0  0  0  0  0  0  0
   39.5308   32.8361   30.9101 H   0  0  0  0  0  0  0  0  0  0  0  0
   37.7900   35.4750   29.7809 H   0  0  0  0  0  0  0  0  0  0  0  0
   37.8134   36.4737   32.5217 H   0  0  0  0  0  0  0  0  0  0  0  0
   38.2922   37.9216   29.9346 H   0  0  0  0  0  0  0  0  0  0  0  0
   38.2164   38.6701   31.5873 H   0  0  0  0  0  0  0  0  0  0  0  0
   40.3504   37.0071   30.4251 H   0  0  0  0  0  0  0  0  0  0  0  0
   40.2884   39.7296   31.7090 H   0  0  0  0  0  0  0  0  0  0  0  0
   40.4198   39.4198   29.9944 H   0  0  0  0  0  0  0  0  0  0  0  0
   41.7112   38.9419   31.0701 H   0  0  0  0  0  0  0  0  0  0  0  0
   39.9947   37.7790   33.2898 H   0  0  0  0  0  0  0  0  0  0  0  0
   41.4050   37.0130   32.5990 H   0  0  0  0  0  0  0  0  0  0  0  0
   39.8798   36.1615   32.6390 H   0  0  0  0  0  0  0  0  0  0  0  0
   35.5669   35.5165   30.4766 H   0  0  0  0  0  0  0  0  0  0  0  0
   33.8360   37.8576   30.4793 H   0  0  0  0  0  0  0  0  0  0  0  0
   33.9524   36.5440   28.4708 H   0  0  0  0  0  0  0  0  0  0  0  0
   33.3992   35.1222   29.3924 H   0  0  0  0  0  0  0  0  0  0  0  0
   31.2752   35.9213   29.6076 H   0  0  0  0  0  0  0  0  0  0  0  0
   31.7910   37.5762   29.1622 H   0  0  0  0  0  0  0  0  0  0  0  0
   32.7707   38.3089   32.3325 H   0  0  0  0  0  0  0  0  0  0  0  0
   32.3575   36.4060   34.3683 H   0  0  0  0  0  0  0  0  0  0  0  0
   30.9646   39.0415   33.9819 H   0  0  0  0  0  0  0  0  0  0  0  0
   32.4706   38.8026   34.8351 H   0  0  0  0  0  0  0  0  0  0  0  0
   30.9925   38.1133   35.4620 H   0  0  0  0  0  0  0  0  0  0  0  0
   30.3760   37.4390   31.6970 H   0  0  0  0  0  0  0  0  0  0  0  0
   28.2032   35.6315   32.5995 H   0  0  0  0  0  0  0  0  0  0  0  0
   27.9139   38.4320   31.5488 H   0  0  0  0  0  0  0  0  0  0  0  0
   28.4649   37.9837   34.0100 H   0  0  0  0  0  0  0  0  0  0  0  0
   26.8172   37.3266   34.0870 H   0  0  0  0  0  0  0  0  0  0  0  0
   25.7606   36.4164   32.1488 H   0  0  0  0  0  0  0  0  0  0  0  0
   26.2181   36.9762   30.5580 H   0  0  0  0  0  0  0  0  0  0  0  0
   25.4987   38.0849   31.7010 H   0  0  0  0  0  0  0  0  0  0  0  0
   27.5430   40.1316   33.3363 H   0  0  0  0  0  0  0  0  0  0  0  0
   26.8541   39.6218   34.8590 H   0  0  0  0  0  0  0  0  0  0  0  0
   25.9277   39.4672   33.3857 H   0  0  0  0  0  0  0  0  0  0  0  0
   27.8211   34.1275   31.0886 H   0  0  0  0  0  0  0  0  0  0  0  0
   28.4366   34.8566   28.2844 H   0  0  0  0  0  0  0  0  0  0  0  0
   27.0805   33.8485   28.7291 H   0  0  0  0  0  0  0  0  0  0  0  0
   28.7122   33.2580   28.9337 H   0  0  0  0  0  0  0  0  0  0  0  0
  1  2  1  0  0  0  0
  1 36  1  0  0  0  0
  1 37  1  0  0  0  0
  1 38  1  0  0  0  0
  2  3  2  0  0  0  0
  4  2  1  0  0  0  0
  4  5  1  0  0  0  0
  4 39  1  0  0  0  0
  5 40  1  1  0  0  0
  6  5  1  0  0  0  0
  6  7  2  0  0  0  0
  8  9  1  0  0  0  0
  8  5  1  0  0  0  0
  8 41  1  0  0  0  0
  8 42  1  0  0  0  0
  9 11  1  0  0  0  0
  9 43  1  0  0  0  0
 10  9  1  0  0  0  0
 10 44  1  0  0  0  0
 10 45  1  0  0  0  0
 10 46  1  0  0  0  0
 11 47  1  0  0  0  0
 11 48  1  0  0  0  0
 11 49  1  0  0  0  0
 12  6  1  0  0  0  0
 12 50  1  0  0  0  0
 13 12  1  0  0  0  0
 13 14  1  0  0  0  0
 13 51  1  6  0  0  0
 14 15  2  0  0  0  0
 14 21  1  0  0  0  0
 16 13  1  0  0  0  0
 16 52  1  0  0  0  0
 16 53  1  0  0  0  0
 17 16  1  0  0  0  0
 17 54  1  0  0  0  0
 17 55  1  0  0  0  0
 18 17  1  0  0  0  0
 19 18  2  0  0  0  0
 20 18  1  0  0  0  0
 21 22  1  0  0  0  0
 21 56  1  0  0  0  0
 22 25  1  0  0  0  0
 22 57  1  1  0  0  0
 23 22  1  0  0  0  0
 23 24  2  0  0  0  0
 25 58  1  0  0  0  0
 25 59  1  0  0  0  0
 25 60  1  0  0  0  0
 26 23  1  0  0  0  0
 26 61  1  0  0  0  0
 27 30  1  0  0  0  0
 27 26  1  0  0  0  0
 27 62  1  1  0  0  0
 28 27  1  0  0  0  0
 29 28  2  0  0  0  0
 30 31  1  0  0  0  0
 30 63  1  6  0  0  0
 31 33  1  0  0  0  0
 31 64  1  0  0  0  0
 31 65  1  0  0  0  0
 32 30  1  0  0  0  0
 32 66  1  0  0  0  0
 32 67  1  0  0  0  0
 32 68  1  0  0  0  0
 33 69  1  0  0  0  0
 33 70  1  0  0  0  0
 33 71  1  0  0  0  0
 34 28  1  0  0  0  0
 34 72  1  0  0  0  0
 35 34  1  0  0  0  0
 35 73  1  0  0  0  0
 35 74  1  0  0  0  0
 35 75  1  0  0  0  0
M  CHG  1  20  -1
M  END
>  <MODEL>
       0

$$$$
selected_4mers/LEAI/283_noH.pdb
 OpenBabel03042517593D

 75 74  0  0  1  0  0  0  0  0999 V2000
   54.2210   22.5340   53.1490 C   0  0  0  0  0  0  0  0  0  0  0  0
   55.2210   23.5690   53.6850 C   0  0  0  0  0  0  0  0  0  0  0  0
   55.6100   24.4930   52.9620 O   0  0  0  0  0  0  0  0  0  0  0  0
   55.6390   23.4180   54.9310 N   0  0  0  0  0  0  0  0  0  0  0  0
   56.5560   24.3740   55.5570 C   0  0  2  0  0  0  0  0  0  0  0  0
   57.7180   24.9370   54.7390 C   0  0  0  0  0  0  0  0  0  0  0  0
   57.9020   26.1520   54.6580 O   0  0  0  0  0  0  0  0  0  0  0  0
   57.1550   23.7740   56.8250 C   0  0  0  0  0  0  0  0  0  0  0  0
   58.2200   24.6400   57.5180 C   0  0  0  0  0  0  0  0  0  0  0  0
   57.5430   25.8840   58.1300 C   0  0  0  0  0  0  0  0  0  0  0  0
   58.9400   23.8210   58.6140 C   0  0  0  0  0  0  0  0  0  0  0  0
   58.5010   24.0400   54.1460 N   0  0  0  0  0  0  0  0  0  0  0  0
   59.6880   24.4000   53.3670 C   0  0  2  0  0  0  0  0  0  0  0  0
   59.4710   24.5020   51.8700 C   0  0  0  0  0  0  0  0  0  0  0  0
   60.3820   24.8830   51.1280 O   0  0  0  0  0  0  0  0  0  0  0  0
   60.7900   23.3580   53.6020 C   0  0  0  0  0  0  0  0  0  0  0  0
   61.2870   23.2860   55.0180 C   0  0  0  0  0  0  0  0  0  0  0  0
   61.7910   24.6220   55.5060 C   0  0  0  0  0  0  0  0  0  0  0  0
   62.3170   25.3970   54.6850 O   0  0  0  0  0  0  0  0  0  0  0  0
   61.6690   24.8950   56.7070 O   0  0  0  0  0  0  0  0  0  0  0  0
   58.2680   24.1660   51.4290 N   0  0  0  0  0  0  0  0  0  0  0  0
   57.9480   24.1480   50.0080 C   0  0  2  0  0  0  0  0  0  0  0  0
   57.4710   25.4710   49.4160 C   0  0  0  0  0  0  0  0  0  0  0  0
   57.0410   26.3750   50.1330 O   0  0  0  0  0  0  0  0  0  0  0  0
   56.8960   23.0700   49.7510 C   0  0  0  0  0  0  0  0  0  0  0  0
   57.5500   25.5590   48.0960 N   0  0  0  0  0  0  0  0  0  0  0  0
   57.1170   26.7460   47.3630 C   0  0  2  0  0  0  0  0  0  0  0  0
   55.7280   26.5060   46.7720 C   0  0  0  0  0  0  0  0  0  0  0  0
   54.8710   27.4030   46.7890 O   0  0  0  0  0  0  0  0  0  0  0  0
   58.1160   27.0770   46.2240 C   0  0  2  0  0  0  0  0  0  0  0  0
   59.5060   27.3210   46.8240 C   0  0  0  0  0  0  0  0  0  0  0  0
   57.6320   28.3120   45.4210 C   0  0  0  0  0  0  0  0  0  0  0  0
   60.6110   27.4780   45.7780 C   0  0  0  0  0  0  0  0  0  0  0  0
   55.5180   25.2970   46.2390 N   0  0  0  0  0  0  0  0  0  0  0  0
   54.2290   24.9190   45.6560 C   0  0  0  0  0  0  0  0  0  0  0  0
   53.9683   22.7730   52.1371 H   0  0  0  0  0  0  0  0  0  0  0  0
   53.3362   22.5482   53.7505 H   0  0  0  0  0  0  0  0  0  0  0  0
   54.6618   21.5597   53.1860 H   0  0  0  0  0  0  0  0  0  0  0  0
   55.3258   22.6431   55.4512 H   0  0  0  0  0  0  0  0  0  0  0  0
   55.9065   25.2089   55.7186 H   0  0  0  0  0  0  0  0  0  0  0  0
   57.6052   22.8380   56.5678 H   0  0  0  0  0  0  0  0  0  0  0  0
   56.3474   23.6823   57.5209 H   0  0  0  0  0  0  0  0  0  0  0  0
   58.9492   24.9540   56.8007 H   0  0  0  0  0  0  0  0  0  0  0  0
   56.8125   25.5754   58.8484 H   0  0  0  0  0  0  0  0  0  0  0  0
   57.0658   26.4476   57.3557 H   0  0  0  0  0  0  0  0  0  0  0  0
   58.2811   26.4917   58.6104 H   0  0  0  0  0  0  0  0  0  0  0  0
   58.2271   23.4967   59.3431 H   0  0  0  0  0  0  0  0  0  0  0  0
   59.6809   24.4314   59.0865 H   0  0  0  0  0  0  0  0  0  0  0  0
   59.4102   22.9681   58.1709 H   0  0  0  0  0  0  0  0  0  0  0  0
   58.2713   23.0868   54.2351 H   0  0  0  0  0  0  0  0  0  0  0  0
   59.9563   25.3768   53.7116 H   0  0  0  0  0  0  0  0  0  0  0  0
   61.6183   23.5988   52.9688 H   0  0  0  0  0  0  0  0  0  0  0  0
   60.3588   22.4038   53.3817 H   0  0  0  0  0  0  0  0  0  0  0  0
   62.0855   22.5755   55.0687 H   0  0  0  0  0  0  0  0  0  0  0  0
   60.4690   22.9921   55.6420 H   0  0  0  0  0  0  0  0  0  0  0  0
   57.5708   23.9216   52.0797 H   0  0  0  0  0  0  0  0  0  0  0  0
   58.8732   23.9421   49.5115 H   0  0  0  0  0  0  0  0  0  0  0  0
   55.9934   23.3221   50.2674 H   0  0  0  0  0  0  0  0  0  0  0  0
   57.2578   22.1271   50.1046 H   0  0  0  0  0  0  0  0  0  0  0  0
   56.7001   23.0059   48.7010 H   0  0  0  0  0  0  0  0  0  0  0  0
   57.9139   24.7963   47.5909 H   0  0  0  0  0  0  0  0  0  0  0  0
   57.0821   27.5734   48.0406 H   0  0  0  0  0  0  0  0  0  0  0  0
   58.1716   26.2503   45.5469 H   0  0  0  0  0  0  0  0  0  0  0  0
   59.4679   28.2147   47.4112 H   0  0  0  0  0  0  0  0  0  0  0  0
   59.7495   26.4577   47.4074 H   0  0  0  0  0  0  0  0  0  0  0  0
   57.5661   29.1579   46.0730 H   0  0  0  0  0  0  0  0  0  0  0  0
   56.6689   28.1094   45.0011 H   0  0  0  0  0  0  0  0  0  0  0  0
   58.3270   28.5210   44.6348 H   0  0  0  0  0  0  0  0  0  0  0  0
   60.4068   28.3339   45.1691 H   0  0  0  0  0  0  0  0  0  0  0  0
   60.6469   26.6031   45.1630 H   0  0  0  0  0  0  0  0  0  0  0  0
   61.5523   27.6068   46.2702 H   0  0  0  0  0  0  0  0  0  0  0  0
   56.2525   24.6414   46.2387 H   0  0  0  0  0  0  0  0  0  0  0  0
   53.5467   25.7392   45.7369 H   0  0  0  0  0  0  0  0  0  0  0  0
   53.8345   24.0738   46.1804 H   0  0  0  0  0  0  0  0  0  0  0  0
   54.3639   24.6677   44.6247 H   0  0  0  0  0  0  0  0  0  0  0  0
  1  2  1  0  0  0  0
  1 36  1  0  0  0  0
  1 37  1  0  0  0  0
  1 38  1  0  0  0  0
  2  4  1  0  0  0  0
  3  2  2  0  0  0  0
  4  5  1  0  0  0  0
  4 39  1  0  0  0  0
  5  8  1  0  0  0  0
  5 40  1  1  0  0  0
  6  5  1  0  0  0  0
  7  6  2  0  0  0  0
  8  9  1  0  0  0  0
  8 41  1  0  0  0  0
  8 42  1  0  0  0  0
  9 10  1  0  0  0  0
  9 11  1  0  0  0  0
  9 43  1  0  0  0  0
 10 44  1  0  0  0  0
 10 45  1  0  0  0  0
 10 46  1  0  0  0  0
 11 47  1  0  0  0  0
 11 48  1  0  0  0  0
 11 49  1  0  0  0  0
 12  6  1  0  0  0  0
 12 50  1  0  0  0  0
 13 16  1  0  0  0  0
 13 12  1  0  0  0  0
 13 51  1  1  0  0  0
 14 13  1  0  0  0  0
 15 14  2  0  0  0  0
 16 17  1  0  0  0  0
 16 52  1  0  0  0  0
 16 53  1  0  0  0  0
 17 18  1  0  0  0  0
 17 54  1  0  0  0  0
 17 55  1  0  0  0  0
 18 20  1  0  0  0  0
 19 18  2  0  0  0  0
 21 14  1  0  0  0  0
 21 56  1  0  0  0  0
 22 21  1  0  0  0  0
 22 57  1  6  0  0  0
 23 22  1  0  0  0  0
 23 24  2  0  0  0  0
 25 22  1  0  0  0  0
 25 58  1  0  0  0  0
 25 59  1  0  0  0  0
 25 60  1  0  0  0  0
 26 23  1  0  0  0  0
 26 61  1  0  0  0  0
 27 26  1  0  0  0  0
 27 62  1  1  0  0  0
 28 29  2  0  0  0  0
 28 27  1  0  0  0  0
 30 31  1  0  0  0  0
 30 27  1  0  0  0  0
 30 63  1  6  0  0  0
 31 64  1  0  0  0  0
 31 65  1  0  0  0  0
 32 30  1  0  0  0  0
 32 66  1  0  0  0  0
 32 67  1  0  0  0  0
 32 68  1  0  0  0  0
 33 31  1  0  0  0  0
 33 69  1  0  0  0  0
 33 70  1  0  0  0  0
 33 71  1  0  0  0  0
 34 28  1  0  0  0  0
 34 72  1  0  0  0  0
 35 34  1  0  0  0  0
 35 73  1  0  0  0  0
 35 74  1  0  0  0  0
 35 75  1  0  0  0  0
M  CHG  1  20  -1
M  END
>  <MODEL>
       0

$$$$
selected_4mers/LEAI/284_noH.pdb
 OpenBabel03042517593D

 75 74  0  0  1  0  0  0  0  0999 V2000
   -3.0230   15.3580   14.1050 C   0  0  0  0  0  0  0  0  0  0  0  0
   -1.9280   15.7400   15.1000 C   0  0  0  0  0  0  0  0  0  0  0  0
   -1.3630   14.8730   15.7720 O   0  0  0  0  0  0  0  0  0  0  0  0
   -1.6110   17.0300   15.1740 N   0  0  0  0  0  0  0  0  0  0  0  0
   -0.6630   17.5270   16.1640 C   0  0  2  0  0  0  0  0  0  0  0  0
   -1.2740   18.1750   17.3990 C   0  0  0  0  0  0  0  0  0  0  0  0
   -0.5550   18.6100   18.3130 O   0  0  0  0  0  0  0  0  0  0  0  0
    0.3320   18.5000   15.5280 C   0  0  0  0  0  0  0  0  0  0  0  0
    1.1560   17.9730   14.3540 C   0  0  0  0  0  0  0  0  0  0  0  0
    2.1500   19.0430   13.8590 C   0  0  0  0  0  0  0  0  0  0  0  0
    1.8830   16.7570   14.7130 C   0  0  0  0  0  0  0  0  0  0  0  0
   -2.6040   18.2170   17.4730 N   0  0  0  0  0  0  0  0  0  0  0  0
   -3.2270   18.9020   18.5650 C   0  0  2  0  0  0  0  0  0  0  0  0
   -2.9800   18.2280   19.9040 C   0  0  0  0  0  0  0  0  0  0  0  0
   -2.9500   18.9370   20.9070 O   0  0  0  0  0  0  0  0  0  0  0  0
   -4.7220   19.0790   18.2800 C   0  0  0  0  0  0  0  0  0  0  0  0
   -5.0170   19.4790   16.8490 C   0  0  0  0  0  0  0  0  0  0  0  0
   -5.2650   18.2830   15.8870 C   0  0  0  0  0  0  0  0  0  0  0  0
   -4.6470   17.2080   16.0190 O   0  0  0  0  0  0  0  0  0  0  0  0
   -6.0920   18.4040   14.9610 O   0  0  0  0  0  0  0  0  0  0  0  0
   -2.8210   16.8980   19.9470 N   0  0  0  0  0  0  0  0  0  0  0  0
   -2.6360   16.2550   21.2220 C   0  0  2  0  0  0  0  0  0  0  0  0
   -1.3050   16.6840   21.8380 C   0  0  0  0  0  0  0  0  0  0  0  0
   -1.1770   16.8480   23.0510 O   0  0  0  0  0  0  0  0  0  0  0  0
   -2.6870   14.7330   21.0700 C   0  0  0  0  0  0  0  0  0  0  0  0
   -0.3010   16.8720   20.9880 N   0  0  0  0  0  0  0  0  0  0  0  0
    1.0030   17.3040   21.4520 C   0  0  2  0  0  0  0  0  0  0  0  0
    0.8680   18.7340   21.9720 C   0  0  0  0  0  0  0  0  0  0  0  0
    1.3640   19.0610   23.0300 O   0  0  0  0  0  0  0  0  0  0  0  0
    2.0340   17.2340   20.3380 C   0  0  2  0  0  0  0  0  0  0  0  0
    2.3120   15.7840   19.9840 C   0  0  0  0  0  0  0  0  0  0  0  0
    3.3300   17.9220   20.7960 C   0  0  0  0  0  0  0  0  0  0  0  0
    3.1110   15.6530   18.6940 C   0  0  0  0  0  0  0  0  0  0  0  0
    0.1860   19.6080   21.2290 N   0  0  0  0  0  0  0  0  0  0  0  0
   -0.0160   20.9930   21.6870 C   0  0  0  0  0  0  0  0  0  0  0  0
   -3.3892   16.2396   13.6218 H   0  0  0  0  0  0  0  0  0  0  0  0
   -3.8251   14.8768   14.6247 H   0  0  0  0  0  0  0  0  0  0  0  0
   -2.6215   14.6901   13.3718 H   0  0  0  0  0  0  0  0  0  0  0  0
   -2.0263   17.6639   14.5455 H   0  0  0  0  0  0  0  0  0  0  0  0
   -0.1708   16.6429   16.5119 H   0  0  0  0  0  0  0  0  0  0  0  0
   -0.2210   19.3477   15.1808 H   0  0  0  0  0  0  0  0  0  0  0  0
    1.0448   18.7141   16.2968 H   0  0  0  0  0  0  0  0  0  0  0  0
    0.4709   17.7380   13.5664 H   0  0  0  0  0  0  0  0  0  0  0  0
    2.8374   19.2813   14.6435 H   0  0  0  0  0  0  0  0  0  0  0  0
    1.6134   19.9241   13.5750 H   0  0  0  0  0  0  0  0  0  0  0  0
    2.6888   18.6660   13.0149 H   0  0  0  0  0  0  0  0  0  0  0  0
    2.5739   16.9739   15.5007 H   0  0  0  0  0  0  0  0  0  0  0  0
    2.4174   16.3958   13.8593 H   0  0  0  0  0  0  0  0  0  0  0  0
    1.1899   16.0110   15.0418 H   0  0  0  0  0  0  0  0  0  0  0  0
   -3.1535   17.7806   16.7825 H   0  0  0  0  0  0  0  0  0  0  0  0
   -2.7742   19.8681   18.6457 H   0  0  0  0  0  0  0  0  0  0  0  0
   -5.2182   18.1529   18.4827 H   0  0  0  0  0  0  0  0  0  0  0  0
   -5.0724   19.8708   18.9086 H   0  0  0  0  0  0  0  0  0  0  0  0
   -5.8906   20.0968   16.8473 H   0  0  0  0  0  0  0  0  0  0  0  0
   -4.1471   19.9867   16.4878 H   0  0  0  0  0  0  0  0  0  0  0  0
   -2.8306   16.3675   19.1177 H   0  0  0  0  0  0  0  0  0  0  0  0
   -3.4303   16.5543   21.8735 H   0  0  0  0  0  0  0  0  0  0  0  0
   -1.8990   14.4128   20.4208 H   0  0  0  0  0  0  0  0  0  0  0  0
   -3.6304   14.4476   20.6536 H   0  0  0  0  0  0  0  0  0  0  0  0
   -2.5672   14.2745   22.0294 H   0  0  0  0  0  0  0  0  0  0  0  0
   -0.4450   16.7153   20.0268 H   0  0  0  0  0  0  0  0  0  0  0  0
    1.3417   16.6554   22.2327 H   0  0  0  0  0  0  0  0  0  0  0  0
    1.6563   17.7351   19.4713 H   0  0  0  0  0  0  0  0  0  0  0  0
    2.8669   15.3344   20.7808 H   0  0  0  0  0  0  0  0  0  0  0  0
    1.3719   15.2934   19.8410 H   0  0  0  0  0  0  0  0  0  0  0  0
    3.7112   17.4238   21.6628 H   0  0  0  0  0  0  0  0  0  0  0  0
    3.1259   18.9451   21.0335 H   0  0  0  0  0  0  0  0  0  0  0  0
    4.0551   17.8760   20.0105 H   0  0  0  0  0  0  0  0  0  0  0  0
    4.0583   16.1367   18.8105 H   0  0  0  0  0  0  0  0  0  0  0  0
    2.5719   16.1129   17.8923 H   0  0  0  0  0  0  0  0  0  0  0  0
    3.2641   14.6173   18.4729 H   0  0  0  0  0  0  0  0  0  0  0  0
   -0.1869   19.3232   20.3635 H   0  0  0  0  0  0  0  0  0  0  0  0
    0.4529   21.1256   22.6396 H   0  0  0  0  0  0  0  0  0  0  0  0
   -1.0640   21.1904   21.7748 H   0  0  0  0  0  0  0  0  0  0  0  0
    0.4163   21.6693   20.9794 H   0  0  0  0  0  0  0  0  0  0  0  0
  1  2  1  0  0  0  0
  1 36  1  0  0  0  0
  1 37  1  0  0  0  0
  1 38  1  0  0  0  0
  2  4  1  0  0  0  0
  2  3  2  0  0  0  0
  4  5  1  0  0  0  0
  4 39  1  0  0  0  0
  5  6  1  0  0  0  0
  5 40  1  1  0  0  0
  6 12  1  0  0  0  0
  6  7  2  0  0  0  0
  8  5  1  0  0  0  0
  8 41  1  0  0  0  0
  8 42  1  0  0  0  0
  9 11  1  0  0  0  0
  9  8  1  0  0  0  0
  9 43  1  0  0  0  0
 10  9  1  0  0  0  0
 10 44  1  0  0  0  0
 10 45  1  0  0  0  0
 10 46  1  0  0  0  0
 11 47  1  0  0  0  0
 11 48  1  0  0  0  0
 11 49  1  0  0  0  0
 12 13  1  0  0  0  0
 12 50  1  0  0  0  0
 13 14  1  0  0  0  0
 13 51  1  1  0  0  0
 14 21  1  0  0  0  0
 14 15  2  0  0  0  0
 16 13  1  0  0  0  0
 16 52  1  0  0  0  0
 16 53  1  0  0  0  0
 17 16  1  0  0  0  0
 17 54  1  0  0  0  0
 17 55  1  0  0  0  0
 18 19  1  0  0  0  0
 18 17  1  0  0  0  0
 20 18  2  0  0  0  0
 21 22  1  0  0  0  0
 21 56  1  0  0  0  0
 22 23  1  0  0  0  0
 22 57  1  1  0  0  0
 23 24  2  0  0  0  0
 25 22  1  0  0  0  0
 25 58  1  0  0  0  0
 25 59  1  0  0  0  0
 25 60  1  0  0  0  0
 26 27  1  0  0  0  0
 26 23  1  0  0  0  0
 26 61  1  0  0  0  0
 27 28  1  0  0  0  0
 27 62  1  1  0  0  0
 28 29  2  0  0  0  0
 30 32  1  0  0  0  0
 30 27  1  0  0  0  0
 30 63  1  6  0  0  0
 31 30  1  0  0  0  0
 31 64  1  0  0  0  0
 31 65  1  0  0  0  0
 32 66  1  0  0  0  0
 32 67  1  0  0  0  0
 32 68  1  0  0  0  0
 33 31  1  0  0  0  0
 33 69  1  0  0  0  0
 33 70  1  0  0  0  0
 33 71  1  0  0  0  0
 34 35  1  0  0  0  0
 34 28  1  0  0  0  0
 34 72  1  0  0  0  0
 35 73  1  0  0  0  0
 35 74  1  0  0  0  0
 35 75  1  0  0  0  0
M  CHG  1  19  -1
M  END
>  <MODEL>
       0

$$$$
