selected_4mers/LEAL/60_noH.pdb
 OpenBabel03042517503D

 75 74  0  0  1  0  0  0  0  0999 V2000
   -5.4630   10.1330    9.5280 C   0  0  0  0  0  0  0  0  0  0  0  0
   -4.2860   10.8730    8.9030 C   0  0  0  0  0  0  0  0  0  0  0  0
   -3.7830   11.8330    9.4640 O   0  0  0  0  0  0  0  0  0  0  0  0
   -3.8620   10.4240    7.7280 N   0  0  0  0  0  0  0  0  0  0  0  0
   -2.7860   11.0980    7.0330 C   0  0  2  0  0  0  0  0  0  0  0  0
   -3.1530   11.2950    5.5790 C   0  0  0  0  0  0  0  0  0  0  0  0
   -4.0820   10.6830    5.0580 O   0  0  0  0  0  0  0  0  0  0  0  0
   -1.4680   10.3210    7.1210 C   0  0  0  0  0  0  0  0  0  0  0  0
   -1.2850    9.0370    6.3260 C   0  0  0  0  0  0  0  0  0  0  0  0
    0.2010    8.7780    6.0830 C   0  0  0  0  0  0  0  0  0  0  0  0
   -1.9070    7.9000    7.0830 C   0  0  0  0  0  0  0  0  0  0  0  0
   -2.3910   12.1490    4.9230 N   0  0  0  0  0  0  0  0  0  0  0  0
   -2.6330   12.4340    3.5370 C   0  0  2  0  0  0  0  0  0  0  0  0
   -1.3020   12.8230    2.9340 C   0  0  0  0  0  0  0  0  0  0  0  0
   -0.5500   13.5980    3.5240 O   0  0  0  0  0  0  0  0  0  0  0  0
   -3.6590   13.5630    3.4320 C   0  0  0  0  0  0  0  0  0  0  0  0
   -3.8630   14.0910    2.0320 C   0  0  0  0  0  0  0  0  0  0  0  0
   -4.9090   15.1930    1.9840 C   0  0  0  0  0  0  0  0  0  0  0  0
   -5.5430   15.4740    3.0260 O   0  0  0  0  0  0  0  0  0  0  0  0
   -5.1040   15.7720    0.8930 O   0  0  0  0  0  0  0  0  0  0  0  0
   -0.9940   12.2680    1.7670 N   0  0  0  0  0  0  0  0  0  0  0  0
    0.2670   12.5850    1.1180 C   0  0  2  0  0  0  0  0  0  0  0  0
    0.0390   12.8050   -0.3600 C   0  0  0  0  0  0  0  0  0  0  0  0
   -0.7320   12.0860   -0.9900 O   0  0  0  0  0  0  0  0  0  0  0  0
    1.2760   11.4640    1.3180 C   0  0  0  0  0  0  0  0  0  0  0  0
    0.6960   13.8300   -0.8870 N   0  0  0  0  0  0  0  0  0  0  0  0
    0.6220   14.1370   -2.3050 C   0  0  2  0  0  0  0  0  0  0  0  0
    1.9460   13.6700   -2.8920 C   0  0  0  0  0  0  0  0  0  0  0  0
    2.9980   13.8900   -2.3070 O   0  0  0  0  0  0  0  0  0  0  0  0
    0.4560   15.6430   -2.5040 C   0  0  0  0  0  0  0  0  0  0  0  0
   -0.8590   16.2400   -1.9910 C   0  0  0  0  0  0  0  0  0  0  0  0
   -0.7340   17.7630   -1.9610 C   0  0  0  0  0  0  0  0  0  0  0  0
   -2.0110   15.8070   -2.8850 C   0  0  0  0  0  0  0  0  0  0  0  0
    1.8990   12.9990   -4.0400 N   0  0  0  0  0  0  0  0  0  0  0  0
    3.1230   12.5370   -4.6720 C   0  0  0  0  0  0  0  0  0  0  0  0
   -5.7585    9.3279    8.8882 H   0  0  0  0  0  0  0  0  0  0  0  0
   -6.2832   10.8086    9.6531 H   0  0  0  0  0  0  0  0  0  0  0  0
   -5.1735    9.7431   10.4814 H   0  0  0  0  0  0  0  0  0  0  0  0
   -4.2815    9.6286    7.3273 H   0  0  0  0  0  0  0  0  0  0  0  0
   -2.6443   12.0455    7.5096 H   0  0  0  0  0  0  0  0  0  0  0  0
   -0.6939   10.9903    6.8084 H   0  0  0  0  0  0  0  0  0  0  0  0
   -1.4491    9.9850    8.1367 H   0  0  0  0  0  0  0  0  0  0  0  0
   -1.7652    9.1280    5.3742 H   0  0  0  0  0  0  0  0  0  0  0  0
    0.7047    8.6829    7.0222 H   0  0  0  0  0  0  0  0  0  0  0  0
    0.6205    9.5953    5.5344 H   0  0  0  0  0  0  0  0  0  0  0  0
    0.3185    7.8744    5.5222 H   0  0  0  0  0  0  0  0  0  0  0  0
   -1.4310    7.8035    8.0364 H   0  0  0  0  0  0  0  0  0  0  0  0
   -1.7834    6.9928    6.5292 H   0  0  0  0  0  0  0  0  0  0  0  0
   -2.9501    8.0931    7.2231 H   0  0  0  0  0  0  0  0  0  0  0  0
   -1.6480   12.5959    5.3892 H   0  0  0  0  0  0  0  0  0  0  0  0
   -3.0321   11.5921    3.0109 H   0  0  0  0  0  0  0  0  0  0  0  0
   -4.5978   13.1968    3.7919 H   0  0  0  0  0  0  0  0  0  0  0  0
   -3.2787   14.3768    4.0134 H   0  0  0  0  0  0  0  0  0  0  0  0
   -2.9341   14.4809    1.6714 H   0  0  0  0  0  0  0  0  0  0  0  0
   -4.2074   13.2825    1.4215 H   0  0  0  0  0  0  0  0  0  0  0  0
   -1.6215   11.6404    1.3408 H   0  0  0  0  0  0  0  0  0  0  0  0
    0.6589   13.4777    1.5589 H   0  0  0  0  0  0  0  0  0  0  0  0
    0.8987   10.5626    0.8821 H   0  0  0  0  0  0  0  0  0  0  0  0
    1.4387   11.3131    2.3647 H   0  0  0  0  0  0  0  0  0  0  0  0
    2.2002   11.7279    0.8478 H   0  0  0  0  0  0  0  0  0  0  0  0
    1.2481   14.3974   -0.3018 H   0  0  0  0  0  0  0  0  0  0  0  0
   -0.2106   13.6581   -2.7766 H   0  0  0  0  0  0  0  0  0  0  0  0
    0.5219   15.8453   -3.5526 H   0  0  0  0  0  0  0  0  0  0  0  0
    1.2301   16.1009   -1.9243 H   0  0  0  0  0  0  0  0  0  0  0  0
   -1.0591   15.8866   -1.0011 H   0  0  0  0  0  0  0  0  0  0  0  0
   -0.5337   18.1239   -2.9482 H   0  0  0  0  0  0  0  0  0  0  0  0
    0.0676   18.0423   -1.3097 H   0  0  0  0  0  0  0  0  0  0  0  0
   -1.6484   18.1890   -1.6042 H   0  0  0  0  0  0  0  0  0  0  0  0
   -1.8354   16.1487   -3.8837 H   0  0  0  0  0  0  0  0  0  0  0  0
   -2.9241   16.2283   -2.5193 H   0  0  0  0  0  0  0  0  0  0  0  0
   -2.0839   14.7395   -2.8809 H   0  0  0  0  0  0  0  0  0  0  0  0
    1.0297   12.8145   -4.4637 H   0  0  0  0  0  0  0  0  0  0  0  0
    3.9632   12.8252   -4.0754 H   0  0  0  0  0  0  0  0  0  0  0  0
    3.2093   12.9745   -5.6447 H   0  0  0  0  0  0  0  0  0  0  0  0
    3.0979   11.4710   -4.7613 H   0  0  0  0  0  0  0  0  0  0  0  0
  1 36  1  0  0  0  0
  1 37  1  0  0  0  0
  1 38  1  0  0  0  0
  2  3  2  0  0  0  0
  2  1  1  0  0  0  0
  4  2  1  0  0  0  0
  4 39  1  0  0  0  0
  5  8  1  0  0  0  0
  5  4  1  0  0  0  0
  5 40  1  1  0  0  0
  6  5  1  0  0  0  0
  7  6  2  0  0  0  0
  8 41  1  0  0  0  0
  8 42  1  0  0  0  0
  9 11  1  0  0  0  0
  9  8  1  0  0  0  0
  9 43  1  0  0  0  0
 10  9  1  0  0  0  0
 10 44  1  0  0  0  0
 10 45  1  0  0  0  0
 10 46  1  0  0  0  0
 11 47  1  0  0  0  0
 11 48  1  0  0  0  0
 11 49  1  0  0  0  0
 12  6  1  0  0  0  0
 12 50  1  0  0  0  0
 13 12  1  0  0  0  0
 13 51  1  6  0  0  0
 14 15  2  0  0  0  0
 14 13  1  0  0  0  0
 16 13  1  0  0  0  0
 16 52  1  0  0  0  0
 16 53  1  0  0  0  0
 17 16  1  0  0  0  0
 17 54  1  0  0  0  0
 17 55  1  0  0  0  0
 18 17  1  0  0  0  0
 18 19  1  0  0  0  0
 20 18  2  0  0  0  0
 21 14  1  0  0  0  0
 21 56  1  0  0  0  0
 22 25  1  0  0  0  0
 22 21  1  0  0  0  0
 22 57  1  1  0  0  0
 23 22  1  0  0  0  0
 24 23  2  0  0  0  0
 25 58  1  0  0  0  0
 25 59  1  0  0  0  0
 25 60  1  0  0  0  0
 26 23  1  0  0  0  0
 26 61  1  0  0  0  0
 27 26  1  0  0  0  0
 27 62  1  6  0  0  0
 28 29  2  0  0  0  0
 28 27  1  0  0  0  0
 30 27  1  0  0  0  0
 30 31  1  0  0  0  0
 30 63  1  0  0  0  0
 30 64  1  0  0  0  0
 31 32  1  0  0  0  0
 31 65  1  0  0  0  0
 32 66  1  0  0  0  0
 32 67  1  0  0  0  0
 32 68  1  0  0  0  0
 33 31  1  0  0  0  0
 33 69  1  0  0  0  0
 33 70  1  0  0  0  0
 33 71  1  0  0  0  0
 34 28  1  0  0  0  0
 34 72  1  0  0  0  0
 35 34  1  0  0  0  0
 35 73  1  0  0  0  0
 35 74  1  0  0  0  0
 35 75  1  0  0  0  0
M  CHG  1  19  -1
M  END
>  <MODEL>
       0

$$$$
selected_4mers/LEAL/61_noH.pdb
 OpenBabel03042517503D

 75 74  0  0  1  0  0  0  0  0999 V2000
   73.9340   53.2860   89.5640 C   0  0  0  0  0  0  0  0  0  0  0  0
   74.9450   54.1120   90.3540 C   0  0  0  0  0  0  0  0  0  0  0  0
   74.8980   54.1470   91.5820 O   0  0  0  0  0  0  0  0  0  0  0  0
   75.8590   54.7780   89.6510 N   0  0  0  0  0  0  0  0  0  0  0  0
   76.8600   55.6010   90.3260 C   0  0  2  0  0  0  0  0  0  0  0  0
   76.1630   56.7150   91.0980 C   0  0  0  0  0  0  0  0  0  0  0  0
   76.5350   57.0250   92.2260 O   0  0  0  0  0  0  0  0  0  0  0  0
   77.8450   56.2010   89.3150 C   0  0  0  0  0  0  0  0  0  0  0  0
   78.9090   57.1320   89.8950 C   0  0  0  0  0  0  0  0  0  0  0  0
   79.7340   56.4030   90.9510 C   0  0  0  0  0  0  0  0  0  0  0  0
   79.7950   57.6350   88.7760 C   0  0  0  0  0  0  0  0  0  0  0  0
   75.1410   57.3060   90.4890 N   0  0  0  0  0  0  0  0  0  0  0  0
   74.3890   58.3740   91.1320 C   0  0  2  0  0  0  0  0  0  0  0  0
   73.7040   57.8390   92.3950 C   0  0  0  0  0  0  0  0  0  0  0  0
   73.7060   58.4880   93.4480 O   0  0  0  0  0  0  0  0  0  0  0  0
   73.3420   58.9280   90.1640 C   0  0  0  0  0  0  0  0  0  0  0  0
   72.8360   60.2970   90.5460 C   0  0  0  0  0  0  0  0  0  0  0  0
   73.8940   61.3770   90.3790 C   0  0  0  0  0  0  0  0  0  0  0  0
   73.6430   62.5150   90.8180 O   0  0  0  0  0  0  0  0  0  0  0  0
   74.9710   61.0890   89.8040 O   0  0  0  0  0  0  0  0  0  0  0  0
   73.1240   56.6480   92.2830 N   0  0  0  0  0  0  0  0  0  0  0  0
   72.4420   56.0150   93.4050 C   0  0  2  0  0  0  0  0  0  0  0  0
   73.4240   55.6800   94.5290 C   0  0  0  0  0  0  0  0  0  0  0  0
   73.1290   55.8910   95.7040 O   0  0  0  0  0  0  0  0  0  0  0  0
   71.7330   54.7490   92.9330 C   0  0  0  0  0  0  0  0  0  0  0  0
   74.5920   55.1580   94.1630 N   0  0  0  0  0  0  0  0  0  0  0  0
   75.6140   54.8030   95.1470 C   0  0  2  0  0  0  0  0  0  0  0  0
   76.0930   56.0250   95.9270 C   0  0  0  0  0  0  0  0  0  0  0  0
   76.3920   55.9260   97.1170 O   0  0  0  0  0  0  0  0  0  0  0  0
   76.8030   54.1270   94.4580 C   0  0  0  0  0  0  0  0  0  0  0  0
   76.5610   52.6980   93.9640 C   0  0  0  0  0  0  0  0  0  0  0  0
   77.7270   52.2470   93.1030 C   0  0  0  0  0  0  0  0  0  0  0  0
   76.3860   51.7670   95.1660 C   0  0  0  0  0  0  0  0  0  0  0  0
   76.1750   57.1740   95.2600 N   0  0  0  0  0  0  0  0  0  0  0  0
   76.5960   58.3950   95.9410 C   0  0  0  0  0  0  0  0  0  0  0  0
   74.1358   53.3810   88.5175 H   0  0  0  0  0  0  0  0  0  0  0  0
   72.9455   53.6398   89.7702 H   0  0  0  0  0  0  0  0  0  0  0  0
   74.0118   52.2580   89.8504 H   0  0  0  0  0  0  0  0  0  0  0  0
   75.8603   54.7154   88.6685 H   0  0  0  0  0  0  0  0  0  0  0  0
   77.4119   54.9843   91.0042 H   0  0  0  0  0  0  0  0  0  0  0  0
   78.3474   55.3923   88.8266 H   0  0  0  0  0  0  0  0  0  0  0  0
   77.2552   56.8067   88.6591 H   0  0  0  0  0  0  0  0  0  0  0  0
   78.4336   57.9664   90.3668 H   0  0  0  0  0  0  0  0  0  0  0  0
   80.2215   55.5616   90.5045 H   0  0  0  0  0  0  0  0  0  0  0  0
   79.0904   56.0667   91.7369 H   0  0  0  0  0  0  0  0  0  0  0  0
   80.4687   57.0694   91.3523 H   0  0  0  0  0  0  0  0  0  0  0  0
   80.2738   56.8051   88.2997 H   0  0  0  0  0  0  0  0  0  0  0  0
   80.5374   58.2928   89.1772 H   0  0  0  0  0  0  0  0  0  0  0  0
   79.2003   58.1627   88.0600 H   0  0  0  0  0  0  0  0  0  0  0  0
   74.8866   57.0155   89.5834 H   0  0  0  0  0  0  0  0  0  0  0  0
   75.0604   59.1609   91.4058 H   0  0  0  0  0  0  0  0  0  0  0  0
   73.7796   58.9882   89.1894 H   0  0  0  0  0  0  0  0  0  0  0  0
   72.5041   58.2631   90.1914 H   0  0  0  0  0  0  0  0  0  0  0  0
   72.5269   60.2750   91.5701 H   0  0  0  0  0  0  0  0  0  0  0  0
   72.0219   60.5361   89.8941 H   0  0  0  0  0  0  0  0  0  0  0  0
   73.1560   56.1801   91.4174 H   0  0  0  0  0  0  0  0  0  0  0  0
   71.7192   56.7033   93.7907 H   0  0  0  0  0  0  0  0  0  0  0  0
   72.4541   54.0592   92.5469 H   0  0  0  0  0  0  0  0  0  0  0  0
   71.0312   54.9986   92.1648 H   0  0  0  0  0  0  0  0  0  0  0  0
   71.2165   54.3014   93.7563 H   0  0  0  0  0  0  0  0  0  0  0  0
   74.7725   55.0072   93.2070 H   0  0  0  0  0  0  0  0  0  0  0  0
   75.1701   54.1204   95.8412 H   0  0  0  0  0  0  0  0  0  0  0  0
   77.0766   54.7246   93.6136 H   0  0  0  0  0  0  0  0  0  0  0  0
   77.5672   54.0520   95.2032 H   0  0  0  0  0  0  0  0  0  0  0  0
   75.6709   52.6675   93.3710 H   0  0  0  0  0  0  0  0  0  0  0  0
   78.6273   52.2712   93.6807 H   0  0  0  0  0  0  0  0  0  0  0  0
   77.8245   52.9025   92.2629 H   0  0  0  0  0  0  0  0  0  0  0  0
   77.5510   51.2494   92.7585 H   0  0  0  0  0  0  0  0  0  0  0  0
   77.2713   51.7897   95.7666 H   0  0  0  0  0  0  0  0  0  0  0  0
   76.2141   50.7686   94.8218 H   0  0  0  0  0  0  0  0  0  0  0  0
   75.5503   52.0918   95.7500 H   0  0  0  0  0  0  0  0  0  0  0  0
   75.9504   57.2007   94.3018 H   0  0  0  0  0  0  0  0  0  0  0  0
   76.7974   58.1785   96.9693 H   0  0  0  0  0  0  0  0  0  0  0  0
   75.8174   59.1261   95.8763 H   0  0  0  0  0  0  0  0  0  0  0  0
   77.4817   58.7752   95.4765 H   0  0  0  0  0  0  0  0  0  0  0  0
  1  2  1  0  0  0  0
  1 36  1  0  0  0  0
  1 37  1  0  0  0  0
  1 38  1  0  0  0  0
  2  3  2  0  0  0  0
  4  5  1  0  0  0  0
  4  2  1  0  0  0  0
  4 39  1  0  0  0  0
  5  6  1  0  0  0  0
  5 40  1  1  0  0  0
  6  7  2  0  0  0  0
  8  9  1  0  0  0  0
  8  5  1  0  0  0  0
  8 41  1  0  0  0  0
  8 42  1  0  0  0  0
  9 10  1  0  0  0  0
  9 43  1  0  0  0  0
 10 44  1  0  0  0  0
 10 45  1  0  0  0  0
 10 46  1  0  0  0  0
 11  9  1  0  0  0  0
 11 47  1  0  0  0  0
 11 48  1  0  0  0  0
 11 49  1  0  0  0  0
 12  6  1  0  0  0  0
 12 13  1  0  0  0  0
 12 50  1  0  0  0  0
 13 14  1  0  0  0  0
 13 51  1  1  0  0  0
 14 15  2  0  0  0  0
 16 17  1  0  0  0  0
 16 13  1  0  0  0  0
 16 52  1  0  0  0  0
 16 53  1  0  0  0  0
 17 54  1  0  0  0  0
 17 55  1  0  0  0  0
 18 17  1  0  0  0  0
 18 19  1  0  0  0  0
 20 18  2  0  0  0  0
 21 14  1  0  0  0  0
 21 22  1  0  0  0  0
 21 56  1  0  0  0  0
 22 23  1  0  0  0  0
 22 57  1  1  0  0  0
 23 24  2  0  0  0  0
 25 22  1  0  0  0  0
 25 58  1  0  0  0  0
 25 59  1  0  0  0  0
 25 60  1  0  0  0  0
 26 23  1  0  0  0  0
 26 27  1  0  0  0  0
 26 61  1  0  0  0  0
 27 28  1  0  0  0  0
 27 62  1  1  0  0  0
 28 29  2  0  0  0  0
 30 27  1  0  0  0  0
 30 63  1  0  0  0  0
 30 64  1  0  0  0  0
 31 30  1  0  0  0  0
 31 33  1  0  0  0  0
 31 65  1  0  0  0  0
 32 31  1  0  0  0  0
 32 66  1  0  0  0  0
 32 67  1  0  0  0  0
 32 68  1  0  0  0  0
 33 69  1  0  0  0  0
 33 70  1  0  0  0  0
 33 71  1  0  0  0  0
 34 28  1  0  0  0  0
 34 35  1  0  0  0  0
 34 72  1  0  0  0  0
 35 73  1  0  0  0  0
 35 74  1  0  0  0  0
 35 75  1  0  0  0  0
M  CHG  1  19  -1
M  END
>  <MODEL>
       0

$$$$
selected_4mers/LEAL/62_noH.pdb
 OpenBabel03042517503D

 75 74  0  0  1  0  0  0  0  0999 V2000
   15.4070   44.6160   68.9570 C   0  0  0  0  0  0  0  0  0  0  0  0
   15.8720   43.3160   69.6350 C   0  0  0  0  0  0  0  0  0  0  0  0
   16.7620   42.6050   69.1430 O   0  0  0  0  0  0  0  0  0  0  0  0
   15.2730   43.0360   70.7900 N   0  0  0  0  0  0  0  0  0  0  0  0
   15.6940   41.9210   71.6290 C   0  0  2  0  0  0  0  0  0  0  0  0
   15.4750   40.5740   70.9330 C   0  0  0  0  0  0  0  0  0  0  0  0
   16.3030   39.6600   71.0520 O   0  0  0  0  0  0  0  0  0  0  0  0
   14.9940   41.9420   72.9950 C   0  0  0  0  0  0  0  0  0  0  0  0
   15.1790   43.1880   73.8660 C   0  0  0  0  0  0  0  0  0  0  0  0
   14.5400   43.0130   75.2470 C   0  0  0  0  0  0  0  0  0  0  0  0
   16.6490   43.5680   74.0250 C   0  0  0  0  0  0  0  0  0  0  0  0
   14.3730   40.4580   70.2040 N   0  0  0  0  0  0  0  0  0  0  0  0
   14.0590   39.2110   69.5100 C   0  0  2  0  0  0  0  0  0  0  0  0
   15.1090   39.0040   68.4250 C   0  0  0  0  0  0  0  0  0  0  0  0
   15.6100   37.8890   68.2460 O   0  0  0  0  0  0  0  0  0  0  0  0
   12.6640   39.2410   68.8730 C   0  0  0  0  0  0  0  0  0  0  0  0
   11.5090   39.4150   69.8460 C   0  0  0  0  0  0  0  0  0  0  0  0
   10.1790   39.7960   69.1640 C   0  0  0  0  0  0  0  0  0  0  0  0
   10.1100   39.7310   67.9170 O   0  0  0  0  0  0  0  0  0  0  0  0
    9.2120   40.1350   69.8710 O   0  0  0  0  0  0  0  0  0  0  0  0
   15.4590   40.0740   67.6990 N   0  0  0  0  0  0  0  0  0  0  0  0
   16.4720   39.9780   66.6140 C   0  0  2  0  0  0  0  0  0  0  0  0
   17.8470   39.6140   67.1890 C   0  0  0  0  0  0  0  0  0  0  0  0
   18.5820   38.7630   66.6570 O   0  0  0  0  0  0  0  0  0  0  0  0
   16.5430   41.2990   65.8190 C   0  0  0  0  0  0  0  0  0  0  0  0
   18.1580   40.2300   68.3110 N   0  0  0  0  0  0  0  0  0  0  0  0
   19.4400   40.0740   68.9710 C   0  0  2  0  0  0  0  0  0  0  0  0
   19.5810   38.6540   69.4800 C   0  0  0  0  0  0  0  0  0  0  0  0
   20.6490   38.0400   69.3250 O   0  0  0  0  0  0  0  0  0  0  0  0
   19.6040   41.1030   70.1080 C   0  0  0  0  0  0  0  0  0  0  0  0
   21.0400   41.4220   70.5710 C   0  0  0  0  0  0  0  0  0  0  0  0
   21.9180   42.0090   69.4310 C   0  0  0  0  0  0  0  0  0  0  0  0
   21.0270   42.3520   71.7110 C   0  0  0  0  0  0  0  0  0  0  0  0
   18.4960   38.1170   70.0360 N   0  0  0  0  0  0  0  0  0  0  0  0
   18.5160   36.7360   70.5190 C   0  0  0  0  0  0  0  0  0  0  0  0
   15.9435   44.7523   68.0413 H   0  0  0  0  0  0  0  0  0  0  0  0
   15.5952   45.4445   69.6074 H   0  0  0  0  0  0  0  0  0  0  0  0
   14.3588   44.5555   68.7507 H   0  0  0  0  0  0  0  0  0  0  0  0
   14.5223   43.5995   71.0869 H   0  0  0  0  0  0  0  0  0  0  0  0
   16.7444   42.0400   71.7947 H   0  0  0  0  0  0  0  0  0  0  0  0
   15.3560   41.1041   73.5534 H   0  0  0  0  0  0  0  0  0  0  0  0
   13.9490   41.9227   72.7658 H   0  0  0  0  0  0  0  0  0  0  0  0
   14.6807   43.9842   73.3535 H   0  0  0  0  0  0  0  0  0  0  0  0
   15.0310   42.2185   75.7691 H   0  0  0  0  0  0  0  0  0  0  0  0
   13.5026   42.7771   75.1327 H   0  0  0  0  0  0  0  0  0  0  0  0
   14.6400   43.9211   75.8040 H   0  0  0  0  0  0  0  0  0  0  0  0
   17.1669   42.7836   74.5363 H   0  0  0  0  0  0  0  0  0  0  0  0
   16.7243   44.4730   74.5908 H   0  0  0  0  0  0  0  0  0  0  0  0
   17.0862   43.7137   73.0593 H   0  0  0  0  0  0  0  0  0  0  0  0
   13.7578   41.2230   70.1294 H   0  0  0  0  0  0  0  0  0  0  0  0
   14.0651   38.4097   70.2191 H   0  0  0  0  0  0  0  0  0  0  0  0
   12.5195   38.3188   68.3500 H   0  0  0  0  0  0  0  0  0  0  0  0
   12.6475   40.1016   68.2373 H   0  0  0  0  0  0  0  0  0  0  0  0
   11.7658   40.1867   70.5413 H   0  0  0  0  0  0  0  0  0  0  0  0
   11.3568   38.4701   70.3245 H   0  0  0  0  0  0  0  0  0  0  0  0
   15.0365   40.9430   67.8877 H   0  0  0  0  0  0  0  0  0  0  0  0
   16.1744   39.1996   65.9428 H   0  0  0  0  0  0  0  0  0  0  0  0
   16.8395   42.0929   66.4722 H   0  0  0  0  0  0  0  0  0  0  0  0
   15.5810   41.5183   65.4050 H   0  0  0  0  0  0  0  0  0  0  0  0
   17.2577   41.2017   65.0287 H   0  0  0  0  0  0  0  0  0  0  0  0
   17.4887   40.8243   68.7209 H   0  0  0  0  0  0  0  0  0  0  0  0
   20.2221   40.2597   68.2648 H   0  0  0  0  0  0  0  0  0  0  0  0
   19.0674   40.7328   70.9565 H   0  0  0  0  0  0  0  0  0  0  0  0
   19.2355   42.0220   69.7023 H   0  0  0  0  0  0  0  0  0  0  0  0
   21.4746   40.4914   70.8711 H   0  0  0  0  0  0  0  0  0  0  0  0
   21.5069   42.9430   69.1091 H   0  0  0  0  0  0  0  0  0  0  0  0
   21.9378   41.3254   68.6081 H   0  0  0  0  0  0  0  0  0  0  0  0
   22.9138   42.1628   69.7909 H   0  0  0  0  0  0  0  0  0  0  0  0
   20.5920   43.2815   71.4081 H   0  0  0  0  0  0  0  0  0  0  0  0
   22.0293   42.5197   72.0460 H   0  0  0  0  0  0  0  0  0  0  0  0
   20.4503   41.9312   72.5080 H   0  0  0  0  0  0  0  0  0  0  0  0
   17.6749   38.6532   70.1225 H   0  0  0  0  0  0  0  0  0  0  0  0
   19.4823   36.3110   70.3442 H   0  0  0  0  0  0  0  0  0  0  0  0
   17.7758   36.1653   69.9982 H   0  0  0  0  0  0  0  0  0  0  0  0
   18.3046   36.7219   71.5678 H   0  0  0  0  0  0  0  0  0  0  0  0
  1  2  1  0  0  0  0
  1 36  1  0  0  0  0
  1 37  1  0  0  0  0
  1 38  1  0  0  0  0
  2  4  1  0  0  0  0
  3  2  2  0  0  0  0
  4  5  1  0  0  0  0
  4 39  1  0  0  0  0
  5  8  1  0  0  0  0
  5 40  1  1  0  0  0
  6  7  2  0  0  0  0
  6  5  1  0  0  0  0
  8  9  1  0  0  0  0
  8 41  1  0  0  0  0
  8 42  1  0  0  0  0
  9 11  1  0  0  0  0
  9 10  1  0  0  0  0
  9 43  1  0  0  0  0
 10 44  1  0  0  0  0
 10 45  1  0  0  0  0
 10 46  1  0  0  0  0
 11 47  1  0  0  0  0
 11 48  1  0  0  0  0
 11 49  1  0  0  0  0
 12  6  1  0  0  0  0
 12 50  1  0  0  0  0
 13 12  1  0  0  0  0
 13 51  1  1  0  0  0
 14 13  1  0  0  0  0
 15 14  2  0  0  0  0
 16 13  1  0  0  0  0
 16 17  1  0  0  0  0
 16 52  1  0  0  0  0
 16 53  1  0  0  0  0
 17 54  1  0  0  0  0
 17 55  1  0  0  0  0
 18 17  1  0  0  0  0
 18 20  1  0  0  0  0
 19 18  2  0  0  0  0
 21 14  1  0  0  0  0
 21 56  1  0  0  0  0
 22 23  1  0  0  0  0
 22 21  1  0  0  0  0
 22 57  1  6  0  0  0
 23 26  1  0  0  0  0
 24 23  2  0  0  0  0
 25 22  1  0  0  0  0
 25 58  1  0  0  0  0
 25 59  1  0  0  0  0
 25 60  1  0  0  0  0
 26 27  1  0  0  0  0
 26 61  1  0  0  0  0
 27 28  1  0  0  0  0
 27 30  1  0  0  0  0
 27 62  1  6  0  0  0
 28 34  1  0  0  0  0
 29 28  2  0  0  0  0
 30 31  1  0  0  0  0
 30 63  1  0  0  0  0
 30 64  1  0  0  0  0
 31 33  1  0  0  0  0
 31 65  1  0  0  0  0
 32 31  1  0  0  0  0
 32 66  1  0  0  0  0
 32 67  1  0  0  0  0
 32 68  1  0  0  0  0
 33 69  1  0  0  0  0
 33 70  1  0  0  0  0
 33 71  1  0  0  0  0
 34 35  1  0  0  0  0
 34 72  1  0  0  0  0
 35 73  1  0  0  0  0
 35 74  1  0  0  0  0
 35 75  1  0  0  0  0
M  CHG  1  20  -1
M  END
>  <MODEL>
       0

$$$$
selected_4mers/LEAL/63_noH.pdb
 OpenBabel03042517503D

 75 74  0  0  1  0  0  0  0  0999 V2000
    7.8800   19.5240  -27.6150 C   0  0  0  0  0  0  0  0  0  0  0  0
    6.3670   19.6390  -27.6820 C   0  0  0  0  0  0  0  0  0  0  0  0
    5.8300   20.5150  -28.3320 O   0  0  0  0  0  0  0  0  0  0  0  0
    5.6660   18.7060  -27.0480 N   0  0  0  0  0  0  0  0  0  0  0  0
    4.2070   18.7420  -27.0550 C   0  0  2  0  0  0  0  0  0  0  0  0
    3.6620   19.9640  -26.3040 C   0  0  0  0  0  0  0  0  0  0  0  0
    2.6620   20.5370  -26.7220 O   0  0  0  0  0  0  0  0  0  0  0  0
    3.6350   17.4330  -26.5200 C   0  0  0  0  0  0  0  0  0  0  0  0
    3.8990   16.2110  -27.4150 C   0  0  0  0  0  0  0  0  0  0  0  0
    3.5800   14.9370  -26.6480 C   0  0  0  0  0  0  0  0  0  0  0  0
    3.1250   16.2540  -28.6990 C   0  0  0  0  0  0  0  0  0  0  0  0
    4.3030   20.3430  -25.2040 N   0  0  0  0  0  0  0  0  0  0  0  0
    3.8850   21.5250  -24.4400 C   0  0  2  0  0  0  0  0  0  0  0  0
    4.0250   22.8200  -25.2470 C   0  0  0  0  0  0  0  0  0  0  0  0
    3.3500   23.8050  -24.9510 O   0  0  0  0  0  0  0  0  0  0  0  0
    4.6630   21.6350  -23.1500 C   0  0  0  0  0  0  0  0  0  0  0  0
    4.2070   20.6640  -22.1100 C   0  0  0  0  0  0  0  0  0  0  0  0
    4.9320   20.7710  -20.7680 C   0  0  0  0  0  0  0  0  0  0  0  0
    5.9930   21.4140  -20.6710 O   0  0  0  0  0  0  0  0  0  0  0  0
    4.3990   20.1890  -19.7830 O   0  0  0  0  0  0  0  0  0  0  0  0
    4.8950   22.8040  -26.2570 N   0  0  0  0  0  0  0  0  0  0  0  0
    5.1530   23.9940  -27.1000 C   0  0  2  0  0  0  0  0  0  0  0  0
    4.0600   24.2420  -28.1270 C   0  0  0  0  0  0  0  0  0  0  0  0
    3.9830   25.3130  -28.7160 O   0  0  0  0  0  0  0  0  0  0  0  0
    6.4740   23.8690  -27.7910 C   0  0  0  0  0  0  0  0  0  0  0  0
    3.1830   23.2830  -28.3140 N   0  0  0  0  0  0  0  0  0  0  0  0
    2.0560   23.4750  -29.2040 C   0  0  2  0  0  0  0  0  0  0  0  0
    1.0210   24.4080  -28.5500 C   0  0  0  0  0  0  0  0  0  0  0  0
    0.6330   24.2100  -27.4030 O   0  0  0  0  0  0  0  0  0  0  0  0
    1.4330   22.1380  -29.5170 C   0  0  0  0  0  0  0  0  0  0  0  0
    2.3220   21.1320  -30.2170 C   0  0  0  0  0  0  0  0  0  0  0  0
    1.7110   19.7640  -30.1350 C   0  0  0  0  0  0  0  0  0  0  0  0
    2.5480   21.4970  -31.6180 C   0  0  0  0  0  0  0  0  0  0  0  0
    0.5490   25.4000  -29.2950 N   0  0  0  0  0  0  0  0  0  0  0  0
   -0.3410   26.3990  -28.7570 C   0  0  0  0  0  0  0  0  0  0  0  0
    8.3235   20.3299  -28.1615 H   0  0  0  0  0  0  0  0  0  0  0  0
    8.1861   18.5921  -28.0425 H   0  0  0  0  0  0  0  0  0  0  0  0
    8.1962   19.5690  -26.5938 H   0  0  0  0  0  0  0  0  0  0  0  0
    6.1343   17.9843  -26.5694 H   0  0  0  0  0  0  0  0  0  0  0  0
    3.8834   18.8457  -28.0696 H   0  0  0  0  0  0  0  0  0  0  0  0
    4.0699   17.2452  -25.5606 H   0  0  0  0  0  0  0  0  0  0  0  0
    2.5731   17.5580  -26.4797 H   0  0  0  0  0  0  0  0  0  0  0  0
    4.9353   16.2274  -27.6809 H   0  0  0  0  0  0  0  0  0  0  0  0
    2.5426   14.9286  -26.3861 H   0  0  0  0  0  0  0  0  0  0  0  0
    4.1728   14.8985  -25.7581 H   0  0  0  0  0  0  0  0  0  0  0  0
    3.8002   14.0875  -27.2602 H   0  0  0  0  0  0  0  0  0  0  0  0
    2.0769   16.2394  -28.4843 H   0  0  0  0  0  0  0  0  0  0  0  0
    3.3785   15.4036  -29.2969 H   0  0  0  0  0  0  0  0  0  0  0  0
    3.3675   17.1497  -29.2318 H   0  0  0  0  0  0  0  0  0  0  0  0
    5.0766   19.8190  -24.8938 H   0  0  0  0  0  0  0  0  0  0  0  0
    2.8472   21.3935  -24.2152 H   0  0  0  0  0  0  0  0  0  0  0  0
    4.5471   22.6266  -22.7651 H   0  0  0  0  0  0  0  0  0  0  0  0
    5.6853   21.4104  -23.3720 H   0  0  0  0  0  0  0  0  0  0  0  0
    4.3559   19.6751  -22.4904 H   0  0  0  0  0  0  0  0  0  0  0  0
    3.1799   20.8925  -21.9155 H   0  0  0  0  0  0  0  0  0  0  0  0
    5.3835   21.9712  -26.4494 H   0  0  0  0  0  0  0  0  0  0  0  0
    5.1649   24.8356  -26.4394 H   0  0  0  0  0  0  0  0  0  0  0  0
    6.4538   23.0257  -28.4493 H   0  0  0  0  0  0  0  0  0  0  0  0
    7.2462   23.7345  -27.0626 H   0  0  0  0  0  0  0  0  0  0  0  0
    6.6668   24.7574  -28.3553 H   0  0  0  0  0  0  0  0  0  0  0  0
    3.2923   22.4245  -27.8446 H   0  0  0  0  0  0  0  0  0  0  0  0
    2.3926   23.9269  -30.1136 H   0  0  0  0  0  0  0  0  0  0  0  0
    1.1128   21.7031  -28.5933 H   0  0  0  0  0  0  0  0  0  0  0  0
    0.6404   22.3462  -30.2050 H   0  0  0  0  0  0  0  0  0  0  0  0
    3.2703   21.1299  -29.7213 H   0  0  0  0  0  0  0  0  0  0  0  0
    0.7628   19.7666  -30.6308 H   0  0  0  0  0  0  0  0  0  0  0  0
    1.5759   19.4947  -29.1083 H   0  0  0  0  0  0  0  0  0  0  0  0
    2.3586   19.0552  -30.6074 H   0  0  0  0  0  0  0  0  0  0  0  0
    1.6136   21.5069  -32.1392 H   0  0  0  0  0  0  0  0  0  0  0  0
    3.2019   20.7820  -32.0718 H   0  0  0  0  0  0  0  0  0  0  0  0
    2.9935   22.4687  -31.6660 H   0  0  0  0  0  0  0  0  0  0  0  0
    0.8140   25.4553  -30.2416 H   0  0  0  0  0  0  0  0  0  0  0  0
   -0.5257   26.1927  -27.7234 H   0  0  0  0  0  0  0  0  0  0  0  0
   -1.2656   26.3800  -29.2952 H   0  0  0  0  0  0  0  0  0  0  0  0
    0.1079   27.3655  -28.8531 H   0  0  0  0  0  0  0  0  0  0  0  0
  1 36  1  0  0  0  0
  1 37  1  0  0  0  0
  1 38  1  0  0  0  0
  2  1  1  0  0  0  0
  2  4  1  0  0  0  0
  3  2  2  0  0  0  0
  4 39  1  0  0  0  0
  5  4  1  0  0  0  0
  5  8  1  0  0  0  0
  5  6  1  0  0  0  0
  5 40  1  6  0  0  0
  6 12  1  0  0  0  0
  7  6  2  0  0  0  0
  8 41  1  0  0  0  0
  8 42  1  0  0  0  0
  9 10  1  0  0  0  0
  9  8  1  0  0  0  0
  9 43  1  0  0  0  0
 10 44  1  0  0  0  0
 10 45  1  0  0  0  0
 10 46  1  0  0  0  0
 11  9  1  0  0  0  0
 11 47  1  0  0  0  0
 11 48  1  0  0  0  0
 11 49  1  0  0  0  0
 12 13  1  0  0  0  0
 12 50  1  0  0  0  0
 13 16  1  0  0  0  0
 13 51  1  1  0  0  0
 14 15  2  0  0  0  0
 14 13  1  0  0  0  0
 16 17  1  0  0  0  0
 16 52  1  0  0  0  0
 16 53  1  0  0  0  0
 17 18  1  0  0  0  0
 17 54  1  0  0  0  0
 17 55  1  0  0  0  0
 18 19  2  0  0  0  0
 18 20  1  0  0  0  0
 21 14  1  0  0  0  0
 21 56  1  0  0  0  0
 22 21  1  0  0  0  0
 22 57  1  1  0  0  0
 23 22  1  0  0  0  0
 24 23  2  0  0  0  0
 25 22  1  0  0  0  0
 25 58  1  0  0  0  0
 25 59  1  0  0  0  0
 25 60  1  0  0  0  0
 26 23  1  0  0  0  0
 26 61  1  0  0  0  0
 27 28  1  0  0  0  0
 27 26  1  0  0  0  0
 27 62  1  6  0  0  0
 28 29  2  0  0  0  0
 30 27  1  0  0  0  0
 30 63  1  0  0  0  0
 30 64  1  0  0  0  0
 31 32  1  0  0  0  0
 31 30  1  0  0  0  0
 31 65  1  0  0  0  0
 32 66  1  0  0  0  0
 32 67  1  0  0  0  0
 32 68  1  0  0  0  0
 33 31  1  0  0  0  0
 33 69  1  0  0  0  0
 33 70  1  0  0  0  0
 33 71  1  0  0  0  0
 34 35  1  0  0  0  0
 34 28  1  0  0  0  0
 34 72  1  0  0  0  0
 35 73  1  0  0  0  0
 35 74  1  0  0  0  0
 35 75  1  0  0  0  0
M  CHG  1  20  -1
M  END
>  <MODEL>
       0

$$$$
selected_4mers/LEAL/64_noH.pdb
 OpenBabel03042517503D

 75 74  0  0  1  0  0  0  0  0999 V2000
   15.4470   20.7400   12.0550 C   0  0  0  0  0  0  0  0  0  0  0  0
   16.8570   20.5530   12.6170 C   0  0  0  0  0  0  0  0  0  0  0  0
   17.1930   19.4490   13.0630 O   0  0  0  0  0  0  0  0  0  0  0  0
   17.6990   21.5840   12.5630 N   0  0  0  0  0  0  0  0  0  0  0  0
   19.0860   21.5860   13.0450 C   0  0  2  0  0  0  0  0  0  0  0  0
   19.8570   20.2870   12.7340 C   0  0  0  0  0  0  0  0  0  0  0  0
   20.5750   19.7120   13.5580 O   0  0  0  0  0  0  0  0  0  0  0  0
   19.1430   21.9090   14.5520 C   0  0  0  0  0  0  0  0  0  0  0  0
   18.9660   23.3150   15.1490 C   0  0  0  0  0  0  0  0  0  0  0  0
   19.4290   23.2520   16.6130 C   0  0  0  0  0  0  0  0  0  0  0  0
   19.7090   24.4230   14.4070 C   0  0  0  0  0  0  0  0  0  0  0  0
   19.6940   19.8070   11.5120 N   0  0  0  0  0  0  0  0  0  0  0  0
   20.3930   18.5970   11.0920 C   0  0  2  0  0  0  0  0  0  0  0  0
   21.6260   18.8640   10.2270 C   0  0  0  0  0  0  0  0  0  0  0  0
   22.3340   17.9030    9.8690 O   0  0  0  0  0  0  0  0  0  0  0  0
   19.3950   17.6390   10.4140 C   0  0  0  0  0  0  0  0  0  0  0  0
   19.1340   17.6730    8.9060 C   0  0  0  0  0  0  0  0  0  0  0  0
   18.3590   18.8870    8.3810 C   0  0  0  0  0  0  0  0  0  0  0  0
   17.5620   18.8030    7.4220 O   0  0  0  0  0  0  0  0  0  0  0  0
   18.5540   19.9550    8.9550 O   0  0  0  0  0  0  0  0  0  0  0  0
   21.7960   20.1140    9.7620 N   0  0  0  0  0  0  0  0  0  0  0  0
   23.0500   20.4780    9.0880 C   0  0  2  0  0  0  0  0  0  0  0  0
   24.0870   21.3100    9.8880 C   0  0  0  0  0  0  0  0  0  0  0  0
   24.9430   22.0320    9.3270 O   0  0  0  0  0  0  0  0  0  0  0  0
   22.7630   21.1490    7.7130 C   0  0  0  0  0  0  0  0  0  0  0  0
   24.0760   21.2010   11.2140 N   0  0  0  0  0  0  0  0  0  0  0  0
   24.9790   22.0250   12.0420 C   0  0  2  0  0  0  0  0  0  0  0  0
   26.4760   21.6860   11.9400 C   0  0  0  0  0  0  0  0  0  0  0  0
   27.3320   22.5420   12.2040 O   0  0  0  0  0  0  0  0  0  0  0  0
   24.5370   21.9360   13.5050 C   0  0  0  0  0  0  0  0  0  0  0  0
   24.3530   23.2090   14.3370 C   0  0  0  0  0  0  0  0  0  0  0  0
   23.5520   24.2720   13.5590 C   0  0  0  0  0  0  0  0  0  0  0  0
   23.6830   22.8980   15.7030 C   0  0  0  0  0  0  0  0  0  0  0  0
   26.8330   20.4300   11.6140 N   0  0  0  0  0  0  0  0  0  0  0  0
   28.2390   20.0450   11.4970 C   0  0  0  0  0  0  0  0  0  0  0  0
   15.3291   21.7479   11.7157 H   0  0  0  0  0  0  0  0  0  0  0  0
   14.7279   20.5348   12.8203 H   0  0  0  0  0  0  0  0  0  0  0  0
   15.2976   20.0681   11.2358 H   0  0  0  0  0  0  0  0  0  0  0  0
   17.3613   22.4186   12.1646 H   0  0  0  0  0  0  0  0  0  0  0  0
   19.5837   22.3601   12.4991 H   0  0  0  0  0  0  0  0  0  0  0  0
   20.1050   21.5757   14.8814 H   0  0  0  0  0  0  0  0  0  0  0  0
   18.2448   21.4359   14.8900 H   0  0  0  0  0  0  0  0  0  0  0  0
   17.9326   23.5776   15.0594 H   0  0  0  0  0  0  0  0  0  0  0  0
   20.4650   22.9866   16.6483 H   0  0  0  0  0  0  0  0  0  0  0  0
   18.8545   22.5173   17.1375 H   0  0  0  0  0  0  0  0  0  0  0  0
   19.2899   24.2082   17.0725 H   0  0  0  0  0  0  0  0  0  0  0  0
   20.7617   24.2360   14.4482 H   0  0  0  0  0  0  0  0  0  0  0  0
   19.4958   25.3653   14.8669 H   0  0  0  0  0  0  0  0  0  0  0  0
   19.3902   24.4443   13.3858 H   0  0  0  0  0  0  0  0  0  0  0  0
   19.0964   20.2698   10.8811 H   0  0  0  0  0  0  0  0  0  0  0  0
   20.7857   18.1294   11.9707 H   0  0  0  0  0  0  0  0  0  0  0  0
   19.7321   16.6483   10.6373 H   0  0  0  0  0  0  0  0  0  0  0  0
   18.4590   17.9719   10.8114 H   0  0  0  0  0  0  0  0  0  0  0  0
   20.0818   17.6512    8.4100 H   0  0  0  0  0  0  0  0  0  0  0  0
   18.5117   16.8264    8.7037 H   0  0  0  0  0  0  0  0  0  0  0  0
   21.0826   20.7833    9.8727 H   0  0  0  0  0  0  0  0  0  0  0  0
   23.5356   19.5321    8.9684 H   0  0  0  0  0  0  0  0  0  0  0  0
   22.2784   22.0900    7.8696 H   0  0  0  0  0  0  0  0  0  0  0  0
   22.1284   20.5134    7.1315 H   0  0  0  0  0  0  0  0  0  0  0  0
   23.6850   21.3048    7.1928 H   0  0  0  0  0  0  0  0  0  0  0  0
   23.4607   20.5657   11.6466 H   0  0  0  0  0  0  0  0  0  0  0  0
   24.8926   23.0177   11.6522 H   0  0  0  0  0  0  0  0  0  0  0  0
   25.2683   21.3412   14.0112 H   0  0  0  0  0  0  0  0  0  0  0  0
   23.5427   21.5471   13.4343 H   0  0  0  0  0  0  0  0  0  0  0  0
   25.3257   23.6091   14.5338 H   0  0  0  0  0  0  0  0  0  0  0  0
   22.5723   23.8969   13.3484 H   0  0  0  0  0  0  0  0  0  0  0  0
   24.0536   24.4950   12.6405 H   0  0  0  0  0  0  0  0  0  0  0  0
   23.4742   25.1618   14.1481 H   0  0  0  0  0  0  0  0  0  0  0  0
   22.7056   22.4952   15.5374 H   0  0  0  0  0  0  0  0  0  0  0  0
   23.6053   23.7987   16.2754 H   0  0  0  0  0  0  0  0  0  0  0  0
   24.2764   22.1858   16.2374 H   0  0  0  0  0  0  0  0  0  0  0  0
   26.1335   19.7567   11.4510 H   0  0  0  0  0  0  0  0  0  0  0  0
   28.8592   20.8917   11.7054 H   0  0  0  0  0  0  0  0  0  0  0  0
   28.4321   19.6973   10.5037 H   0  0  0  0  0  0  0  0  0  0  0  0
   28.4544   19.2643   12.1963 H   0  0  0  0  0  0  0  0  0  0  0  0
  1  2  1  0  0  0  0
  1 36  1  0  0  0  0
  1 37  1  0  0  0  0
  1 38  1  0  0  0  0
  2  3  2  0  0  0  0
  4  2  1  0  0  0  0
  4  5  1  0  0  0  0
  4 39  1  0  0  0  0
  5  8  1  0  0  0  0
  5 40  1  6  0  0  0
  6  5  1  0  0  0  0
  6  7  2  0  0  0  0
  8  9  1  0  0  0  0
  8 41  1  0  0  0  0
  8 42  1  0  0  0  0
  9 10  1  0  0  0  0
  9 43  1  0  0  0  0
 10 44  1  0  0  0  0
 10 45  1  0  0  0  0
 10 46  1  0  0  0  0
 11  9  1  0  0  0  0
 11 47  1  0  0  0  0
 11 48  1  0  0  0  0
 11 49  1  0  0  0  0
 12  6  1  0  0  0  0
 12 50  1  0  0  0  0
 13 12  1  0  0  0  0
 13 51  1  1  0  0  0
 14 13  1  0  0  0  0
 15 14  2  0  0  0  0
 16 13  1  0  0  0  0
 16 52  1  0  0  0  0
 16 53  1  0  0  0  0
 17 16  1  0  0  0  0
 17 54  1  0  0  0  0
 17 55  1  0  0  0  0
 18 17  1  0  0  0  0
 18 20  1  0  0  0  0
 19 18  2  0  0  0  0
 21 14  1  0  0  0  0
 21 56  1  0  0  0  0
 22 21  1  0  0  0  0
 22 23  1  0  0  0  0
 22 57  1  6  0  0  0
 23 26  1  0  0  0  0
 24 23  2  0  0  0  0
 25 22  1  0  0  0  0
 25 58  1  0  0  0  0
 25 59  1  0  0  0  0
 25 60  1  0  0  0  0
 26 27  1  0  0  0  0
 26 61  1  0  0  0  0
 27 30  1  0  0  0  0
 27 62  1  6  0  0  0
 28 27  1  0  0  0  0
 28 29  2  0  0  0  0
 30 31  1  0  0  0  0
 30 63  1  0  0  0  0
 30 64  1  0  0  0  0
 31 33  1  0  0  0  0
 31 65  1  0  0  0  0
 32 31  1  0  0  0  0
 32 66  1  0  0  0  0
 32 67  1  0  0  0  0
 32 68  1  0  0  0  0
 33 69  1  0  0  0  0
 33 70  1  0  0  0  0
 33 71  1  0  0  0  0
 34 28  1  0  0  0  0
 34 72  1  0  0  0  0
 35 34  1  0  0  0  0
 35 73  1  0  0  0  0
 35 74  1  0  0  0  0
 35 75  1  0  0  0  0
M  CHG  1  20  -1
M  END
>  <MODEL>
       0

$$$$
