selected_4mers/LEAV/295_noH.pdb
 OpenBabel03042517593D

 72 71  0  0  1  0  0  0  0  0999 V2000
   33.2220   32.8360   56.0050 C   0  0  0  0  0  0  0  0  0  0  0  0
   33.2230   33.6900   54.7400 C   0  0  0  0  0  0  0  0  0  0  0  0
   33.6050   33.2050   53.6860 O   0  0  0  0  0  0  0  0  0  0  0  0
   32.7770   34.9420   54.8390 N   0  0  0  0  0  0  0  0  0  0  0  0
   32.7460   35.8490   53.6910 C   0  0  2  0  0  0  0  0  0  0  0  0
   33.7740   36.9820   53.7810 C   0  0  0  0  0  0  0  0  0  0  0  0
   33.7100   37.9310   53.0060 O   0  0  0  0  0  0  0  0  0  0  0  0
   31.3390   36.4360   53.5300 C   0  0  0  0  0  0  0  0  0  0  0  0
   30.2300   35.4120   53.2890 C   0  0  0  0  0  0  0  0  0  0  0  0
   28.8640   36.0840   53.3110 C   0  0  0  0  0  0  0  0  0  0  0  0
   30.4590   34.6720   51.9800 C   0  0  0  0  0  0  0  0  0  0  0  0
   34.7370   36.8760   54.6950 N   0  0  0  0  0  0  0  0  0  0  0  0
   35.7380   37.9340   54.8630 C   0  0  2  0  0  0  0  0  0  0  0  0
   36.5310   38.1700   53.5730 C   0  0  0  0  0  0  0  0  0  0  0  0
   37.0650   37.2320   52.9820 O   0  0  0  0  0  0  0  0  0  0  0  0
   36.6860   37.6220   56.0240 C   0  0  0  0  0  0  0  0  0  0  0  0
   37.5620   38.8070   56.4280 C   0  0  0  0  0  0  0  0  0  0  0  0
   38.5090   38.4960   57.5740 C   0  0  0  0  0  0  0  0  0  0  0  0
   39.5590   39.1650   57.6710 O   0  0  0  0  0  0  0  0  0  0  0  0
   38.2120   37.5920   58.3810 O   0  0  0  0  0  0  0  0  0  0  0  0
   36.5640   39.4310   53.1380 N   0  0  0  0  0  0  0  0  0  0  0  0
   37.2780   39.8550   51.9290 C   0  0  2  0  0  0  0  0  0  0  0  0
   36.7160   39.2970   50.6130 C   0  0  0  0  0  0  0  0  0  0  0  0
   37.3530   39.4230   49.5690 O   0  0  0  0  0  0  0  0  0  0  0  0
   38.7620   39.5290   52.0510 C   0  0  0  0  0  0  0  0  0  0  0  0
   35.5220   38.7110   50.6510 N   0  0  0  0  0  0  0  0  0  0  0  0
   34.9270   38.1110   49.4590 C   0  0  2  0  0  0  0  0  0  0  0  0
   34.3020   39.1580   48.5360 C   0  0  0  0  0  0  0  0  0  0  0  0
   34.5410   39.1420   47.3330 O   0  0  0  0  0  0  0  0  0  0  0  0
   33.8740   37.0370   49.8360 C   0  0  0  0  0  0  0  0  0  0  0  0
   33.0410   36.6160   48.6210 C   0  0  0  0  0  0  0  0  0  0  0  0
   34.5620   35.8250   50.4650 C   0  0  0  0  0  0  0  0  0  0  0  0
   33.5240   40.0740   49.1020 N   0  0  0  0  0  0  0  0  0  0  0  0
   32.8260   41.0840   48.3110 C   0  0  0  0  0  0  0  0  0  0  0  0
   33.6032   31.8623   55.7783 H   0  0  0  0  0  0  0  0  0  0  0  0
   32.2223   32.7501   56.3765 H   0  0  0  0  0  0  0  0  0  0  0  0
   33.8399   33.2970   56.7470 H   0  0  0  0  0  0  0  0  0  0  0  0
   32.4583   35.2669   55.7120 H   0  0  0  0  0  0  0  0  0  0  0  0
   33.0083   35.2653   52.8334 H   0  0  0  0  0  0  0  0  0  0  0  0
   31.1019   36.9768   54.4223 H   0  0  0  0  0  0  0  0  0  0  0  0
   31.3718   37.0497   52.6541 H   0  0  0  0  0  0  0  0  0  0  0  0
   30.2543   34.6931   54.0812 H   0  0  0  0  0  0  0  0  0  0  0  0
   28.8111   36.8101   52.5269 H   0  0  0  0  0  0  0  0  0  0  0  0
   28.7193   36.5670   54.2548 H   0  0  0  0  0  0  0  0  0  0  0  0
   28.1017   35.3472   53.1668 H   0  0  0  0  0  0  0  0  0  0  0  0
   30.4396   35.3688   51.1682 H   0  0  0  0  0  0  0  0  0  0  0  0
   29.6879   33.9430   51.8428 H   0  0  0  0  0  0  0  0  0  0  0  0
   31.4106   34.1836   52.0082 H   0  0  0  0  0  0  0  0  0  0  0  0
   34.7773   36.0752   55.2663 H   0  0  0  0  0  0  0  0  0  0  0  0
   35.2082   38.8344   55.0941 H   0  0  0  0  0  0  0  0  0  0  0  0
   37.3230   36.8129   55.7335 H   0  0  0  0  0  0  0  0  0  0  0  0
   36.0788   37.3755   56.8698 H   0  0  0  0  0  0  0  0  0  0  0  0
   36.9249   39.6139   56.7243 H   0  0  0  0  0  0  0  0  0  0  0  0
   38.1647   39.0570   55.5800 H   0  0  0  0  0  0  0  0  0  0  0  0
   36.0824   40.1147   53.6574 H   0  0  0  0  0  0  0  0  0  0  0  0
   37.1303   40.9132   51.8710 H   0  0  0  0  0  0  0  0  0  0  0  0
   38.8907   38.4683   52.1078 H   0  0  0  0  0  0  0  0  0  0  0  0
   39.1555   39.9839   52.9359 H   0  0  0  0  0  0  0  0  0  0  0  0
   39.2815   39.9060   51.1949 H   0  0  0  0  0  0  0  0  0  0  0  0
   35.0280   38.6810   51.5021 H   0  0  0  0  0  0  0  0  0  0  0  0
   35.7250   37.6389   48.9250 H   0  0  0  0  0  0  0  0  0  0  0  0
   33.2038   37.4661   50.5513 H   0  0  0  0  0  0  0  0  0  0  0  0
   33.6818   36.1810   47.8827 H   0  0  0  0  0  0  0  0  0  0  0  0
   32.5528   37.4742   48.2086 H   0  0  0  0  0  0  0  0  0  0  0  0
   32.3067   35.8988   48.9232 H   0  0  0  0  0  0  0  0  0  0  0  0
   35.2347   35.3891   49.7562 H   0  0  0  0  0  0  0  0  0  0  0  0
   33.8245   35.1031   50.7476 H   0  0  0  0  0  0  0  0  0  0  0  0
   35.1082   36.1347   51.3314 H   0  0  0  0  0  0  0  0  0  0  0  0
   33.4151   40.0720   50.0805 H   0  0  0  0  0  0  0  0  0  0  0  0
   33.0520   40.9442   47.2745 H   0  0  0  0  0  0  0  0  0  0  0  0
   33.1436   42.0589   48.6170 H   0  0  0  0  0  0  0  0  0  0  0  0
   31.7710   40.9889   48.4620 H   0  0  0  0  0  0  0  0  0  0  0  0
  1 35  1  0  0  0  0
  1 36  1  0  0  0  0
  1 37  1  0  0  0  0
  2  4  1  0  0  0  0
  2  1  1  0  0  0  0
  3  2  2  0  0  0  0
  4 38  1  0  0  0  0
  5  6  1  0  0  0  0
  5  4  1  0  0  0  0
  5 39  1  6  0  0  0
  6 12  1  0  0  0  0
  7  6  2  0  0  0  0
  8  5  1  0  0  0  0
  8 40  1  0  0  0  0
  8 41  1  0  0  0  0
  9 10  1  0  0  0  0
  9  8  1  0  0  0  0
  9 42  1  0  0  0  0
 10 43  1  0  0  0  0
 10 44  1  0  0  0  0
 10 45  1  0  0  0  0
 11  9  1  0  0  0  0
 11 46  1  0  0  0  0
 11 47  1  0  0  0  0
 11 48  1  0  0  0  0
 12 13  1  0  0  0  0
 12 49  1  0  0  0  0
 13 16  1  0  0  0  0
 13 50  1  1  0  0  0
 14 13  1  0  0  0  0
 15 14  2  0  0  0  0
 16 17  1  0  0  0  0
 16 51  1  0  0  0  0
 16 52  1  0  0  0  0
 17 18  1  0  0  0  0
 17 53  1  0  0  0  0
 17 54  1  0  0  0  0
 18 19  2  0  0  0  0
 18 20  1  0  0  0  0
 21 14  1  0  0  0  0
 21 55  1  0  0  0  0
 22 25  1  0  0  0  0
 22 21  1  0  0  0  0
 22 56  1  6  0  0  0
 23 26  1  0  0  0  0
 23 22  1  0  0  0  0
 24 23  2  0  0  0  0
 25 57  1  0  0  0  0
 25 58  1  0  0  0  0
 25 59  1  0  0  0  0
 26 60  1  0  0  0  0
 27 30  1  0  0  0  0
 27 26  1  0  0  0  0
 27 61  1  6  0  0  0
 28 33  1  0  0  0  0
 28 27  1  0  0  0  0
 29 28  2  0  0  0  0
 30 32  1  0  0  0  0
 30 62  1  0  0  0  0
 31 30  1  0  0  0  0
 31 63  1  0  0  0  0
 31 64  1  0  0  0  0
 31 65  1  0  0  0  0
 32 66  1  0  0  0  0
 32 67  1  0  0  0  0
 32 68  1  0  0  0  0
 33 69  1  0  0  0  0
 34 33  1  0  0  0  0
 34 70  1  0  0  0  0
 34 71  1  0  0  0  0
 34 72  1  0  0  0  0
M  CHG  1  20  -1
M  END
>  <MODEL>
       0

$$$$
selected_4mers/LEAV/296_noH.pdb
 OpenBabel03042517593D

 72 71  0  0  1  0  0  0  0  0999 V2000
   96.9600    4.0860  -26.4110 C   0  0  0  0  0  0  0  0  0  0  0  0
   97.7060    2.7670  -26.6270 C   0  0  0  0  0  0  0  0  0  0  0  0
   97.1030    1.6910  -26.6790 O   0  0  0  0  0  0  0  0  0  0  0  0
   99.0250    2.8550  -26.7450 N   0  0  0  0  0  0  0  0  0  0  0  0
   99.8490    1.6680  -26.9470 C   0  0  2  0  0  0  0  0  0  0  0  0
   99.8190    0.7240  -25.7430 C   0  0  0  0  0  0  0  0  0  0  0  0
   99.7360   -0.4920  -25.9080 O   0  0  0  0  0  0  0  0  0  0  0  0
  101.2900    2.0830  -27.2570 C   0  0  0  0  0  0  0  0  0  0  0  0
  101.4560    2.9340  -28.5190 C   0  0  0  0  0  0  0  0  0  0  0  0
  102.9270    3.2980  -28.7160 C   0  0  0  0  0  0  0  0  0  0  0  0
  100.9270    2.1650  -29.7290 C   0  0  0  0  0  0  0  0  0  0  0  0
   99.8760    1.2750  -24.5320 N   0  0  0  0  0  0  0  0  0  0  0  0
   99.8420    0.4360  -23.3400 C   0  0  2  0  0  0  0  0  0  0  0  0
   98.5010   -0.2890  -23.2490 C   0  0  0  0  0  0  0  0  0  0  0  0
   98.4410   -1.4440  -22.8290 O   0  0  0  0  0  0  0  0  0  0  0  0
  100.0800    1.2710  -22.0730 C   0  0  0  0  0  0  0  0  0  0  0  0
   99.9450    0.4630  -20.7740 C   0  0  0  0  0  0  0  0  0  0  0  0
  100.8010    1.0120  -19.6360 C   0  0  0  0  0  0  0  0  0  0  0  0
  101.2340    2.1810  -19.7220 O   0  0  0  0  0  0  0  0  0  0  0  0
  101.0320    0.2730  -18.6510 O   0  0  0  0  0  0  0  0  0  0  0  0
   97.4300    0.3880  -23.6500 N   0  0  0  0  0  0  0  0  0  0  0  0
   96.0940   -0.2090  -23.6200 C   0  0  2  0  0  0  0  0  0  0  0  0
   96.0380   -1.4140  -24.5640 C   0  0  0  0  0  0  0  0  0  0  0  0
   95.4660   -2.4510  -24.2310 O   0  0  0  0  0  0  0  0  0  0  0  0
   95.0490    0.8230  -24.0250 C   0  0  0  0  0  0  0  0  0  0  0  0
   96.6340   -1.2700  -25.7440 N   0  0  0  0  0  0  0  0  0  0  0  0
   96.6570   -2.3550  -26.7180 C   0  0  2  0  0  0  0  0  0  0  0  0
   97.4580   -3.5250  -26.1510 C   0  0  0  0  0  0  0  0  0  0  0  0
   97.0430   -4.6790  -26.2590 O   0  0  0  0  0  0  0  0  0  0  0  0
   97.2840   -1.8980  -28.0560 C   0  0  0  0  0  0  0  0  0  0  0  0
   97.3930   -3.0780  -29.0160 C   0  0  0  0  0  0  0  0  0  0  0  0
   96.4380   -0.7990  -28.6730 C   0  0  0  0  0  0  0  0  0  0  0  0
   98.5990   -3.2300  -25.5330 N   0  0  0  0  0  0  0  0  0  0  0  0
   99.4160   -4.2870  -24.9510 C   0  0  0  0  0  0  0  0  0  0  0  0
   97.6611    4.8942  -26.3974 H   0  0  0  0  0  0  0  0  0  0  0  0
   96.4373    4.0515  -25.4780 H   0  0  0  0  0  0  0  0  0  0  0  0
   96.2601    4.2343  -27.2066 H   0  0  0  0  0  0  0  0  0  0  0  0
   99.4560    3.7388  -26.6952 H   0  0  0  0  0  0  0  0  0  0  0  0
   99.4395    1.1310  -27.7769 H   0  0  0  0  0  0  0  0  0  0  0  0
  101.6607    2.6451  -26.4254 H   0  0  0  0  0  0  0  0  0  0  0  0
  101.8333    1.1777  -27.4307 H   0  0  0  0  0  0  0  0  0  0  0  0
  100.8957    3.8393  -28.4126 H   0  0  0  0  0  0  0  0  0  0  0  0
  103.5043    2.4036  -28.8245 H   0  0  0  0  0  0  0  0  0  0  0  0
  103.2756    3.8466  -27.8661 H   0  0  0  0  0  0  0  0  0  0  0  0
  103.0311    3.8986  -29.5954 H   0  0  0  0  0  0  0  0  0  0  0  0
  101.4811    1.2570  -29.8446 H   0  0  0  0  0  0  0  0  0  0  0  0
  101.0370    2.7644  -30.6085 H   0  0  0  0  0  0  0  0  0  0  0  0
   99.8925    1.9352  -29.5811 H   0  0  0  0  0  0  0  0  0  0  0  0
   99.9414    2.2531  -24.4412 H   0  0  0  0  0  0  0  0  0  0  0  0
  100.6272   -0.2869  -23.4151 H   0  0  0  0  0  0  0  0  0  0  0  0
   99.3655    2.0672  -22.0527 H   0  0  0  0  0  0  0  0  0  0  0  0
  101.0867    1.6310  -22.1172 H   0  0  0  0  0  0  0  0  0  0  0  0
  100.2431   -0.5462  -20.9681 H   0  0  0  0  0  0  0  0  0  0  0  0
   98.9229    0.5261  -20.4637 H   0  0  0  0  0  0  0  0  0  0  0  0
   97.5376    1.3113  -23.9743 H   0  0  0  0  0  0  0  0  0  0  0  0
   95.8840   -0.5385  -22.6239 H   0  0  0  0  0  0  0  0  0  0  0  0
   95.2484    1.1607  -25.0205 H   0  0  0  0  0  0  0  0  0  0  0  0
   95.0886    1.6538  -23.3519 H   0  0  0  0  0  0  0  0  0  0  0  0
   94.0761    0.3793  -23.9870 H   0  0  0  0  0  0  0  0  0  0  0  0
   97.0681   -0.4143  -25.9643 H   0  0  0  0  0  0  0  0  0  0  0  0
   95.6485   -2.6566  -26.9101 H   0  0  0  0  0  0  0  0  0  0  0  0
   98.2662   -1.5176  -27.8677 H   0  0  0  0  0  0  0  0  0  0  0  0
   96.4166   -3.4687  -29.2132 H   0  0  0  0  0  0  0  0  0  0  0  0
   98.0003   -3.8411  -28.5757 H   0  0  0  0  0  0  0  0  0  0  0  0
   97.8386   -2.7521  -29.9326 H   0  0  0  0  0  0  0  0  0  0  0  0
   95.4535   -1.1718  -28.8645 H   0  0  0  0  0  0  0  0  0  0  0  0
   96.8834   -0.4794  -29.5919 H   0  0  0  0  0  0  0  0  0  0  0  0
   96.3808    0.0289  -27.9975 H   0  0  0  0  0  0  0  0  0  0  0  0
   98.8928   -2.2926  -25.4686 H   0  0  0  0  0  0  0  0  0  0  0  0
   98.9448   -5.2335  -25.1155 H   0  0  0  0  0  0  0  0  0  0  0  0
   99.5208   -4.1187  -23.8995 H   0  0  0  0  0  0  0  0  0  0  0  0
  100.3823   -4.2849  -25.4106 H   0  0  0  0  0  0  0  0  0  0  0  0
  1 35  1  0  0  0  0
  1 36  1  0  0  0  0
  1 37  1  0  0  0  0
  2  1  1  0  0  0  0
  3  2  2  0  0  0  0
  4  2  1  0  0  0  0
  4 38  1  0  0  0  0
  5  4  1  0  0  0  0
  5  6  1  0  0  0  0
  5 39  1  6  0  0  0
  6 12  1  0  0  0  0
  7  6  2  0  0  0  0
  8  5  1  0  0  0  0
  8 40  1  0  0  0  0
  8 41  1  0  0  0  0
  9  8  1  0  0  0  0
  9 42  1  0  0  0  0
 10  9  1  0  0  0  0
 10 43  1  0  0  0  0
 10 44  1  0  0  0  0
 10 45  1  0  0  0  0
 11  9  1  0  0  0  0
 11 46  1  0  0  0  0
 11 47  1  0  0  0  0
 11 48  1  0  0  0  0
 12 13  1  0  0  0  0
 12 49  1  0  0  0  0
 13 14  1  0  0  0  0
 13 16  1  0  0  0  0
 13 50  1  6  0  0  0
 14 15  2  0  0  0  0
 16 17  1  0  0  0  0
 16 51  1  0  0  0  0
 16 52  1  0  0  0  0
 17 18  1  0  0  0  0
 17 53  1  0  0  0  0
 17 54  1  0  0  0  0
 18 20  1  0  0  0  0
 19 18  2  0  0  0  0
 21 22  1  0  0  0  0
 21 14  1  0  0  0  0
 21 55  1  0  0  0  0
 22 56  1  1  0  0  0
 23 24  2  0  0  0  0
 23 22  1  0  0  0  0
 25 22  1  0  0  0  0
 25 57  1  0  0  0  0
 25 58  1  0  0  0  0
 25 59  1  0  0  0  0
 26 23  1  0  0  0  0
 26 60  1  0  0  0  0
 27 28  1  0  0  0  0
 27 26  1  0  0  0  0
 27 61  1  6  0  0  0
 28 33  1  0  0  0  0
 29 28  2  0  0  0  0
 30 27  1  0  0  0  0
 30 62  1  0  0  0  0
 31 30  1  0  0  0  0
 31 63  1  0  0  0  0
 31 64  1  0  0  0  0
 31 65  1  0  0  0  0
 32 30  1  0  0  0  0
 32 66  1  0  0  0  0
 32 67  1  0  0  0  0
 32 68  1  0  0  0  0
 33 34  1  0  0  0  0
 33 69  1  0  0  0  0
 34 70  1  0  0  0  0
 34 71  1  0  0  0  0
 34 72  1  0  0  0  0
M  CHG  1  20  -1
M  END
>  <MODEL>
       0

$$$$
selected_4mers/LEAV/297_noH.pdb
 OpenBabel03042517593D

 72 71  0  0  1  0  0  0  0  0999 V2000
    6.3930   23.0980  -34.6610 C   0  0  0  0  0  0  0  0  0  0  0  0
    7.3800   22.4550  -33.6220 C   0  0  0  0  0  0  0  0  0  0  0  0
    8.5760   22.6680  -33.6570 O   0  0  0  0  0  0  0  0  0  0  0  0
    6.8420   21.8030  -32.6210 N   0  0  0  0  0  0  0  0  0  0  0  0
    7.6910   21.1100  -31.6390 C   0  0  2  0  0  0  0  0  0  0  0  0
    7.4630   19.7020  -32.0870 C   0  0  0  0  0  0  0  0  0  0  0  0
    6.3090   19.2570  -32.1300 O   0  0  0  0  0  0  0  0  0  0  0  0
    7.1150   21.2480  -30.2260 C   0  0  0  0  0  0  0  0  0  0  0  0
    7.4560   22.4830  -29.4130 C   0  0  0  0  0  0  0  0  0  0  0  0
    6.4770   22.5840  -28.3130 C   0  0  0  0  0  0  0  0  0  0  0  0
    8.8630   22.5090  -28.9780 C   0  0  0  0  0  0  0  0  0  0  0  0
    8.5350   19.0160  -32.4510 N   0  0  0  0  0  0  0  0  0  0  0  0
    8.4230   17.6400  -32.9770 C   0  0  2  0  0  0  0  0  0  0  0  0
    8.7820   16.6290  -31.9010 C   0  0  0  0  0  0  0  0  0  0  0  0
    9.9320   16.6150  -31.4420 O   0  0  0  0  0  0  0  0  0  0  0  0
    9.3840   17.4690  -34.1410 C   0  0  0  0  0  0  0  0  0  0  0  0
    9.3280   18.8050  -34.9260 C   0  0  0  0  0  0  0  0  0  0  0  0
    9.2480   18.7630  -36.4220 C   0  0  0  0  0  0  0  0  0  0  0  0
   10.2610   19.0580  -37.0940 O   0  0  0  0  0  0  0  0  0  0  0  0
    8.1310   18.6810  -36.9860 O   0  0  0  0  0  0  0  0  0  0  0  0
    7.8520   15.7510  -31.5600 N   0  0  0  0  0  0  0  0  0  0  0  0
    8.1240   14.7340  -30.5090 C   0  0  2  0  0  0  0  0  0  0  0  0
    9.1180   13.7240  -31.1210 C   0  0  0  0  0  0  0  0  0  0  0  0
    8.9480   13.3170  -32.3110 O   0  0  0  0  0  0  0  0  0  0  0  0
    6.8170   14.0580  -30.1330 C   0  0  0  0  0  0  0  0  0  0  0  0
   10.1540   13.2960  -30.3730 N   0  0  0  0  0  0  0  0  0  0  0  0
   11.1720   12.3580  -30.8680 C   0  0  2  0  0  0  0  0  0  0  0  0
   11.1800   11.0350  -30.0710 C   0  0  0  0  0  0  0  0  0  0  0  0
   11.2520    9.9000  -30.6280 O   0  0  0  0  0  0  0  0  0  0  0  0
   12.5900   13.0400  -30.7440 C   0  0  0  0  0  0  0  0  0  0  0  0
   13.7580   12.0400  -31.0470 C   0  0  0  0  0  0  0  0  0  0  0  0
   12.6110   14.2390  -31.7420 C   0  0  0  0  0  0  0  0  0  0  0  0
   11.0940   11.1570  -28.7480 N   0  0  0  0  0  0  0  0  0  0  0  0
   11.2010    9.9370  -27.9100 C   0  0  0  0  0  0  0  0  0  0  0  0
    6.9534   23.5978  -35.4233 H   0  0  0  0  0  0  0  0  0  0  0  0
    5.7605   23.8030  -34.1631 H   0  0  0  0  0  0  0  0  0  0  0  0
    5.7927   22.3313  -35.1044 H   0  0  0  0  0  0  0  0  0  0  0  0
    5.8625   21.7765  -32.5251 H   0  0  0  0  0  0  0  0  0  0  0  0
    8.7019   21.4582  -31.5981 H   0  0  0  0  0  0  0  0  0  0  0  0
    7.4508   20.4005  -29.6657 H   0  0  0  0  0  0  0  0  0  0  0  0
    6.0597   21.3267  -30.3842 H   0  0  0  0  0  0  0  0  0  0  0  0
    7.3750   23.3597  -30.0210 H   0  0  0  0  0  0  0  0  0  0  0  0
    6.5448   21.7137  -27.6942 H   0  0  0  0  0  0  0  0  0  0  0  0
    5.4899   22.6565  -28.7196 H   0  0  0  0  0  0  0  0  0  0  0  0
    6.6866   23.4549  -27.7278 H   0  0  0  0  0  0  0  0  0  0  0  0
    9.0589   21.6627  -28.3532 H   0  0  0  0  0  0  0  0  0  0  0  0
    9.0501   23.4083  -28.4293 H   0  0  0  0  0  0  0  0  0  0  0  0
    9.5021   22.4748  -29.8355 H   0  0  0  0  0  0  0  0  0  0  0  0
    9.4241   19.4308  -32.3696 H   0  0  0  0  0  0  0  0  0  0  0  0
    7.4146   17.4762  -33.2950 H   0  0  0  0  0  0  0  0  0  0  0  0
   10.3758   17.2871  -33.7831 H   0  0  0  0  0  0  0  0  0  0  0  0
    9.1165   16.6359  -34.7568 H   0  0  0  0  0  0  0  0  0  0  0  0
    8.4661   19.3365  -34.5802 H   0  0  0  0  0  0  0  0  0  0  0  0
   10.2774   19.2584  -34.7313 H   0  0  0  0  0  0  0  0  0  0  0  0
    6.9741   15.7712  -32.0051 H   0  0  0  0  0  0  0  0  0  0  0  0
    8.5383   15.1652  -29.6217 H   0  0  0  0  0  0  0  0  0  0  0  0
    6.3799   13.6170  -31.0044 H   0  0  0  0  0  0  0  0  0  0  0  0
    6.1447   14.7835  -29.7250 H   0  0  0  0  0  0  0  0  0  0  0  0
    7.0056   13.2972  -29.4046 H   0  0  0  0  0  0  0  0  0  0  0  0
   10.2330   13.6278  -29.4495 H   0  0  0  0  0  0  0  0  0  0  0  0
   10.9412   12.1245  -31.8864 H   0  0  0  0  0  0  0  0  0  0  0  0
   12.7440   13.3727  -29.7388 H   0  0  0  0  0  0  0  0  0  0  0  0
   13.6597   11.6689  -32.0458 H   0  0  0  0  0  0  0  0  0  0  0  0
   13.7161   11.2231  -30.3572 H   0  0  0  0  0  0  0  0  0  0  0  0
   14.6956   12.5453  -30.9449 H   0  0  0  0  0  0  0  0  0  0  0  0
   12.4549   13.8776  -32.7370 H   0  0  0  0  0  0  0  0  0  0  0  0
   13.5586   14.7328  -31.6864 H   0  0  0  0  0  0  0  0  0  0  0  0
   11.8338   14.9289  -31.4871 H   0  0  0  0  0  0  0  0  0  0  0  0
   10.9619   12.0401  -28.3334 H   0  0  0  0  0  0  0  0  0  0  0  0
   11.3410    9.0831  -28.5394 H   0  0  0  0  0  0  0  0  0  0  0  0
   10.3038    9.8163  -27.3395 H   0  0  0  0  0  0  0  0  0  0  0  0
   12.0353   10.0319  -27.2468 H   0  0  0  0  0  0  0  0  0  0  0  0
  1  2  1  0  0  0  0
  1 35  1  0  0  0  0
  1 36  1  0  0  0  0
  1 37  1  0  0  0  0
  2  4  1  0  0  0  0
  3  2  2  0  0  0  0
  4  5  1  0  0  0  0
  4 38  1  0  0  0  0
  5  8  1  0  0  0  0
  5 39  1  6  0  0  0
  6  5  1  0  0  0  0
  7  6  2  0  0  0  0
  8  9  1  0  0  0  0
  8 40  1  0  0  0  0
  8 41  1  0  0  0  0
  9 11  1  0  0  0  0
  9 10  1  0  0  0  0
  9 42  1  0  0  0  0
 10 43  1  0  0  0  0
 10 44  1  0  0  0  0
 10 45  1  0  0  0  0
 11 46  1  0  0  0  0
 11 47  1  0  0  0  0
 11 48  1  0  0  0  0
 12  6  1  0  0  0  0
 12 49  1  0  0  0  0
 13 12  1  0  0  0  0
 13 14  1  0  0  0  0
 13 50  1  6  0  0  0
 14 21  1  0  0  0  0
 14 15  2  0  0  0  0
 16 13  1  0  0  0  0
 16 51  1  0  0  0  0
 16 52  1  0  0  0  0
 17 16  1  0  0  0  0
 17 53  1  0  0  0  0
 17 54  1  0  0  0  0
 18 17  1  0  0  0  0
 19 18  2  0  0  0  0
 20 18  1  0  0  0  0
 21 22  1  0  0  0  0
 21 55  1  0  0  0  0
 22 25  1  0  0  0  0
 22 56  1  1  0  0  0
 23 22  1  0  0  0  0
 23 26  1  0  0  0  0
 24 23  2  0  0  0  0
 25 57  1  0  0  0  0
 25 58  1  0  0  0  0
 25 59  1  0  0  0  0
 26 60  1  0  0  0  0
 27 30  1  0  0  0  0
 27 26  1  0  0  0  0
 27 28  1  0  0  0  0
 27 61  1  6  0  0  0
 28 33  1  0  0  0  0
 29 28  2  0  0  0  0
 30 62  1  0  0  0  0
 31 30  1  0  0  0  0
 31 63  1  0  0  0  0
 31 64  1  0  0  0  0
 31 65  1  0  0  0  0
 32 30  1  0  0  0  0
 32 66  1  0  0  0  0
 32 67  1  0  0  0  0
 32 68  1  0  0  0  0
 33 34  1  0  0  0  0
 33 69  1  0  0  0  0
 34 70  1  0  0  0  0
 34 71  1  0  0  0  0
 34 72  1  0  0  0  0
M  CHG  1  20  -1
M  END
>  <MODEL>
       0

$$$$
selected_4mers/LEAV/298_noH.pdb
 OpenBabel03042517593D

 72 71  0  0  1  0  0  0  0  0999 V2000
   38.9040   30.6620  -26.5440 C   0  0  0  0  0  0  0  0  0  0  0  0
   37.4600   30.4290  -26.9560 C   0  0  0  0  0  0  0  0  0  0  0  0
   36.7160   31.3800  -27.0840 O   0  0  0  0  0  0  0  0  0  0  0  0
   37.0720   29.1810  -27.1330 N   0  0  0  0  0  0  0  0  0  0  0  0
   35.6880   28.8200  -27.3890 C   0  0  2  0  0  0  0  0  0  0  0  0
   35.1590   28.1300  -26.1340 C   0  0  0  0  0  0  0  0  0  0  0  0
   35.3630   26.9310  -25.9500 O   0  0  0  0  0  0  0  0  0  0  0  0
   35.6010   27.8870  -28.5980 C   0  0  0  0  0  0  0  0  0  0  0  0
   36.1270   28.4780  -29.9070 C   0  0  0  0  0  0  0  0  0  0  0  0
   36.1450   27.4160  -30.9820 C   0  0  0  0  0  0  0  0  0  0  0  0
   35.2930   29.6520  -30.3740 C   0  0  0  0  0  0  0  0  0  0  0  0
   34.5150   28.8980  -25.2640 N   0  0  0  0  0  0  0  0  0  0  0  0
   34.1060   28.4100  -23.9500 C   0  0  2  0  0  0  0  0  0  0  0  0
   32.6380   28.7250  -23.7580 C   0  0  0  0  0  0  0  0  0  0  0  0
   32.2190   29.8800  -23.8370 O   0  0  0  0  0  0  0  0  0  0  0  0
   34.9450   29.0740  -22.8490 C   0  0  0  0  0  0  0  0  0  0  0  0
   36.4330   28.7810  -22.9540 C   0  0  0  0  0  0  0  0  0  0  0  0
   36.7940   27.3410  -22.6480 C   0  0  0  0  0  0  0  0  0  0  0  0
   36.3550   26.8420  -21.5850 O   0  0  0  0  0  0  0  0  0  0  0  0
   37.4970   26.6950  -23.4670 O   0  0  0  0  0  0  0  0  0  0  0  0
   31.8440   27.6790  -23.5510 N   0  0  0  0  0  0  0  0  0  0  0  0
   30.4250   27.8270  -23.2830 C   0  0  2  0  0  0  0  0  0  0  0  0
   30.1990   28.1470  -21.8120 C   0  0  0  0  0  0  0  0  0  0  0  0
   30.9530   27.7000  -20.9460 O   0  0  0  0  0  0  0  0  0  0  0  0
   29.6840   26.5510  -23.6520 C   0  0  0  0  0  0  0  0  0  0  0  0
   29.1410   28.9090  -21.5480 N   0  0  0  0  0  0  0  0  0  0  0  0
   28.7840   29.3050  -20.1960 C   0  0  2  0  0  0  0  0  0  0  0  0
   27.2900   29.0440  -20.0540 C   0  0  0  0  0  0  0  0  0  0  0  0
   26.4940   29.5010  -20.8740 O   0  0  0  0  0  0  0  0  0  0  0  0
   29.1280   30.7940  -19.9260 C   0  0  0  0  0  0  0  0  0  0  0  0
   28.6240   31.2340  -18.5500 C   0  0  0  0  0  0  0  0  0  0  0  0
   30.6420   31.0380  -19.9930 C   0  0  0  0  0  0  0  0  0  0  0  0
   26.9200   28.2890  -19.0280 N   0  0  0  0  0  0  0  0  0  0  0  0
   25.5210   27.9910  -18.7580 C   0  0  0  0  0  0  0  0  0  0  0  0
   39.4124   29.7227  -26.4793 H   0  0  0  0  0  0  0  0  0  0  0  0
   38.9290   31.1475  -25.5908 H   0  0  0  0  0  0  0  0  0  0  0  0
   39.3873   31.2798  -27.2718 H   0  0  0  0  0  0  0  0  0  0  0  0
   37.7469   28.4655  -27.0900 H   0  0  0  0  0  0  0  0  0  0  0  0
   35.1023   29.6876  -27.6106 H   0  0  0  0  0  0  0  0  0  0  0  0
   36.1679   27.0062  -28.3795 H   0  0  0  0  0  0  0  0  0  0  0  0
   34.5602   27.6933  -28.7532 H   0  0  0  0  0  0  0  0  0  0  0  0
   37.1202   28.8308  -29.7225 H   0  0  0  0  0  0  0  0  0  0  0  0
   35.1479   27.0703  -31.1586 H   0  0  0  0  0  0  0  0  0  0  0  0
   36.7554   26.5968  -30.6639 H   0  0  0  0  0  0  0  0  0  0  0  0
   36.5444   27.8290  -31.8847 H   0  0  0  0  0  0  0  0  0  0  0  0
   34.2925   29.3248  -30.5659 H   0  0  0  0  0  0  0  0  0  0  0  0
   35.7148   30.0547  -31.2711 H   0  0  0  0  0  0  0  0  0  0  0  0
   35.2823   30.4062  -29.6151 H   0  0  0  0  0  0  0  0  0  0  0  0
   34.3062   29.8274  -25.5128 H   0  0  0  0  0  0  0  0  0  0  0  0
   34.2613   27.3531  -23.8894 H   0  0  0  0  0  0  0  0  0  0  0  0
   34.5974   28.7214  -21.9004 H   0  0  0  0  0  0  0  0  0  0  0  0
   34.8260   30.1315  -22.9601 H   0  0  0  0  0  0  0  0  0  0  0  0
   36.9512   29.4131  -22.2635 H   0  0  0  0  0  0  0  0  0  0  0  0
   36.7170   28.9654  -23.9690 H   0  0  0  0  0  0  0  0  0  0  0  0
   32.2311   26.7743  -23.5804 H   0  0  0  0  0  0  0  0  0  0  0  0
   30.0480   28.6328  -23.8775 H   0  0  0  0  0  0  0  0  0  0  0  0
   30.0552   25.7395  -23.0616 H   0  0  0  0  0  0  0  0  0  0  0  0
   29.8372   26.3368  -24.6891 H   0  0  0  0  0  0  0  0  0  0  0  0
   28.6383   26.6790  -23.4649 H   0  0  0  0  0  0  0  0  0  0  0  0
   28.5792   29.2159  -22.2960 H   0  0  0  0  0  0  0  0  0  0  0  0
   29.3421   28.7446  -19.4753 H   0  0  0  0  0  0  0  0  0  0  0  0
   28.6417   31.3671  -20.6876 H   0  0  0  0  0  0  0  0  0  0  0  0
   29.1121   30.6592  -17.7908 H   0  0  0  0  0  0  0  0  0  0  0  0
   27.5670   31.0786  -18.4909 H   0  0  0  0  0  0  0  0  0  0  0  0
   28.8405   32.2719  -18.4060 H   0  0  0  0  0  0  0  0  0  0  0  0
   31.1296   30.4655  -19.2318 H   0  0  0  0  0  0  0  0  0  0  0  0
   30.8428   32.0779  -19.8408 H   0  0  0  0  0  0  0  0  0  0  0  0
   31.0090   30.7407  -20.9531 H   0  0  0  0  0  0  0  0  0  0  0  0
   27.6113   27.9197  -18.4322 H   0  0  0  0  0  0  0  0  0  0  0  0
   24.9067   28.4657  -19.4943 H   0  0  0  0  0  0  0  0  0  0  0  0
   25.2597   28.3557  -17.7866 H   0  0  0  0  0  0  0  0  0  0  0  0
   25.3683   26.9326  -18.7946 H   0  0  0  0  0  0  0  0  0  0  0  0
  1 35  1  0  0  0  0
  1 36  1  0  0  0  0
  1 37  1  0  0  0  0
  2  1  1  0  0  0  0
  3  2  2  0  0  0  0
  4  2  1  0  0  0  0
  4 38  1  0  0  0  0
  5  4  1  0  0  0  0
  5  6  1  0  0  0  0
  5 39  1  6  0  0  0
  6  7  2  0  0  0  0
  6 12  1  0  0  0  0
  8  5  1  0  0  0  0
  8 40  1  0  0  0  0
  8 41  1  0  0  0  0
  9  8  1  0  0  0  0
  9 42  1  0  0  0  0
 10  9  1  0  0  0  0
 10 43  1  0  0  0  0
 10 44  1  0  0  0  0
 10 45  1  0  0  0  0
 11  9  1  0  0  0  0
 11 46  1  0  0  0  0
 11 47  1  0  0  0  0
 11 48  1  0  0  0  0
 12 13  1  0  0  0  0
 12 49  1  0  0  0  0
 13 14  1  0  0  0  0
 13 16  1  0  0  0  0
 13 50  1  1  0  0  0
 14 21  1  0  0  0  0
 15 14  2  0  0  0  0
 16 51  1  0  0  0  0
 16 52  1  0  0  0  0
 17 16  1  0  0  0  0
 17 18  1  0  0  0  0
 17 53  1  0  0  0  0
 17 54  1  0  0  0  0
 18 19  1  0  0  0  0
 20 18  2  0  0  0  0
 21 22  1  0  0  0  0
 21 55  1  0  0  0  0
 22 23  1  0  0  0  0
 22 56  1  6  0  0  0
 23 26  1  0  0  0  0
 23 24  2  0  0  0  0
 25 22  1  0  0  0  0
 25 57  1  0  0  0  0
 25 58  1  0  0  0  0
 25 59  1  0  0  0  0
 26 27  1  0  0  0  0
 26 60  1  0  0  0  0
 27 28  1  0  0  0  0
 27 30  1  0  0  0  0
 27 61  1  1  0  0  0
 28 33  1  0  0  0  0
 29 28  2  0  0  0  0
 30 31  1  0  0  0  0
 30 62  1  0  0  0  0
 31 63  1  0  0  0  0
 31 64  1  0  0  0  0
 31 65  1  0  0  0  0
 32 30  1  0  0  0  0
 32 66  1  0  0  0  0
 32 67  1  0  0  0  0
 32 68  1  0  0  0  0
 33 34  1  0  0  0  0
 33 69  1  0  0  0  0
 34 70  1  0  0  0  0
 34 71  1  0  0  0  0
 34 72  1  0  0  0  0
M  CHG  1  19  -1
M  END
>  <MODEL>
       0

$$$$
selected_4mers/LEAV/299_noH.pdb
 OpenBabel03042517593D

 72 71  0  0  1  0  0  0  0  0999 V2000
    9.4590    8.5020    3.1460 C   0  0  0  0  0  0  0  0  0  0  0  0
    8.2690    7.6160    2.7660 C   0  0  0  0  0  0  0  0  0  0  0  0
    7.9300    7.4900    1.5850 O   0  0  0  0  0  0  0  0  0  0  0  0
    7.6720    6.9880    3.7800 N   0  0  0  0  0  0  0  0  0  0  0  0
    6.4530    6.1710    3.6520 C   0  0  2  0  0  0  0  0  0  0  0  0
    6.5510    4.9530    2.7210 C   0  0  0  0  0  0  0  0  0  0  0  0
    5.5300    4.4230    2.2710 O   0  0  0  0  0  0  0  0  0  0  0  0
    5.2460    7.0400    3.2660 C   0  0  0  0  0  0  0  0  0  0  0  0
    4.8080    8.1700    4.2040 C   0  0  0  0  0  0  0  0  0  0  0  0
    3.6680    8.9530    3.5650 C   0  0  0  0  0  0  0  0  0  0  0  0
    4.4030    7.6500    5.5810 C   0  0  0  0  0  0  0  0  0  0  0  0
    7.7700    4.5060    2.4370 N   0  0  0  0  0  0  0  0  0  0  0  0
    7.9620    3.3210    1.6070 C   0  0  2  0  0  0  0  0  0  0  0  0
    8.6330    2.2110    2.4050 C   0  0  0  0  0  0  0  0  0  0  0  0
    9.6210    2.4490    3.1000 O   0  0  0  0  0  0  0  0  0  0  0  0
    8.7560    3.6600    0.3430 C   0  0  0  0  0  0  0  0  0  0  0  0
    7.9960    4.5770   -0.6100 C   0  0  0  0  0  0  0  0  0  0  0  0
    8.6510    4.7030   -1.9720 C   0  0  0  0  0  0  0  0  0  0  0  0
    8.7070    3.6960   -2.7090 O   0  0  0  0  0  0  0  0  0  0  0  0
    9.0950    5.8190   -2.3110 O   0  0  0  0  0  0  0  0  0  0  0  0
    8.0810    1.0050    2.3010 N   0  0  0  0  0  0  0  0  0  0  0  0
    8.5380   -0.1340    3.0930 C   0  0  2  0  0  0  0  0  0  0  0  0
    9.9170   -0.6160    2.6580 C   0  0  0  0  0  0  0  0  0  0  0  0
   10.1650   -0.8390    1.4660 O   0  0  0  0  0  0  0  0  0  0  0  0
    7.5250   -1.2710    3.0300 C   0  0  0  0  0  0  0  0  0  0  0  0
   10.8090   -0.7530    3.6340 N   0  0  0  0  0  0  0  0  0  0  0  0
   12.1550   -1.2740    3.4150 C   0  0  2  0  0  0  0  0  0  0  0  0
   12.3480   -2.4820    4.3250 C   0  0  0  0  0  0  0  0  0  0  0  0
   12.2690   -2.3620    5.5500 O   0  0  0  0  0  0  0  0  0  0  0  0
   13.2440   -0.2100    3.7110 C   0  0  0  0  0  0  0  0  0  0  0  0
   14.6410   -0.8320    3.7080 C   0  0  0  0  0  0  0  0  0  0  0  0
   13.1730    0.9360    2.7080 C   0  0  0  0  0  0  0  0  0  0  0  0
   12.5920   -3.6400    3.7170 N   0  0  0  0  0  0  0  0  0  0  0  0
   12.7940   -4.8770    4.4700 C   0  0  0  0  0  0  0  0  0  0  0  0
    9.8617    8.9557    2.2646 H   0  0  0  0  0  0  0  0  0  0  0  0
   10.2124    7.9050    3.6159 H   0  0  0  0  0  0  0  0  0  0  0  0
    9.1343    9.2643    3.8230 H   0  0  0  0  0  0  0  0  0  0  0  0
    8.0733    7.0765    4.6747 H   0  0  0  0  0  0  0  0  0  0  0  0
    6.3188    5.7559    4.6290 H   0  0  0  0  0  0  0  0  0  0  0  0
    4.4092    6.3821    3.1570 H   0  0  0  0  0  0  0  0  0  0  0  0
    5.5726    7.5524    2.3853 H   0  0  0  0  0  0  0  0  0  0  0  0
    5.6455    8.8191    4.3530 H   0  0  0  0  0  0  0  0  0  0  0  0
    2.8299    8.3048    3.4155 H   0  0  0  0  0  0  0  0  0  0  0  0
    3.9887    9.3445    2.6223 H   0  0  0  0  0  0  0  0  0  0  0  0
    3.3847    9.7596    4.2084 H   0  0  0  0  0  0  0  0  0  0  0  0
    3.5644    6.9930    5.4816 H   0  0  0  0  0  0  0  0  0  0  0  0
    4.1378    8.4742    6.2097 H   0  0  0  0  0  0  0  0  0  0  0  0
    5.2229    7.1184    6.0168 H   0  0  0  0  0  0  0  0  0  0  0  0
    8.5555    4.9816    2.7920 H   0  0  0  0  0  0  0  0  0  0  0  0
    7.0009    2.9674    1.2970 H   0  0  0  0  0  0  0  0  0  0  0  0
    9.6649    4.1456    0.6312 H   0  0  0  0  0  0  0  0  0  0  0  0
    8.9405    2.7421   -0.1750 H   0  0  0  0  0  0  0  0  0  0  0  0
    7.0090    4.1857   -0.7428 H   0  0  0  0  0  0  0  0  0  0  0  0
    7.9875    5.5528   -0.1712 H   0  0  0  0  0  0  0  0  0  0  0  0
    7.3383    0.8757    1.6679 H   0  0  0  0  0  0  0  0  0  0  0  0
    8.6230    0.1957    4.1074 H   0  0  0  0  0  0  0  0  0  0  0  0
    7.4313   -1.6096    2.0193 H   0  0  0  0  0  0  0  0  0  0  0  0
    6.5754   -0.9224    3.3789 H   0  0  0  0  0  0  0  0  0  0  0  0
    7.8571   -2.0792    3.6475 H   0  0  0  0  0  0  0  0  0  0  0  0
   10.5499   -0.4909    4.5469 H   0  0  0  0  0  0  0  0  0  0  0  0
   12.2574   -1.5490    2.3860 H   0  0  0  0  0  0  0  0  0  0  0  0
   13.0546    0.1819    4.6885 H   0  0  0  0  0  0  0  0  0  0  0  0
   14.8517   -1.2311    2.7378 H   0  0  0  0  0  0  0  0  0  0  0  0
   14.6833   -1.6173    4.4336 H   0  0  0  0  0  0  0  0  0  0  0  0
   15.3655   -0.0829    3.9505 H   0  0  0  0  0  0  0  0  0  0  0  0
   13.3604    0.5606    1.7237 H   0  0  0  0  0  0  0  0  0  0  0  0
   13.9090    1.6723    2.9551 H   0  0  0  0  0  0  0  0  0  0  0  0
   12.1997    1.3794    2.7413 H   0  0  0  0  0  0  0  0  0  0  0  0
   12.6378   -3.6647    2.7339 H   0  0  0  0  0  0  0  0  0  0  0  0
   12.7120   -4.6744    5.5174 H   0  0  0  0  0  0  0  0  0  0  0  0
   13.7667   -5.2690    4.2577 H   0  0  0  0  0  0  0  0  0  0  0  0
   12.0512   -5.5928    4.1859 H   0  0  0  0  0  0  0  0  0  0  0  0
  1 35  1  0  0  0  0
  1 36  1  0  0  0  0
  1 37  1  0  0  0  0
  2  1  1  0  0  0  0
  2  4  1  0  0  0  0
  3  2  2  0  0  0  0
  4 38  1  0  0  0  0
  5  4  1  0  0  0  0
  5 39  1  1  0  0  0
  6  5  1  0  0  0  0
  7  6  2  0  0  0  0
  8  5  1  0  0  0  0
  8  9  1  0  0  0  0
  8 40  1  0  0  0  0
  8 41  1  0  0  0  0
  9 11  1  0  0  0  0
  9 42  1  0  0  0  0
 10  9  1  0  0  0  0
 10 43  1  0  0  0  0
 10 44  1  0  0  0  0
 10 45  1  0  0  0  0
 11 46  1  0  0  0  0
 11 47  1  0  0  0  0
 11 48  1  0  0  0  0
 12  6  1  0  0  0  0
 12 49  1  0  0  0  0
 13 14  1  0  0  0  0
 13 12  1  0  0  0  0
 13 50  1  6  0  0  0
 14 15  2  0  0  0  0
 16 13  1  0  0  0  0
 16 51  1  0  0  0  0
 16 52  1  0  0  0  0
 17 16  1  0  0  0  0
 17 53  1  0  0  0  0
 17 54  1  0  0  0  0
 18 17  1  0  0  0  0
 19 18  2  0  0  0  0
 20 18  1  0  0  0  0
 21 14  1  0  0  0  0
 21 22  1  0  0  0  0
 21 55  1  0  0  0  0
 22 56  1  1  0  0  0
 23 22  1  0  0  0  0
 23 26  1  0  0  0  0
 24 23  2  0  0  0  0
 25 22  1  0  0  0  0
 25 57  1  0  0  0  0
 25 58  1  0  0  0  0
 25 59  1  0  0  0  0
 26 60  1  0  0  0  0
 27 26  1  0  0  0  0
 27 30  1  0  0  0  0
 27 28  1  0  0  0  0
 27 61  1  6  0  0  0
 28 29  2  0  0  0  0
 30 62  1  0  0  0  0
 31 30  1  0  0  0  0
 31 63  1  0  0  0  0
 31 64  1  0  0  0  0
 31 65  1  0  0  0  0
 32 30  1  0  0  0  0
 32 66  1  0  0  0  0
 32 67  1  0  0  0  0
 32 68  1  0  0  0  0
 33 28  1  0  0  0  0
 33 34  1  0  0  0  0
 33 69  1  0  0  0  0
 34 70  1  0  0  0  0
 34 71  1  0  0  0  0
 34 72  1  0  0  0  0
M  CHG  1  20  -1
M  END
>  <MODEL>
       0

$$$$
