selected_4mers/LEEA/225_noH.pdb
 OpenBabel03042517503D

 71 70  0  0  1  0  0  0  0  0999 V2000
   57.2590    3.9280    6.2680 C   0  0  0  0  0  0  0  0  0  0  0  0
   58.7880    3.6440    6.2190 C   0  0  0  0  0  0  0  0  0  0  0  0
   59.2550    2.5490    5.7910 O   0  0  0  0  0  0  0  0  0  0  0  0
   59.5700    4.6150    6.6890 N   0  0  0  0  0  0  0  0  0  0  0  0
   61.0300    4.4430    6.6570 C   0  0  2  0  0  0  0  0  0  0  0  0
   61.4970    3.2770    7.5260 C   0  0  0  0  0  0  0  0  0  0  0  0
   62.3780    2.5090    7.1630 O   0  0  0  0  0  0  0  0  0  0  0  0
   61.7160    5.7240    7.1190 C   0  0  0  0  0  0  0  0  0  0  0  0
   63.2370    5.7280    7.2330 C   0  0  0  0  0  0  0  0  0  0  0  0
   63.8590    5.4910    5.8490 C   0  0  0  0  0  0  0  0  0  0  0  0
   63.6880    7.0800    7.7410 C   0  0  0  0  0  0  0  0  0  0  0  0
   60.9130    3.1550    8.7310 N   0  0  0  0  0  0  0  0  0  0  0  0
   61.2960    2.0700    9.5970 C   0  0  2  0  0  0  0  0  0  0  0  0
   60.9820    0.7510    8.9100 C   0  0  0  0  0  0  0  0  0  0  0  0
   61.8360   -0.2010    8.9530 O   0  0  0  0  0  0  0  0  0  0  0  0
   60.5500    2.1010   10.9530 C   0  0  0  0  0  0  0  0  0  0  0  0
   61.0560    0.9940   11.9220 C   0  0  0  0  0  0  0  0  0  0  0  0
   60.0980    0.7470   13.0840 C   0  0  0  0  0  0  0  0  0  0  0  0
   58.8520    0.6100   12.7810 O   0  0  0  0  0  0  0  0  0  0  0  0
   60.5260    0.6650   14.2470 O   0  0  0  0  0  0  0  0  0  0  0  0
   59.8050    0.6900    8.2790 N   0  0  0  0  0  0  0  0  0  0  0  0
   59.4420   -0.6390    7.6760 C   0  0  2  0  0  0  0  0  0  0  0  0
   60.3670   -0.9490    6.5010 C   0  0  0  0  0  0  0  0  0  0  0  0
   60.8010   -2.1050    6.3180 O   0  0  0  0  0  0  0  0  0  0  0  0
   57.9750   -0.6760    7.1770 C   0  0  0  0  0  0  0  0  0  0  0  0
   57.5430   -2.0730    6.7500 C   0  0  0  0  0  0  0  0  0  0  0  0
   56.0780   -2.3040    7.0440 C   0  0  0  0  0  0  0  0  0  0  0  0
   55.2290   -1.9360    6.2080 O   0  0  0  0  0  0  0  0  0  0  0  0
   55.7620   -2.8440    8.1330 O   0  0  0  0  0  0  0  0  0  0  0  0
   60.6890    0.0660    5.7170 N   0  0  0  0  0  0  0  0  0  0  0  0
   61.6160   -0.1270    4.5430 C   0  0  2  0  0  0  0  0  0  0  0  0
   63.0090   -0.5760    5.0030 C   0  0  0  0  0  0  0  0  0  0  0  0
   63.6590   -1.4440    4.3760 O   0  0  0  0  0  0  0  0  0  0  0  0
   61.6910    1.1020    3.6510 C   0  0  0  0  0  0  0  0  0  0  0  0
   63.4760    0.0110    6.1140 N   0  0  0  0  0  0  0  0  0  0  0  0
   64.7310   -0.3480    6.6530 C   0  0  0  0  0  0  0  0  0  0  0  0
   56.7275    3.0893    5.8693 H   0  0  0  0  0  0  0  0  0  0  0  0
   57.0392    4.7988    5.6864 H   0  0  0  0  0  0  0  0  0  0  0  0
   56.9589    4.0912    7.2820 H   0  0  0  0  0  0  0  0  0  0  0  0
   59.1743    5.4393    7.0540 H   0  0  0  0  0  0  0  0  0  0  0  0
   61.2987    4.2236    5.6448 H   0  0  0  0  0  0  0  0  0  0  0  0
   61.3250    5.9618    8.0862 H   0  0  0  0  0  0  0  0  0  0  0  0
   61.5071    6.4305    6.3431 H   0  0  0  0  0  0  0  0  0  0  0  0
   63.5457    4.9547    7.9050 H   0  0  0  0  0  0  0  0  0  0  0  0
   63.5476    6.2663    5.1805 H   0  0  0  0  0  0  0  0  0  0  0  0
   63.5369    4.5433    5.4708 H   0  0  0  0  0  0  0  0  0  0  0  0
   64.9258    5.4982    5.9314 H   0  0  0  0  0  0  0  0  0  0  0  0
   63.3718    7.8411    7.0586 H   0  0  0  0  0  0  0  0  0  0  0  0
   64.7549    7.0933    7.8207 H   0  0  0  0  0  0  0  0  0  0  0  0
   63.2562    7.2617    8.7030 H   0  0  0  0  0  0  0  0  0  0  0  0
   60.2292    3.8021    9.0189 H   0  0  0  0  0  0  0  0  0  0  0  0
   62.3431    2.1735    9.7916 H   0  0  0  0  0  0  0  0  0  0  0  0
   59.5051    1.9538   10.7759 H   0  0  0  0  0  0  0  0  0  0  0  0
   60.7351    3.0504   11.4104 H   0  0  0  0  0  0  0  0  0  0  0  0
   62.0044    1.2923   12.3175 H   0  0  0  0  0  0  0  0  0  0  0  0
   61.1292    0.0840   11.3639 H   0  0  0  0  0  0  0  0  0  0  0  0
   59.2094    1.4711    8.2128 H   0  0  0  0  0  0  0  0  0  0  0  0
   59.5530   -1.3726    8.4470 H   0  0  0  0  0  0  0  0  0  0  0  0
   57.3345   -0.3447    7.9675 H   0  0  0  0  0  0  0  0  0  0  0  0
   57.9046   -0.0366    6.3219 H   0  0  0  0  0  0  0  0  0  0  0  0
   57.7102   -2.1844    5.6990 H   0  0  0  0  0  0  0  0  0  0  0  0
   58.1168   -2.7890    7.3004 H   0  0  0  0  0  0  0  0  0  0  0  0
   60.3188    0.9593    5.9020 H   0  0  0  0  0  0  0  0  0  0  0  0
   61.1990   -0.9101    3.9449 H   0  0  0  0  0  0  0  0  0  0  0  0
   62.1038    1.9196    4.2042 H   0  0  0  0  0  0  0  0  0  0  0  0
   60.7083    1.3590    3.3146 H   0  0  0  0  0  0  0  0  0  0  0  0
   62.3136    0.8923    2.8065 H   0  0  0  0  0  0  0  0  0  0  0  0
   62.9362    0.7025    6.5608 H   0  0  0  0  0  0  0  0  0  0  0  0
   65.1761   -1.1078    6.0451 H   0  0  0  0  0  0  0  0  0  0  0  0
   64.5989   -0.7191    7.6479 H   0  0  0  0  0  0  0  0  0  0  0  0
   65.3688    0.5108    6.6744 H   0  0  0  0  0  0  0  0  0  0  0  0
  1 37  1  0  0  0  0
  1 38  1  0  0  0  0
  1 39  1  0  0  0  0
  2  1  1  0  0  0  0
  2  4  1  0  0  0  0
  3  2  2  0  0  0  0
  4 40  1  0  0  0  0
  5  4  1  0  0  0  0
  5  8  1  0  0  0  0
  5  6  1  0  0  0  0
  5 41  1  6  0  0  0
  6 12  1  0  0  0  0
  7  6  2  0  0  0  0
  8  9  1  0  0  0  0
  8 42  1  0  0  0  0
  8 43  1  0  0  0  0
  9 11  1  0  0  0  0
  9 44  1  0  0  0  0
 10  9  1  0  0  0  0
 10 45  1  0  0  0  0
 10 46  1  0  0  0  0
 10 47  1  0  0  0  0
 11 48  1  0  0  0  0
 11 49  1  0  0  0  0
 11 50  1  0  0  0  0
 12 13  1  0  0  0  0
 12 51  1  0  0  0  0
 13 16  1  0  0  0  0
 13 52  1  1  0  0  0
 14 15  2  0  0  0  0
 14 13  1  0  0  0  0
 16 17  1  0  0  0  0
 16 53  1  0  0  0  0
 16 54  1  0  0  0  0
 17 18  1  0  0  0  0
 17 55  1  0  0  0  0
 17 56  1  0  0  0  0
 18 20  1  0  0  0  0
 19 18  2  0  0  0  0
 21 14  1  0  0  0  0
 21 57  1  0  0  0  0
 22 21  1  0  0  0  0
 22 58  1  1  0  0  0
 23 22  1  0  0  0  0
 24 23  2  0  0  0  0
 25 22  1  0  0  0  0
 25 59  1  0  0  0  0
 25 60  1  0  0  0  0
 26 27  1  0  0  0  0
 26 25  1  0  0  0  0
 26 61  1  0  0  0  0
 26 62  1  0  0  0  0
 27 29  1  0  0  0  0
 28 27  2  0  0  0  0
 30 23  1  0  0  0  0
 30 63  1  0  0  0  0
 31 32  1  0  0  0  0
 31 30  1  0  0  0  0
 31 64  1  6  0  0  0
 32 35  1  0  0  0  0
 33 32  2  0  0  0  0
 34 31  1  0  0  0  0
 34 65  1  0  0  0  0
 34 66  1  0  0  0  0
 34 67  1  0  0  0  0
 35 36  1  0  0  0  0
 35 68  1  0  0  0  0
 36 69  1  0  0  0  0
 36 70  1  0  0  0  0
 36 71  1  0  0  0  0
M  CHG  1  20  -1
M  CHG  1  29  -1
M  END
>  <MODEL>
       0

$$$$
selected_4mers/LEEA/226_noH.pdb
 OpenBabel03042517503D

 71 70  0  0  1  0  0  0  0  0999 V2000
   70.2720   49.2220   58.0250 C   0  0  0  0  0  0  0  0  0  0  0  0
   70.0600   48.6680   59.4320 C   0  0  0  0  0  0  0  0  0  0  0  0
   70.9590   48.7240   60.2680 O   0  0  0  0  0  0  0  0  0  0  0  0
   68.8740   48.1380   59.6970 N   0  0  0  0  0  0  0  0  0  0  0  0
   68.6040   47.6000   61.0260 C   0  0  2  0  0  0  0  0  0  0  0  0
   69.5100   46.4150   61.3420 C   0  0  0  0  0  0  0  0  0  0  0  0
   69.8780   46.1970   62.5020 O   0  0  0  0  0  0  0  0  0  0  0  0
   67.1300   47.1890   61.1220 C   0  0  0  0  0  0  0  0  0  0  0  0
   66.1670   48.3750   60.9880 C   0  0  0  0  0  0  0  0  0  0  0  0
   64.7280   47.8680   60.9350 C   0  0  0  0  0  0  0  0  0  0  0  0
   66.3410   49.3420   62.1760 C   0  0  0  0  0  0  0  0  0  0  0  0
   69.8650   45.6500   60.3120 N   0  0  0  0  0  0  0  0  0  0  0  0
   70.7270   44.4780   60.4800 C   0  0  2  0  0  0  0  0  0  0  0  0
   72.1620   44.8410   60.8350 C   0  0  0  0  0  0  0  0  0  0  0  0
   72.8480   44.0810   61.5240 O   0  0  0  0  0  0  0  0  0  0  0  0
   70.7690   43.6540   59.1900 C   0  0  0  0  0  0  0  0  0  0  0  0
   69.5160   42.8710   58.8820 C   0  0  0  0  0  0  0  0  0  0  0  0
   69.6070   42.1210   57.5610 C   0  0  0  0  0  0  0  0  0  0  0  0
   68.6680   41.3470   57.2540 O   0  0  0  0  0  0  0  0  0  0  0  0
   70.6130   42.3080   56.8280 O   0  0  0  0  0  0  0  0  0  0  0  0
   72.6120   45.9950   60.3520 N   0  0  0  0  0  0  0  0  0  0  0  0
   73.9880   46.4350   60.5630 C   0  0  2  0  0  0  0  0  0  0  0  0
   74.2440   47.5820   61.5280 C   0  0  0  0  0  0  0  0  0  0  0  0
   75.3810   47.7750   61.9710 O   0  0  0  0  0  0  0  0  0  0  0  0
   74.5980   46.8070   59.2140 C   0  0  0  0  0  0  0  0  0  0  0  0
   74.7480   45.6320   58.2690 C   0  0  0  0  0  0  0  0  0  0  0  0
   75.4720   46.0130   56.9990 C   0  0  0  0  0  0  0  0  0  0  0  0
   76.0920   45.1190   56.3820 O   0  0  0  0  0  0  0  0  0  0  0  0
   75.4140   47.2010   56.6140 O   0  0  0  0  0  0  0  0  0  0  0  0
   73.2090   48.3420   61.8600 N   0  0  0  0  0  0  0  0  0  0  0  0
   73.3730   49.4960   62.7330 C   0  0  2  0  0  0  0  0  0  0  0  0
   73.8140   49.1780   64.1560 C   0  0  0  0  0  0  0  0  0  0  0  0
   73.4880   48.1270   64.7030 O   0  0  0  0  0  0  0  0  0  0  0  0
   72.0800   50.2960   62.7680 C   0  0  0  0  0  0  0  0  0  0  0  0
   74.5690   50.1020   64.7690 N   0  0  0  0  0  0  0  0  0  0  0  0
   74.9190   49.9730   66.1870 C   0  0  0  0  0  0  0  0  0  0  0  0
   69.3815   49.0817   57.4485 H   0  0  0  0  0  0  0  0  0  0  0  0
   71.0846   48.7063   57.5573 H   0  0  0  0  0  0  0  0  0  0  0  0
   70.4984   50.2661   58.0832 H   0  0  0  0  0  0  0  0  0  0  0  0
   68.1789   48.1076   59.0004 H   0  0  0  0  0  0  0  0  0  0  0  0
   68.8092   48.3622   61.7483 H   0  0  0  0  0  0  0  0  0  0  0  0
   66.9196   46.4891   60.3405 H   0  0  0  0  0  0  0  0  0  0  0  0
   66.9793   46.7625   62.0917 H   0  0  0  0  0  0  0  0  0  0  0  0
   66.3889   48.9008   60.0829 H   0  0  0  0  0  0  0  0  0  0  0  0
   64.5019   47.3414   61.8386 H   0  0  0  0  0  0  0  0  0  0  0  0
   64.6125   47.2092   60.0998 H   0  0  0  0  0  0  0  0  0  0  0  0
   64.0611   48.6980   60.8295 H   0  0  0  0  0  0  0  0  0  0  0  0
   66.1220   48.8286   63.0888 H   0  0  0  0  0  0  0  0  0  0  0  0
   65.6724   50.1697   62.0630 H   0  0  0  0  0  0  0  0  0  0  0  0
   67.3494   49.6989   62.2006 H   0  0  0  0  0  0  0  0  0  0  0  0
   69.5388   45.8786   59.4117 H   0  0  0  0  0  0  0  0  0  0  0  0
   70.3014   43.9196   61.2874 H   0  0  0  0  0  0  0  0  0  0  0  0
   70.9481   44.3244   58.3755 H   0  0  0  0  0  0  0  0  0  0  0  0
   71.5438   42.9290   59.3279 H   0  0  0  0  0  0  0  0  0  0  0  0
   69.3518   42.1634   59.6676 H   0  0  0  0  0  0  0  0  0  0  0  0
   68.7079   43.5681   58.8049 H   0  0  0  0  0  0  0  0  0  0  0  0
   71.9999   46.5692   59.8374 H   0  0  0  0  0  0  0  0  0  0  0  0
   74.4416   45.5913   61.0398 H   0  0  0  0  0  0  0  0  0  0  0  0
   73.9691   47.5368   58.7485 H   0  0  0  0  0  0  0  0  0  0  0  0
   75.5819   47.1803   59.4078 H   0  0  0  0  0  0  0  0  0  0  0  0
   75.3006   44.8603   58.7630 H   0  0  0  0  0  0  0  0  0  0  0  0
   73.7676   45.2970   58.0016 H   0  0  0  0  0  0  0  0  0  0  0  0
   72.3152   48.1224   61.5105 H   0  0  0  0  0  0  0  0  0  0  0  0
   74.1749   50.0620   62.3070 H   0  0  0  0  0  0  0  0  0  0  0  0
   71.3032   49.6996   63.1990 H   0  0  0  0  0  0  0  0  0  0  0  0
   71.8054   50.5737   61.7718 H   0  0  0  0  0  0  0  0  0  0  0  0
   72.2218   51.1775   63.3578 H   0  0  0  0  0  0  0  0  0  0  0  0
   74.8932   50.8790   64.2587 H   0  0  0  0  0  0  0  0  0  0  0  0
   74.4864   49.0772   66.5811 H   0  0  0  0  0  0  0  0  0  0  0  0
   74.5428   50.8176   66.7255 H   0  0  0  0  0  0  0  0  0  0  0  0
   75.9832   49.9301   66.2892 H   0  0  0  0  0  0  0  0  0  0  0  0
  1  2  1  0  0  0  0
  1 37  1  0  0  0  0
  1 38  1  0  0  0  0
  1 39  1  0  0  0  0
  2  4  1  0  0  0  0
  2  3  2  0  0  0  0
  4  5  1  0  0  0  0
  4 40  1  0  0  0  0
  5  8  1  0  0  0  0
  5  6  1  0  0  0  0
  5 41  1  1  0  0  0
  6  7  2  0  0  0  0
  8 42  1  0  0  0  0
  8 43  1  0  0  0  0
  9  8  1  0  0  0  0
  9 11  1  0  0  0  0
  9 44  1  0  0  0  0
 10  9  1  0  0  0  0
 10 45  1  0  0  0  0
 10 46  1  0  0  0  0
 10 47  1  0  0  0  0
 11 48  1  0  0  0  0
 11 49  1  0  0  0  0
 11 50  1  0  0  0  0
 12 13  1  0  0  0  0
 12  6  1  0  0  0  0
 12 51  1  0  0  0  0
 13 14  1  0  0  0  0
 13 52  1  1  0  0  0
 14 15  2  0  0  0  0
 16 13  1  0  0  0  0
 16 53  1  0  0  0  0
 16 54  1  0  0  0  0
 17 16  1  0  0  0  0
 17 55  1  0  0  0  0
 17 56  1  0  0  0  0
 18 17  1  0  0  0  0
 19 18  1  0  0  0  0
 20 18  2  0  0  0  0
 21 22  1  0  0  0  0
 21 14  1  0  0  0  0
 21 57  1  0  0  0  0
 22 23  1  0  0  0  0
 22 58  1  1  0  0  0
 23 30  1  0  0  0  0
 23 24  2  0  0  0  0
 25 22  1  0  0  0  0
 25 59  1  0  0  0  0
 25 60  1  0  0  0  0
 26 25  1  0  0  0  0
 26 61  1  0  0  0  0
 26 62  1  0  0  0  0
 27 26  1  0  0  0  0
 28 27  2  0  0  0  0
 29 27  1  0  0  0  0
 30 31  1  0  0  0  0
 30 63  1  0  0  0  0
 31 34  1  0  0  0  0
 31 32  1  0  0  0  0
 31 64  1  6  0  0  0
 32 33  2  0  0  0  0
 32 35  1  0  0  0  0
 34 65  1  0  0  0  0
 34 66  1  0  0  0  0
 34 67  1  0  0  0  0
 35 36  1  0  0  0  0
 35 68  1  0  0  0  0
 36 69  1  0  0  0  0
 36 70  1  0  0  0  0
 36 71  1  0  0  0  0
M  CHG  1  19  -1
M  CHG  1  29  -1
M  END
>  <MODEL>
       0

$$$$
selected_4mers/LEEA/227_noH.pdb
 OpenBabel03042517503D

 71 70  0  0  1  0  0  0  0  0999 V2000
   25.7780   57.2040   74.5160 C   0  0  0  0  0  0  0  0  0  0  0  0
   24.4670   56.7530   73.9290 C   0  0  0  0  0  0  0  0  0  0  0  0
   24.3910   56.3630   72.7530 O   0  0  0  0  0  0  0  0  0  0  0  0
   23.4260   56.8000   74.7500 N   0  0  0  0  0  0  0  0  0  0  0  0
   22.0840   56.4460   74.3290 C   0  0  2  0  0  0  0  0  0  0  0  0
   21.3850   57.6050   73.6790 C   0  0  0  0  0  0  0  0  0  0  0  0
   21.2910   58.6840   74.2660 O   0  0  0  0  0  0  0  0  0  0  0  0
   21.2690   55.9800   75.5350 C   0  0  0  0  0  0  0  0  0  0  0  0
   19.9220   55.3520   75.2880 C   0  0  0  0  0  0  0  0  0  0  0  0
   20.0760   54.0330   74.5310 C   0  0  0  0  0  0  0  0  0  0  0  0
   19.2520   55.1280   76.6440 C   0  0  0  0  0  0  0  0  0  0  0  0
   20.8810   57.3710   72.4630 N   0  0  0  0  0  0  0  0  0  0  0  0
   20.0860   58.3420   71.7140 C   0  0  2  0  0  0  0  0  0  0  0  0
   18.7090   57.7860   71.3830 C   0  0  0  0  0  0  0  0  0  0  0  0
   18.5460   56.5830   71.1340 O   0  0  0  0  0  0  0  0  0  0  0  0
   20.8520   58.7400   70.4540 C   0  0  0  0  0  0  0  0  0  0  0  0
   22.1290   59.5450   70.6900 C   0  0  0  0  0  0  0  0  0  0  0  0
   21.8960   61.0410   71.0090 C   0  0  0  0  0  0  0  0  0  0  0  0
   20.7230   61.4560   71.2730 O   0  0  0  0  0  0  0  0  0  0  0  0
   22.8890   61.7870   70.9800 O   0  0  0  0  0  0  0  0  0  0  0  0
   17.6940   58.6460   71.3950 N   0  0  0  0  0  0  0  0  0  0  0  0
   16.3110   58.2240   71.2220 C   0  0  2  0  0  0  0  0  0  0  0  0
   15.7650   58.5640   69.8430 C   0  0  0  0  0  0  0  0  0  0  0  0
   16.1810   59.5370   69.2350 O   0  0  0  0  0  0  0  0  0  0  0  0
   15.4120   58.8390   72.2930 C   0  0  0  0  0  0  0  0  0  0  0  0
   15.6700   58.2270   73.6790 C   0  0  0  0  0  0  0  0  0  0  0  0
   14.5960   58.6040   74.6700 C   0  0  0  0  0  0  0  0  0  0  0  0
   13.4460   58.1120   74.5240 O   0  0  0  0  0  0  0  0  0  0  0  0
   14.9120   59.4130   75.5700 O   0  0  0  0  0  0  0  0  0  0  0  0
   14.8200   57.7520   69.3900 N   0  0  0  0  0  0  0  0  0  0  0  0
   14.2040   57.9180   68.0660 C   0  0  2  0  0  0  0  0  0  0  0  0
   13.5770   59.3070   67.9350 C   0  0  0  0  0  0  0  0  0  0  0  0
   13.0500   59.8570   68.9030 O   0  0  0  0  0  0  0  0  0  0  0  0
   13.1640   56.8940   67.8480 C   0  0  0  0  0  0  0  0  0  0  0  0
   13.6150   59.8360   66.7160 N   0  0  0  0  0  0  0  0  0  0  0  0
   12.9020   61.0630   66.3330 C   0  0  0  0  0  0  0  0  0  0  0  0
   26.5460   57.1267   73.7750 H   0  0  0  0  0  0  0  0  0  0  0  0
   26.0260   56.5848   75.3526 H   0  0  0  0  0  0  0  0  0  0  0  0
   25.6937   58.2210   74.8376 H   0  0  0  0  0  0  0  0  0  0  0  0
   23.5700   57.0862   75.6809 H   0  0  0  0  0  0  0  0  0  0  0  0
   22.1656   55.6566   73.6113 H   0  0  0  0  0  0  0  0  0  0  0  0
   21.1104   56.8344   76.1592 H   0  0  0  0  0  0  0  0  0  0  0  0
   21.8539   55.1911   75.9597 H   0  0  0  0  0  0  0  0  0  0  0  0
   19.3172   55.9959   74.6843 H   0  0  0  0  0  0  0  0  0  0  0  0
   20.6775   53.3601   75.1057 H   0  0  0  0  0  0  0  0  0  0  0  0
   20.5472   54.2159   73.5879 H   0  0  0  0  0  0  0  0  0  0  0  0
   19.1111   53.5997   74.3695 H   0  0  0  0  0  0  0  0  0  0  0  0
   19.8625   54.4836   77.2414 H   0  0  0  0  0  0  0  0  0  0  0  0
   18.2932   54.6762   76.4978 H   0  0  0  0  0  0  0  0  0  0  0  0
   19.1314   56.0675   77.1418 H   0  0  0  0  0  0  0  0  0  0  0  0
   21.0553   56.4951   72.0487 H   0  0  0  0  0  0  0  0  0  0  0  0
   19.9269   59.2133   72.3143 H   0  0  0  0  0  0  0  0  0  0  0  0
   21.1181   57.8443   69.9327 H   0  0  0  0  0  0  0  0  0  0  0  0
   20.1974   59.3810   69.9013 H   0  0  0  0  0  0  0  0  0  0  0  0
   22.7316   59.4815   69.8081 H   0  0  0  0  0  0  0  0  0  0  0  0
   22.6009   59.1206   71.5514 H   0  0  0  0  0  0  0  0  0  0  0  0
   17.8849   59.6029   71.5256 H   0  0  0  0  0  0  0  0  0  0  0  0
   16.3083   57.1587   71.3224 H   0  0  0  0  0  0  0  0  0  0  0  0
   14.3899   58.6702   72.0252 H   0  0  0  0  0  0  0  0  0  0  0  0
   15.6291   59.8854   72.3471 H   0  0  0  0  0  0  0  0  0  0  0  0
   16.6136   58.5776   74.0416 H   0  0  0  0  0  0  0  0  0  0  0  0
   15.6674   57.1619   73.5767 H   0  0  0  0  0  0  0  0  0  0  0  0
   14.5194   57.0095   69.9623 H   0  0  0  0  0  0  0  0  0  0  0  0
   14.9718   57.8062   67.3292 H   0  0  0  0  0  0  0  0  0  0  0  0
   12.3952   57.0041   68.5840 H   0  0  0  0  0  0  0  0  0  0  0  0
   13.5996   55.9201   67.9302 H   0  0  0  0  0  0  0  0  0  0  0  0
   12.7432   57.0152   66.8717 H   0  0  0  0  0  0  0  0  0  0  0  0
   14.1524   59.3790   66.0293 H   0  0  0  0  0  0  0  0  0  0  0  0
   12.3659   61.4424   67.1777 H   0  0  0  0  0  0  0  0  0  0  0  0
   12.2143   60.8441   65.5431 H   0  0  0  0  0  0  0  0  0  0  0  0
   13.6068   61.7957   65.9994 H   0  0  0  0  0  0  0  0  0  0  0  0
  1 37  1  0  0  0  0
  1 38  1  0  0  0  0
  1 39  1  0  0  0  0
  2  1  1  0  0  0  0
  2  4  1  0  0  0  0
  3  2  2  0  0  0  0
  4 40  1  0  0  0  0
  5  4  1  0  0  0  0
  5  8  1  0  0  0  0
  5 41  1  6  0  0  0
  6  7  2  0  0  0  0
  6  5  1  0  0  0  0
  8 42  1  0  0  0  0
  8 43  1  0  0  0  0
  9  8  1  0  0  0  0
  9 11  1  0  0  0  0
  9 44  1  0  0  0  0
 10  9  1  0  0  0  0
 10 45  1  0  0  0  0
 10 46  1  0  0  0  0
 10 47  1  0  0  0  0
 11 48  1  0  0  0  0
 11 49  1  0  0  0  0
 11 50  1  0  0  0  0
 12  6  1  0  0  0  0
 12 51  1  0  0  0  0
 13 12  1  0  0  0  0
 13 52  1  1  0  0  0
 14 21  1  0  0  0  0
 14 13  1  0  0  0  0
 15 14  2  0  0  0  0
 16 17  1  0  0  0  0
 16 13  1  0  0  0  0
 16 53  1  0  0  0  0
 16 54  1  0  0  0  0
 17 18  1  0  0  0  0
 17 55  1  0  0  0  0
 17 56  1  0  0  0  0
 18 19  1  0  0  0  0
 20 18  2  0  0  0  0
 21 57  1  0  0  0  0
 22 21  1  0  0  0  0
 22 25  1  0  0  0  0
 22 58  1  1  0  0  0
 23 22  1  0  0  0  0
 24 23  2  0  0  0  0
 25 26  1  0  0  0  0
 25 59  1  0  0  0  0
 25 60  1  0  0  0  0
 26 27  1  0  0  0  0
 26 61  1  0  0  0  0
 26 62  1  0  0  0  0
 27 29  1  0  0  0  0
 28 27  2  0  0  0  0
 30 23  1  0  0  0  0
 30 63  1  0  0  0  0
 31 30  1  0  0  0  0
 31 64  1  6  0  0  0
 32 31  1  0  0  0  0
 32 33  2  0  0  0  0
 34 31  1  0  0  0  0
 34 65  1  0  0  0  0
 34 66  1  0  0  0  0
 34 67  1  0  0  0  0
 35 32  1  0  0  0  0
 35 68  1  0  0  0  0
 36 35  1  0  0  0  0
 36 69  1  0  0  0  0
 36 70  1  0  0  0  0
 36 71  1  0  0  0  0
M  CHG  1  19  -1
M  CHG  1  29  -1
M  END
>  <MODEL>
       0

$$$$
selected_4mers/LEEA/228_noH.pdb
 OpenBabel03042517503D

 71 70  0  0  1  0  0  0  0  0999 V2000
  -20.0920   16.9680   88.9050 C   0  0  0  0  0  0  0  0  0  0  0  0
  -19.0700   18.0770   88.5650 C   0  0  0  0  0  0  0  0  0  0  0  0
  -19.0410   18.5240   87.4240 O   0  0  0  0  0  0  0  0  0  0  0  0
  -18.2520   18.5020   89.5220 N   0  0  0  0  0  0  0  0  0  0  0  0
  -17.2570   19.5540   89.2320 C   0  0  2  0  0  0  0  0  0  0  0  0
  -16.4050   19.2000   87.9820 C   0  0  0  0  0  0  0  0  0  0  0  0
  -16.1590   20.0440   87.1390 O   0  0  0  0  0  0  0  0  0  0  0  0
  -16.3650   19.8330   90.4440 C   0  0  0  0  0  0  0  0  0  0  0  0
  -15.2990   20.9310   90.2360 C   0  0  0  0  0  0  0  0  0  0  0  0
  -15.8980   22.3160   89.8150 C   0  0  0  0  0  0  0  0  0  0  0  0
  -14.4510   21.0370   91.4790 C   0  0  0  0  0  0  0  0  0  0  0  0
  -15.9740   17.9470   87.8860 N   0  0  0  0  0  0  0  0  0  0  0  0
  -15.1000   17.4850   86.7770 C   0  0  2  0  0  0  0  0  0  0  0  0
  -15.7340   17.7520   85.4270 C   0  0  0  0  0  0  0  0  0  0  0  0
  -15.0670   18.1950   84.4880 O   0  0  0  0  0  0  0  0  0  0  0  0
  -14.8220   15.9700   86.9250 C   0  0  0  0  0  0  0  0  0  0  0  0
  -13.9350   15.5890   88.0970 C   0  0  0  0  0  0  0  0  0  0  0  0
  -14.6070   15.6630   89.4900 C   0  0  0  0  0  0  0  0  0  0  0  0
  -15.8360   15.9480   89.6170 O   0  0  0  0  0  0  0  0  0  0  0  0
  -13.8640   15.4300   90.4770 O   0  0  0  0  0  0  0  0  0  0  0  0
  -17.0410   17.4820   85.3430 N   0  0  0  0  0  0  0  0  0  0  0  0
  -17.7820   17.6280   84.1020 C   0  0  2  0  0  0  0  0  0  0  0  0
  -18.0460   19.1090   83.7760 C   0  0  0  0  0  0  0  0  0  0  0  0
  -18.0330   19.5130   82.6100 O   0  0  0  0  0  0  0  0  0  0  0  0
  -19.0840   16.8190   84.1480 C   0  0  0  0  0  0  0  0  0  0  0  0
  -19.8340   16.8070   82.8090 C   0  0  0  0  0  0  0  0  0  0  0  0
  -19.0630   16.0920   81.6880 C   0  0  0  0  0  0  0  0  0  0  0  0
  -17.9080   15.6360   81.9170 O   0  0  0  0  0  0  0  0  0  0  0  0
  -19.6180   15.9830   80.5650 O   0  0  0  0  0  0  0  0  0  0  0  0
  -18.3160   19.9070   84.8100 N   0  0  0  0  0  0  0  0  0  0  0  0
  -18.4370   21.3720   84.6510 C   0  0  2  0  0  0  0  0  0  0  0  0
  -17.1560   21.9250   84.0380 C   0  0  0  0  0  0  0  0  0  0  0  0
  -17.1970   22.6770   83.0750 O   0  0  0  0  0  0  0  0  0  0  0  0
  -18.7600   22.0710   86.0240 C   0  0  0  0  0  0  0  0  0  0  0  0
  -16.0230   21.5180   84.5790 N   0  0  0  0  0  0  0  0  0  0  0  0
  -14.7470   22.0460   84.1260 C   0  0  0  0  0  0  0  0  0  0  0  0
  -20.6719   16.7386   88.0355 H   0  0  0  0  0  0  0  0  0  0  0  0
  -20.7396   17.3071   89.6863 H   0  0  0  0  0  0  0  0  0  0  0  0
  -19.5719   16.0907   89.2285 H   0  0  0  0  0  0  0  0  0  0  0  0
  -18.3093   18.1151   90.4255 H   0  0  0  0  0  0  0  0  0  0  0  0
  -17.7984   20.4510   89.0146 H   0  0  0  0  0  0  0  0  0  0  0  0
  -15.8598   18.9250   90.6994 H   0  0  0  0  0  0  0  0  0  0  0  0
  -17.0146   20.1915   91.2150 H   0  0  0  0  0  0  0  0  0  0  0  0
  -14.6868   20.6391   89.4084 H   0  0  0  0  0  0  0  0  0  0  0  0
  -16.5303   22.6834   90.5961 H   0  0  0  0  0  0  0  0  0  0  0  0
  -16.4699   22.1995   88.9182 H   0  0  0  0  0  0  0  0  0  0  0  0
  -15.1029   23.0111   89.6432 H   0  0  0  0  0  0  0  0  0  0  0  0
  -15.0646   21.3290   92.3055 H   0  0  0  0  0  0  0  0  0  0  0  0
  -13.6854   21.7689   91.3271 H   0  0  0  0  0  0  0  0  0  0  0  0
  -14.0015   20.0883   91.6861 H   0  0  0  0  0  0  0  0  0  0  0  0
  -16.2443   17.2995   88.5766 H   0  0  0  0  0  0  0  0  0  0  0  0
  -14.1815   18.0312   86.8313 H   0  0  0  0  0  0  0  0  0  0  0  0
  -14.3489   15.6306   86.0273 H   0  0  0  0  0  0  0  0  0  0  0  0
  -15.7705   15.5096   87.1073 H   0  0  0  0  0  0  0  0  0  0  0  0
  -13.0925   16.2486   88.1015 H   0  0  0  0  0  0  0  0  0  0  0  0
  -13.6759   14.5615   87.9489 H   0  0  0  0  0  0  0  0  0  0  0  0
  -17.5165   17.1743   86.1483 H   0  0  0  0  0  0  0  0  0  0  0  0
  -17.1804   17.2343   83.3095 H   0  0  0  0  0  0  0  0  0  0  0  0
  -18.8485   15.8100   84.4153 H   0  0  0  0  0  0  0  0  0  0  0  0
  -19.7239   17.2856   84.8675 H   0  0  0  0  0  0  0  0  0  0  0  0
  -20.7706   16.3088   82.9486 H   0  0  0  0  0  0  0  0  0  0  0  0
  -19.9609   17.8257   82.5072 H   0  0  0  0  0  0  0  0  0  0  0  0
  -18.4379   19.5101   85.7027 H   0  0  0  0  0  0  0  0  0  0  0  0
  -19.2543   21.5816   83.9929 H   0  0  0  0  0  0  0  0  0  0  0  0
  -17.9640   21.8856   86.7146 H   0  0  0  0  0  0  0  0  0  0  0  0
  -19.6734   21.6773   86.4185 H   0  0  0  0  0  0  0  0  0  0  0  0
  -18.8622   23.1252   85.8722 H   0  0  0  0  0  0  0  0  0  0  0  0
  -16.0425   20.8474   85.2995 H   0  0  0  0  0  0  0  0  0  0  0  0
  -14.9128   22.7578   83.3444 H   0  0  0  0  0  0  0  0  0  0  0  0
  -14.1406   21.2455   83.7567 H   0  0  0  0  0  0  0  0  0  0  0  0
  -14.2482   22.5235   84.9434 H   0  0  0  0  0  0  0  0  0  0  0  0
  1 37  1  0  0  0  0
  1 38  1  0  0  0  0
  1 39  1  0  0  0  0
  2  1  1  0  0  0  0
  2  4  1  0  0  0  0
  3  2  2  0  0  0  0
  4 40  1  0  0  0  0
  5  4  1  0  0  0  0
  5  8  1  0  0  0  0
  5 41  1  6  0  0  0
  6  5  1  0  0  0  0
  7  6  2  0  0  0  0
  8 42  1  0  0  0  0
  8 43  1  0  0  0  0
  9  8  1  0  0  0  0
  9 11  1  0  0  0  0
  9 44  1  0  0  0  0
 10  9  1  0  0  0  0
 10 45  1  0  0  0  0
 10 46  1  0  0  0  0
 10 47  1  0  0  0  0
 11 48  1  0  0  0  0
 11 49  1  0  0  0  0
 11 50  1  0  0  0  0
 12  6  1  0  0  0  0
 12 51  1  0  0  0  0
 13 16  1  0  0  0  0
 13 12  1  0  0  0  0
 13 52  1  1  0  0  0
 14 13  1  0  0  0  0
 15 14  2  0  0  0  0
 16 17  1  0  0  0  0
 16 53  1  0  0  0  0
 16 54  1  0  0  0  0
 17 18  1  0  0  0  0
 17 55  1  0  0  0  0
 17 56  1  0  0  0  0
 18 19  2  0  0  0  0
 18 20  1  0  0  0  0
 21 14  1  0  0  0  0
 21 57  1  0  0  0  0
 22 25  1  0  0  0  0
 22 21  1  0  0  0  0
 22 58  1  6  0  0  0
 23 22  1  0  0  0  0
 23 30  1  0  0  0  0
 24 23  2  0  0  0  0
 25 59  1  0  0  0  0
 25 60  1  0  0  0  0
 26 25  1  0  0  0  0
 26 61  1  0  0  0  0
 26 62  1  0  0  0  0
 27 28  1  0  0  0  0
 27 26  1  0  0  0  0
 29 27  2  0  0  0  0
 30 63  1  0  0  0  0
 31 30  1  0  0  0  0
 31 34  1  0  0  0  0
 31 64  1  6  0  0  0
 32 35  1  0  0  0  0
 32 31  1  0  0  0  0
 33 32  2  0  0  0  0
 34 65  1  0  0  0  0
 34 66  1  0  0  0  0
 34 67  1  0  0  0  0
 35 68  1  0  0  0  0
 36 35  1  0  0  0  0
 36 69  1  0  0  0  0
 36 70  1  0  0  0  0
 36 71  1  0  0  0  0
M  CHG  1  20  -1
M  CHG  1  28  -1
M  END
>  <MODEL>
       0

$$$$
selected_4mers/LEEA/229_noH.pdb
 OpenBabel03042517503D

 71 70  0  0  1  0  0  0  0  0999 V2000
   32.2430    8.8180   -6.1100 C   0  0  0  0  0  0  0  0  0  0  0  0
   31.1830    9.5300   -6.9400 C   0  0  0  0  0  0  0  0  0  0  0  0
   30.2210   10.0750   -6.3910 O   0  0  0  0  0  0  0  0  0  0  0  0
   31.3550    9.5220   -8.2590 N   0  0  0  0  0  0  0  0  0  0  0  0
   30.3630   10.1070   -9.1580 C   0  0  2  0  0  0  0  0  0  0  0  0
   28.9900    9.4460   -8.9840 C   0  0  0  0  0  0  0  0  0  0  0  0
   27.9770   10.1410   -8.8850 O   0  0  0  0  0  0  0  0  0  0  0  0
   30.8330   10.0290  -10.6170 C   0  0  0  0  0  0  0  0  0  0  0  0
   29.8410   10.3360  -11.7490 C   0  0  0  0  0  0  0  0  0  0  0  0
   29.2180   11.7320  -11.6360 C   0  0  0  0  0  0  0  0  0  0  0  0
   30.5220   10.1550  -13.0980 C   0  0  0  0  0  0  0  0  0  0  0  0
   28.9740    8.1130   -8.9310 N   0  0  0  0  0  0  0  0  0  0  0  0
   27.7380    7.3420   -8.7640 C   0  0  2  0  0  0  0  0  0  0  0  0
   27.0420    7.6750   -7.4400 C   0  0  0  0  0  0  0  0  0  0  0  0
   25.8320    7.9030   -7.4080 O   0  0  0  0  0  0  0  0  0  0  0  0
   28.0190    5.8370   -8.8590 C   0  0  0  0  0  0  0  0  0  0  0  0
   26.7840    4.9490   -8.6820 C   0  0  0  0  0  0  0  0  0  0  0  0
   27.0550    3.4710   -8.9310 C   0  0  0  0  0  0  0  0  0  0  0  0
   28.2340    3.0550   -8.9430 O   0  0  0  0  0  0  0  0  0  0  0  0
   26.0750    2.7180   -9.1130 O   0  0  0  0  0  0  0  0  0  0  0  0
   27.8200    7.7040   -6.3600 N   0  0  0  0  0  0  0  0  0  0  0  0
   27.3010    8.0390   -5.0350 C   0  0  2  0  0  0  0  0  0  0  0  0
   26.7220    9.4520   -4.9860 C   0  0  0  0  0  0  0  0  0  0  0  0
   25.6320    9.6570   -4.4430 O   0  0  0  0  0  0  0  0  0  0  0  0
   28.3890    7.8690   -3.9730 C   0  0  0  0  0  0  0  0  0  0  0  0
   28.7030    6.4150   -3.6470 C   0  0  0  0  0  0  0  0  0  0  0  0
   29.9340    6.2480   -2.7710 C   0  0  0  0  0  0  0  0  0  0  0  0
   30.7600    7.1850   -2.6910 O   0  0  0  0  0  0  0  0  0  0  0  0
   30.0770    5.1650   -2.1670 O   0  0  0  0  0  0  0  0  0  0  0  0
   27.4520   10.4110   -5.5590 N   0  0  0  0  0  0  0  0  0  0  0  0
   27.0180   11.8060   -5.6010 C   0  0  2  0  0  0  0  0  0  0  0  0
   25.7410   11.9810   -6.4230 C   0  0  0  0  0  0  0  0  0  0  0  0
   24.8460   12.7410   -6.0330 O   0  0  0  0  0  0  0  0  0  0  0  0
   28.1290   12.6980   -6.1440 C   0  0  0  0  0  0  0  0  0  0  0  0
   25.6620   11.2780   -7.5530 N   0  0  0  0  0  0  0  0  0  0  0  0
   24.4770   11.3240   -8.4090 C   0  0  0  0  0  0  0  0  0  0  0  0
   32.9906    8.4117   -6.7588 H   0  0  0  0  0  0  0  0  0  0  0  0
   31.7871    8.0271   -5.5518 H   0  0  0  0  0  0  0  0  0  0  0  0
   32.6960    9.5149   -5.4362 H   0  0  0  0  0  0  0  0  0  0  0  0
   32.1671    9.1136   -8.6370 H   0  0  0  0  0  0  0  0  0  0  0  0
   30.2576   11.1397   -8.8984 H   0  0  0  0  0  0  0  0  0  0  0  0
   31.6451   10.7181  -10.7196 H   0  0  0  0  0  0  0  0  0  0  0  0
   31.0568    8.9916  -10.7536 H   0  0  0  0  0  0  0  0  0  0  0  0
   29.0333    9.6399  -11.6599 H   0  0  0  0  0  0  0  0  0  0  0  0
   29.9856   12.4729  -11.7188 H   0  0  0  0  0  0  0  0  0  0  0  0
   28.7294   11.8289  -10.6890 H   0  0  0  0  0  0  0  0  0  0  0  0
   28.5042   11.8686  -12.4213 H   0  0  0  0  0  0  0  0  0  0  0  0
   31.3295   10.8515  -13.1862 H   0  0  0  0  0  0  0  0  0  0  0  0
   29.8139   10.3288  -13.8812 H   0  0  0  0  0  0  0  0  0  0  0  0
   30.9013    9.1575  -13.1751 H   0  0  0  0  0  0  0  0  0  0  0  0
   29.8269    7.6272   -9.0071 H   0  0  0  0  0  0  0  0  0  0  0  0
   27.0771    7.6170   -9.5593 H   0  0  0  0  0  0  0  0  0  0  0  0
   28.7271    5.5804   -8.0989 H   0  0  0  0  0  0  0  0  0  0  0  0
   28.3844    5.6571   -9.8484 H   0  0  0  0  0  0  0  0  0  0  0  0
   26.4260    5.0632   -7.6801 H   0  0  0  0  0  0  0  0  0  0  0  0
   26.0648    5.2631   -9.4094 H   0  0  0  0  0  0  0  0  0  0  0  0
   28.7767    7.4928   -6.4569 H   0  0  0  0  0  0  0  0  0  0  0  0
   26.5018    7.3591   -4.8255 H   0  0  0  0  0  0  0  0  0  0  0  0
   28.0646    8.3540   -3.0761 H   0  0  0  0  0  0  0  0  0  0  0  0
   29.2839    8.3013   -4.3695 H   0  0  0  0  0  0  0  0  0  0  0  0
   28.8649    5.8885   -4.5643 H   0  0  0  0  0  0  0  0  0  0  0  0
   27.8697    6.0255   -3.1005 H   0  0  0  0  0  0  0  0  0  0  0  0
   28.3143   10.1700   -5.9684 H   0  0  0  0  0  0  0  0  0  0  0  0
   26.7971   12.1020   -4.5968 H   0  0  0  0  0  0  0  0  0  0  0  0
   28.3582   12.4105   -7.1489 H   0  0  0  0  0  0  0  0  0  0  0  0
   29.0020   12.5913   -5.5346 H   0  0  0  0  0  0  0  0  0  0  0  0
   27.8065   13.7181   -6.1296 H   0  0  0  0  0  0  0  0  0  0  0  0
   26.4225   10.7121   -7.8187 H   0  0  0  0  0  0  0  0  0  0  0  0
   23.7509   11.9811   -7.9779 H   0  0  0  0  0  0  0  0  0  0  0  0
   24.0618   10.3417   -8.4964 H   0  0  0  0  0  0  0  0  0  0  0  0
   24.7514   11.6828   -9.3790 H   0  0  0  0  0  0  0  0  0  0  0  0
  1 37  1  0  0  0  0
  1 38  1  0  0  0  0
  1 39  1  0  0  0  0
  2  3  2  0  0  0  0
  2  1  1  0  0  0  0
  4  2  1  0  0  0  0
  4 40  1  0  0  0  0
  5  6  1  0  0  0  0
  5  4  1  0  0  0  0
  5 41  1  1  0  0  0
  6 12  1  0  0  0  0
  6  7  2  0  0  0  0
  8  5  1  0  0  0  0
  8 42  1  0  0  0  0
  8 43  1  0  0  0  0
  9 10  1  0  0  0  0
  9  8  1  0  0  0  0
  9 44  1  0  0  0  0
 10 45  1  0  0  0  0
 10 46  1  0  0  0  0
 10 47  1  0  0  0  0
 11  9  1  0  0  0  0
 11 48  1  0  0  0  0
 11 49  1  0  0  0  0
 11 50  1  0  0  0  0
 12 13  1  0  0  0  0
 12 51  1  0  0  0  0
 13 14  1  0  0  0  0
 13 52  1  6  0  0  0
 14 15  2  0  0  0  0
 14 21  1  0  0  0  0
 16 13  1  0  0  0  0
 16 17  1  0  0  0  0
 16 53  1  0  0  0  0
 16 54  1  0  0  0  0
 17 55  1  0  0  0  0
 17 56  1  0  0  0  0
 18 17  1  0  0  0  0
 19 18  1  0  0  0  0
 20 18  2  0  0  0  0
 21 22  1  0  0  0  0
 21 57  1  0  0  0  0
 22 23  1  0  0  0  0
 22 25  1  0  0  0  0
 22 58  1  1  0  0  0
 23 24  2  0  0  0  0
 25 26  1  0  0  0  0
 25 59  1  0  0  0  0
 25 60  1  0  0  0  0
 26 27  1  0  0  0  0
 26 61  1  0  0  0  0
 26 62  1  0  0  0  0
 27 28  2  0  0  0  0
 27 29  1  0  0  0  0
 30 23  1  0  0  0  0
 30 63  1  0  0  0  0
 31 30  1  0  0  0  0
 31 64  1  1  0  0  0
 32 33  2  0  0  0  0
 32 31  1  0  0  0  0
 34 31  1  0  0  0  0
 34 65  1  0  0  0  0
 34 66  1  0  0  0  0
 34 67  1  0  0  0  0
 35 32  1  0  0  0  0
 35 68  1  0  0  0  0
 36 35  1  0  0  0  0
 36 69  1  0  0  0  0
 36 70  1  0  0  0  0
 36 71  1  0  0  0  0
M  CHG  1  19  -1
M  CHG  1  29  -1
M  END
>  <MODEL>
       0

$$$$
