selected_4mers/LEEL/45_noH.pdb
 OpenBabel03042517493D

 80 79  0  0  1  0  0  0  0  0999 V2000
   33.4530    9.4910    3.1510 C   0  0  0  0  0  0  0  0  0  0  0  0
   34.3120    9.3110    4.4170 C   0  0  0  0  0  0  0  0  0  0  0  0
   35.5060    9.0460    4.3430 O   0  0  0  0  0  0  0  0  0  0  0  0
   33.7080    9.4840    5.5820 N   0  0  0  0  0  0  0  0  0  0  0  0
   34.4250    9.3060    6.8480 C   0  0  2  0  0  0  0  0  0  0  0  0
   34.8510    7.8680    7.0560 C   0  0  0  0  0  0  0  0  0  0  0  0
   35.9300    7.6110    7.5950 O   0  0  0  0  0  0  0  0  0  0  0  0
   33.5530    9.7570    8.0240 C   0  0  0  0  0  0  0  0  0  0  0  0
   33.2760   11.2670    8.0580 C   0  0  0  0  0  0  0  0  0  0  0  0
   32.3010   11.5910    9.2000 C   0  0  0  0  0  0  0  0  0  0  0  0
   34.5820   12.0330    8.2430 C   0  0  0  0  0  0  0  0  0  0  0  0
   34.0090    6.9250    6.6420 N   0  0  0  0  0  0  0  0  0  0  0  0
   34.4050    5.4900    6.7470 C   0  0  2  0  0  0  0  0  0  0  0  0
   35.6220    5.2030    5.8790 C   0  0  0  0  0  0  0  0  0  0  0  0
   36.5010    4.4400    6.2670 O   0  0  0  0  0  0  0  0  0  0  0  0
   33.2200    4.5760    6.3350 C   0  0  0  0  0  0  0  0  0  0  0  0
   32.0590    4.6370    7.3550 C   0  0  0  0  0  0  0  0  0  0  0  0
   30.7610    4.0510    6.8100 C   0  0  0  0  0  0  0  0  0  0  0  0
   30.6940    3.5560    5.6610 O   0  0  0  0  0  0  0  0  0  0  0  0
   29.7640    4.1190    7.5320 O   0  0  0  0  0  0  0  0  0  0  0  0
   35.6730    5.7860    4.6850 N   0  0  0  0  0  0  0  0  0  0  0  0
   36.8450    5.5610    3.8180 C   0  0  2  0  0  0  0  0  0  0  0  0
   38.0810    6.2170    4.4210 C   0  0  0  0  0  0  0  0  0  0  0  0
   39.1940    5.6660    4.3930 O   0  0  0  0  0  0  0  0  0  0  0  0
   36.5980    6.1180    2.4130 C   0  0  0  0  0  0  0  0  0  0  0  0
   35.4370    5.5190    1.6530 C   0  0  0  0  0  0  0  0  0  0  0  0
   35.1350    6.3430    0.4160 C   0  0  0  0  0  0  0  0  0  0  0  0
   36.0690    7.0060   -0.0940 O   0  0  0  0  0  0  0  0  0  0  0  0
   33.9820    6.3180   -0.0450 O   0  0  0  0  0  0  0  0  0  0  0  0
   37.8930    7.3910    5.0040 N   0  0  0  0  0  0  0  0  0  0  0  0
   38.9830    8.1100    5.6670 C   0  0  2  0  0  0  0  0  0  0  0  0
   39.5210    7.3430    6.8650 C   0  0  0  0  0  0  0  0  0  0  0  0
   40.7440    7.2830    7.0640 O   0  0  0  0  0  0  0  0  0  0  0  0
   38.4760    9.4970    6.1260 C   0  0  0  0  0  0  0  0  0  0  0  0
   39.4700   10.5310    6.6400 C   0  0  0  0  0  0  0  0  0  0  0  0
   40.3820   10.9890    5.4940 C   0  0  0  0  0  0  0  0  0  0  0  0
   38.7040   11.7130    7.2520 C   0  0  0  0  0  0  0  0  0  0  0  0
   38.6130    6.7450    7.6440 N   0  0  0  0  0  0  0  0  0  0  0  0
   38.9910    5.9350    8.7930 C   0  0  0  0  0  0  0  0  0  0  0  0
   34.0570    9.3247    2.2836 H   0  0  0  0  0  0  0  0  0  0  0  0
   33.0588   10.4854    3.1259 H   0  0  0  0  0  0  0  0  0  0  0  0
   32.6466    8.7879    3.1642 H   0  0  0  0  0  0  0  0  0  0  0  0
   32.7569    9.7376    5.5986 H   0  0  0  0  0  0  0  0  0  0  0  0
   35.3061    9.9114    6.8011 H   0  0  0  0  0  0  0  0  0  0  0  0
   34.0486    9.4860    8.9328 H   0  0  0  0  0  0  0  0  0  0  0  0
   32.6059    9.2727    7.9086 H   0  0  0  0  0  0  0  0  0  0  0  0
   32.8335   11.5645    7.1303 H   0  0  0  0  0  0  0  0  0  0  0  0
   32.7343   11.2971   10.1331 H   0  0  0  0  0  0  0  0  0  0  0  0
   31.3851   11.0589    9.0487 H   0  0  0  0  0  0  0  0  0  0  0  0
   32.1045   12.6427    9.2136 H   0  0  0  0  0  0  0  0  0  0  0  0
   35.0363   11.7452    9.1680 H   0  0  0  0  0  0  0  0  0  0  0  0
   34.3804   13.0837    8.2564 H   0  0  0  0  0  0  0  0  0  0  0  0
   35.2454   11.8074    7.4344 H   0  0  0  0  0  0  0  0  0  0  0  0
   33.1318    7.1718    6.2694 H   0  0  0  0  0  0  0  0  0  0  0  0
   34.6625    5.2831    7.7647 H   0  0  0  0  0  0  0  0  0  0  0  0
   33.5690    3.5667    6.2689 H   0  0  0  0  0  0  0  0  0  0  0  0
   32.8497    4.9201    5.3920 H   0  0  0  0  0  0  0  0  0  0  0  0
   31.8883    5.6601    7.6176 H   0  0  0  0  0  0  0  0  0  0  0  0
   32.3451    4.0514    8.2036 H   0  0  0  0  0  0  0  0  0  0  0  0
   34.9349    6.3629    4.3822 H   0  0  0  0  0  0  0  0  0  0  0  0
   37.0062    4.5058    3.7444 H   0  0  0  0  0  0  0  0  0  0  0  0
   36.4206    7.1692    2.5050 H   0  0  0  0  0  0  0  0  0  0  0  0
   37.4709    5.8668    1.8475 H   0  0  0  0  0  0  0  0  0  0  0  0
   35.6850    4.5203    1.3597 H   0  0  0  0  0  0  0  0  0  0  0  0
   34.5739    5.5123    2.2854 H   0  0  0  0  0  0  0  0  0  0  0  0
   36.9941    7.7923    4.9914 H   0  0  0  0  0  0  0  0  0  0  0  0
   39.7823    8.2195    4.9641 H   0  0  0  0  0  0  0  0  0  0  0  0
   37.7718    9.3253    6.9131 H   0  0  0  0  0  0  0  0  0  0  0  0
   38.1021    9.9367    5.2250 H   0  0  0  0  0  0  0  0  0  0  0  0
   40.0872   10.0993    7.4000 H   0  0  0  0  0  0  0  0  0  0  0  0
   39.7882   11.4258    4.7184 H   0  0  0  0  0  0  0  0  0  0  0  0
   40.9148   10.1471    5.1040 H   0  0  0  0  0  0  0  0  0  0  0  0
   41.0789   11.7135    5.8605 H   0  0  0  0  0  0  0  0  0  0  0  0
   38.0800   12.1585    6.5056 H   0  0  0  0  0  0  0  0  0  0  0  0
   39.4004   12.4398    7.6149 H   0  0  0  0  0  0  0  0  0  0  0  0
   38.0979   11.3643    8.0619 H   0  0  0  0  0  0  0  0  0  0  0  0
   37.6577    6.8563    7.4335 H   0  0  0  0  0  0  0  0  0  0  0  0
   40.0572    5.9164    8.8810 H   0  0  0  0  0  0  0  0  0  0  0  0
   38.6266    4.9376    8.6616 H   0  0  0  0  0  0  0  0  0  0  0  0
   38.5671    6.3556    9.6809 H   0  0  0  0  0  0  0  0  0  0  0  0
  1  2  1  0  0  0  0
  1 40  1  0  0  0  0
  1 41  1  0  0  0  0
  1 42  1  0  0  0  0
  2  4  1  0  0  0  0
  3  2  2  0  0  0  0
  4  5  1  0  0  0  0
  4 43  1  0  0  0  0
  5  6  1  0  0  0  0
  5  8  1  0  0  0  0
  5 44  1  6  0  0  0
  6  7  2  0  0  0  0
  8  9  1  0  0  0  0
  8 45  1  0  0  0  0
  8 46  1  0  0  0  0
  9 11  1  0  0  0  0
  9 10  1  0  0  0  0
  9 47  1  0  0  0  0
 10 48  1  0  0  0  0
 10 49  1  0  0  0  0
 10 50  1  0  0  0  0
 11 51  1  0  0  0  0
 11 52  1  0  0  0  0
 11 53  1  0  0  0  0
 12 13  1  0  0  0  0
 12  6  1  0  0  0  0
 12 54  1  0  0  0  0
 13 55  1  1  0  0  0
 14 15  2  0  0  0  0
 14 13  1  0  0  0  0
 16 13  1  0  0  0  0
 16 17  1  0  0  0  0
 16 56  1  0  0  0  0
 16 57  1  0  0  0  0
 17 58  1  0  0  0  0
 17 59  1  0  0  0  0
 18 17  1  0  0  0  0
 18 20  1  0  0  0  0
 19 18  2  0  0  0  0
 21 14  1  0  0  0  0
 21 60  1  0  0  0  0
 22 23  1  0  0  0  0
 22 21  1  0  0  0  0
 22 61  1  6  0  0  0
 23 30  1  0  0  0  0
 24 23  2  0  0  0  0
 25 22  1  0  0  0  0
 25 62  1  0  0  0  0
 25 63  1  0  0  0  0
 26 25  1  0  0  0  0
 26 64  1  0  0  0  0
 26 65  1  0  0  0  0
 27 26  1  0  0  0  0
 28 27  2  0  0  0  0
 29 27  1  0  0  0  0
 30 31  1  0  0  0  0
 30 66  1  0  0  0  0
 31 34  1  0  0  0  0
 31 32  1  0  0  0  0
 31 67  1  6  0  0  0
 32 33  2  0  0  0  0
 32 38  1  0  0  0  0
 34 35  1  0  0  0  0
 34 68  1  0  0  0  0
 34 69  1  0  0  0  0
 35 37  1  0  0  0  0
 35 70  1  0  0  0  0
 36 35  1  0  0  0  0
 36 71  1  0  0  0  0
 36 72  1  0  0  0  0
 36 73  1  0  0  0  0
 37 74  1  0  0  0  0
 37 75  1  0  0  0  0
 37 76  1  0  0  0  0
 38 39  1  0  0  0  0
 38 77  1  0  0  0  0
 39 78  1  0  0  0  0
 39 79  1  0  0  0  0
 39 80  1  0  0  0  0
M  CHG  1  20  -1
M  CHG  1  29  -1
M  END
>  <MODEL>
       0

$$$$
selected_4mers/LEEL/46_noH.pdb
 OpenBabel03042517493D

 80 79  0  0  1  0  0  0  0  0999 V2000
   10.3550   -8.1390   22.9430 C   0  0  0  0  0  0  0  0  0  0  0  0
   10.6810   -9.2240   23.9720 C   0  0  0  0  0  0  0  0  0  0  0  0
   10.5760  -10.4150   23.6820 O   0  0  0  0  0  0  0  0  0  0  0  0
   11.0720   -8.8040   25.1720 N   0  0  0  0  0  0  0  0  0  0  0  0
   11.5220   -9.7340   26.2030 C   0  0  2  0  0  0  0  0  0  0  0  0
   10.6010   -9.7740   27.4160 C   0  0  0  0  0  0  0  0  0  0  0  0
    9.8760   -8.8200   27.6950 O   0  0  0  0  0  0  0  0  0  0  0  0
   12.9320   -9.3600   26.6690 C   0  0  0  0  0  0  0  0  0  0  0  0
   14.0740   -9.4680   25.6570 C   0  0  0  0  0  0  0  0  0  0  0  0
   15.3950   -9.0330   26.2820 C   0  0  0  0  0  0  0  0  0  0  0  0
   14.1760  -10.8800   25.1180 C   0  0  0  0  0  0  0  0  0  0  0  0
   10.6400  -10.8940   28.1280 N   0  0  0  0  0  0  0  0  0  0  0  0
   10.1350  -10.9580   29.4910 C   0  0  2  0  0  0  0  0  0  0  0  0
   11.3390  -11.1870   30.3840 C   0  0  0  0  0  0  0  0  0  0  0  0
   11.8530  -12.3040   30.4620 O   0  0  0  0  0  0  0  0  0  0  0  0
    9.1310  -12.0930   29.6760 C   0  0  0  0  0  0  0  0  0  0  0  0
    8.7000  -12.3050   31.1230 C   0  0  0  0  0  0  0  0  0  0  0  0
    8.0170  -13.6440   31.3580 C   0  0  0  0  0  0  0  0  0  0  0  0
    7.9770  -14.4830   30.4310 O   0  0  0  0  0  0  0  0  0  0  0  0
    7.5200  -13.8590   32.4840 O   0  0  0  0  0  0  0  0  0  0  0  0
   11.8320  -10.1250   31.0050 N   0  0  0  0  0  0  0  0  0  0  0  0
   13.0260  -10.2580   31.8300 C   0  0  2  0  0  0  0  0  0  0  0  0
   12.7710  -11.1620   33.0360 C   0  0  0  0  0  0  0  0  0  0  0  0
   11.7140  -11.0830   33.6770 O   0  0  0  0  0  0  0  0  0  0  0  0
   13.5510   -8.8920   32.2730 C   0  0  0  0  0  0  0  0  0  0  0  0
   14.8970   -9.0060   32.9570 C   0  0  0  0  0  0  0  0  0  0  0  0
   15.4700   -7.6820   33.3940 C   0  0  0  0  0  0  0  0  0  0  0  0
   14.7810   -6.6470   33.2600 O   0  0  0  0  0  0  0  0  0  0  0  0
   16.6210   -7.6890   33.8720 O   0  0  0  0  0  0  0  0  0  0  0  0
   13.7430  -12.0220   33.3410 N   0  0  0  0  0  0  0  0  0  0  0  0
   13.6440  -12.9560   34.4580 C   0  0  2  0  0  0  0  0  0  0  0  0
   14.7120  -12.6210   35.4840 C   0  0  0  0  0  0  0  0  0  0  0  0
   15.7440  -12.0380   35.1370 O   0  0  0  0  0  0  0  0  0  0  0  0
   13.8690  -14.3920   33.9810 C   0  0  0  0  0  0  0  0  0  0  0  0
   12.8870  -14.9960   32.9740 C   0  0  0  0  0  0  0  0  0  0  0  0
   13.4000  -16.3380   32.4860 C   0  0  0  0  0  0  0  0  0  0  0  0
   11.4960  -15.1230   33.5900 C   0  0  0  0  0  0  0  0  0  0  0  0
   14.4780  -12.9930   36.7520 N   0  0  0  0  0  0  0  0  0  0  0  0
   15.5380  -12.8470   37.7560 C   0  0  0  0  0  0  0  0  0  0  0  0
   10.0547   -8.5976   22.0241 H   0  0  0  0  0  0  0  0  0  0  0  0
   11.2224   -7.5358   22.7738 H   0  0  0  0  0  0  0  0  0  0  0  0
    9.5600   -7.5251   23.3117 H   0  0  0  0  0  0  0  0  0  0  0  0
   11.0575   -7.8397   25.3701 H   0  0  0  0  0  0  0  0  0  0  0  0
   11.5130  -10.7057   25.7552 H   0  0  0  0  0  0  0  0  0  0  0  0
   12.8978   -8.3441   27.0033 H   0  0  0  0  0  0  0  0  0  0  0  0
   13.1681  -10.0871   27.4177 H   0  0  0  0  0  0  0  0  0  0  0  0
   13.8604   -8.8104   24.8404 H   0  0  0  0  0  0  0  0  0  0  0  0
   15.6304   -9.6774   27.1031 H   0  0  0  0  0  0  0  0  0  0  0  0
   15.3092   -8.0256   26.6324 H   0  0  0  0  0  0  0  0  0  0  0  0
   16.1724   -9.0907   25.5491 H   0  0  0  0  0  0  0  0  0  0  0  0
   14.3896  -11.5538   25.9213 H   0  0  0  0  0  0  0  0  0  0  0  0
   14.9613  -10.9291   24.3929 H   0  0  0  0  0  0  0  0  0  0  0  0
   13.2492  -11.1544   24.6592 H   0  0  0  0  0  0  0  0  0  0  0  0
   11.0220  -11.7053   27.7216 H   0  0  0  0  0  0  0  0  0  0  0  0
    9.6199  -10.0518   29.7326 H   0  0  0  0  0  0  0  0  0  0  0  0
    9.5767  -12.9986   29.3208 H   0  0  0  0  0  0  0  0  0  0  0  0
    8.2533  -11.8247   29.1260 H   0  0  0  0  0  0  0  0  0  0  0  0
    8.0192  -11.5247   31.3923 H   0  0  0  0  0  0  0  0  0  0  0  0
    9.5862  -12.2920   31.7225 H   0  0  0  0  0  0  0  0  0  0  0  0
   11.3930   -9.2490   30.9093 H   0  0  0  0  0  0  0  0  0  0  0  0
   13.7806  -10.7197   31.2282 H   0  0  0  0  0  0  0  0  0  0  0  0
   12.8512   -8.4557   32.9547 H   0  0  0  0  0  0  0  0  0  0  0  0
   13.6691   -8.2810   31.4026 H   0  0  0  0  0  0  0  0  0  0  0  0
   15.5842   -9.4629   32.2759 H   0  0  0  0  0  0  0  0  0  0  0  0
   14.7492   -9.5895   33.8417 H   0  0  0  0  0  0  0  0  0  0  0  0
   14.5596  -12.0272   32.7911 H   0  0  0  0  0  0  0  0  0  0  0  0
   12.6666  -12.8729   34.8853 H   0  0  0  0  0  0  0  0  0  0  0  0
   14.8400  -14.4262   33.5329 H   0  0  0  0  0  0  0  0  0  0  0  0
   13.7319  -14.9824   34.8628 H   0  0  0  0  0  0  0  0  0  0  0  0
   12.8090  -14.3425   32.1304 H   0  0  0  0  0  0  0  0  0  0  0  0
   13.4863  -17.0096   33.3145 H   0  0  0  0  0  0  0  0  0  0  0  0
   14.3594  -16.2088   32.0302 H   0  0  0  0  0  0  0  0  0  0  0  0
   12.7161  -16.7420   31.7691 H   0  0  0  0  0  0  0  0  0  0  0  0
   11.5399  -15.7725   34.4392 H   0  0  0  0  0  0  0  0  0  0  0  0
   10.8208  -15.5282   32.8656 H   0  0  0  0  0  0  0  0  0  0  0  0
   11.1523  -14.1573   33.8970 H   0  0  0  0  0  0  0  0  0  0  0  0
   13.6012  -13.3613   37.0068 H   0  0  0  0  0  0  0  0  0  0  0  0
   16.4108  -12.4332   37.2956 H   0  0  0  0  0  0  0  0  0  0  0  0
   15.7730  -13.8059   38.1686 H   0  0  0  0  0  0  0  0  0  0  0  0
   15.2032  -12.1954   38.5359 H   0  0  0  0  0  0  0  0  0  0  0  0
  1  2  1  0  0  0  0
  1 40  1  0  0  0  0
  1 41  1  0  0  0  0
  1 42  1  0  0  0  0
  2  4  1  0  0  0  0
  3  2  2  0  0  0  0
  4  5  1  0  0  0  0
  4 43  1  0  0  0  0
  5  8  1  0  0  0  0
  5  6  1  0  0  0  0
  5 44  1  6  0  0  0
  6  7  2  0  0  0  0
  6 12  1  0  0  0  0
  8 45  1  0  0  0  0
  8 46  1  0  0  0  0
  9 10  1  0  0  0  0
  9  8  1  0  0  0  0
  9 47  1  0  0  0  0
 10 48  1  0  0  0  0
 10 49  1  0  0  0  0
 10 50  1  0  0  0  0
 11  9  1  0  0  0  0
 11 51  1  0  0  0  0
 11 52  1  0  0  0  0
 11 53  1  0  0  0  0
 12 13  1  0  0  0  0
 12 54  1  0  0  0  0
 13 16  1  0  0  0  0
 13 14  1  0  0  0  0
 13 55  1  1  0  0  0
 14 15  2  0  0  0  0
 14 21  1  0  0  0  0
 16 17  1  0  0  0  0
 16 56  1  0  0  0  0
 16 57  1  0  0  0  0
 17 18  1  0  0  0  0
 17 58  1  0  0  0  0
 17 59  1  0  0  0  0
 18 20  1  0  0  0  0
 19 18  2  0  0  0  0
 21 22  1  0  0  0  0
 21 60  1  0  0  0  0
 22 25  1  0  0  0  0
 22 23  1  0  0  0  0
 22 61  1  6  0  0  0
 23 30  1  0  0  0  0
 23 24  2  0  0  0  0
 25 26  1  0  0  0  0
 25 62  1  0  0  0  0
 25 63  1  0  0  0  0
 26 27  1  0  0  0  0
 26 64  1  0  0  0  0
 26 65  1  0  0  0  0
 27 29  1  0  0  0  0
 28 27  2  0  0  0  0
 30 31  1  0  0  0  0
 30 66  1  0  0  0  0
 31 32  1  0  0  0  0
 31 67  1  1  0  0  0
 32 38  1  0  0  0  0
 33 32  2  0  0  0  0
 34 31  1  0  0  0  0
 34 68  1  0  0  0  0
 34 69  1  0  0  0  0
 35 37  1  0  0  0  0
 35 34  1  0  0  0  0
 35 70  1  0  0  0  0
 36 35  1  0  0  0  0
 36 71  1  0  0  0  0
 36 72  1  0  0  0  0
 36 73  1  0  0  0  0
 37 74  1  0  0  0  0
 37 75  1  0  0  0  0
 37 76  1  0  0  0  0
 38 39  1  0  0  0  0
 38 77  1  0  0  0  0
 39 78  1  0  0  0  0
 39 79  1  0  0  0  0
 39 80  1  0  0  0  0
M  CHG  1  20  -1
M  CHG  1  29  -1
M  END
>  <MODEL>
       0

$$$$
selected_4mers/LEEL/47_noH.pdb
 OpenBabel03042517493D

 80 79  0  0  1  0  0  0  0  0999 V2000
   16.8060   38.1670   25.9290 C   0  0  0  0  0  0  0  0  0  0  0  0
   17.7470   37.3970   25.0030 C   0  0  0  0  0  0  0  0  0  0  0  0
   18.2000   36.3000   25.3390 O   0  0  0  0  0  0  0  0  0  0  0  0
   18.0060   37.9520   23.8200 N   0  0  0  0  0  0  0  0  0  0  0  0
   18.8230   37.2630   22.8190 C   0  0  2  0  0  0  0  0  0  0  0  0
   20.1480   36.7770   23.3950 C   0  0  0  0  0  0  0  0  0  0  0  0
   20.5570   35.6450   23.1270 O   0  0  0  0  0  0  0  0  0  0  0  0
   19.0890   38.1680   21.6160 C   0  0  0  0  0  0  0  0  0  0  0  0
   17.8800   38.5300   20.7510 C   0  0  0  0  0  0  0  0  0  0  0  0
   18.2510   39.6400   19.7810 C   0  0  0  0  0  0  0  0  0  0  0  0
   17.3560   37.3160   20.0130 C   0  0  0  0  0  0  0  0  0  0  0  0
   20.7670   37.6250   24.2190 N   0  0  0  0  0  0  0  0  0  0  0  0
   22.0870   37.3290   24.7800 C   0  0  2  0  0  0  0  0  0  0  0  0
   22.1170   36.1380   25.7390 C   0  0  0  0  0  0  0  0  0  0  0  0
   23.1990   35.6970   26.1570 O   0  0  0  0  0  0  0  0  0  0  0  0
   22.6750   38.5760   25.4450 C   0  0  0  0  0  0  0  0  0  0  0  0
   23.8210   39.2240   24.6720 C   0  0  0  0  0  0  0  0  0  0  0  0
   23.4030   39.9700   23.4100 C   0  0  0  0  0  0  0  0  0  0  0  0
   24.3020   40.2720   22.5970 O   0  0  0  0  0  0  0  0  0  0  0  0
   22.2010   40.2750   23.2280 O   0  0  0  0  0  0  0  0  0  0  0  0
   20.9430   35.6110   26.0720 N   0  0  0  0  0  0  0  0  0  0  0  0
   20.8430   34.4460   26.9490 C   0  0  2  0  0  0  0  0  0  0  0  0
   20.6750   33.1310   26.1600 C   0  0  0  0  0  0  0  0  0  0  0  0
   20.7160   32.0400   26.7360 O   0  0  0  0  0  0  0  0  0  0  0  0
   19.7600   34.6850   28.0240 C   0  0  0  0  0  0  0  0  0  0  0  0
   20.2150   35.7440   29.0610 C   0  0  0  0  0  0  0  0  0  0  0  0
   19.0910   36.4460   29.8510 C   0  0  0  0  0  0  0  0  0  0  0  0
   17.9270   35.9910   29.8410 O   0  0  0  0  0  0  0  0  0  0  0  0
   19.3950   37.4760   30.5010 O   0  0  0  0  0  0  0  0  0  0  0  0
   20.5530   33.2480   24.8350 N   0  0  0  0  0  0  0  0  0  0  0  0
   20.3100   32.1160   23.9460 C   0  0  2  0  0  0  0  0  0  0  0  0
   21.6020   31.4480   23.4880 C   0  0  0  0  0  0  0  0  0  0  0  0
   22.5760   32.1260   23.1980 O   0  0  0  0  0  0  0  0  0  0  0  0
   19.5380   32.5730   22.7020 C   0  0  0  0  0  0  0  0  0  0  0  0
   18.1410   33.1680   22.9080 C   0  0  0  0  0  0  0  0  0  0  0  0
   17.6080   33.7310   21.5850 C   0  0  0  0  0  0  0  0  0  0  0  0
   17.1770   32.1420   23.5060 C   0  0  0  0  0  0  0  0  0  0  0  0
   21.5790   30.1210   23.3950 N   0  0  0  0  0  0  0  0  0  0  0  0
   22.7310   29.3660   22.9070 C   0  0  0  0  0  0  0  0  0  0  0  0
   16.5234   39.0884   25.4643 H   0  0  0  0  0  0  0  0  0  0  0  0
   17.3042   38.3719   26.8535 H   0  0  0  0  0  0  0  0  0  0  0  0
   15.9317   37.5797   26.1175 H   0  0  0  0  0  0  0  0  0  0  0  0
   17.6409   38.8430   23.6147 H   0  0  0  0  0  0  0  0  0  0  0  0
   18.2644   36.4069   22.5030 H   0  0  0  0  0  0  0  0  0  0  0  0
   19.5105   39.0804   21.9830 H   0  0  0  0  0  0  0  0  0  0  0  0
   19.7353   37.6043   20.9761 H   0  0  0  0  0  0  0  0  0  0  0  0
   17.0960   38.8809   21.3891 H   0  0  0  0  0  0  0  0  0  0  0  0
   19.0350   39.3025   19.1358 H   0  0  0  0  0  0  0  0  0  0  0  0
   18.5841   40.4963   20.3294 H   0  0  0  0  0  0  0  0  0  0  0  0
   17.3950   39.9025   19.1951 H   0  0  0  0  0  0  0  0  0  0  0  0
   18.1172   36.9376   19.3632 H   0  0  0  0  0  0  0  0  0  0  0  0
   16.4988   37.5923   19.4353 H   0  0  0  0  0  0  0  0  0  0  0  0
   17.0817   36.5603   20.7191 H   0  0  0  0  0  0  0  0  0  0  0  0
   20.3245   38.4719   24.4560 H   0  0  0  0  0  0  0  0  0  0  0  0
   22.6959   37.0377   23.9498 H   0  0  0  0  0  0  0  0  0  0  0  0
   21.8929   39.2984   25.5514 H   0  0  0  0  0  0  0  0  0  0  0  0
   23.0811   38.2584   26.3826 H   0  0  0  0  0  0  0  0  0  0  0  0
   24.3096   39.9190   25.3225 H   0  0  0  0  0  0  0  0  0  0  0  0
   24.4565   38.4250   24.3517 H   0  0  0  0  0  0  0  0  0  0  0  0
   20.1185   36.0164   25.7183 H   0  0  0  0  0  0  0  0  0  0  0  0
   21.7702   34.3217   27.4684 H   0  0  0  0  0  0  0  0  0  0  0  0
   19.5636   33.7634   28.5310 H   0  0  0  0  0  0  0  0  0  0  0  0
   18.8780   35.0471   27.5383 H   0  0  0  0  0  0  0  0  0  0  0  0
   20.7671   36.4971   28.5386 H   0  0  0  0  0  0  0  0  0  0  0  0
   20.7862   35.2069   29.7891 H   0  0  0  0  0  0  0  0  0  0  0  0
   20.6311   34.1451   24.4370 H   0  0  0  0  0  0  0  0  0  0  0  0
   19.7396   31.4059   24.5075 H   0  0  0  0  0  0  0  0  0  0  0  0
   20.1324   33.3158   22.2123 H   0  0  0  0  0  0  0  0  0  0  0  0
   19.3696   31.6757   22.1440 H   0  0  0  0  0  0  0  0  0  0  0  0
   18.2177   33.9707   23.6113 H   0  0  0  0  0  0  0  0  0  0  0  0
   17.5248   32.9405   20.8687 H   0  0  0  0  0  0  0  0  0  0  0  0
   18.2821   34.4761   21.2171 H   0  0  0  0  0  0  0  0  0  0  0  0
   16.6452   34.1693   21.7460 H   0  0  0  0  0  0  0  0  0  0  0  0
   17.0703   31.3178   22.8321 H   0  0  0  0  0  0  0  0  0  0  0  0
   16.2226   32.5992   23.6642 H   0  0  0  0  0  0  0  0  0  0  0  0
   17.5637   31.7913   24.4400 H   0  0  0  0  0  0  0  0  0  0  0  0
   20.7652   29.6354   23.6617 H   0  0  0  0  0  0  0  0  0  0  0  0
   23.5233   30.0424   22.6629 H   0  0  0  0  0  0  0  0  0  0  0  0
   22.4518   28.8139   22.0340 H   0  0  0  0  0  0  0  0  0  0  0  0
   23.0615   28.6889   23.6667 H   0  0  0  0  0  0  0  0  0  0  0  0
  1 40  1  0  0  0  0
  1 41  1  0  0  0  0
  1 42  1  0  0  0  0
  2  3  2  0  0  0  0
  2  1  1  0  0  0  0
  4  2  1  0  0  0  0
  4 43  1  0  0  0  0
  5  6  1  0  0  0  0
  5  4  1  0  0  0  0
  5 44  1  6  0  0  0
  6 12  1  0  0  0  0
  7  6  2  0  0  0  0
  8  5  1  0  0  0  0
  8 45  1  0  0  0  0
  8 46  1  0  0  0  0
  9  8  1  0  0  0  0
  9 47  1  0  0  0  0
 10  9  1  0  0  0  0
 10 48  1  0  0  0  0
 10 49  1  0  0  0  0
 10 50  1  0  0  0  0
 11  9  1  0  0  0  0
 11 51  1  0  0  0  0
 11 52  1  0  0  0  0
 11 53  1  0  0  0  0
 12 13  1  0  0  0  0
 12 54  1  0  0  0  0
 13 16  1  0  0  0  0
 13 14  1  0  0  0  0
 13 55  1  6  0  0  0
 14 21  1  0  0  0  0
 14 15  2  0  0  0  0
 16 56  1  0  0  0  0
 16 57  1  0  0  0  0
 17 16  1  0  0  0  0
 17 58  1  0  0  0  0
 17 59  1  0  0  0  0
 18 17  1  0  0  0  0
 19 18  2  0  0  0  0
 20 18  1  0  0  0  0
 21 22  1  0  0  0  0
 21 60  1  0  0  0  0
 22 25  1  0  0  0  0
 22 61  1  1  0  0  0
 23 24  2  0  0  0  0
 23 22  1  0  0  0  0
 25 26  1  0  0  0  0
 25 62  1  0  0  0  0
 25 63  1  0  0  0  0
 26 27  1  0  0  0  0
 26 64  1  0  0  0  0
 26 65  1  0  0  0  0
 27 29  1  0  0  0  0
 28 27  2  0  0  0  0
 30 23  1  0  0  0  0
 30 66  1  0  0  0  0
 31 30  1  0  0  0  0
 31 67  1  1  0  0  0
 32 31  1  0  0  0  0
 33 32  2  0  0  0  0
 34 35  1  0  0  0  0
 34 31  1  0  0  0  0
 34 68  1  0  0  0  0
 34 69  1  0  0  0  0
 35 37  1  0  0  0  0
 35 70  1  0  0  0  0
 36 35  1  0  0  0  0
 36 71  1  0  0  0  0
 36 72  1  0  0  0  0
 36 73  1  0  0  0  0
 37 74  1  0  0  0  0
 37 75  1  0  0  0  0
 37 76  1  0  0  0  0
 38 32  1  0  0  0  0
 38 77  1  0  0  0  0
 39 38  1  0  0  0  0
 39 78  1  0  0  0  0
 39 79  1  0  0  0  0
 39 80  1  0  0  0  0
M  CHG  1  20  -1
M  CHG  1  29  -1
M  END
>  <MODEL>
       0

$$$$
selected_4mers/LEEL/48_noH.pdb
 OpenBabel03042517493D

 80 79  0  0  1  0  0  0  0  0999 V2000
   40.7330   45.5290   10.7680 C   0  0  0  0  0  0  0  0  0  0  0  0
   42.0740   44.9420   10.2920 C   0  0  0  0  0  0  0  0  0  0  0  0
   42.8510   44.4150   11.0810 O   0  0  0  0  0  0  0  0  0  0  0  0
   42.3700   45.0680    9.0020 N   0  0  0  0  0  0  0  0  0  0  0  0
   43.6660   44.6330    8.4870 C   0  0  2  0  0  0  0  0  0  0  0  0
   44.7820   45.3740    9.2100 C   0  0  0  0  0  0  0  0  0  0  0  0
   45.7740   44.7780    9.6000 O   0  0  0  0  0  0  0  0  0  0  0  0
   43.7220   44.8610    6.9580 C   0  0  0  0  0  0  0  0  0  0  0  0
   44.6020   43.9250    6.1600 C   0  0  0  0  0  0  0  0  0  0  0  0
   44.3590   42.4620    6.5490 C   0  0  0  0  0  0  0  0  0  0  0  0
   44.3650   44.1970    4.6540 C   0  0  0  0  0  0  0  0  0  0  0  0
   44.5970   46.6760    9.4130 N   0  0  0  0  0  0  0  0  0  0  0  0
   45.5550   47.5040   10.1570 C   0  0  2  0  0  0  0  0  0  0  0  0
   45.8930   46.8930   11.5230 C   0  0  0  0  0  0  0  0  0  0  0  0
   47.0550   46.7780   11.8770 O   0  0  0  0  0  0  0  0  0  0  0  0
   44.9620   48.9020   10.3820 C   0  0  0  0  0  0  0  0  0  0  0  0
   45.7100   49.7870   11.3900 C   0  0  0  0  0  0  0  0  0  0  0  0
   46.5490   50.8590   10.7630 C   0  0  0  0  0  0  0  0  0  0  0  0
   46.1890   51.3670    9.6680 O   0  0  0  0  0  0  0  0  0  0  0  0
   47.5670   51.2200   11.4080 O   0  0  0  0  0  0  0  0  0  0  0  0
   44.8660   46.5260   12.2760 N   0  0  0  0  0  0  0  0  0  0  0  0
   45.0590   45.9260   13.5930 C   0  0  2  0  0  0  0  0  0  0  0  0
   45.7190   44.5540   13.4720 C   0  0  0  0  0  0  0  0  0  0  0  0
   46.5580   44.1880   14.3010 O   0  0  0  0  0  0  0  0  0  0  0  0
   43.7380   45.8270   14.4020 C   0  0  0  0  0  0  0  0  0  0  0  0
   43.9830   45.5860   15.9070 C   0  0  0  0  0  0  0  0  0  0  0  0
   42.7530   45.3960   16.7960 C   0  0  0  0  0  0  0  0  0  0  0  0
   41.6020   45.6040   16.3490 O   0  0  0  0  0  0  0  0  0  0  0  0
   42.9710   45.0250   17.9800 O   0  0  0  0  0  0  0  0  0  0  0  0
   45.3310   43.7730   12.4600 N   0  0  0  0  0  0  0  0  0  0  0  0
   45.9830   42.4780   12.2520 C   0  0  2  0  0  0  0  0  0  0  0  0
   47.4670   42.6130   11.9060 C   0  0  0  0  0  0  0  0  0  0  0  0
   48.3010   41.8740   12.4510 O   0  0  0  0  0  0  0  0  0  0  0  0
   45.3010   41.6660   11.1680 C   0  0  0  0  0  0  0  0  0  0  0  0
   45.8590   40.2780   10.8620 C   0  0  0  0  0  0  0  0  0  0  0  0
   45.8790   39.3470   12.1110 C   0  0  0  0  0  0  0  0  0  0  0  0
   45.0920   39.6260    9.6580 C   0  0  0  0  0  0  0  0  0  0  0  0
   47.8150   43.5890   11.0720 N   0  0  0  0  0  0  0  0  0  0  0  0
   49.2170   43.8360   10.7830 C   0  0  0  0  0  0  0  0  0  0  0  0
   40.2063   45.9391    9.9318 H   0  0  0  0  0  0  0  0  0  0  0  0
   40.9163   46.2999   11.4870 H   0  0  0  0  0  0  0  0  0  0  0  0
   40.1443   44.7560   11.2161 H   0  0  0  0  0  0  0  0  0  0  0  0
   41.7082   45.4589    8.3868 H   0  0  0  0  0  0  0  0  0  0  0  0
   43.7983   43.5867    8.6677 H   0  0  0  0  0  0  0  0  0  0  0  0
   42.7251   44.7685    6.5804 H   0  0  0  0  0  0  0  0  0  0  0  0
   44.1604   45.8294    6.8355 H   0  0  0  0  0  0  0  0  0  0  0  0
   45.6327   44.1092    6.3805 H   0  0  0  0  0  0  0  0  0  0  0  0
   43.3387   42.2058    6.3537 H   0  0  0  0  0  0  0  0  0  0  0  0
   44.5667   42.3306    7.5904 H   0  0  0  0  0  0  0  0  0  0  0  0
   45.0021   41.8286    5.9744 H   0  0  0  0  0  0  0  0  0  0  0  0
   43.3373   44.0171    4.4165 H   0  0  0  0  0  0  0  0  0  0  0  0
   44.9846   43.5469    4.0723 H   0  0  0  0  0  0  0  0  0  0  0  0
   44.6094   45.2149    4.4326 H   0  0  0  0  0  0  0  0  0  0  0  0
   43.7863   47.1008    9.0503 H   0  0  0  0  0  0  0  0  0  0  0  0
   46.4516   47.5603    9.5758 H   0  0  0  0  0  0  0  0  0  0  0  0
   43.9581   48.7811   10.7319 H   0  0  0  0  0  0  0  0  0  0  0  0
   45.0351   49.4054    9.4406 H   0  0  0  0  0  0  0  0  0  0  0  0
   46.3493   49.1608   11.9766 H   0  0  0  0  0  0  0  0  0  0  0  0
   44.9646   50.2833   11.9756 H   0  0  0  0  0  0  0  0  0  0  0  0
   43.9508   46.6612   11.9392 H   0  0  0  0  0  0  0  0  0  0  0  0
   45.7105   46.5776   14.1369 H   0  0  0  0  0  0  0  0  0  0  0  0
   43.1583   45.0154   14.0145 H   0  0  0  0  0  0  0  0  0  0  0  0
   43.2246   46.7604   14.3016 H   0  0  0  0  0  0  0  0  0  0  0  0
   44.5247   46.4285   16.2835 H   0  0  0  0  0  0  0  0  0  0  0  0
   44.5034   44.6523   15.9547 H   0  0  0  0  0  0  0  0  0  0  0  0
   44.6103   44.0665   11.8569 H   0  0  0  0  0  0  0  0  0  0  0  0
   45.8949   41.9664   13.1876 H   0  0  0  0  0  0  0  0  0  0  0  0
   44.2783   41.5424   11.4574 H   0  0  0  0  0  0  0  0  0  0  0  0
   45.4618   42.2255   10.2702 H   0  0  0  0  0  0  0  0  0  0  0  0
   46.8823   40.4045   10.5762 H   0  0  0  0  0  0  0  0  0  0  0  0
   44.8771   39.1806   12.4479 H   0  0  0  0  0  0  0  0  0  0  0  0
   46.4456   39.8098   12.8918 H   0  0  0  0  0  0  0  0  0  0  0  0
   46.3280   38.4112   11.8511 H   0  0  0  0  0  0  0  0  0  0  0  0
   44.0640   39.4897    9.9218 H   0  0  0  0  0  0  0  0  0  0  0  0
   45.5300   38.6772    9.4279 H   0  0  0  0  0  0  0  0  0  0  0  0
   45.1591   40.2665    8.8035 H   0  0  0  0  0  0  0  0  0  0  0  0
   47.1210   44.1451   10.6497 H   0  0  0  0  0  0  0  0  0  0  0  0
   49.8212   43.1403   11.3269 H   0  0  0  0  0  0  0  0  0  0  0  0
   49.4710   44.8335   11.0751 H   0  0  0  0  0  0  0  0  0  0  0  0
   49.3915   43.7161    9.7342 H   0  0  0  0  0  0  0  0  0  0  0  0
  1 40  1  0  0  0  0
  1 41  1  0  0  0  0
  1 42  1  0  0  0  0
  2  1  1  0  0  0  0
  2  3  2  0  0  0  0
  4  2  1  0  0  0  0
  4 43  1  0  0  0  0
  5  4  1  0  0  0  0
  5  6  1  0  0  0  0
  5 44  1  1  0  0  0
  6 12  1  0  0  0  0
  6  7  2  0  0  0  0
  8  5  1  0  0  0  0
  8 45  1  0  0  0  0
  8 46  1  0  0  0  0
  9 10  1  0  0  0  0
  9  8  1  0  0  0  0
  9 47  1  0  0  0  0
 10 48  1  0  0  0  0
 10 49  1  0  0  0  0
 10 50  1  0  0  0  0
 11  9  1  0  0  0  0
 11 51  1  0  0  0  0
 11 52  1  0  0  0  0
 11 53  1  0  0  0  0
 12 13  1  0  0  0  0
 12 54  1  0  0  0  0
 13 16  1  0  0  0  0
 13 14  1  0  0  0  0
 13 55  1  6  0  0  0
 14 15  2  0  0  0  0
 14 21  1  0  0  0  0
 16 17  1  0  0  0  0
 16 56  1  0  0  0  0
 16 57  1  0  0  0  0
 17 58  1  0  0  0  0
 17 59  1  0  0  0  0
 18 17  1  0  0  0  0
 18 20  1  0  0  0  0
 19 18  2  0  0  0  0
 21 22  1  0  0  0  0
 21 60  1  0  0  0  0
 22 25  1  0  0  0  0
 22 61  1  1  0  0  0
 23 22  1  0  0  0  0
 23 24  2  0  0  0  0
 25 26  1  0  0  0  0
 25 62  1  0  0  0  0
 25 63  1  0  0  0  0
 26 27  1  0  0  0  0
 26 64  1  0  0  0  0
 26 65  1  0  0  0  0
 27 29  1  0  0  0  0
 28 27  2  0  0  0  0
 30 23  1  0  0  0  0
 30 66  1  0  0  0  0
 31 30  1  0  0  0  0
 31 67  1  1  0  0  0
 32 31  1  0  0  0  0
 32 33  2  0  0  0  0
 34 31  1  0  0  0  0
 34 68  1  0  0  0  0
 34 69  1  0  0  0  0
 35 34  1  0  0  0  0
 35 36  1  0  0  0  0
 35 70  1  0  0  0  0
 36 71  1  0  0  0  0
 36 72  1  0  0  0  0
 36 73  1  0  0  0  0
 37 35  1  0  0  0  0
 37 74  1  0  0  0  0
 37 75  1  0  0  0  0
 37 76  1  0  0  0  0
 38 32  1  0  0  0  0
 38 77  1  0  0  0  0
 39 38  1  0  0  0  0
 39 78  1  0  0  0  0
 39 79  1  0  0  0  0
 39 80  1  0  0  0  0
M  CHG  1  20  -1
M  CHG  1  29  -1
M  END
>  <MODEL>
       0

$$$$
selected_4mers/LEEL/49_noH.pdb
 OpenBabel03042517493D

 80 79  0  0  1  0  0  0  0  0999 V2000
   10.3800   11.9000    9.4400 C   0  0  0  0  0  0  0  0  0  0  0  0
   11.4780   12.8530    9.8600 C   0  0  0  0  0  0  0  0  0  0  0  0
   12.0240   12.7450   10.9570 O   0  0  0  0  0  0  0  0  0  0  0  0
   11.7960   13.8070    8.9810 N   0  0  0  0  0  0  0  0  0  0  0  0
   12.8480   14.7760    9.2400 C   0  0  2  0  0  0  0  0  0  0  0  0
   12.5210   15.6980   10.4540 C   0  0  0  0  0  0  0  0  0  0  0  0
   13.3730   15.9370   11.2780 O   0  0  0  0  0  0  0  0  0  0  0  0
   13.2260   15.5800    7.9860 C   0  0  0  0  0  0  0  0  0  0  0  0
   14.3660   16.6540    8.1690 C   0  0  0  0  0  0  0  0  0  0  0  0
   15.7110   16.0780    8.6780 C   0  0  0  0  0  0  0  0  0  0  0  0
   14.6330   17.4830    6.8830 C   0  0  0  0  0  0  0  0  0  0  0  0
   11.2840   16.1880   10.5430 N   0  0  0  0  0  0  0  0  0  0  0  0
   10.8560   17.0360   11.6360 C   0  0  2  0  0  0  0  0  0  0  0  0
   10.9820   16.2370   12.9760 C   0  0  0  0  0  0  0  0  0  0  0  0
   11.4300   16.7690   14.0010 O   0  0  0  0  0  0  0  0  0  0  0  0
    9.4060   17.4380   11.3180 C   0  0  0  0  0  0  0  0  0  0  0  0
    8.6950   18.2170   12.3060 C   0  0  0  0  0  0  0  0  0  0  0  0
    7.9350   17.3260   13.2780 C   0  0  0  0  0  0  0  0  0  0  0  0
    6.9050   16.6540   12.9740 O   0  0  0  0  0  0  0  0  0  0  0  0
    8.3980   17.3300   14.3900 O   0  0  0  0  0  0  0  0  0  0  0  0
   10.5670   14.9710   12.9610 N   0  0  0  0  0  0  0  0  0  0  0  0
   10.6250   14.1480   14.1880 C   0  0  2  0  0  0  0  0  0  0  0  0
   12.0440   13.9150   14.6010 C   0  0  0  0  0  0  0  0  0  0  0  0
   12.3610   14.0430   15.7800 O   0  0  0  0  0  0  0  0  0  0  0  0
    9.9280   12.7860   13.9960 C   0  0  0  0  0  0  0  0  0  0  0  0
    8.4130   12.9200   13.8060 C   0  0  0  0  0  0  0  0  0  0  0  0
    7.7810   11.6470   13.1970 C   0  0  0  0  0  0  0  0  0  0  0  0
    8.5010   10.7710   12.6140 O   0  0  0  0  0  0  0  0  0  0  0  0
    6.5360   11.5560   13.2700 O   0  0  0  0  0  0  0  0  0  0  0  0
   12.8990   13.5830   13.6310 N   0  0  0  0  0  0  0  0  0  0  0  0
   14.3220   13.3720   13.8870 C   0  0  2  0  0  0  0  0  0  0  0  0
   15.0060   14.6400   14.4490 C   0  0  0  0  0  0  0  0  0  0  0  0
   15.7480   14.5670   15.4450 O   0  0  0  0  0  0  0  0  0  0  0  0
   15.0400   12.9230   12.5950 C   0  0  0  0  0  0  0  0  0  0  0  0
   16.5650   12.8880   12.5680 C   0  0  0  0  0  0  0  0  0  0  0  0
   17.1130   11.7190   13.4500 C   0  0  0  0  0  0  0  0  0  0  0  0
   17.0040   12.8120   11.0980 C   0  0  0  0  0  0  0  0  0  0  0  0
   14.7870   15.7800   13.7980 N   0  0  0  0  0  0  0  0  0  0  0  0
   15.3900   17.0480   14.2610 C   0  0  0  0  0  0  0  0  0  0  0  0
   10.0380   12.1596    8.4599 H   0  0  0  0  0  0  0  0  0  0  0  0
    9.5659   11.9669   10.1312 H   0  0  0  0  0  0  0  0  0  0  0  0
   10.7597   10.8997    9.4319 H   0  0  0  0  0  0  0  0  0  0  0  0
   11.3022   13.8554    8.1307 H   0  0  0  0  0  0  0  0  0  0  0  0
   13.7151   14.2111    9.5118 H   0  0  0  0  0  0  0  0  0  0  0  0
   13.5473   14.8864    7.2373 H   0  0  0  0  0  0  0  0  0  0  0  0
   12.3486   16.1335    7.7238 H   0  0  0  0  0  0  0  0  0  0  0  0
   13.9738   17.2959    8.9300 H   0  0  0  0  0  0  0  0  0  0  0  0
   16.1261   15.4306    7.9340 H   0  0  0  0  0  0  0  0  0  0  0  0
   15.5442   15.5253    9.5789 H   0  0  0  0  0  0  0  0  0  0  0  0
   16.3917   16.8803    8.8727 H   0  0  0  0  0  0  0  0  0  0  0  0
   15.0253   16.8426    6.1208 H   0  0  0  0  0  0  0  0  0  0  0  0
   15.3404   18.2566    7.0978 H   0  0  0  0  0  0  0  0  0  0  0  0
   13.7173   17.9210    6.5444 H   0  0  0  0  0  0  0  0  0  0  0  0
   10.6354   15.9642    9.8370 H   0  0  0  0  0  0  0  0  0  0  0  0
   11.4538   17.9164   11.7472 H   0  0  0  0  0  0  0  0  0  0  0  0
    8.8511   16.5367   11.1613 H   0  0  0  0  0  0  0  0  0  0  0  0
    9.4834   18.0832   10.4680 H   0  0  0  0  0  0  0  0  0  0  0  0
    7.9999   18.8598   11.8074 H   0  0  0  0  0  0  0  0  0  0  0  0
    9.4099   18.7869   12.8619 H   0  0  0  0  0  0  0  0  0  0  0  0
   10.2192   14.5807   12.1268 H   0  0  0  0  0  0  0  0  0  0  0  0
   10.1099   14.6915   14.9523 H   0  0  0  0  0  0  0  0  0  0  0  0
   10.3407   12.3088   13.1318 H   0  0  0  0  0  0  0  0  0  0  0  0
   10.0935   12.2098   14.8823 H   0  0  0  0  0  0  0  0  0  0  0  0
    7.9622   13.1056   14.7585 H   0  0  0  0  0  0  0  0  0  0  0  0
    8.2394   13.7279   13.1263 H   0  0  0  0  0  0  0  0  0  0  0  0
   12.5596   13.4768   12.7130 H   0  0  0  0  0  0  0  0  0  0  0  0
   14.3983   12.6029   14.6270 H   0  0  0  0  0  0  0  0  0  0  0  0
   14.7001   11.9324   12.3759 H   0  0  0  0  0  0  0  0  0  0  0  0
   14.7891   13.6836   11.8855 H   0  0  0  0  0  0  0  0  0  0  0  0
   16.9813   13.7750   12.9979 H   0  0  0  0  0  0  0  0  0  0  0  0
   16.7380   10.7874   13.0806 H   0  0  0  0  0  0  0  0  0  0  0  0
   16.7937   11.8559   14.4620 H   0  0  0  0  0  0  0  0  0  0  0  0
   18.1823   11.7137   13.4109 H   0  0  0  0  0  0  0  0  0  0  0  0
   16.5971   11.9299   10.6494 H   0  0  0  0  0  0  0  0  0  0  0  0
   18.0722   12.7783   11.0461 H   0  0  0  0  0  0  0  0  0  0  0  0
   16.6485   13.6749   10.5745 H   0  0  0  0  0  0  0  0  0  0  0  0
   14.2152   15.7789   12.9966 H   0  0  0  0  0  0  0  0  0  0  0  0
   15.9758   16.8652   15.1375 H   0  0  0  0  0  0  0  0  0  0  0  0
   14.6147   17.7490   14.4899 H   0  0  0  0  0  0  0  0  0  0  0  0
   16.0159   17.4475   13.4906 H   0  0  0  0  0  0  0  0  0  0  0  0
  1  2  1  0  0  0  0
  1 40  1  0  0  0  0
  1 41  1  0  0  0  0
  1 42  1  0  0  0  0
  2  3  2  0  0  0  0
  4  5  1  0  0  0  0
  4  2  1  0  0  0  0
  4 43  1  0  0  0  0
  5  6  1  0  0  0  0
  5 44  1  1  0  0  0
  6 12  1  0  0  0  0
  6  7  2  0  0  0  0
  8  9  1  0  0  0  0
  8  5  1  0  0  0  0
  8 45  1  0  0  0  0
  8 46  1  0  0  0  0
  9 10  1  0  0  0  0
  9 47  1  0  0  0  0
 10 48  1  0  0  0  0
 10 49  1  0  0  0  0
 10 50  1  0  0  0  0
 11  9  1  0  0  0  0
 11 51  1  0  0  0  0
 11 52  1  0  0  0  0
 11 53  1  0  0  0  0
 12 13  1  0  0  0  0
 12 54  1  0  0  0  0
 13 14  1  0  0  0  0
 13 55  1  1  0  0  0
 14 15  2  0  0  0  0
 16 13  1  0  0  0  0
 16 17  1  0  0  0  0
 16 56  1  0  0  0  0
 16 57  1  0  0  0  0
 17 18  1  0  0  0  0
 17 58  1  0  0  0  0
 17 59  1  0  0  0  0
 18 20  1  0  0  0  0
 19 18  2  0  0  0  0
 21 14  1  0  0  0  0
 21 22  1  0  0  0  0
 21 60  1  0  0  0  0
 22 23  1  0  0  0  0
 22 61  1  1  0  0  0
 23 24  2  0  0  0  0
 25 22  1  0  0  0  0
 25 62  1  0  0  0  0
 25 63  1  0  0  0  0
 26 25  1  0  0  0  0
 26 64  1  0  0  0  0
 26 65  1  0  0  0  0
 27 29  1  0  0  0  0
 27 26  1  0  0  0  0
 28 27  2  0  0  0  0
 30 31  1  0  0  0  0
 30 23  1  0  0  0  0
 30 66  1  0  0  0  0
 31 32  1  0  0  0  0
 31 67  1  1  0  0  0
 32 33  2  0  0  0  0
 34 31  1  0  0  0  0
 34 68  1  0  0  0  0
 34 69  1  0  0  0  0
 35 34  1  0  0  0  0
 35 36  1  0  0  0  0
 35 70  1  0  0  0  0
 36 71  1  0  0  0  0
 36 72  1  0  0  0  0
 36 73  1  0  0  0  0
 37 35  1  0  0  0  0
 37 74  1  0  0  0  0
 37 75  1  0  0  0  0
 37 76  1  0  0  0  0
 38 39  1  0  0  0  0
 38 32  1  0  0  0  0
 38 77  1  0  0  0  0
 39 78  1  0  0  0  0
 39 79  1  0  0  0  0
 39 80  1  0  0  0  0
M  CHG  1  20  -1
M  CHG  1  29  -1
M  END
>  <MODEL>
       0

$$$$
