selected_4mers/LEEV/305_noH.pdb
 OpenBabel03042517593D

 77 76  0  0  1  0  0  0  0  0999 V2000
   12.9960    1.3180   20.5280 C   0  0  0  0  0  0  0  0  0  0  0  0
   12.9980    1.3340   19.0010 C   0  0  0  0  0  0  0  0  0  0  0  0
   11.9750    1.6680   18.4040 O   0  0  0  0  0  0  0  0  0  0  0  0
   14.1530    1.0060   18.3780 N   0  0  0  0  0  0  0  0  0  0  0  0
   14.3120    0.9830   16.9210 C   0  0  2  0  0  0  0  0  0  0  0  0
   13.3440   -0.0070   16.2740 C   0  0  0  0  0  0  0  0  0  0  0  0
   12.7500    0.3130   15.2430 O   0  0  0  0  0  0  0  0  0  0  0  0
   15.7680    0.6970   16.5180 C   0  0  0  0  0  0  0  0  0  0  0  0
   16.7800    1.8200   16.7940 C   0  0  0  0  0  0  0  0  0  0  0  0
   18.1830    1.2690   16.9390 C   0  0  0  0  0  0  0  0  0  0  0  0
   16.7320    2.8980   15.7120 C   0  0  0  0  0  0  0  0  0  0  0  0
   13.1360   -1.1770   16.9200 N   0  0  0  0  0  0  0  0  0  0  0  0
   12.1880   -2.1990   16.4720 C   0  0  2  0  0  0  0  0  0  0  0  0
   10.7560   -1.6610   16.5900 C   0  0  0  0  0  0  0  0  0  0  0  0
    9.9370   -1.9220   15.7080 O   0  0  0  0  0  0  0  0  0  0  0  0
   12.3550   -3.5050   17.2670 C   0  0  0  0  0  0  0  0  0  0  0  0
   13.5730   -4.3200   16.8560 C   0  0  0  0  0  0  0  0  0  0  0  0
   13.7670   -5.6530   17.5600 C   0  0  0  0  0  0  0  0  0  0  0  0
   14.3030   -6.5820   16.9140 O   0  0  0  0  0  0  0  0  0  0  0  0
   13.4010   -5.7690   18.7530 O   0  0  0  0  0  0  0  0  0  0  0  0
   10.4740   -0.8710   17.6500 N   0  0  0  0  0  0  0  0  0  0  0  0
    9.1710   -0.2320   17.8660 C   0  0  2  0  0  0  0  0  0  0  0  0
    8.9150    0.8310   16.7850 C   0  0  0  0  0  0  0  0  0  0  0  0
    7.8120    0.8730   16.2430 O   0  0  0  0  0  0  0  0  0  0  0  0
    9.0740    0.3710   19.2730 C   0  0  0  0  0  0  0  0  0  0  0  0
    7.6710    0.8120   19.6620 C   0  0  0  0  0  0  0  0  0  0  0  0
    7.5880    1.7440   20.8540 C   0  0  0  0  0  0  0  0  0  0  0  0
    8.4470    1.6440   21.7600 O   0  0  0  0  0  0  0  0  0  0  0  0
    6.6470    2.5680   20.8880 O   0  0  0  0  0  0  0  0  0  0  0  0
    9.9410    1.6570   16.4500 N   0  0  0  0  0  0  0  0  0  0  0  0
    9.8560    2.6800   15.3960 C   0  0  2  0  0  0  0  0  0  0  0  0
    9.6120    1.9930   14.0380 C   0  0  0  0  0  0  0  0  0  0  0  0
    8.7730    2.4620   13.2610 O   0  0  0  0  0  0  0  0  0  0  0  0
   11.0810    3.6480   15.3760 C   0  0  0  0  0  0  0  0  0  0  0  0
   11.0100    4.6170   14.1980 C   0  0  0  0  0  0  0  0  0  0  0  0
   11.1860    4.4290   16.6830 C   0  0  0  0  0  0  0  0  0  0  0  0
   10.2930    0.8460   13.7940 N   0  0  0  0  0  0  0  0  0  0  0  0
   10.1400    0.0380   12.5790 C   0  0  0  0  0  0  0  0  0  0  0  0
   13.9563    1.0067   20.8827 H   0  0  0  0  0  0  0  0  0  0  0  0
   12.2488    0.6360   20.8766 H   0  0  0  0  0  0  0  0  0  0  0  0
   12.7815    2.3000   20.8947 H   0  0  0  0  0  0  0  0  0  0  0  0
   14.9302    0.7695   18.9342 H   0  0  0  0  0  0  0  0  0  0  0  0
   14.0676    1.9577   16.5534 H   0  0  0  0  0  0  0  0  0  0  0  0
   16.0903   -0.1720   17.0527 H   0  0  0  0  0  0  0  0  0  0  0  0
   15.7535    0.5788   15.4547 H   0  0  0  0  0  0  0  0  0  0  0  0
   16.5029    2.2759   17.7215 H   0  0  0  0  0  0  0  0  0  0  0  0
   18.4815    0.8074   16.0210 H   0  0  0  0  0  0  0  0  0  0  0  0
   18.2019    0.5438   17.7255 H   0  0  0  0  0  0  0  0  0  0  0  0
   18.8570    2.0665   17.1729 H   0  0  0  0  0  0  0  0  0  0  0  0
   17.0052    2.4703   14.7700 H   0  0  0  0  0  0  0  0  0  0  0  0
   17.4163    3.6824   15.9595 H   0  0  0  0  0  0  0  0  0  0  0  0
   15.7408    3.2961   15.6489 H   0  0  0  0  0  0  0  0  0  0  0  0
   13.6525   -1.3517   17.7397 H   0  0  0  0  0  0  0  0  0  0  0  0
   12.3901   -2.4265   15.4462 H   0  0  0  0  0  0  0  0  0  0  0  0
   11.4814   -4.1048   17.1186 H   0  0  0  0  0  0  0  0  0  0  0  0
   12.4932   -3.2315   18.2922 H   0  0  0  0  0  0  0  0  0  0  0  0
   14.4414   -3.7238   17.0440 H   0  0  0  0  0  0  0  0  0  0  0  0
   13.4155   -4.5643   15.8262 H   0  0  0  0  0  0  0  0  0  0  0  0
   11.1832   -0.7156   18.3149 H   0  0  0  0  0  0  0  0  0  0  0  0
    8.4110   -0.9812   17.7886 H   0  0  0  0  0  0  0  0  0  0  0  0
    9.7194    1.2232   19.3190 H   0  0  0  0  0  0  0  0  0  0  0  0
    9.3581   -0.3987   19.9598 H   0  0  0  0  0  0  0  0  0  0  0  0
    7.1006   -0.0645   19.8884 H   0  0  0  0  0  0  0  0  0  0  0  0
    7.2953    1.3670   18.8279 H   0  0  0  0  0  0  0  0  0  0  0  0
   10.7896    1.5656   16.9407 H   0  0  0  0  0  0  0  0  0  0  0  0
    9.0224    3.3150   15.6123 H   0  0  0  0  0  0  0  0  0  0  0  0
   11.9566    3.0433   15.2637 H   0  0  0  0  0  0  0  0  0  0  0  0
   10.1390    5.2311   14.2933 H   0  0  0  0  0  0  0  0  0  0  0  0
   10.9579    4.0637   13.2837 H   0  0  0  0  0  0  0  0  0  0  0  0
   11.8833    5.2352   14.1915 H   0  0  0  0  0  0  0  0  0  0  0  0
   10.3147    5.0378   16.8057 H   0  0  0  0  0  0  0  0  0  0  0  0
   12.0556    5.0519   16.6574 H   0  0  0  0  0  0  0  0  0  0  0  0
   11.2613    3.7448   17.5022 H   0  0  0  0  0  0  0  0  0  0  0  0
   10.9313    0.5354   14.4762 H   0  0  0  0  0  0  0  0  0  0  0  0
    9.4185    0.4956   11.9348 H   0  0  0  0  0  0  0  0  0  0  0  0
    9.8095   -0.9447   12.8435 H   0  0  0  0  0  0  0  0  0  0  0  0
   11.0804   -0.0262   12.0726 H   0  0  0  0  0  0  0  0  0  0  0  0
  1 39  1  0  0  0  0
  1 40  1  0  0  0  0
  1 41  1  0  0  0  0
  2  1  1  0  0  0  0
  3  2  2  0  0  0  0
  4  2  1  0  0  0  0
  4 42  1  0  0  0  0
  5  4  1  0  0  0  0
  5 43  1  6  0  0  0
  6 12  1  0  0  0  0
  6  5  1  0  0  0  0
  7  6  2  0  0  0  0
  8  9  1  0  0  0  0
  8  5  1  0  0  0  0
  8 44  1  0  0  0  0
  8 45  1  0  0  0  0
  9 10  1  0  0  0  0
  9 46  1  0  0  0  0
 10 47  1  0  0  0  0
 10 48  1  0  0  0  0
 10 49  1  0  0  0  0
 11  9  1  0  0  0  0
 11 50  1  0  0  0  0
 11 51  1  0  0  0  0
 11 52  1  0  0  0  0
 12 53  1  0  0  0  0
 13 14  1  0  0  0  0
 13 12  1  0  0  0  0
 13 16  1  0  0  0  0
 13 54  1  6  0  0  0
 14 21  1  0  0  0  0
 15 14  2  0  0  0  0
 16 55  1  0  0  0  0
 16 56  1  0  0  0  0
 17 16  1  0  0  0  0
 17 18  1  0  0  0  0
 17 57  1  0  0  0  0
 17 58  1  0  0  0  0
 18 20  1  0  0  0  0
 19 18  2  0  0  0  0
 21 22  1  0  0  0  0
 21 59  1  0  0  0  0
 22 25  1  0  0  0  0
 22 60  1  6  0  0  0
 23 22  1  0  0  0  0
 24 23  2  0  0  0  0
 25 26  1  0  0  0  0
 25 61  1  0  0  0  0
 25 62  1  0  0  0  0
 26 27  1  0  0  0  0
 26 63  1  0  0  0  0
 26 64  1  0  0  0  0
 27 29  2  0  0  0  0
 27 28  1  0  0  0  0
 30 23  1  0  0  0  0
 30 65  1  0  0  0  0
 31 30  1  0  0  0  0
 31 66  1  1  0  0  0
 32 31  1  0  0  0  0
 33 32  2  0  0  0  0
 34 31  1  0  0  0  0
 34 36  1  0  0  0  0
 34 67  1  0  0  0  0
 35 34  1  0  0  0  0
 35 68  1  0  0  0  0
 35 69  1  0  0  0  0
 35 70  1  0  0  0  0
 36 71  1  0  0  0  0
 36 72  1  0  0  0  0
 36 73  1  0  0  0  0
 37 32  1  0  0  0  0
 37 74  1  0  0  0  0
 38 37  1  0  0  0  0
 38 75  1  0  0  0  0
 38 76  1  0  0  0  0
 38 77  1  0  0  0  0
M  CHG  1  20  -1
M  CHG  1  28  -1
M  END
>  <MODEL>
       0

$$$$
selected_4mers/LEEV/306_noH.pdb
 OpenBabel03042517593D

 77 76  0  0  1  0  0  0  0  0999 V2000
    2.9250   25.5300   20.9470 C   0  0  0  0  0  0  0  0  0  0  0  0
    2.0120   24.7000   21.8330 C   0  0  0  0  0  0  0  0  0  0  0  0
    1.9420   24.9370   23.0340 O   0  0  0  0  0  0  0  0  0  0  0  0
    1.2950   23.7510   21.2350 N   0  0  0  0  0  0  0  0  0  0  0  0
    0.4010   22.9190   22.0400 C   0  0  2  0  0  0  0  0  0  0  0  0
    0.8450   21.4710   22.0190 C   0  0  0  0  0  0  0  0  0  0  0  0
    1.1750   20.9600   20.9620 O   0  0  0  0  0  0  0  0  0  0  0  0
   -1.0480   23.0030   21.5110 C   0  0  0  0  0  0  0  0  0  0  0  0
   -1.7190   24.3800   21.5160 C   0  0  0  0  0  0  0  0  0  0  0  0
   -3.1480   24.2680   20.9070 C   0  0  0  0  0  0  0  0  0  0  0  0
   -1.7560   24.9380   22.9630 C   0  0  0  0  0  0  0  0  0  0  0  0
    0.8620   20.8310   23.1910 N   0  0  0  0  0  0  0  0  0  0  0  0
    1.2180   19.4270   23.2850 C   0  0  2  0  0  0  0  0  0  0  0  0
   -0.1430   18.7370   23.3870 C   0  0  0  0  0  0  0  0  0  0  0  0
   -0.7900   18.7680   24.4160 O   0  0  0  0  0  0  0  0  0  0  0  0
    2.0970   19.2020   24.5070 C   0  0  0  0  0  0  0  0  0  0  0  0
    2.6390   17.8110   24.6120 C   0  0  0  0  0  0  0  0  0  0  0  0
    3.6390   17.7210   25.7520 C   0  0  0  0  0  0  0  0  0  0  0  0
    3.3900   16.9370   26.6780 O   0  0  0  0  0  0  0  0  0  0  0  0
    4.6670   18.4490   25.7260 O   0  0  0  0  0  0  0  0  0  0  0  0
   -0.5580   18.1810   22.2410 N   0  0  0  0  0  0  0  0  0  0  0  0
   -1.8530   17.5470   22.0410 C   0  0  2  0  0  0  0  0  0  0  0  0
   -1.8600   16.0510   22.2690 C   0  0  0  0  0  0  0  0  0  0  0  0
   -0.9030   15.3590   21.9490 O   0  0  0  0  0  0  0  0  0  0  0  0
   -2.2830   17.7860   20.5980 C   0  0  0  0  0  0  0  0  0  0  0  0
   -2.2800   19.2890   20.2420 C   0  0  0  0  0  0  0  0  0  0  0  0
   -2.0620   19.5220   18.7530 C   0  0  0  0  0  0  0  0  0  0  0  0
   -1.8260   18.5620   18.0230 O   0  0  0  0  0  0  0  0  0  0  0  0
   -2.0910   20.6750   18.3110 O   0  0  0  0  0  0  0  0  0  0  0  0
   -2.9510   15.5720   22.8480 N   0  0  0  0  0  0  0  0  0  0  0  0
   -3.1230   14.1410   23.0770 C   0  0  2  0  0  0  0  0  0  0  0  0
   -4.2880   13.7740   22.1700 C   0  0  0  0  0  0  0  0  0  0  0  0
   -5.3810   14.3580   22.2590 O   0  0  0  0  0  0  0  0  0  0  0  0
   -3.5360   13.8280   24.5230 C   0  0  0  0  0  0  0  0  0  0  0  0
   -3.7770   12.3200   24.6500 C   0  0  0  0  0  0  0  0  0  0  0  0
   -2.4390   14.3120   25.5130 C   0  0  0  0  0  0  0  0  0  0  0  0
   -4.0380   12.8390   21.2700 N   0  0  0  0  0  0  0  0  0  0  0  0
   -5.0580   12.3840   20.3400 C   0  0  0  0  0  0  0  0  0  0  0  0
    2.8558   25.1815   19.9377 H   0  0  0  0  0  0  0  0  0  0  0  0
    3.9348   25.4363   21.2883 H   0  0  0  0  0  0  0  0  0  0  0  0
    2.6275   26.5569   20.9909 H   0  0  0  0  0  0  0  0  0  0  0  0
    1.3656   23.6109   20.2631 H   0  0  0  0  0  0  0  0  0  0  0  0
    0.4382   23.2875   23.0439 H   0  0  0  0  0  0  0  0  0  0  0  0
   -1.0420   22.6521   20.5002 H   0  0  0  0  0  0  0  0  0  0  0  0
   -1.6242   22.4142   22.1937 H   0  0  0  0  0  0  0  0  0  0  0  0
   -1.1565   25.0630   20.9143 H   0  0  0  0  0  0  0  0  0  0  0  0
   -3.7327   23.5890   21.4918 H   0  0  0  0  0  0  0  0  0  0  0  0
   -3.0802   23.9063   19.9023 H   0  0  0  0  0  0  0  0  0  0  0  0
   -3.6129   25.2317   20.9086 H   0  0  0  0  0  0  0  0  0  0  0  0
   -2.3141   24.2723   23.5878 H   0  0  0  0  0  0  0  0  0  0  0  0
   -2.2221   25.9012   22.9620 H   0  0  0  0  0  0  0  0  0  0  0  0
   -0.7574   25.0254   23.3372 H   0  0  0  0  0  0  0  0  0  0  0  0
    0.6275   21.3232   24.0107 H   0  0  0  0  0  0  0  0  0  0  0  0
    1.7884   19.0503   22.4618 H   0  0  0  0  0  0  0  0  0  0  0  0
    1.5163   19.4050   25.3825 H   0  0  0  0  0  0  0  0  0  0  0  0
    2.9370   19.8579   24.4123 H   0  0  0  0  0  0  0  0  0  0  0  0
    3.1247   17.5510   23.6947 H   0  0  0  0  0  0  0  0  0  0  0  0
    1.8313   17.1356   24.8026 H   0  0  0  0  0  0  0  0  0  0  0  0
    0.0604   18.2029   21.4752 H   0  0  0  0  0  0  0  0  0  0  0  0
   -2.5135   17.9811   22.7623 H   0  0  0  0  0  0  0  0  0  0  0  0
   -1.6071   17.2738   19.9455 H   0  0  0  0  0  0  0  0  0  0  0  0
   -3.2810   17.4180   20.4822 H   0  0  0  0  0  0  0  0  0  0  0  0
   -3.2213   19.7127   20.5238 H   0  0  0  0  0  0  0  0  0  0  0  0
   -1.4733   19.7523   20.7707 H   0  0  0  0  0  0  0  0  0  0  0  0
   -3.6602   16.1941   23.1295 H   0  0  0  0  0  0  0  0  0  0  0  0
   -2.2133   13.6096   22.8902 H   0  0  0  0  0  0  0  0  0  0  0  0
   -4.4393   14.3465   24.7682 H   0  0  0  0  0  0  0  0  0  0  0  0
   -2.8780   11.7934   24.4064 H   0  0  0  0  0  0  0  0  0  0  0  0
   -4.5561   12.0255   23.9783 H   0  0  0  0  0  0  0  0  0  0  0  0
   -4.0652   12.0882   25.6540 H   0  0  0  0  0  0  0  0  0  0  0  0
   -1.5178   13.8124   25.2967 H   0  0  0  0  0  0  0  0  0  0  0  0
   -2.7393   14.0882   26.5153 H   0  0  0  0  0  0  0  0  0  0  0  0
   -2.3050   15.3684   25.4082 H   0  0  0  0  0  0  0  0  0  0  0  0
   -3.1386   12.4409   21.2285 H   0  0  0  0  0  0  0  0  0  0  0  0
   -5.9685   12.9160   20.5210 H   0  0  0  0  0  0  0  0  0  0  0  0
   -5.2240   11.3359   20.4774 H   0  0  0  0  0  0  0  0  0  0  0  0
   -4.7324   12.5651   19.3369 H   0  0  0  0  0  0  0  0  0  0  0  0
  1  2  1  0  0  0  0
  1 39  1  0  0  0  0
  1 40  1  0  0  0  0
  1 41  1  0  0  0  0
  2  3  2  0  0  0  0
  4  2  1  0  0  0  0
  4  5  1  0  0  0  0
  4 42  1  0  0  0  0
  5 43  1  1  0  0  0
  6  5  1  0  0  0  0
  6 12  1  0  0  0  0
  7  6  2  0  0  0  0
  8  9  1  0  0  0  0
  8  5  1  0  0  0  0
  8 44  1  0  0  0  0
  8 45  1  0  0  0  0
  9 11  1  0  0  0  0
  9 46  1  0  0  0  0
 10  9  1  0  0  0  0
 10 47  1  0  0  0  0
 10 48  1  0  0  0  0
 10 49  1  0  0  0  0
 11 50  1  0  0  0  0
 11 51  1  0  0  0  0
 11 52  1  0  0  0  0
 12 13  1  0  0  0  0
 12 53  1  0  0  0  0
 13 14  1  0  0  0  0
 13 16  1  0  0  0  0
 13 54  1  6  0  0  0
 14 15  2  0  0  0  0
 16 17  1  0  0  0  0
 16 55  1  0  0  0  0
 16 56  1  0  0  0  0
 17 18  1  0  0  0  0
 17 57  1  0  0  0  0
 17 58  1  0  0  0  0
 18 19  1  0  0  0  0
 20 18  2  0  0  0  0
 21 14  1  0  0  0  0
 21 59  1  0  0  0  0
 22 21  1  0  0  0  0
 22 23  1  0  0  0  0
 22 60  1  1  0  0  0
 23 30  1  0  0  0  0
 24 23  2  0  0  0  0
 25 22  1  0  0  0  0
 25 61  1  0  0  0  0
 25 62  1  0  0  0  0
 26 25  1  0  0  0  0
 26 63  1  0  0  0  0
 26 64  1  0  0  0  0
 27 26  1  0  0  0  0
 28 27  2  0  0  0  0
 29 27  1  0  0  0  0
 30 31  1  0  0  0  0
 30 65  1  0  0  0  0
 31 34  1  0  0  0  0
 31 66  1  6  0  0  0
 32 33  2  0  0  0  0
 32 31  1  0  0  0  0
 34 35  1  0  0  0  0
 34 36  1  0  0  0  0
 34 67  1  0  0  0  0
 35 68  1  0  0  0  0
 35 69  1  0  0  0  0
 35 70  1  0  0  0  0
 36 71  1  0  0  0  0
 36 72  1  0  0  0  0
 36 73  1  0  0  0  0
 37 32  1  0  0  0  0
 37 74  1  0  0  0  0
 38 37  1  0  0  0  0
 38 75  1  0  0  0  0
 38 76  1  0  0  0  0
 38 77  1  0  0  0  0
M  CHG  1  19  -1
M  CHG  1  29  -1
M  END
>  <MODEL>
       0

$$$$
selected_4mers/LEEV/307_noH.pdb
 OpenBabel03042517593D

 77 76  0  0  1  0  0  0  0  0999 V2000
   37.5560  118.9640    5.9890 C   0  0  0  0  0  0  0  0  0  0  0  0
   38.8070  119.8750    5.9030 C   0  0  0  0  0  0  0  0  0  0  0  0
   38.7160  121.0660    5.5980 O   0  0  0  0  0  0  0  0  0  0  0  0
   39.9480  119.2570    6.1140 N   0  0  0  0  0  0  0  0  0  0  0  0
   41.2700  119.8850    5.9860 C   0  0  2  0  0  0  0  0  0  0  0  0
   42.1740  118.9220    5.2360 C   0  0  0  0  0  0  0  0  0  0  0  0
   41.7660  117.8210    4.8700 O   0  0  0  0  0  0  0  0  0  0  0  0
   41.8560  120.3400    7.3280 C   0  0  0  0  0  0  0  0  0  0  0  0
   41.8040  119.3650    8.4980 C   0  0  0  0  0  0  0  0  0  0  0  0
   42.6440  118.1260    8.2580 C   0  0  0  0  0  0  0  0  0  0  0  0
   42.2740  120.0870    9.7570 C   0  0  0  0  0  0  0  0  0  0  0  0
   43.4000  119.3590    4.9470 N   0  0  0  0  0  0  0  0  0  0  0  0
   44.2270  118.6620    3.9480 C   0  0  2  0  0  0  0  0  0  0  0  0
   45.3330  117.8140    4.4860 C   0  0  0  0  0  0  0  0  0  0  0  0
   45.7840  116.8960    3.8230 O   0  0  0  0  0  0  0  0  0  0  0  0
   44.7900  119.6890    2.9550 C   0  0  0  0  0  0  0  0  0  0  0  0
   43.7230  120.3330    2.1110 C   0  0  0  0  0  0  0  0  0  0  0  0
   42.9230  121.3390    2.8740 C   0  0  0  0  0  0  0  0  0  0  0  0
   43.5140  122.1540    3.6550 O   0  0  0  0  0  0  0  0  0  0  0  0
   41.6880  121.3320    2.7400 O   0  0  0  0  0  0  0  0  0  0  0  0
   45.8120  118.1440    5.6810 N   0  0  0  0  0  0  0  0  0  0  0  0
   46.9220  117.4430    6.2920 C   0  0  2  0  0  0  0  0  0  0  0  0
   46.8400  117.3350    7.8100 C   0  0  0  0  0  0  0  0  0  0  0  0
   46.1870  118.1290    8.4770 O   0  0  0  0  0  0  0  0  0  0  0  0
   48.2500  118.1740    5.9500 C   0  0  0  0  0  0  0  0  0  0  0  0
   48.4130  118.4980    4.4640 C   0  0  0  0  0  0  0  0  0  0  0  0
   49.6050  119.3900    4.1320 C   0  0  0  0  0  0  0  0  0  0  0  0
   50.6230  119.3200    4.8390 O   0  0  0  0  0  0  0  0  0  0  0  0
   49.4630  120.1940    3.1810 O   0  0  0  0  0  0  0  0  0  0  0  0
   47.5970  116.3790    8.3560 N   0  0  0  0  0  0  0  0  0  0  0  0
   47.8050  116.2330    9.7990 C   0  0  2  0  0  0  0  0  0  0  0  0
   49.3130  116.1670    9.9430 C   0  0  0  0  0  0  0  0  0  0  0  0
   49.9870  115.5070    9.1710 O   0  0  0  0  0  0  0  0  0  0  0  0
   47.1610  114.9460   10.4080 C   0  0  0  0  0  0  0  0  0  0  0  0
   47.6720  113.6900    9.6770 C   0  0  0  0  0  0  0  0  0  0  0  0
   47.4020  114.8920   11.9370 C   0  0  0  0  0  0  0  0  0  0  0  0
   49.8250  116.9260   10.8940 N   0  0  0  0  0  0  0  0  0  0  0  0
   51.2680  117.0180   11.1620 C   0  0  0  0  0  0  0  0  0  0  0  0
   36.6774  119.5464    5.8052 H   0  0  0  0  0  0  0  0  0  0  0  0
   37.4979  118.5290    6.9649 H   0  0  0  0  0  0  0  0  0  0  0  0
   37.6290  118.1877    5.2563 H   0  0  0  0  0  0  0  0  0  0  0  0
   39.9143  118.3085    6.3757 H   0  0  0  0  0  0  0  0  0  0  0  0
   41.1779  120.7940    5.4291 H   0  0  0  0  0  0  0  0  0  0  0  0
   41.3263  121.2212    7.6242 H   0  0  0  0  0  0  0  0  0  0  0  0
   42.9002  120.4694    7.1338 H   0  0  0  0  0  0  0  0  0  0  0  0
   40.7937  119.0315    8.6116 H   0  0  0  0  0  0  0  0  0  0  0  0
   43.6691  118.4080    8.1373 H   0  0  0  0  0  0  0  0  0  0  0  0
   42.3038  117.6304    7.3728 H   0  0  0  0  0  0  0  0  0  0  0  0
   42.5520  117.4652    9.0945 H   0  0  0  0  0  0  0  0  0  0  0  0
   43.2847  120.4127    9.6251 H   0  0  0  0  0  0  0  0  0  0  0  0
   42.2203  119.4198   10.5918 H   0  0  0  0  0  0  0  0  0  0  0  0
   41.6467  120.9349    9.9371 H   0  0  0  0  0  0  0  0  0  0  0  0
   43.7553  120.1545    5.4055 H   0  0  0  0  0  0  0  0  0  0  0  0
   43.5668  117.9664    3.4735 H   0  0  0  0  0  0  0  0  0  0  0  0
   45.2977  120.4533    3.5053 H   0  0  0  0  0  0  0  0  0  0  0  0
   45.4513  119.1682    2.2945 H   0  0  0  0  0  0  0  0  0  0  0  0
   44.1896  120.8224    1.2817 H   0  0  0  0  0  0  0  0  0  0  0  0
   43.0547  119.5630    1.7864 H   0  0  0  0  0  0  0  0  0  0  0  0
   45.3972  118.8921    6.1684 H   0  0  0  0  0  0  0  0  0  0  0  0
   46.8836  116.4504    5.8943 H   0  0  0  0  0  0  0  0  0  0  0  0
   48.2814  119.0911    6.5004 H   0  0  0  0  0  0  0  0  0  0  0  0
   49.0470  117.5103    6.2129 H   0  0  0  0  0  0  0  0  0  0  0  0
   48.5285  117.5763    3.9329 H   0  0  0  0  0  0  0  0  0  0  0  0
   47.5386  119.0435    4.1765 H   0  0  0  0  0  0  0  0  0  0  0  0
   48.0397  115.7369    7.7553 H   0  0  0  0  0  0  0  0  0  0  0  0
   47.3413  117.0409   10.3255 H   0  0  0  0  0  0  0  0  0  0  0  0
   46.1013  114.9774   10.2631 H   0  0  0  0  0  0  0  0  0  0  0  0
   48.7329  113.6158    9.7944 H   0  0  0  0  0  0  0  0  0  0  0  0
   47.4324  113.7606    8.6366 H   0  0  0  0  0  0  0  0  0  0  0  0
   47.2056  112.8211   10.0922 H   0  0  0  0  0  0  0  0  0  0  0  0
   48.4537  114.8593   12.1314 H   0  0  0  0  0  0  0  0  0  0  0  0
   46.9373  114.0168   12.3406 H   0  0  0  0  0  0  0  0  0  0  0  0
   46.9815  115.7626   12.3953 H   0  0  0  0  0  0  0  0  0  0  0  0
   49.2107  117.4565   11.4511 H   0  0  0  0  0  0  0  0  0  0  0  0
   51.7985  116.3883   10.4787 H   0  0  0  0  0  0  0  0  0  0  0  0
   51.4653  116.7019   12.1650 H   0  0  0  0  0  0  0  0  0  0  0  0
   51.5901  118.0307   11.0373 H   0  0  0  0  0  0  0  0  0  0  0  0
  1 39  1  0  0  0  0
  1 40  1  0  0  0  0
  1 41  1  0  0  0  0
  2  1  1  0  0  0  0
  2  4  1  0  0  0  0
  3  2  2  0  0  0  0
  4 42  1  0  0  0  0
  5  4  1  0  0  0  0
  5  8  1  0  0  0  0
  5 43  1  6  0  0  0
  6  5  1  0  0  0  0
  7  6  2  0  0  0  0
  8  9  1  0  0  0  0
  8 44  1  0  0  0  0
  8 45  1  0  0  0  0
  9 11  1  0  0  0  0
  9 46  1  0  0  0  0
 10  9  1  0  0  0  0
 10 47  1  0  0  0  0
 10 48  1  0  0  0  0
 10 49  1  0  0  0  0
 11 50  1  0  0  0  0
 11 51  1  0  0  0  0
 11 52  1  0  0  0  0
 12  6  1  0  0  0  0
 12 53  1  0  0  0  0
 13 14  1  0  0  0  0
 13 12  1  0  0  0  0
 13 54  1  6  0  0  0
 14 21  1  0  0  0  0
 15 14  2  0  0  0  0
 16 13  1  0  0  0  0
 16 55  1  0  0  0  0
 16 56  1  0  0  0  0
 17 18  1  0  0  0  0
 17 16  1  0  0  0  0
 17 57  1  0  0  0  0
 17 58  1  0  0  0  0
 18 19  1  0  0  0  0
 20 18  2  0  0  0  0
 21 22  1  0  0  0  0
 21 59  1  0  0  0  0
 22 23  1  0  0  0  0
 22 60  1  6  0  0  0
 23 30  1  0  0  0  0
 23 24  2  0  0  0  0
 25 22  1  0  0  0  0
 25 61  1  0  0  0  0
 25 62  1  0  0  0  0
 26 25  1  0  0  0  0
 26 63  1  0  0  0  0
 26 64  1  0  0  0  0
 27 26  1  0  0  0  0
 27 28  1  0  0  0  0
 29 27  2  0  0  0  0
 30 31  1  0  0  0  0
 30 65  1  0  0  0  0
 31 32  1  0  0  0  0
 31 34  1  0  0  0  0
 31 66  1  1  0  0  0
 32 37  1  0  0  0  0
 33 32  2  0  0  0  0
 34 36  1  0  0  0  0
 34 67  1  0  0  0  0
 35 34  1  0  0  0  0
 35 68  1  0  0  0  0
 35 69  1  0  0  0  0
 35 70  1  0  0  0  0
 36 71  1  0  0  0  0
 36 72  1  0  0  0  0
 36 73  1  0  0  0  0
 37 38  1  0  0  0  0
 37 74  1  0  0  0  0
 38 75  1  0  0  0  0
 38 76  1  0  0  0  0
 38 77  1  0  0  0  0
M  CHG  1  19  -1
M  CHG  1  28  -1
M  END
>  <MODEL>
       0

$$$$
selected_4mers/LEEV/308_noH.pdb
 OpenBabel03042517593D

 77 76  0  0  1  0  0  0  0  0999 V2000
   41.5280    1.2940   19.5050 C   0  0  0  0  0  0  0  0  0  0  0  0
   42.8030    1.8320   20.1360 C   0  0  0  0  0  0  0  0  0  0  0  0
   43.8910    1.7260   19.5390 O   0  0  0  0  0  0  0  0  0  0  0  0
   42.6720    2.4270   21.3120 N   0  0  0  0  0  0  0  0  0  0  0  0
   43.7700    3.1030   21.9920 C   0  0  2  0  0  0  0  0  0  0  0  0
   44.4260    2.1760   23.0060 C   0  0  0  0  0  0  0  0  0  0  0  0
   43.8040    1.8010   24.0010 O   0  0  0  0  0  0  0  0  0  0  0  0
   43.2710    4.3670   22.6990 C   0  0  0  0  0  0  0  0  0  0  0  0
   42.4700    5.3380   21.8280 C   0  0  0  0  0  0  0  0  0  0  0  0
   41.9910    6.5250   22.6380 C   0  0  0  0  0  0  0  0  0  0  0  0
   43.3170    5.7920   20.6450 C   0  0  0  0  0  0  0  0  0  0  0  0
   45.6900    1.8320   22.7610 N   0  0  0  0  0  0  0  0  0  0  0  0
   46.4420    0.9390   23.6390 C   0  0  2  0  0  0  0  0  0  0  0  0
   47.0680    1.6890   24.8160 C   0  0  0  0  0  0  0  0  0  0  0  0
   47.4630    2.8500   24.6890 O   0  0  0  0  0  0  0  0  0  0  0  0
   47.5450    0.2340   22.8320 C   0  0  0  0  0  0  0  0  0  0  0  0
   47.0400   -0.6470   21.6960 C   0  0  0  0  0  0  0  0  0  0  0  0
   46.4540   -1.9700   22.1670 C   0  0  0  0  0  0  0  0  0  0  0  0
   46.8280   -2.4350   23.2730 O   0  0  0  0  0  0  0  0  0  0  0  0
   45.6200   -2.5460   21.4240 O   0  0  0  0  0  0  0  0  0  0  0  0
   47.1500    1.0210   25.9670 N   0  0  0  0  0  0  0  0  0  0  0  0
   47.7850    1.5850   27.1710 C   0  0  2  0  0  0  0  0  0  0  0  0
   47.1700    2.8880   27.6450 C   0  0  0  0  0  0  0  0  0  0  0  0
   47.8710    3.8070   28.0870 O   0  0  0  0  0  0  0  0  0  0  0  0
   49.2940    1.7790   26.9690 C   0  0  0  0  0  0  0  0  0  0  0  0
   50.0310    0.4980   26.6720 C   0  0  0  0  0  0  0  0  0  0  0  0
   51.5430    0.6660   26.7770 C   0  0  0  0  0  0  0  0  0  0  0  0
   52.0100    1.4400   27.6490 O   0  0  0  0  0  0  0  0  0  0  0  0
   52.2600    0.0220   25.9920 O   0  0  0  0  0  0  0  0  0  0  0  0
   45.8490    2.9780   27.5650 N   0  0  0  0  0  0  0  0  0  0  0  0
   45.1530    4.0880   28.1700 C   0  0  2  0  0  0  0  0  0  0  0  0
   44.5840    3.6450   29.5160 C   0  0  0  0  0  0  0  0  0  0  0  0
   44.9230    4.2030   30.5520 O   0  0  0  0  0  0  0  0  0  0  0  0
   44.0660    4.6280   27.2300 C   0  0  0  0  0  0  0  0  0  0  0  0
   43.2900    5.7390   27.8920 C   0  0  0  0  0  0  0  0  0  0  0  0
   44.7070    5.1190   25.9220 C   0  0  0  0  0  0  0  0  0  0  0  0
   43.7240    2.6330   29.5030 N   0  0  0  0  0  0  0  0  0  0  0  0
   43.2950    1.9970   30.7380 C   0  0  0  0  0  0  0  0  0  0  0  0
   41.7599    0.8390   18.5648 H   0  0  0  0  0  0  0  0  0  0  0  0
   40.8390    2.0982   19.3518 H   0  0  0  0  0  0  0  0  0  0  0  0
   41.0881    0.5664   20.1546 H   0  0  0  0  0  0  0  0  0  0  0  0
   41.7896    2.4120   21.7484 H   0  0  0  0  0  0  0  0  0  0  0  0
   44.4936    3.3793   21.2538 H   0  0  0  0  0  0  0  0  0  0  0  0
   42.6473    4.0642   23.5140 H   0  0  0  0  0  0  0  0  0  0  0  0
   44.1484    4.8997   23.0013 H   0  0  0  0  0  0  0  0  0  0  0  0
   41.6044    4.8306   21.4563 H   0  0  0  0  0  0  0  0  0  0  0  0
   42.8351    7.0562   23.0257 H   0  0  0  0  0  0  0  0  0  0  0  0
   41.3827    6.1816   23.4485 H   0  0  0  0  0  0  0  0  0  0  0  0
   41.4169    7.1757   22.0120 H   0  0  0  0  0  0  0  0  0  0  0  0
   44.1868    6.3015   21.0038 H   0  0  0  0  0  0  0  0  0  0  0  0
   42.7444    6.4540   20.0295 H   0  0  0  0  0  0  0  0  0  0  0  0
   43.6144    4.9393   20.0712 H   0  0  0  0  0  0  0  0  0  0  0  0
   46.1330    2.1928   21.9592 H   0  0  0  0  0  0  0  0  0  0  0  0
   45.7577    0.2195   24.0376 H   0  0  0  0  0  0  0  0  0  0  0  0
   48.1827    0.9843   22.4134 H   0  0  0  0  0  0  0  0  0  0  0  0
   48.0507   -0.4155   23.5156 H   0  0  0  0  0  0  0  0  0  0  0  0
   46.2819   -0.1114   21.1636 H   0  0  0  0  0  0  0  0  0  0  0  0
   47.8831   -0.8785   21.0792 H   0  0  0  0  0  0  0  0  0  0  0  0
   46.7707    0.1137   26.0143 H   0  0  0  0  0  0  0  0  0  0  0  0
   47.6083    0.8593   27.9372 H   0  0  0  0  0  0  0  0  0  0  0  0
   49.4423    2.4524   26.1508 H   0  0  0  0  0  0  0  0  0  0  0  0
   49.6875    2.1626   27.8871 H   0  0  0  0  0  0  0  0  0  0  0  0
   49.7180   -0.2496   27.3706 H   0  0  0  0  0  0  0  0  0  0  0  0
   49.8012    0.2122   25.6668 H   0  0  0  0  0  0  0  0  0  0  0  0
   45.3397    2.2825   27.0894 H   0  0  0  0  0  0  0  0  0  0  0  0
   45.8351    4.8945   28.3411 H   0  0  0  0  0  0  0  0  0  0  0  0
   43.3808    3.8376   27.0052 H   0  0  0  0  0  0  0  0  0  0  0  0
   43.9527    6.5451   28.1285 H   0  0  0  0  0  0  0  0  0  0  0  0
   42.8390    5.3728   28.7905 H   0  0  0  0  0  0  0  0  0  0  0  0
   42.5278    6.0873   27.2267 H   0  0  0  0  0  0  0  0  0  0  0  0
   45.3945    5.9103   26.1368 H   0  0  0  0  0  0  0  0  0  0  0  0
   43.9438    5.4784   25.2638 H   0  0  0  0  0  0  0  0  0  0  0  0
   45.2289    4.3101   25.4549 H   0  0  0  0  0  0  0  0  0  0  0  0
   43.3713    2.3082   28.6431 H   0  0  0  0  0  0  0  0  0  0  0  0
   43.7730    2.4725   31.5688 H   0  0  0  0  0  0  0  0  0  0  0  0
   43.5627    0.9612   30.7175 H   0  0  0  0  0  0  0  0  0  0  0  0
   42.2336    2.0892   30.8366 H   0  0  0  0  0  0  0  0  0  0  0  0
  1  2  1  0  0  0  0
  1 39  1  0  0  0  0
  1 40  1  0  0  0  0
  1 41  1  0  0  0  0
  2  4  1  0  0  0  0
  3  2  2  0  0  0  0
  4  5  1  0  0  0  0
  4 42  1  0  0  0  0
  5  8  1  0  0  0  0
  5  6  1  0  0  0  0
  5 43  1  6  0  0  0
  6  7  2  0  0  0  0
  8 44  1  0  0  0  0
  8 45  1  0  0  0  0
  9 10  1  0  0  0  0
  9  8  1  0  0  0  0
  9 46  1  0  0  0  0
 10 47  1  0  0  0  0
 10 48  1  0  0  0  0
 10 49  1  0  0  0  0
 11  9  1  0  0  0  0
 11 50  1  0  0  0  0
 11 51  1  0  0  0  0
 11 52  1  0  0  0  0
 12  6  1  0  0  0  0
 12 13  1  0  0  0  0
 12 53  1  0  0  0  0
 13 14  1  0  0  0  0
 13 54  1  1  0  0  0
 14 21  1  0  0  0  0
 15 14  2  0  0  0  0
 16 13  1  0  0  0  0
 16 55  1  0  0  0  0
 16 56  1  0  0  0  0
 17 18  1  0  0  0  0
 17 16  1  0  0  0  0
 17 57  1  0  0  0  0
 17 58  1  0  0  0  0
 18 19  1  0  0  0  0
 20 18  2  0  0  0  0
 21 22  1  0  0  0  0
 21 59  1  0  0  0  0
 22 23  1  0  0  0  0
 22 60  1  1  0  0  0
 23 24  2  0  0  0  0
 25 22  1  0  0  0  0
 25 61  1  0  0  0  0
 25 62  1  0  0  0  0
 26 27  1  0  0  0  0
 26 25  1  0  0  0  0
 26 63  1  0  0  0  0
 26 64  1  0  0  0  0
 27 28  1  0  0  0  0
 29 27  2  0  0  0  0
 30 23  1  0  0  0  0
 30 31  1  0  0  0  0
 30 65  1  0  0  0  0
 31 32  1  0  0  0  0
 31 66  1  1  0  0  0
 32 33  2  0  0  0  0
 34 35  1  0  0  0  0
 34 31  1  0  0  0  0
 34 67  1  0  0  0  0
 35 68  1  0  0  0  0
 35 69  1  0  0  0  0
 35 70  1  0  0  0  0
 36 34  1  0  0  0  0
 36 71  1  0  0  0  0
 36 72  1  0  0  0  0
 36 73  1  0  0  0  0
 37 32  1  0  0  0  0
 37 38  1  0  0  0  0
 37 74  1  0  0  0  0
 38 75  1  0  0  0  0
 38 76  1  0  0  0  0
 38 77  1  0  0  0  0
M  CHG  1  19  -1
M  CHG  1  28  -1
M  END
>  <MODEL>
       0

$$$$
selected_4mers/LEEV/309_noH.pdb
 OpenBabel03042517593D

 77 76  0  0  1  0  0  0  0  0999 V2000
   41.7710   78.8150   34.2460 C   0  0  0  0  0  0  0  0  0  0  0  0
   40.3900   79.3700   33.9800 C   0  0  0  0  0  0  0  0  0  0  0  0
   40.1210   79.9180   32.9170 O   0  0  0  0  0  0  0  0  0  0  0  0
   39.4950   79.2040   34.9390 N   0  0  0  0  0  0  0  0  0  0  0  0
   38.1110   79.6080   34.7460 C   0  0  2  0  0  0  0  0  0  0  0  0
   37.9600   81.1300   34.6570 C   0  0  0  0  0  0  0  0  0  0  0  0
   37.1390   81.6430   33.8840 O   0  0  0  0  0  0  0  0  0  0  0  0
   37.2090   78.9950   35.8170 C   0  0  0  0  0  0  0  0  0  0  0  0
   36.9590   77.4860   35.6370 C   0  0  0  0  0  0  0  0  0  0  0  0
   36.3940   76.8990   36.8910 C   0  0  0  0  0  0  0  0  0  0  0  0
   36.0610   77.1640   34.4750 C   0  0  0  0  0  0  0  0  0  0  0  0
   38.7660   81.8570   35.4290 N   0  0  0  0  0  0  0  0  0  0  0  0
   38.7850   83.3150   35.3340 C   0  0  2  0  0  0  0  0  0  0  0  0
   39.1550   83.7610   33.9230 C   0  0  0  0  0  0  0  0  0  0  0  0
   38.5540   84.6840   33.3870 O   0  0  0  0  0  0  0  0  0  0  0  0
   39.7540   83.8930   36.3550 C   0  0  0  0  0  0  0  0  0  0  0  0
   39.3220   83.6980   37.8070 C   0  0  0  0  0  0  0  0  0  0  0  0
   39.6060   82.3130   38.4290 C   0  0  0  0  0  0  0  0  0  0  0  0
   40.1230   81.3330   37.7880 O   0  0  0  0  0  0  0  0  0  0  0  0
   39.2650   82.2120   39.6300 O   0  0  0  0  0  0  0  0  0  0  0  0
   40.1020   83.0740   33.2950 N   0  0  0  0  0  0  0  0  0  0  0  0
   40.4330   83.3730   31.8990 C   0  0  2  0  0  0  0  0  0  0  0  0
   39.3200   82.9820   30.8820 C   0  0  0  0  0  0  0  0  0  0  0  0
   39.0910   83.6870   29.8760 O   0  0  0  0  0  0  0  0  0  0  0  0
   41.7980   82.7790   31.5520 C   0  0  0  0  0  0  0  0  0  0  0  0
   42.3240   83.1930   30.2080 C   0  0  0  0  0  0  0  0  0  0  0  0
   42.6220   84.7040   30.0800 C   0  0  0  0  0  0  0  0  0  0  0  0
   42.4310   85.4890   31.0370 O   0  0  0  0  0  0  0  0  0  0  0  0
   43.0110   85.1110   28.9690 O   0  0  0  0  0  0  0  0  0  0  0  0
   38.5920   81.8990   31.1440 N   0  0  0  0  0  0  0  0  0  0  0  0
   37.4140   81.5920   30.3490 C   0  0  2  0  0  0  0  0  0  0  0  0
   36.4190   82.7270   30.4580 C   0  0  0  0  0  0  0  0  0  0  0  0
   35.8940   83.1510   29.4570 O   0  0  0  0  0  0  0  0  0  0  0  0
   36.7300   80.2680   30.7930 C   0  0  0  0  0  0  0  0  0  0  0  0
   35.4040   80.0720   30.0910 C   0  0  0  0  0  0  0  0  0  0  0  0
   37.6670   79.1340   30.5230 C   0  0  0  0  0  0  0  0  0  0  0  0
   36.2000   83.2490   31.6560 N   0  0  0  0  0  0  0  0  0  0  0  0
   35.3170   84.4020   31.8230 C   0  0  0  0  0  0  0  0  0  0  0  0
   42.4018   79.0093   33.4038 H   0  0  0  0  0  0  0  0  0  0  0  0
   41.7062   77.7592   34.4070 H   0  0  0  0  0  0  0  0  0  0  0  0
   42.1824   79.2838   35.1154 H   0  0  0  0  0  0  0  0  0  0  0  0
   39.7689   78.8017   35.7948 H   0  0  0  0  0  0  0  0  0  0  0  0
   37.7904   79.2241   33.8001 H   0  0  0  0  0  0  0  0  0  0  0  0
   36.2650   79.4980   35.7900 H   0  0  0  0  0  0  0  0  0  0  0  0
   37.7136   79.1157   36.7528 H   0  0  0  0  0  0  0  0  0  0  0  0
   37.9118   77.0486   35.4230 H   0  0  0  0  0  0  0  0  0  0  0  0
   35.4422   77.3430   37.0953 H   0  0  0  0  0  0  0  0  0  0  0  0
   37.0597   77.0914   37.7063 H   0  0  0  0  0  0  0  0  0  0  0  0
   36.2759   75.8426   36.7686 H   0  0  0  0  0  0  0  0  0  0  0  0
   35.0918   77.5839   34.6462 H   0  0  0  0  0  0  0  0  0  0  0  0
   35.9768   76.1022   34.3729 H   0  0  0  0  0  0  0  0  0  0  0  0
   36.4753   77.5768   33.5790 H   0  0  0  0  0  0  0  0  0  0  0  0
   39.3578   81.4053   36.0732 H   0  0  0  0  0  0  0  0  0  0  0  0
   37.8036   83.6838   35.5481 H   0  0  0  0  0  0  0  0  0  0  0  0
   39.8489   84.9428   36.1710 H   0  0  0  0  0  0  0  0  0  0  0  0
   40.6778   83.3665   36.2352 H   0  0  0  0  0  0  0  0  0  0  0  0
   38.2667   83.8674   37.8580 H   0  0  0  0  0  0  0  0  0  0  0  0
   39.9102   84.3895   38.3734 H   0  0  0  0  0  0  0  0  0  0  0  0
   40.5847   82.3595   33.7700 H   0  0  0  0  0  0  0  0  0  0  0  0
   40.4929   84.4374   31.8074 H   0  0  0  0  0  0  0  0  0  0  0  0
   42.4993   83.0907   32.2977 H   0  0  0  0  0  0  0  0  0  0  0  0
   41.6727   81.7168   31.5200 H   0  0  0  0  0  0  0  0  0  0  0  0
   43.2306   82.6557   30.0229 H   0  0  0  0  0  0  0  0  0  0  0  0
   41.5563   82.9706   29.4966 H   0  0  0  0  0  0  0  0  0  0  0  0
   38.8531   81.3014   31.8815 H   0  0  0  0  0  0  0  0  0  0  0  0
   37.7357   81.4691   29.3359 H   0  0  0  0  0  0  0  0  0  0  0  0
   36.5159   80.3089   31.8406 H   0  0  0  0  0  0  0  0  0  0  0  0
   35.5636   80.0243   29.0341 H   0  0  0  0  0  0  0  0  0  0  0  0
   34.7560   80.8928   30.3171 H   0  0  0  0  0  0  0  0  0  0  0  0
   34.9547   79.1603   30.4254 H   0  0  0  0  0  0  0  0  0  0  0  0
   37.8826   79.0911   29.4758 H   0  0  0  0  0  0  0  0  0  0  0  0
   37.2135   78.2154   30.8317 H   0  0  0  0  0  0  0  0  0  0  0  0
   38.5753   79.2843   31.0683 H   0  0  0  0  0  0  0  0  0  0  0  0
   36.6381   82.8549   32.4447 H   0  0  0  0  0  0  0  0  0  0  0  0
   34.9309   84.6966   30.8696 H   0  0  0  0  0  0  0  0  0  0  0  0
   35.8673   85.2136   32.2513 H   0  0  0  0  0  0  0  0  0  0  0  0
   34.5065   84.1397   32.4704 H   0  0  0  0  0  0  0  0  0  0  0  0
  1 39  1  0  0  0  0
  1 40  1  0  0  0  0
  1 41  1  0  0  0  0
  2  1  1  0  0  0  0
  2  4  1  0  0  0  0
  3  2  2  0  0  0  0
  4 42  1  0  0  0  0
  5  4  1  0  0  0  0
  5  8  1  0  0  0  0
  5 43  1  6  0  0  0
  6  5  1  0  0  0  0
  6 12  1  0  0  0  0
  7  6  2  0  0  0  0
  8 44  1  0  0  0  0
  8 45  1  0  0  0  0
  9  8  1  0  0  0  0
  9 10  1  0  0  0  0
  9 46  1  0  0  0  0
 10 47  1  0  0  0  0
 10 48  1  0  0  0  0
 10 49  1  0  0  0  0
 11  9  1  0  0  0  0
 11 50  1  0  0  0  0
 11 51  1  0  0  0  0
 11 52  1  0  0  0  0
 12 53  1  0  0  0  0
 13 12  1  0  0  0  0
 13 16  1  0  0  0  0
 13 54  1  1  0  0  0
 14 13  1  0  0  0  0
 15 14  2  0  0  0  0
 16 17  1  0  0  0  0
 16 55  1  0  0  0  0
 16 56  1  0  0  0  0
 17 18  1  0  0  0  0
 17 57  1  0  0  0  0
 17 58  1  0  0  0  0
 18 20  1  0  0  0  0
 19 18  2  0  0  0  0
 21 14  1  0  0  0  0
 21 59  1  0  0  0  0
 22 21  1  0  0  0  0
 22 60  1  6  0  0  0
 23 30  1  0  0  0  0
 23 22  1  0  0  0  0
 24 23  2  0  0  0  0
 25 22  1  0  0  0  0
 25 61  1  0  0  0  0
 25 62  1  0  0  0  0
 26 25  1  0  0  0  0
 26 63  1  0  0  0  0
 26 64  1  0  0  0  0
 27 26  1  0  0  0  0
 27 28  1  0  0  0  0
 29 27  2  0  0  0  0
 30 65  1  0  0  0  0
 31 32  1  0  0  0  0
 31 34  1  0  0  0  0
 31 30  1  0  0  0  0
 31 66  1  6  0  0  0
 32 37  1  0  0  0  0
 33 32  2  0  0  0  0
 34 67  1  0  0  0  0
 35 34  1  0  0  0  0
 35 68  1  0  0  0  0
 35 69  1  0  0  0  0
 35 70  1  0  0  0  0
 36 34  1  0  0  0  0
 36 71  1  0  0  0  0
 36 72  1  0  0  0  0
 36 73  1  0  0  0  0
 37 38  1  0  0  0  0
 37 74  1  0  0  0  0
 38 75  1  0  0  0  0
 38 76  1  0  0  0  0
 38 77  1  0  0  0  0
M  CHG  1  20  -1
M  CHG  1  28  -1
M  END
>  <MODEL>
       0

$$$$
