selected_4mers/LEKL/195_noH.pdb
 OpenBabel03042517503D

 86 85  0  0  1  0  0  0  0  0999 V2000
  101.5380   24.5060   47.3910 C   0  0  0  0  0  0  0  0  0  0  0  0
  101.3500   25.7530   48.2620 C   0  0  0  0  0  0  0  0  0  0  0  0
  102.2060   26.6320   48.2800 O   0  0  0  0  0  0  0  0  0  0  0  0
  100.2430   25.8210   48.9980 N   0  0  0  0  0  0  0  0  0  0  0  0
   99.9600   26.9820   49.8450 C   0  0  2  0  0  0  0  0  0  0  0  0
  101.0560   27.2320   50.8820 C   0  0  0  0  0  0  0  0  0  0  0  0
  101.4680   26.3160   51.5950 O   0  0  0  0  0  0  0  0  0  0  0  0
   98.6160   26.8010   50.5570 C   0  0  0  0  0  0  0  0  0  0  0  0
   97.9560   28.0890   51.0490 C   0  0  0  0  0  0  0  0  0  0  0  0
   97.5270   28.9110   49.8420 C   0  0  0  0  0  0  0  0  0  0  0  0
   96.7490   27.7670   51.9180 C   0  0  0  0  0  0  0  0  0  0  0  0
  101.5150   28.4780   50.9700 N   0  0  0  0  0  0  0  0  0  0  0  0
  102.5680   28.8460   51.9150 C   0  0  2  0  0  0  0  0  0  0  0  0
  102.0560   29.7650   53.0180 C   0  0  0  0  0  0  0  0  0  0  0  0
  102.5720   29.7550   54.1390 O   0  0  0  0  0  0  0  0  0  0  0  0
  103.7230   29.5380   51.1830 C   0  0  0  0  0  0  0  0  0  0  0  0
  104.2230   28.7930   49.9560 C   0  0  0  0  0  0  0  0  0  0  0  0
  105.3960   29.4880   49.2790 C   0  0  0  0  0  0  0  0  0  0  0  0
  105.4390   30.7360   49.2750 O   0  0  0  0  0  0  0  0  0  0  0  0
  106.2680   28.7850   48.7340 O   0  0  0  0  0  0  0  0  0  0  0  0
  101.0450   30.5680   52.6990 N   0  0  0  0  0  0  0  0  0  0  0  0
  100.4820   31.4920   53.6730 C   0  0  2  0  0  0  0  0  0  0  0  0
   98.9600   31.4320   53.6670 C   0  0  0  0  0  0  0  0  0  0  0  0
   98.3230   31.5100   52.6140 O   0  0  0  0  0  0  0  0  0  0  0  0
  100.9370   32.9210   53.3780 C   0  0  0  0  0  0  0  0  0  0  0  0
  102.4470   33.0730   53.2270 C   0  0  0  0  0  0  0  0  0  0  0  0
  102.8540   34.5350   53.1730 C   0  0  0  0  0  0  0  0  0  0  0  0
  104.3260   34.6920   52.8080 C   0  0  0  0  0  0  0  0  0  0  0  0
  105.2180   33.9220   53.7130 N   0  0  0  0  0  0  0  0  0  0  0  0
   98.3870   31.2910   54.8560 N   0  0  0  0  0  0  0  0  0  0  0  0
   96.9430   31.2180   55.0080 C   0  0  2  0  0  0  0  0  0  0  0  0
   96.4940   32.1580   56.1200 C   0  0  0  0  0  0  0  0  0  0  0  0
   96.9380   32.0340   57.2600 O   0  0  0  0  0  0  0  0  0  0  0  0
   96.5270   29.7860   55.3500 C   0  0  0  0  0  0  0  0  0  0  0  0
   95.0510   29.5530   55.6850 C   0  0  0  0  0  0  0  0  0  0  0  0
   94.1840   29.8850   54.4760 C   0  0  0  0  0  0  0  0  0  0  0  0
   94.8520   28.1030   56.1040 C   0  0  0  0  0  0  0  0  0  0  0  0
   95.6190   33.1020   55.7910 N   0  0  0  0  0  0  0  0  0  0  0  0
   95.1320   34.0290   56.7980 C   0  0  0  0  0  0  0  0  0  0  0  0
  102.4617   24.5805   46.8561 H   0  0  0  0  0  0  0  0  0  0  0  0
  100.7282   24.4313   46.6956 H   0  0  0  0  0  0  0  0  0  0  0  0
  101.5553   23.6357   48.0132 H   0  0  0  0  0  0  0  0  0  0  0  0
   99.6009   25.0752   48.9725 H   0  0  0  0  0  0  0  0  0  0  0  0
   99.9231   27.8352   49.2004 H   0  0  0  0  0  0  0  0  0  0  0  0
   98.7740   26.1666   51.4040 H   0  0  0  0  0  0  0  0  0  0  0  0
   97.9498   26.3879   49.8287 H   0  0  0  0  0  0  0  0  0  0  0  0
   98.6535   28.6465   51.6387 H   0  0  0  0  0  0  0  0  0  0  0  0
   96.8300   28.3483   49.2568 H   0  0  0  0  0  0  0  0  0  0  0  0
   98.3849   29.1454   49.2470 H   0  0  0  0  0  0  0  0  0  0  0  0
   97.0646   29.8171   50.1737 H   0  0  0  0  0  0  0  0  0  0  0  0
   96.0371   27.2085   51.3469 H   0  0  0  0  0  0  0  0  0  0  0  0
   96.2997   28.6774   52.2559 H   0  0  0  0  0  0  0  0  0  0  0  0
   97.0615   27.1887   52.7623 H   0  0  0  0  0  0  0  0  0  0  0  0
  101.1351   29.1708   50.3827 H   0  0  0  0  0  0  0  0  0  0  0  0
  102.9099   27.9387   52.3676 H   0  0  0  0  0  0  0  0  0  0  0  0
  103.3910   30.5072   50.8742 H   0  0  0  0  0  0  0  0  0  0  0  0
  104.5413   29.5779   51.8713 H   0  0  0  0  0  0  0  0  0  0  0  0
  104.5324   27.8130   50.2540 H   0  0  0  0  0  0  0  0  0  0  0  0
  103.4190   28.7591   49.2508 H   0  0  0  0  0  0  0  0  0  0  0  0
  100.6710   30.5371   51.7888 H   0  0  0  0  0  0  0  0  0  0  0  0
  100.8337   31.2005   54.6406 H   0  0  0  0  0  0  0  0  0  0  0  0
  100.4741   33.2402   52.4677 H   0  0  0  0  0  0  0  0  0  0  0  0
  100.6485   33.5172   54.2184 H   0  0  0  0  0  0  0  0  0  0  0  0
  102.9289   32.6081   54.0616 H   0  0  0  0  0  0  0  0  0  0  0  0
  102.7424   32.6071   52.3101 H   0  0  0  0  0  0  0  0  0  0  0  0
  102.2583   35.0348   52.4380 H   0  0  0  0  0  0  0  0  0  0  0  0
  102.7009   34.9622   54.1420 H   0  0  0  0  0  0  0  0  0  0  0  0
  104.5866   35.7280   52.8682 H   0  0  0  0  0  0  0  0  0  0  0  0
  104.4592   34.3118   51.8168 H   0  0  0  0  0  0  0  0  0  0  0  0
  105.1112   34.2645   54.6678 H   0  0  0  0  0  0  0  0  0  0  0  0
  106.1868   34.0392   53.4161 H   0  0  0  0  0  0  0  0  0  0  0  0
   98.9559   31.2343   55.6575 H   0  0  0  0  0  0  0  0  0  0  0  0
   96.4806   31.5094   54.0881 H   0  0  0  0  0  0  0  0  0  0  0  0
   97.1032   29.4758   56.1966 H   0  0  0  0  0  0  0  0  0  0  0  0
   96.7014   29.2245   54.4560 H   0  0  0  0  0  0  0  0  0  0  0  0
   94.7611   30.1918   56.4929 H   0  0  0  0  0  0  0  0  0  0  0  0
   94.4594   29.2553   53.6559 H   0  0  0  0  0  0  0  0  0  0  0  0
   94.3292   30.9095   54.2035 H   0  0  0  0  0  0  0  0  0  0  0  0
   93.1548   29.7233   54.7200 H   0  0  0  0  0  0  0  0  0  0  0  0
   95.1398   27.4570   55.3010 H   0  0  0  0  0  0  0  0  0  0  0  0
   93.8219   27.9387   56.3422 H   0  0  0  0  0  0  0  0  0  0  0  0
   95.4544   27.8941   56.9633 H   0  0  0  0  0  0  0  0  0  0  0  0
   95.2998   33.1735   54.8624 H   0  0  0  0  0  0  0  0  0  0  0  0
   95.5844   33.8016   57.7406 H   0  0  0  0  0  0  0  0  0  0  0  0
   94.0691   33.9388   56.8815 H   0  0  0  0  0  0  0  0  0  0  0  0
   95.3839   35.0293   56.5135 H   0  0  0  0  0  0  0  0  0  0  0  0
  1  2  1  0  0  0  0
  1 40  1  0  0  0  0
  1 41  1  0  0  0  0
  1 42  1  0  0  0  0
  2  3  2  0  0  0  0
  2  4  1  0  0  0  0
  4  5  1  0  0  0  0
  4 43  1  0  0  0  0
  5  8  1  0  0  0  0
  5  6  1  0  0  0  0
  5 44  1  6  0  0  0
  6 12  1  0  0  0  0
  6  7  2  0  0  0  0
  8  9  1  0  0  0  0
  8 45  1  0  0  0  0
  8 46  1  0  0  0  0
  9 11  1  0  0  0  0
  9 47  1  0  0  0  0
 10  9  1  0  0  0  0
 10 48  1  0  0  0  0
 10 49  1  0  0  0  0
 10 50  1  0  0  0  0
 11 51  1  0  0  0  0
 11 52  1  0  0  0  0
 11 53  1  0  0  0  0
 12 13  1  0  0  0  0
 12 54  1  0  0  0  0
 13 14  1  0  0  0  0
 13 55  1  1  0  0  0
 14 15  2  0  0  0  0
 16 13  1  0  0  0  0
 16 56  1  0  0  0  0
 16 57  1  0  0  0  0
 17 16  1  0  0  0  0
 17 58  1  0  0  0  0
 17 59  1  0  0  0  0
 18 17  1  0  0  0  0
 19 18  1  0  0  0  0
 20 18  2  0  0  0  0
 21 14  1  0  0  0  0
 21 22  1  0  0  0  0
 21 60  1  0  0  0  0
 22 61  1  1  0  0  0
 23 22  1  0  0  0  0
 23 30  1  0  0  0  0
 24 23  2  0  0  0  0
 25 22  1  0  0  0  0
 25 62  1  0  0  0  0
 25 63  1  0  0  0  0
 26 25  1  0  0  0  0
 26 64  1  0  0  0  0
 26 65  1  0  0  0  0
 27 26  1  0  0  0  0
 27 66  1  0  0  0  0
 27 67  1  0  0  0  0
 28 27  1  0  0  0  0
 28 29  1  0  0  0  0
 28 68  1  0  0  0  0
 28 69  1  0  0  0  0
 29 70  1  0  0  0  0
 29 71  1  0  0  0  0
 30 31  1  0  0  0  0
 30 72  1  0  0  0  0
 31 34  1  0  0  0  0
 31 32  1  0  0  0  0
 31 73  1  6  0  0  0
 32 33  2  0  0  0  0
 34 35  1  0  0  0  0
 34 74  1  0  0  0  0
 34 75  1  0  0  0  0
 35 37  1  0  0  0  0
 35 76  1  0  0  0  0
 36 35  1  0  0  0  0
 36 77  1  0  0  0  0
 36 78  1  0  0  0  0
 36 79  1  0  0  0  0
 37 80  1  0  0  0  0
 37 81  1  0  0  0  0
 37 82  1  0  0  0  0
 38 32  1  0  0  0  0
 38 39  1  0  0  0  0
 38 83  1  0  0  0  0
 39 84  1  0  0  0  0
 39 85  1  0  0  0  0
 39 86  1  0  0  0  0
M  CHG  1  19  -1
M  END
>  <MODEL>
       0

$$$$
selected_4mers/LEKL/196_noH.pdb
 OpenBabel03042517503D

 86 85  0  0  1  0  0  0  0  0999 V2000
    7.1150   96.6200   51.1030 C   0  0  0  0  0  0  0  0  0  0  0  0
    6.7850   96.5860   52.5920 C   0  0  0  0  0  0  0  0  0  0  0  0
    6.2480   95.6050   53.1070 O   0  0  0  0  0  0  0  0  0  0  0  0
    7.1920   97.6430   53.2860 N   0  0  0  0  0  0  0  0  0  0  0  0
    7.1360   97.7000   54.7400 C   0  0  2  0  0  0  0  0  0  0  0  0
    6.2320   98.8380   55.1880 C   0  0  0  0  0  0  0  0  0  0  0  0
    6.4240   99.9850   54.7830 O   0  0  0  0  0  0  0  0  0  0  0  0
    8.5410   97.9210   55.3090 C   0  0  0  0  0  0  0  0  0  0  0  0
    9.5980   96.8590   55.0120 C   0  0  0  0  0  0  0  0  0  0  0  0
   10.9830   97.4070   55.3090 C   0  0  0  0  0  0  0  0  0  0  0  0
    9.3200   95.6250   55.8450 C   0  0  0  0  0  0  0  0  0  0  0  0
    5.3010   98.5300   56.0850 N   0  0  0  0  0  0  0  0  0  0  0  0
    4.4080   99.5410   56.6420 C   0  0  2  0  0  0  0  0  0  0  0  0
    5.1710  100.5170   57.5350 C   0  0  0  0  0  0  0  0  0  0  0  0
    5.9340  100.1060   58.4090 O   0  0  0  0  0  0  0  0  0  0  0  0
    3.2900   98.8720   57.4450 C   0  0  0  0  0  0  0  0  0  0  0  0
    2.2820   99.8490   58.0400 C   0  0  0  0  0  0  0  0  0  0  0  0
    1.1470   99.1630   58.7840 C   0  0  0  0  0  0  0  0  0  0  0  0
    0.1970   99.8690   59.1800 O   0  0  0  0  0  0  0  0  0  0  0  0
    1.1970   97.9270   58.9800 O   0  0  0  0  0  0  0  0  0  0  0  0
    5.0190  101.8070   57.2530 N   0  0  0  0  0  0  0  0  0  0  0  0
    5.5560  102.8540   58.1150 C   0  0  2  0  0  0  0  0  0  0  0  0
    4.7200  102.9270   59.3910 C   0  0  0  0  0  0  0  0  0  0  0  0
    3.4920  103.0240   59.3310 O   0  0  0  0  0  0  0  0  0  0  0  0
    5.5190  104.1970   57.3860 C   0  0  0  0  0  0  0  0  0  0  0  0
    6.2620  105.3200   58.0880 C   0  0  0  0  0  0  0  0  0  0  0  0
    6.2110  106.5890   57.2520 C   0  0  0  0  0  0  0  0  0  0  0  0
    7.0610  107.6960   57.8480 C   0  0  0  0  0  0  0  0  0  0  0  0
    6.6450  108.0110   59.2380 N   0  0  0  0  0  0  0  0  0  0  0  0
    5.3820  102.8230   60.5390 N   0  0  0  0  0  0  0  0  0  0  0  0
    4.6820  102.7470   61.8160 C   0  0  2  0  0  0  0  0  0  0  0  0
    4.9580  103.9370   62.7220 C   0  0  0  0  0  0  0  0  0  0  0  0
    4.2330  104.1640   63.6900 O   0  0  0  0  0  0  0  0  0  0  0  0
    5.0550  101.4560   62.5510 C   0  0  0  0  0  0  0  0  0  0  0  0
    4.6130  100.1300   61.9260 C   0  0  0  0  0  0  0  0  0  0  0  0
    5.0340   98.9840   62.8250 C   0  0  0  0  0  0  0  0  0  0  0  0
    3.1070  100.1180   61.7310 C   0  0  0  0  0  0  0  0  0  0  0  0
    6.0100  104.6900   62.4190 N   0  0  0  0  0  0  0  0  0  0  0  0
    6.4380  105.7640   63.3020 C   0  0  0  0  0  0  0  0  0  0  0  0
    6.7478   95.7301   50.6359 H   0  0  0  0  0  0  0  0  0  0  0  0
    8.1756   96.6789   50.9740 H   0  0  0  0  0  0  0  0  0  0  0  0
    6.6531   97.4748   50.6547 H   0  0  0  0  0  0  0  0  0  0  0  0
    7.5464   98.4204   52.7968 H   0  0  0  0  0  0  0  0  0  0  0  0
    6.7434   96.7725   55.1013 H   0  0  0  0  0  0  0  0  0  0  0  0
    8.4484   97.9921   56.3726 H   0  0  0  0  0  0  0  0  0  0  0  0
    8.8970   98.8037   54.8201 H   0  0  0  0  0  0  0  0  0  0  0  0
    9.5579   96.5931   53.9763 H   0  0  0  0  0  0  0  0  0  0  0  0
   11.0448   97.6796   56.3418 H   0  0  0  0  0  0  0  0  0  0  0  0
   11.1634   98.2689   54.7012 H   0  0  0  0  0  0  0  0  0  0  0  0
   11.7166   96.6585   55.0932 H   0  0  0  0  0  0  0  0  0  0  0  0
    9.3577   95.8798   56.8835 H   0  0  0  0  0  0  0  0  0  0  0  0
   10.0571   94.8787   55.6339 H   0  0  0  0  0  0  0  0  0  0  0  0
    8.3488   95.2447   55.6061 H   0  0  0  0  0  0  0  0  0  0  0  0
    5.2114   97.5955   56.3815 H   0  0  0  0  0  0  0  0  0  0  0  0
    3.9820  100.0898   55.8282 H   0  0  0  0  0  0  0  0  0  0  0  0
    3.7355   98.3194   58.2456 H   0  0  0  0  0  0  0  0  0  0  0  0
    2.7505   98.2484   56.7632 H   0  0  0  0  0  0  0  0  0  0  0  0
    1.8643  100.4318   57.2458 H   0  0  0  0  0  0  0  0  0  0  0  0
    2.8071  100.4531   58.7501 H   0  0  0  0  0  0  0  0  0  0  0  0
    4.5295  102.0634   56.4382 H   0  0  0  0  0  0  0  0  0  0  0  0
    6.5714  102.6286   58.3661 H   0  0  0  0  0  0  0  0  0  0  0  0
    5.9547  104.0630   56.4180 H   0  0  0  0  0  0  0  0  0  0  0  0
    4.4912  104.4921   57.3475 H   0  0  0  0  0  0  0  0  0  0  0  0
    5.8065  105.5047   59.0384 H   0  0  0  0  0  0  0  0  0  0  0  0
    7.2837  105.0316   58.2214 H   0  0  0  0  0  0  0  0  0  0  0  0
    6.5698  106.3694   56.2682 H   0  0  0  0  0  0  0  0  0  0  0  0
    5.1964  106.9280   57.2268 H   0  0  0  0  0  0  0  0  0  0  0  0
    6.9590  108.5751   57.2466 H   0  0  0  0  0  0  0  0  0  0  0  0
    8.0783  107.3651   57.8682 H   0  0  0  0  0  0  0  0  0  0  0  0
    5.6758  108.3289   59.2391 H   0  0  0  0  0  0  0  0  0  0  0  0
    7.2442  108.7458   59.6140 H   0  0  0  0  0  0  0  0  0  0  0  0
    6.3661  102.7967   60.5269 H   0  0  0  0  0  0  0  0  0  0  0  0
    3.6372  102.7566   61.5853 H   0  0  0  0  0  0  0  0  0  0  0  0
    4.6234  101.5084   63.5287 H   0  0  0  0  0  0  0  0  0  0  0  0
    6.1242  101.4265   62.5217 H   0  0  0  0  0  0  0  0  0  0  0  0
    5.0792  100.0179   60.9694 H   0  0  0  0  0  0  0  0  0  0  0  0
    4.5696   99.0929   63.7828 H   0  0  0  0  0  0  0  0  0  0  0  0
    6.0976   98.9940   62.9412 H   0  0  0  0  0  0  0  0  0  0  0  0
    4.7319   98.0564   62.3855 H   0  0  0  0  0  0  0  0  0  0  0  0
    2.6237  100.2293   62.6791 H   0  0  0  0  0  0  0  0  0  0  0  0
    2.8122   99.1901   61.2871 H   0  0  0  0  0  0  0  0  0  0  0  0
    2.8240  100.9262   61.0894 H   0  0  0  0  0  0  0  0  0  0  0  0
    6.5063  104.5189   61.5861 H   0  0  0  0  0  0  0  0  0  0  0  0
    5.7899  105.8063   64.1523 H   0  0  0  0  0  0  0  0  0  0  0  0
    6.3981  106.6952   62.7764 H   0  0  0  0  0  0  0  0  0  0  0  0
    7.4409  105.5805   63.6268 H   0  0  0  0  0  0  0  0  0  0  0  0
  1  2  1  0  0  0  0
  1 40  1  0  0  0  0
  1 41  1  0  0  0  0
  1 42  1  0  0  0  0
  2  3  2  0  0  0  0
  2  4  1  0  0  0  0
  4  5  1  0  0  0  0
  4 43  1  0  0  0  0
  5  6  1  0  0  0  0
  5  8  1  0  0  0  0
  5 44  1  1  0  0  0
  6 12  1  0  0  0  0
  7  6  2  0  0  0  0
  8 45  1  0  0  0  0
  8 46  1  0  0  0  0
  9  8  1  0  0  0  0
  9 10  1  0  0  0  0
  9 11  1  0  0  0  0
  9 47  1  0  0  0  0
 10 48  1  0  0  0  0
 10 49  1  0  0  0  0
 10 50  1  0  0  0  0
 11 51  1  0  0  0  0
 11 52  1  0  0  0  0
 11 53  1  0  0  0  0
 12 13  1  0  0  0  0
 12 54  1  0  0  0  0
 13 16  1  0  0  0  0
 13 14  1  0  0  0  0
 13 55  1  6  0  0  0
 14 15  2  0  0  0  0
 16 17  1  0  0  0  0
 16 56  1  0  0  0  0
 16 57  1  0  0  0  0
 17 18  1  0  0  0  0
 17 58  1  0  0  0  0
 17 59  1  0  0  0  0
 18 20  2  0  0  0  0
 18 19  1  0  0  0  0
 21 14  1  0  0  0  0
 21 22  1  0  0  0  0
 21 60  1  0  0  0  0
 22 23  1  0  0  0  0
 22 61  1  1  0  0  0
 23 30  1  0  0  0  0
 24 23  2  0  0  0  0
 25 26  1  0  0  0  0
 25 22  1  0  0  0  0
 25 62  1  0  0  0  0
 25 63  1  0  0  0  0
 26 64  1  0  0  0  0
 26 65  1  0  0  0  0
 27 28  1  0  0  0  0
 27 26  1  0  0  0  0
 27 66  1  0  0  0  0
 27 67  1  0  0  0  0
 28 29  1  0  0  0  0
 28 68  1  0  0  0  0
 28 69  1  0  0  0  0
 29 70  1  0  0  0  0
 29 71  1  0  0  0  0
 30 31  1  0  0  0  0
 30 72  1  0  0  0  0
 31 34  1  0  0  0  0
 31 32  1  0  0  0  0
 31 73  1  6  0  0  0
 32 33  2  0  0  0  0
 34 74  1  0  0  0  0
 34 75  1  0  0  0  0
 35 34  1  0  0  0  0
 35 36  1  0  0  0  0
 35 76  1  0  0  0  0
 36 77  1  0  0  0  0
 36 78  1  0  0  0  0
 36 79  1  0  0  0  0
 37 35  1  0  0  0  0
 37 80  1  0  0  0  0
 37 81  1  0  0  0  0
 37 82  1  0  0  0  0
 38 32  1  0  0  0  0
 38 39  1  0  0  0  0
 38 83  1  0  0  0  0
 39 84  1  0  0  0  0
 39 85  1  0  0  0  0
 39 86  1  0  0  0  0
M  CHG  1  19  -1
M  END
>  <MODEL>
       0

$$$$
selected_4mers/LEKL/197_noH.pdb
 OpenBabel03042517503D

 86 85  0  0  1  0  0  0  0  0999 V2000
  116.1980   63.8120   -4.4920 C   0  0  0  0  0  0  0  0  0  0  0  0
  115.4080   62.5080   -4.6010 C   0  0  0  0  0  0  0  0  0  0  0  0
  114.3170   62.3800   -4.0390 O   0  0  0  0  0  0  0  0  0  0  0  0
  115.9720   61.5360   -5.3120 N   0  0  0  0  0  0  0  0  0  0  0  0
  115.3390   60.2290   -5.4730 C   0  0  2  0  0  0  0  0  0  0  0  0
  115.1300   59.5270   -4.1370 C   0  0  0  0  0  0  0  0  0  0  0  0
  114.0850   58.9180   -3.9130 O   0  0  0  0  0  0  0  0  0  0  0  0
  116.1490   59.3470   -6.4270 C   0  0  0  0  0  0  0  0  0  0  0  0
  116.2180   59.8170   -7.8820 C   0  0  0  0  0  0  0  0  0  0  0  0
  117.2600   59.0280   -8.6440 C   0  0  0  0  0  0  0  0  0  0  0  0
  114.8590   59.7220   -8.5560 C   0  0  0  0  0  0  0  0  0  0  0  0
  116.1140   59.6400   -3.2470 N   0  0  0  0  0  0  0  0  0  0  0  0
  116.0240   59.0550   -1.9110 C   0  0  2  0  0  0  0  0  0  0  0  0
  114.8230   59.6130   -1.1410 C   0  0  0  0  0  0  0  0  0  0  0  0
  114.0800   58.8560   -0.5090 O   0  0  0  0  0  0  0  0  0  0  0  0
  117.3240   59.2790   -1.1320 C   0  0  0  0  0  0  0  0  0  0  0  0
  117.4300   58.4840    0.1730 C   0  0  0  0  0  0  0  0  0  0  0  0
  117.4130   56.9780   -0.0470 C   0  0  0  0  0  0  0  0  0  0  0  0
  118.4550   56.4190   -0.4570 O   0  0  0  0  0  0  0  0  0  0  0  0
  116.3580   56.3500    0.1940 O   0  0  0  0  0  0  0  0  0  0  0  0
  114.6350   60.9310   -1.2180 N   0  0  0  0  0  0  0  0  0  0  0  0
  113.5270   61.6080   -0.5420 C   0  0  2  0  0  0  0  0  0  0  0  0
  112.1770   61.1810   -1.1070 C   0  0  0  0  0  0  0  0  0  0  0  0
  111.2160   60.9990   -0.3580 O   0  0  0  0  0  0  0  0  0  0  0  0
  113.6780   63.1230   -0.6550 C   0  0  0  0  0  0  0  0  0  0  0  0
  114.8940   63.6790    0.0430 C   0  0  0  0  0  0  0  0  0  0  0  0
  115.0130   65.1640   -0.2300 C   0  0  0  0  0  0  0  0  0  0  0  0
  116.3680   65.6740    0.1870 C   0  0  0  0  0  0  0  0  0  0  0  0
  116.4590   67.1240   -0.0390 N   0  0  0  0  0  0  0  0  0  0  0  0
  112.1170   61.0370   -2.4290 N   0  0  0  0  0  0  0  0  0  0  0  0
  110.9280   60.5450   -3.1140 C   0  0  2  0  0  0  0  0  0  0  0  0
  110.6530   59.0780   -2.7860 C   0  0  0  0  0  0  0  0  0  0  0  0
  109.5050   58.6930   -2.5650 O   0  0  0  0  0  0  0  0  0  0  0  0
  111.0720   60.7270   -4.6310 C   0  0  0  0  0  0  0  0  0  0  0  0
  111.1620   62.1760   -5.1250 C   0  0  0  0  0  0  0  0  0  0  0  0
  111.7880   62.2470   -6.5150 C   0  0  0  0  0  0  0  0  0  0  0  0
  109.7970   62.8560   -5.0850 C   0  0  0  0  0  0  0  0  0  0  0  0
  111.7140   58.2740   -2.7360 N   0  0  0  0  0  0  0  0  0  0  0  0
  111.5980   56.8400   -2.4560 C   0  0  0  0  0  0  0  0  0  0  0  0
  117.1099   63.7239   -5.0448 H   0  0  0  0  0  0  0  0  0  0  0  0
  116.4216   64.0087   -3.4643 H   0  0  0  0  0  0  0  0  0  0  0  0
  115.6156   64.6162   -4.8906 H   0  0  0  0  0  0  0  0  0  0  0  0
  116.8417   61.7019   -5.7426 H   0  0  0  0  0  0  0  0  0  0  0  0
  114.3720   60.3958   -5.8996 H   0  0  0  0  0  0  0  0  0  0  0  0
  117.1500   59.2936   -6.0527 H   0  0  0  0  0  0  0  0  0  0  0  0
  115.6394   58.4065   -6.4522 H   0  0  0  0  0  0  0  0  0  0  0  0
  116.5075   60.8471   -7.8861 H   0  0  0  0  0  0  0  0  0  0  0  0
  116.9885   57.9930   -8.6517 H   0  0  0  0  0  0  0  0  0  0  0  0
  118.2122   59.1435   -8.1697 H   0  0  0  0  0  0  0  0  0  0  0  0
  117.3162   59.3895   -9.6495 H   0  0  0  0  0  0  0  0  0  0  0  0
  114.5380   58.7014   -8.5692 H   0  0  0  0  0  0  0  0  0  0  0  0
  114.9324   60.0859   -9.5596 H   0  0  0  0  0  0  0  0  0  0  0  0
  114.1499   60.3119   -8.0137 H   0  0  0  0  0  0  0  0  0  0  0  0
  116.9283   60.1335   -3.4971 H   0  0  0  0  0  0  0  0  0  0  0  0
  115.8780   58.0009   -2.0231 H   0  0  0  0  0  0  0  0  0  0  0  0
  117.3963   60.3200   -0.8955 H   0  0  0  0  0  0  0  0  0  0  0  0
  118.1181   58.9358   -1.7617 H   0  0  0  0  0  0  0  0  0  0  0  0
  116.6041   58.7466    0.8006 H   0  0  0  0  0  0  0  0  0  0  0  0
  118.3680   58.7317    0.6242 H   0  0  0  0  0  0  0  0  0  0  0  0
  115.2652   61.4691   -1.7496 H   0  0  0  0  0  0  0  0  0  0  0  0
  113.5608   61.3239    0.4890 H   0  0  0  0  0  0  0  0  0  0  0  0
  112.8090   63.5792   -0.2287 H   0  0  0  0  0  0  0  0  0  0  0  0
  113.7947   63.3427   -1.6957 H   0  0  0  0  0  0  0  0  0  0  0  0
  115.7691   63.1808   -0.3187 H   0  0  0  0  0  0  0  0  0  0  0  0
  114.7970   63.5219    1.0970 H   0  0  0  0  0  0  0  0  0  0  0  0
  114.2571   65.6842    0.3203 H   0  0  0  0  0  0  0  0  0  0  0  0
  114.8895   65.3323   -1.2794 H   0  0  0  0  0  0  0  0  0  0  0  0
  117.1234   65.1792   -0.3870 H   0  0  0  0  0  0  0  0  0  0  0  0
  116.5096   65.4745    1.2286 H   0  0  0  0  0  0  0  0  0  0  0  0
  116.3249   67.3226   -1.0304 H   0  0  0  0  0  0  0  0  0  0  0  0
  117.3779   67.4566    0.2532 H   0  0  0  0  0  0  0  0  0  0  0  0
  112.9079   61.2724   -2.9660 H   0  0  0  0  0  0  0  0  0  0  0  0
  110.0952   61.1202   -2.7670 H   0  0  0  0  0  0  0  0  0  0  0  0
  111.9621   60.2194   -4.9393 H   0  0  0  0  0  0  0  0  0  0  0  0
  110.1742   60.3305   -5.0572 H   0  0  0  0  0  0  0  0  0  0  0  0
  111.8054   62.7120   -4.4589 H   0  0  0  0  0  0  0  0  0  0  0  0
  111.1703   61.7198   -7.2117 H   0  0  0  0  0  0  0  0  0  0  0  0
  112.7602   61.8008   -6.4915 H   0  0  0  0  0  0  0  0  0  0  0  0
  111.8723   63.2702   -6.8163 H   0  0  0  0  0  0  0  0  0  0  0  0
  109.1245   62.3449   -5.7419 H   0  0  0  0  0  0  0  0  0  0  0  0
  109.8965   63.8743   -5.3981 H   0  0  0  0  0  0  0  0  0  0  0  0
  109.4125   62.8257   -4.0869 H   0  0  0  0  0  0  0  0  0  0  0  0
  112.6075   58.6565   -2.8926 H   0  0  0  0  0  0  0  0  0  0  0  0
  110.5685   56.5871   -2.3107 H   0  0  0  0  0  0  0  0  0  0  0  0
  112.1516   56.6034   -1.5715 H   0  0  0  0  0  0  0  0  0  0  0  0
  111.9892   56.2826   -3.2814 H   0  0  0  0  0  0  0  0  0  0  0  0
  1 40  1  0  0  0  0
  1 41  1  0  0  0  0
  1 42  1  0  0  0  0
  2  1  1  0  0  0  0
  2  3  2  0  0  0  0
  4  2  1  0  0  0  0
  4 43  1  0  0  0  0
  5  4  1  0  0  0  0
  5  6  1  0  0  0  0
  5 44  1  6  0  0  0
  6  7  2  0  0  0  0
  6 12  1  0  0  0  0
  8  5  1  0  0  0  0
  8 45  1  0  0  0  0
  8 46  1  0  0  0  0
  9  8  1  0  0  0  0
  9 47  1  0  0  0  0
 10  9  1  0  0  0  0
 10 48  1  0  0  0  0
 10 49  1  0  0  0  0
 10 50  1  0  0  0  0
 11  9  1  0  0  0  0
 11 51  1  0  0  0  0
 11 52  1  0  0  0  0
 11 53  1  0  0  0  0
 12 13  1  0  0  0  0
 12 54  1  0  0  0  0
 13 14  1  0  0  0  0
 13 16  1  0  0  0  0
 13 55  1  6  0  0  0
 14 15  2  0  0  0  0
 16 17  1  0  0  0  0
 16 56  1  0  0  0  0
 16 57  1  0  0  0  0
 17 58  1  0  0  0  0
 17 59  1  0  0  0  0
 18 17  1  0  0  0  0
 18 20  1  0  0  0  0
 19 18  2  0  0  0  0
 21 14  1  0  0  0  0
 21 22  1  0  0  0  0
 21 60  1  0  0  0  0
 22 61  1  1  0  0  0
 23 22  1  0  0  0  0
 23 24  2  0  0  0  0
 25 22  1  0  0  0  0
 25 26  1  0  0  0  0
 25 62  1  0  0  0  0
 25 63  1  0  0  0  0
 26 64  1  0  0  0  0
 26 65  1  0  0  0  0
 27 26  1  0  0  0  0
 27 28  1  0  0  0  0
 27 66  1  0  0  0  0
 27 67  1  0  0  0  0
 28 68  1  0  0  0  0
 28 69  1  0  0  0  0
 29 28  1  0  0  0  0
 29 70  1  0  0  0  0
 29 71  1  0  0  0  0
 30 23  1  0  0  0  0
 30 72  1  0  0  0  0
 31 32  1  0  0  0  0
 31 30  1  0  0  0  0
 31 73  1  1  0  0  0
 32 38  1  0  0  0  0
 32 33  2  0  0  0  0
 34 31  1  0  0  0  0
 34 74  1  0  0  0  0
 34 75  1  0  0  0  0
 35 37  1  0  0  0  0
 35 34  1  0  0  0  0
 35 76  1  0  0  0  0
 36 35  1  0  0  0  0
 36 77  1  0  0  0  0
 36 78  1  0  0  0  0
 36 79  1  0  0  0  0
 37 80  1  0  0  0  0
 37 81  1  0  0  0  0
 37 82  1  0  0  0  0
 38 39  1  0  0  0  0
 38 83  1  0  0  0  0
 39 84  1  0  0  0  0
 39 85  1  0  0  0  0
 39 86  1  0  0  0  0
M  CHG  1  20  -1
M  END
>  <MODEL>
       0

$$$$
selected_4mers/LEKL/198_noH.pdb
 OpenBabel03042517503D

 86 85  0  0  1  0  0  0  0  0999 V2000
   59.4270   29.8970    9.1800 C   0  0  0  0  0  0  0  0  0  0  0  0
   60.0630   28.5100    9.2780 C   0  0  0  0  0  0  0  0  0  0  0  0
   61.0810   28.3310    9.9470 O   0  0  0  0  0  0  0  0  0  0  0  0
   59.4510   27.5350    8.6130 N   0  0  0  0  0  0  0  0  0  0  0  0
   59.9370   26.1590    8.6400 C   0  0  2  0  0  0  0  0  0  0  0  0
   60.9280   25.8160    7.5360 C   0  0  0  0  0  0  0  0  0  0  0  0
   61.6560   24.8290    7.6430 O   0  0  0  0  0  0  0  0  0  0  0  0
   58.7590   25.1880    8.5490 C   0  0  0  0  0  0  0  0  0  0  0  0
   57.7060   25.2160    9.6550 C   0  0  0  0  0  0  0  0  0  0  0  0
   56.6030   24.2260    9.3150 C   0  0  0  0  0  0  0  0  0  0  0  0
   58.3440   24.8690   10.9910 C   0  0  0  0  0  0  0  0  0  0  0  0
   60.9590   26.6230    6.4800 N   0  0  0  0  0  0  0  0  0  0  0  0
   61.8490   26.3640    5.3520 C   0  0  2  0  0  0  0  0  0  0  0  0
   63.3220   26.2270    5.7290 C   0  0  0  0  0  0  0  0  0  0  0  0
   64.0750   25.5380    5.0440 O   0  0  0  0  0  0  0  0  0  0  0  0
   61.7130   27.4670    4.2970 C   0  0  0  0  0  0  0  0  0  0  0  0
   62.1920   28.8320    4.7630 C   0  0  0  0  0  0  0  0  0  0  0  0
   61.0580   29.7340    5.2100 C   0  0  0  0  0  0  0  0  0  0  0  0
   60.1320   29.2460    5.8920 O   0  0  0  0  0  0  0  0  0  0  0  0
   61.1000   30.9390    4.8850 O   0  0  0  0  0  0  0  0  0  0  0  0
   63.7280   26.8740    6.8170 N   0  0  0  0  0  0  0  0  0  0  0  0
   65.1250   26.8390    7.2450 C   0  0  2  0  0  0  0  0  0  0  0  0
   65.4360   25.8740    8.3900 C   0  0  0  0  0  0  0  0  0  0  0  0
   66.6040   25.5940    8.6670 O   0  0  0  0  0  0  0  0  0  0  0  0
   65.5710   28.2540    7.6190 C   0  0  0  0  0  0  0  0  0  0  0  0
   64.6660   28.9460    8.6330 C   0  0  0  0  0  0  0  0  0  0  0  0
   64.8430   30.4600    8.5920 C   0  0  0  0  0  0  0  0  0  0  0  0
   66.2910   30.8650    8.8220 C   0  0  0  0  0  0  0  0  0  0  0  0
   66.4750   32.3390    8.7170 N   0  0  0  0  0  0  0  0  0  0  0  0
   64.3980   25.3700    9.0500 N   0  0  0  0  0  0  0  0  0  0  0  0
   64.5760   24.4330   10.1580 C   0  0  2  0  0  0  0  0  0  0  0  0
   64.9080   23.0400    9.6480 C   0  0  0  0  0  0  0  0  0  0  0  0
   64.3820   22.6060    8.6280 O   0  0  0  0  0  0  0  0  0  0  0  0
   63.3000   24.3500   10.9960 C   0  0  0  0  0  0  0  0  0  0  0  0
   63.1010   25.3300   12.1470 C   0  0  0  0  0  0  0  0  0  0  0  0
   61.6980   25.1720   12.7040 C   0  0  0  0  0  0  0  0  0  0  0  0
   64.1310   25.0630   13.2320 C   0  0  0  0  0  0  0  0  0  0  0  0
   65.7820   22.3380   10.3600 N   0  0  0  0  0  0  0  0  0  0  0  0
   66.1460   20.9840    9.9690 C   0  0  0  0  0  0  0  0  0  0  0  0
   58.5577   29.8476    8.5580 H   0  0  0  0  0  0  0  0  0  0  0  0
   60.1305   30.5828    8.7560 H   0  0  0  0  0  0  0  0  0  0  0  0
   59.1477   30.2312   10.1574 H   0  0  0  0  0  0  0  0  0  0  0  0
   58.6464   27.7473    8.0869 H   0  0  0  0  0  0  0  0  0  0  0  0
   60.4601   26.0635    9.5685 H   0  0  0  0  0  0  0  0  0  0  0  0
   59.1659   24.1987    8.5249 H   0  0  0  0  0  0  0  0  0  0  0  0
   58.2286   25.5000    7.6736 H   0  0  0  0  0  0  0  0  0  0  0  0
   57.2865   26.1974    9.7306 H   0  0  0  0  0  0  0  0  0  0  0  0
   57.0176   23.2426    9.2383 H   0  0  0  0  0  0  0  0  0  0  0  0
   56.1548   24.4979    8.3822 H   0  0  0  0  0  0  0  0  0  0  0  0
   55.8605   24.2409   10.0853 H   0  0  0  0  0  0  0  0  0  0  0  0
   58.7710   23.8893   10.9386 H   0  0  0  0  0  0  0  0  0  0  0  0
   57.5992   24.8928   11.7588 H   0  0  0  0  0  0  0  0  0  0  0  0
   59.1107   25.5807   11.2157 H   0  0  0  0  0  0  0  0  0  0  0  0
   60.3698   27.4114    6.4582 H   0  0  0  0  0  0  0  0  0  0  0  0
   61.5365   25.4172    4.9638 H   0  0  0  0  0  0  0  0  0  0  0  0
   62.2865   27.1843    3.4390 H   0  0  0  0  0  0  0  0  0  0  0  0
   60.6691   27.5624    4.0823 H   0  0  0  0  0  0  0  0  0  0  0  0
   62.7079   29.3070    3.9549 H   0  0  0  0  0  0  0  0  0  0  0  0
   62.8311   28.6772    5.6071 H   0  0  0  0  0  0  0  0  0  0  0  0
   63.0745   27.3871    7.3451 H   0  0  0  0  0  0  0  0  0  0  0  0
   65.6752   26.4598    6.4093 H   0  0  0  0  0  0  0  0  0  0  0  0
   65.5914   28.8462    6.7280 H   0  0  0  0  0  0  0  0  0  0  0  0
   66.5335   28.1625    8.0773 H   0  0  0  0  0  0  0  0  0  0  0  0
   64.9080   28.5933    9.6138 H   0  0  0  0  0  0  0  0  0  0  0  0
   63.6494   28.7183    8.3887 H   0  0  0  0  0  0  0  0  0  0  0  0
   64.2347   30.9007    9.3540 H   0  0  0  0  0  0  0  0  0  0  0  0
   64.5515   30.8031    7.6214 H   0  0  0  0  0  0  0  0  0  0  0  0
   66.9055   30.3859    8.0887 H   0  0  0  0  0  0  0  0  0  0  0  0
   66.5680   30.5643    9.8108 H   0  0  0  0  0  0  0  0  0  0  0  0
   66.2161   32.6481    7.7801 H   0  0  0  0  0  0  0  0  0  0  0  0
   67.4517   32.5732    8.8945 H   0  0  0  0  0  0  0  0  0  0  0  0
   63.4870   25.6342    8.7862 H   0  0  0  0  0  0  0  0  0  0  0  0
   65.3859   24.7949   10.7564 H   0  0  0  0  0  0  0  0  0  0  0  0
   63.2638   23.3656   11.4138 H   0  0  0  0  0  0  0  0  0  0  0  0
   62.5246   24.6079   10.3052 H   0  0  0  0  0  0  0  0  0  0  0  0
   63.2271   26.3318   11.7929 H   0  0  0  0  0  0  0  0  0  0  0  0
   61.5661   24.1715   13.0598 H   0  0  0  0  0  0  0  0  0  0  0  0
   60.9835   25.3736   11.9334 H   0  0  0  0  0  0  0  0  0  0  0  0
   61.5553   25.8594   13.5115 H   0  0  0  0  0  0  0  0  0  0  0  0
   64.0156   24.0631   13.5951 H   0  0  0  0  0  0  0  0  0  0  0  0
   63.9883   25.7534   14.0369 H   0  0  0  0  0  0  0  0  0  0  0  0
   65.1143   25.1844   12.8280 H   0  0  0  0  0  0  0  0  0  0  0  0
   66.1888   22.7383   11.1622 H   0  0  0  0  0  0  0  0  0  0  0  0
   65.6126   20.7134    9.0818 H   0  0  0  0  0  0  0  0  0  0  0  0
   65.8947   20.3054   10.7572 H   0  0  0  0  0  0  0  0  0  0  0  0
   67.1983   20.9379    9.7806 H   0  0  0  0  0  0  0  0  0  0  0  0
  1  2  1  0  0  0  0
  1 40  1  0  0  0  0
  1 41  1  0  0  0  0
  1 42  1  0  0  0  0
  2  3  2  0  0  0  0
  4  5  1  0  0  0  0
  4  2  1  0  0  0  0
  4 43  1  0  0  0  0
  5 44  1  1  0  0  0
  6  7  2  0  0  0  0
  6  5  1  0  0  0  0
  8  5  1  0  0  0  0
  8  9  1  0  0  0  0
  8 45  1  0  0  0  0
  8 46  1  0  0  0  0
  9 11  1  0  0  0  0
  9 47  1  0  0  0  0
 10  9  1  0  0  0  0
 10 48  1  0  0  0  0
 10 49  1  0  0  0  0
 10 50  1  0  0  0  0
 11 51  1  0  0  0  0
 11 52  1  0  0  0  0
 11 53  1  0  0  0  0
 12  6  1  0  0  0  0
 12 54  1  0  0  0  0
 13 14  1  0  0  0  0
 13 12  1  0  0  0  0
 13 55  1  6  0  0  0
 14 21  1  0  0  0  0
 15 14  2  0  0  0  0
 16 17  1  0  0  0  0
 16 13  1  0  0  0  0
 16 56  1  0  0  0  0
 16 57  1  0  0  0  0
 17 18  1  0  0  0  0
 17 58  1  0  0  0  0
 17 59  1  0  0  0  0
 18 19  1  0  0  0  0
 20 18  2  0  0  0  0
 21 22  1  0  0  0  0
 21 60  1  0  0  0  0
 22 25  1  0  0  0  0
 22 23  1  0  0  0  0
 22 61  1  6  0  0  0
 23 24  2  0  0  0  0
 23 30  1  0  0  0  0
 25 26  1  0  0  0  0
 25 62  1  0  0  0  0
 25 63  1  0  0  0  0
 26 64  1  0  0  0  0
 26 65  1  0  0  0  0
 27 26  1  0  0  0  0
 27 28  1  0  0  0  0
 27 66  1  0  0  0  0
 27 67  1  0  0  0  0
 28 68  1  0  0  0  0
 28 69  1  0  0  0  0
 29 28  1  0  0  0  0
 29 70  1  0  0  0  0
 29 71  1  0  0  0  0
 30 31  1  0  0  0  0
 30 72  1  0  0  0  0
 31 34  1  0  0  0  0
 31 73  1  1  0  0  0
 32 31  1  0  0  0  0
 32 38  1  0  0  0  0
 33 32  2  0  0  0  0
 34 35  1  0  0  0  0
 34 74  1  0  0  0  0
 34 75  1  0  0  0  0
 35 36  1  0  0  0  0
 35 37  1  0  0  0  0
 35 76  1  0  0  0  0
 36 77  1  0  0  0  0
 36 78  1  0  0  0  0
 36 79  1  0  0  0  0
 37 80  1  0  0  0  0
 37 81  1  0  0  0  0
 37 82  1  0  0  0  0
 38 83  1  0  0  0  0
 39 38  1  0  0  0  0
 39 84  1  0  0  0  0
 39 85  1  0  0  0  0
 39 86  1  0  0  0  0
M  CHG  1  19  -1
M  END
>  <MODEL>
       0

$$$$
selected_4mers/LEKL/199_noH.pdb
 OpenBabel03042517503D

 86 85  0  0  1  0  0  0  0  0999 V2000
   47.6350  -22.9960    5.1030 C   0  0  0  0  0  0  0  0  0  0  0  0
   46.5490  -22.5190    4.1470 C   0  0  0  0  0  0  0  0  0  0  0  0
   45.3710  -22.7790    4.3680 O   0  0  0  0  0  0  0  0  0  0  0  0
   46.9380  -21.8160    3.0880 N   0  0  0  0  0  0  0  0  0  0  0  0
   45.9630  -21.3380    2.1210 C   0  0  2  0  0  0  0  0  0  0  0  0
   45.5040  -22.4760    1.2100 C   0  0  0  0  0  0  0  0  0  0  0  0
   44.3100  -22.7040    1.0470 O   0  0  0  0  0  0  0  0  0  0  0  0
   46.5570  -20.1970    1.2890 C   0  0  0  0  0  0  0  0  0  0  0  0
   46.7510  -18.8820    2.0530 C   0  0  0  0  0  0  0  0  0  0  0  0
   47.5100  -17.8850    1.1950 C   0  0  0  0  0  0  0  0  0  0  0  0
   45.3860  -18.3300    2.4540 C   0  0  0  0  0  0  0  0  0  0  0  0
   46.4610  -23.1860    0.6240 N   0  0  0  0  0  0  0  0  0  0  0  0
   46.1630  -24.3030   -0.2700 C   0  0  2  0  0  0  0  0  0  0  0  0
   45.7880  -25.5760    0.4850 C   0  0  0  0  0  0  0  0  0  0  0  0
   45.2060  -26.4940   -0.0910 O   0  0  0  0  0  0  0  0  0  0  0  0
   47.3780  -24.6080   -1.1530 C   0  0  0  0  0  0  0  0  0  0  0  0
   47.6870  -23.5480   -2.1930 C   0  0  0  0  0  0  0  0  0  0  0  0
   47.4500  -24.0460   -3.6020 C   0  0  0  0  0  0  0  0  0  0  0  0
   46.7590  -25.0690   -3.7550 O   0  0  0  0  0  0  0  0  0  0  0  0
   47.9450  -23.4140   -4.5570 O   0  0  0  0  0  0  0  0  0  0  0  0
   46.1220  -25.6170    1.7710 N   0  0  0  0  0  0  0  0  0  0  0  0
   45.8740  -26.7890    2.6070 C   0  0  2  0  0  0  0  0  0  0  0  0
   46.6850  -27.9520    2.0340 C   0  0  0  0  0  0  0  0  0  0  0  0
   46.1770  -29.0580    1.8380 O   0  0  0  0  0  0  0  0  0  0  0  0
   44.3850  -27.1400    2.6450 C   0  0  0  0  0  0  0  0  0  0  0  0
   43.4950  -26.0340    3.2050 C   0  0  0  0  0  0  0  0  0  0  0  0
   43.9140  -25.5990    4.6120 C   0  0  0  0  0  0  0  0  0  0  0  0
   43.0630  -24.4250    5.0960 C   0  0  0  0  0  0  0  0  0  0  0  0
   43.6220  -23.7790    6.3160 N   0  0  0  0  0  0  0  0  0  0  0  0
   47.9520  -27.6690    1.7440 N   0  0  0  0  0  0  0  0  0  0  0  0
   48.8780  -28.6530    1.2060 C   0  0  2  0  0  0  0  0  0  0  0  0
   50.1610  -28.5640    2.0180 C   0  0  0  0  0  0  0  0  0  0  0  0
   50.9570  -27.6270    1.8690 O   0  0  0  0  0  0  0  0  0  0  0  0
   49.1600  -28.3790   -0.2790 C   0  0  0  0  0  0  0  0  0  0  0  0
   47.9830  -28.5780   -1.2390 C   0  0  0  0  0  0  0  0  0  0  0  0
   48.4020  -28.1650   -2.6560 C   0  0  0  0  0  0  0  0  0  0  0  0
   47.5330  -30.0490   -1.2110 C   0  0  0  0  0  0  0  0  0  0  0  0
   50.3430  -29.5460    2.8920 N   0  0  0  0  0  0  0  0  0  0  0  0
   51.5010  -29.6040    3.7640 C   0  0  0  0  0  0  0  0  0  0  0  0
   48.5910  -22.6749    4.7455 H   0  0  0  0  0  0  0  0  0  0  0  0
   47.6159  -24.0643    5.1600 H   0  0  0  0  0  0  0  0  0  0  0  0
   47.4608  -22.5838    6.0749 H   0  0  0  0  0  0  0  0  0  0  0  0
   47.8934  -21.6175    2.9574 H   0  0  0  0  0  0  0  0  0  0  0  0
   45.1115  -20.9689    2.6536 H   0  0  0  0  0  0  0  0  0  0  0  0
   47.5111  -20.5134    0.9222 H   0  0  0  0  0  0  0  0  0  0  0  0
   45.8533  -19.9930    0.5092 H   0  0  0  0  0  0  0  0  0  0  0  0
   47.3268  -19.0593    2.9373 H   0  0  0  0  0  0  0  0  0  0  0  0
   46.9554  -17.6887    0.3013 H   0  0  0  0  0  0  0  0  0  0  0  0
   48.4668  -18.2901    0.9393 H   0  0  0  0  0  0  0  0  0  0  0  0
   47.6426  -16.9737    1.7399 H   0  0  0  0  0  0  0  0  0  0  0  0
   44.8023  -18.1493    1.5756 H   0  0  0  0  0  0  0  0  0  0  0  0
   45.5156  -17.4136    2.9909 H   0  0  0  0  0  0  0  0  0  0  0  0
   44.8830  -19.0401    3.0766 H   0  0  0  0  0  0  0  0  0  0  0  0
   47.4015  -22.9524    0.7974 H   0  0  0  0  0  0  0  0  0  0  0  0
   45.3239  -24.0031   -0.8623 H   0  0  0  0  0  0  0  0  0  0  0  0
   48.2334  -24.7121   -0.5187 H   0  0  0  0  0  0  0  0  0  0  0  0
   47.1431  -25.5017   -1.6925 H   0  0  0  0  0  0  0  0  0  0  0  0
   47.0598  -22.6991   -2.0172 H   0  0  0  0  0  0  0  0  0  0  0  0
   48.7220  -23.2915   -2.1042 H   0  0  0  0  0  0  0  0  0  0  0  0
   46.5522  -24.8288    2.1747 H   0  0  0  0  0  0  0  0  0  0  0  0
   46.1721  -26.5842    3.6140 H   0  0  0  0  0  0  0  0  0  0  0  0
   44.2611  -28.0109    3.2541 H   0  0  0  0  0  0  0  0  0  0  0  0
   44.0802  -27.2959    1.6313 H   0  0  0  0  0  0  0  0  0  0  0  0
   42.4869  -26.3908    3.2423 H   0  0  0  0  0  0  0  0  0  0  0  0
   43.5886  -25.1846    2.5611 H   0  0  0  0  0  0  0  0  0  0  0  0
   44.9421  -25.3031    4.5956 H   0  0  0  0  0  0  0  0  0  0  0  0
   43.7727  -26.4223    5.2807 H   0  0  0  0  0  0  0  0  0  0  0  0
   42.0792  -24.7828    5.3175 H   0  0  0  0  0  0  0  0  0  0  0  0
   43.0491  -23.6912    4.3174 H   0  0  0  0  0  0  0  0  0  0  0  0
   43.6477  -24.4565    7.0780 H   0  0  0  0  0  0  0  0  0  0  0  0
   43.0337  -22.9896    6.5826 H   0  0  0  0  0  0  0  0  0  0  0  0
   48.2772  -26.7530    1.9005 H   0  0  0  0  0  0  0  0  0  0  0  0
   48.4583  -29.6349    1.2736 H   0  0  0  0  0  0  0  0  0  0  0  0
   49.4853  -27.3635   -0.3675 H   0  0  0  0  0  0  0  0  0  0  0  0
   49.8921  -29.1031   -0.5697 H   0  0  0  0  0  0  0  0  0  0  0  0
   47.1603  -27.9662   -0.9329 H   0  0  0  0  0  0  0  0  0  0  0  0
   49.2250  -28.7697   -2.9751 H   0  0  0  0  0  0  0  0  0  0  0  0
   48.6946  -27.1358   -2.6557 H   0  0  0  0  0  0  0  0  0  0  0  0
   47.5785  -28.3015   -3.3255 H   0  0  0  0  0  0  0  0  0  0  0  0
   48.3449  -30.6762   -1.5149 H   0  0  0  0  0  0  0  0  0  0  0  0
   46.7091  -30.1827   -1.8804 H   0  0  0  0  0  0  0  0  0  0  0  0
   47.2321  -30.3111   -0.2182 H   0  0  0  0  0  0  0  0  0  0  0  0
   49.6682  -30.2605    2.9507 H   0  0  0  0  0  0  0  0  0  0  0  0
   52.1317  -28.7603    3.5759 H   0  0  0  0  0  0  0  0  0  0  0  0
   52.0453  -30.5055    3.5746 H   0  0  0  0  0  0  0  0  0  0  0  0
   51.1800  -29.5889    4.7846 H   0  0  0  0  0  0  0  0  0  0  0  0
  1 40  1  0  0  0  0
  1 41  1  0  0  0  0
  1 42  1  0  0  0  0
  2  3  2  0  0  0  0
  2  1  1  0  0  0  0
  4  2  1  0  0  0  0
  4 43  1  0  0  0  0
  5  4  1  0  0  0  0
  5 44  1  1  0  0  0
  6  5  1  0  0  0  0
  7  6  2  0  0  0  0
  8  9  1  0  0  0  0
  8  5  1  0  0  0  0
  8 45  1  0  0  0  0
  8 46  1  0  0  0  0
  9 11  1  0  0  0  0
  9 47  1  0  0  0  0
 10  9  1  0  0  0  0
 10 48  1  0  0  0  0
 10 49  1  0  0  0  0
 10 50  1  0  0  0  0
 11 51  1  0  0  0  0
 11 52  1  0  0  0  0
 11 53  1  0  0  0  0
 12  6  1  0  0  0  0
 12 54  1  0  0  0  0
 13 14  1  0  0  0  0
 13 12  1  0  0  0  0
 13 55  1  6  0  0  0
 14 21  1  0  0  0  0
 15 14  2  0  0  0  0
 16 13  1  0  0  0  0
 16 56  1  0  0  0  0
 16 57  1  0  0  0  0
 17 16  1  0  0  0  0
 17 58  1  0  0  0  0
 17 59  1  0  0  0  0
 18 17  1  0  0  0  0
 19 18  1  0  0  0  0
 20 18  2  0  0  0  0
 21 22  1  0  0  0  0
 21 60  1  0  0  0  0
 22 25  1  0  0  0  0
 22 61  1  1  0  0  0
 23 22  1  0  0  0  0
 24 23  2  0  0  0  0
 25 26  1  0  0  0  0
 25 62  1  0  0  0  0
 25 63  1  0  0  0  0
 26 27  1  0  0  0  0
 26 64  1  0  0  0  0
 26 65  1  0  0  0  0
 27 28  1  0  0  0  0
 27 66  1  0  0  0  0
 27 67  1  0  0  0  0
 28 29  1  0  0  0  0
 28 68  1  0  0  0  0
 28 69  1  0  0  0  0
 29 70  1  0  0  0  0
 29 71  1  0  0  0  0
 30 23  1  0  0  0  0
 30 72  1  0  0  0  0
 31 30  1  0  0  0  0
 31 32  1  0  0  0  0
 31 73  1  1  0  0  0
 32 38  1  0  0  0  0
 33 32  2  0  0  0  0
 34 31  1  0  0  0  0
 34 74  1  0  0  0  0
 34 75  1  0  0  0  0
 35 37  1  0  0  0  0
 35 34  1  0  0  0  0
 35 76  1  0  0  0  0
 36 35  1  0  0  0  0
 36 77  1  0  0  0  0
 36 78  1  0  0  0  0
 36 79  1  0  0  0  0
 37 80  1  0  0  0  0
 37 81  1  0  0  0  0
 37 82  1  0  0  0  0
 38 39  1  0  0  0  0
 38 83  1  0  0  0  0
 39 84  1  0  0  0  0
 39 85  1  0  0  0  0
 39 86  1  0  0  0  0
M  CHG  1  19  -1
M  END
>  <MODEL>
       0

$$$$
