selected_4mers/LGGL/500_noH.pdb
 OpenBabel03042518173D

 64 63  0  0  1  0  0  0  0  0999 V2000
   18.2200  -14.7560   20.2990 C   0  0  0  0  0  0  0  0  0  0  0  0
   19.6060  -14.9370   19.6240 C   0  0  0  0  0  0  0  0  0  0  0  0
   20.0420  -16.0580   19.4220 O   0  0  0  0  0  0  0  0  0  0  0  0
   20.2950  -13.8400   19.3230 N   0  0  0  0  0  0  0  0  0  0  0  0
   21.6460  -13.8710   18.7230 C   0  0  2  0  0  0  0  0  0  0  0  0
   22.7530  -14.2210   19.7300 C   0  0  0  0  0  0  0  0  0  0  0  0
   23.9340  -14.4190   19.3500 O   0  0  0  0  0  0  0  0  0  0  0  0
   21.9660  -12.5400   18.0400 C   0  0  0  0  0  0  0  0  0  0  0  0
   21.3280  -12.3000   16.6670 C   0  0  0  0  0  0  0  0  0  0  0  0
   21.2640  -10.8120   16.3490 C   0  0  0  0  0  0  0  0  0  0  0  0
   22.1120  -13.0420   15.5500 C   0  0  0  0  0  0  0  0  0  0  0  0
   22.3690  -14.3130   21.0010 N   0  0  0  0  0  0  0  0  0  0  0  0
   23.2600  -14.6680   22.0790 C   0  0  0  0  0  0  0  0  0  0  0  0
   23.6800  -13.5160   22.9670 C   0  0  0  0  0  0  0  0  0  0  0  0
   24.4950  -13.7010   23.8530 O   0  0  0  0  0  0  0  0  0  0  0  0
   23.1150  -12.3310   22.7490 N   0  0  0  0  0  0  0  0  0  0  0  0
   23.4710  -11.1460   23.5010 C   0  0  0  0  0  0  0  0  0  0  0  0
   24.6670  -10.4200   22.9020 C   0  0  0  0  0  0  0  0  0  0  0  0
   25.3250  -10.9190   21.9820 O   0  0  0  0  0  0  0  0  0  0  0  0
   24.9370   -9.2360   23.4320 N   0  0  0  0  0  0  0  0  0  0  0  0
   25.8930   -8.3230   22.8420 C   0  0  2  0  0  0  0  0  0  0  0  0
   27.2980   -8.9170   22.7530 C   0  0  0  0  0  0  0  0  0  0  0  0
   27.9690   -8.7400   21.7340 O   0  0  0  0  0  0  0  0  0  0  0  0
   25.9400   -7.0300   23.6310 C   0  0  0  0  0  0  0  0  0  0  0  0
   26.9850   -6.0130   23.1770 C   0  0  0  0  0  0  0  0  0  0  0  0
   26.6720   -5.5230   21.7670 C   0  0  0  0  0  0  0  0  0  0  0  0
   27.0560   -4.8170   24.1610 C   0  0  0  0  0  0  0  0  0  0  0  0
   27.7180   -9.6400   23.7880 N   0  0  0  0  0  0  0  0  0  0  0  0
   29.0510  -10.2590   23.7900 C   0  0  0  0  0  0  0  0  0  0  0  0
   18.0034  -13.7125   20.3946 H   0  0  0  0  0  0  0  0  0  0  0  0
   18.2339  -15.2077   21.2689 H   0  0  0  0  0  0  0  0  0  0  0  0
   17.4673  -15.2230   19.6988 H   0  0  0  0  0  0  0  0  0  0  0  0
   19.8854  -12.9643   19.5088 H   0  0  0  0  0  0  0  0  0  0  0  0
   21.6274  -14.6557   17.9959 H   0  0  0  0  0  0  0  0  0  0  0  0
   21.6404  -11.7553   18.6905 H   0  0  0  0  0  0  0  0  0  0  0  0
   23.0205  -12.5626   17.8600 H   0  0  0  0  0  0  0  0  0  0  0  0
   20.3317  -12.6886   16.7035 H   0  0  0  0  0  0  0  0  0  0  0  0
   22.2559  -10.4126   16.3100 H   0  0  0  0  0  0  0  0  0  0  0  0
   20.7063  -10.3082   17.1106 H   0  0  0  0  0  0  0  0  0  0  0  0
   20.7848  -10.6697   15.4029 H   0  0  0  0  0  0  0  0  0  0  0  0
   23.1112  -12.6622   15.5031 H   0  0  0  0  0  0  0  0  0  0  0  0
   21.6265  -12.8857   14.6094 H   0  0  0  0  0  0  0  0  0  0  0  0
   22.1383  -14.0892   15.7681 H   0  0  0  0  0  0  0  0  0  0  0  0
   21.4264  -14.1289   21.2173 H   0  0  0  0  0  0  0  0  0  0  0  0
   24.1425  -15.0974   21.6526 H   0  0  0  0  0  0  0  0  0  0  0  0
   22.7176  -15.3458   22.7046 H   0  0  0  0  0  0  0  0  0  0  0  0
   22.4274  -12.2571   22.0483 H   0  0  0  0  0  0  0  0  0  0  0  0
   23.7097  -11.4334   24.5037 H   0  0  0  0  0  0  0  0  0  0  0  0
   22.6355  -10.4780   23.4746 H   0  0  0  0  0  0  0  0  0  0  0  0
   24.4708   -8.9676   24.2565 H   0  0  0  0  0  0  0  0  0  0  0  0
   25.5599   -8.1322   21.8432 H   0  0  0  0  0  0  0  0  0  0  0  0
   26.1429   -7.2757   24.6525 H   0  0  0  0  0  0  0  0  0  0  0  0
   24.9909   -6.5605   23.4770 H   0  0  0  0  0  0  0  0  0  0  0  0
   27.9398   -6.4960   23.1686 H   0  0  0  0  0  0  0  0  0  0  0  0
   25.7185   -5.0374   21.7616 H   0  0  0  0  0  0  0  0  0  0  0  0
   26.6517   -6.3563   21.0961 H   0  0  0  0  0  0  0  0  0  0  0  0
   27.4262   -4.8315   21.4541 H   0  0  0  0  0  0  0  0  0  0  0  0
   26.1096   -4.3184   24.1852 H   0  0  0  0  0  0  0  0  0  0  0  0
   27.8116   -4.1324   23.8364 H   0  0  0  0  0  0  0  0  0  0  0  0
   27.2958   -5.1747   25.1405 H   0  0  0  0  0  0  0  0  0  0  0  0
   27.1262   -9.7623   24.5652 H   0  0  0  0  0  0  0  0  0  0  0  0
   29.5542  -10.0253   22.8751 H   0  0  0  0  0  0  0  0  0  0  0  0
   28.9512  -11.3204   23.8811 H   0  0  0  0  0  0  0  0  0  0  0  0
   29.6181   -9.8820   24.6153 H   0  0  0  0  0  0  0  0  0  0  0  0
  1 30  1  0  0  0  0
  1 31  1  0  0  0  0
  1 32  1  0  0  0  0
  2  1  1  0  0  0  0
  3  2  2  0  0  0  0
  4  2  1  0  0  0  0
  4 33  1  0  0  0  0
  5  4  1  0  0  0  0
  5  6  1  0  0  0  0
  5 34  1  6  0  0  0
  6 12  1  0  0  0  0
  7  6  2  0  0  0  0
  8  5  1  0  0  0  0
  8 35  1  0  0  0  0
  8 36  1  0  0  0  0
  9  8  1  0  0  0  0
  9 37  1  0  0  0  0
 10  9  1  0  0  0  0
 10 38  1  0  0  0  0
 10 39  1  0  0  0  0
 10 40  1  0  0  0  0
 11  9  1  0  0  0  0
 11 41  1  0  0  0  0
 11 42  1  0  0  0  0
 11 43  1  0  0  0  0
 12 13  1  0  0  0  0
 12 44  1  0  0  0  0
 13 14  1  0  0  0  0
 13 45  1  0  0  0  0
 13 46  1  0  0  0  0
 14 15  2  0  0  0  0
 16 14  1  0  0  0  0
 16 17  1  0  0  0  0
 16 47  1  0  0  0  0
 17 48  1  0  0  0  0
 17 49  1  0  0  0  0
 18 20  1  0  0  0  0
 18 17  1  0  0  0  0
 19 18  2  0  0  0  0
 20 50  1  0  0  0  0
 21 20  1  0  0  0  0
 21 24  1  0  0  0  0
 21 51  1  6  0  0  0
 22 21  1  0  0  0  0
 22 28  1  0  0  0  0
 23 22  2  0  0  0  0
 24 52  1  0  0  0  0
 24 53  1  0  0  0  0
 25 24  1  0  0  0  0
 25 27  1  0  0  0  0
 25 54  1  0  0  0  0
 26 25  1  0  0  0  0
 26 55  1  0  0  0  0
 26 56  1  0  0  0  0
 26 57  1  0  0  0  0
 27 58  1  0  0  0  0
 27 59  1  0  0  0  0
 27 60  1  0  0  0  0
 28 29  1  0  0  0  0
 28 61  1  0  0  0  0
 29 62  1  0  0  0  0
 29 63  1  0  0  0  0
 29 64  1  0  0  0  0
M  END
>  <MODEL>
       0

$$$$
selected_4mers/LGGL/501_noH.pdb
 OpenBabel03042518173D

 64 63  0  0  1  0  0  0  0  0999 V2000
   -2.4940   -6.6690  -55.0860 C   0  0  0  0  0  0  0  0  0  0  0  0
   -2.3590   -5.1460  -55.0830 C   0  0  0  0  0  0  0  0  0  0  0  0
   -1.5350   -4.5870  -55.8100 O   0  0  0  0  0  0  0  0  0  0  0  0
   -3.1510   -4.4770  -54.2480 N   0  0  0  0  0  0  0  0  0  0  0  0
   -3.1180   -3.0210  -54.1740 C   0  0  2  0  0  0  0  0  0  0  0  0
   -2.2520   -2.4720  -53.0460 C   0  0  0  0  0  0  0  0  0  0  0  0
   -1.7020   -1.3850  -53.1690 O   0  0  0  0  0  0  0  0  0  0  0  0
   -4.5390   -2.4700  -54.0170 C   0  0  0  0  0  0  0  0  0  0  0  0
   -5.5330   -2.8090  -55.1330 C   0  0  0  0  0  0  0  0  0  0  0  0
   -6.9200   -2.2890  -54.7670 C   0  0  0  0  0  0  0  0  0  0  0  0
   -5.0530   -2.1980  -56.4400 C   0  0  0  0  0  0  0  0  0  0  0  0
   -2.1310   -3.2160  -51.9510 N   0  0  0  0  0  0  0  0  0  0  0  0
   -1.3410   -2.7230  -50.8360 C   0  0  0  0  0  0  0  0  0  0  0  0
   -0.1750   -3.5820  -50.3890 C   0  0  0  0  0  0  0  0  0  0  0  0
    0.4290   -3.3010  -49.3510 O   0  0  0  0  0  0  0  0  0  0  0  0
    0.1490   -4.6200  -51.1540 N   0  0  0  0  0  0  0  0  0  0  0  0
    1.2570   -5.4900  -50.7870 C   0  0  0  0  0  0  0  0  0  0  0  0
    1.0660   -6.1060  -49.4090 C   0  0  0  0  0  0  0  0  0  0  0  0
   -0.0560   -6.4490  -49.0310 O   0  0  0  0  0  0  0  0  0  0  0  0
    2.1490   -6.2520  -48.6510 N   0  0  0  0  0  0  0  0  0  0  0  0
    2.0260   -6.8340  -47.3170 C   0  0  2  0  0  0  0  0  0  0  0  0
    1.2240   -5.8770  -46.4380 C   0  0  0  0  0  0  0  0  0  0  0  0
    0.7540   -6.2570  -45.3640 O   0  0  0  0  0  0  0  0  0  0  0  0
    3.4030   -7.1040  -46.6940 C   0  0  0  0  0  0  0  0  0  0  0  0
    3.3580   -8.0880  -45.5140 C   0  0  0  0  0  0  0  0  0  0  0  0
    3.0610   -9.4910  -46.0410 C   0  0  0  0  0  0  0  0  0  0  0  0
    4.6870   -8.0780  -44.7550 C   0  0  0  0  0  0  0  0  0  0  0  0
    1.0720   -4.6360  -46.9020 N   0  0  0  0  0  0  0  0  0  0  0  0
    0.2850   -3.6570  -46.1690 C   0  0  0  0  0  0  0  0  0  0  0  0
   -1.8089   -7.0864  -55.7940 H   0  0  0  0  0  0  0  0  0  0  0  0
   -3.4938   -6.9379  -55.3560 H   0  0  0  0  0  0  0  0  0  0  0  0
   -2.2738   -7.0485  -54.1101 H   0  0  0  0  0  0  0  0  0  0  0  0
   -3.7717   -4.9754  -53.6686 H   0  0  0  0  0  0  0  0  0  0  0  0
   -2.6748   -2.6976  -55.0926 H   0  0  0  0  0  0  0  0  0  0  0  0
   -4.9365   -2.8534  -53.1006 H   0  0  0  0  0  0  0  0  0  0  0  0
   -4.4339   -1.4056  -54.0462 H   0  0  0  0  0  0  0  0  0  0  0  0
   -5.5939   -3.8706  -55.2525 H   0  0  0  0  0  0  0  0  0  0  0  0
   -6.8814   -1.2270  -54.6426 H   0  0  0  0  0  0  0  0  0  0  0  0
   -7.2417   -2.7437  -53.8534 H   0  0  0  0  0  0  0  0  0  0  0  0
   -7.6095   -2.5317  -55.5484 H   0  0  0  0  0  0  0  0  0  0  0  0
   -4.9876   -1.1353  -56.3341 H   0  0  0  0  0  0  0  0  0  0  0  0
   -5.7448   -2.4367  -57.2206 H   0  0  0  0  0  0  0  0  0  0  0  0
   -4.0889   -2.5920  -56.6851 H   0  0  0  0  0  0  0  0  0  0  0  0
   -2.5732   -4.0939  -51.8961 H   0  0  0  0  0  0  0  0  0  0  0  0
   -1.9983   -2.6094  -49.9993 H   0  0  0  0  0  0  0  0  0  0  0  0
   -0.8992   -1.8140  -51.1874 H   0  0  0  0  0  0  0  0  0  0  0  0
   -0.3640   -4.8015  -51.9744 H   0  0  0  0  0  0  0  0  0  0  0  0
    2.1607   -4.9171  -50.7870 H   0  0  0  0  0  0  0  0  0  0  0  0
    1.3030   -6.2855  -51.5011 H   0  0  0  0  0  0  0  0  0  0  0  0
    3.0298   -5.9690  -48.9876 H   0  0  0  0  0  0  0  0  0  0  0  0
    1.5212   -7.7744  -47.3924 H   0  0  0  0  0  0  0  0  0  0  0  0
    3.8056   -6.1757  -46.3461 H   0  0  0  0  0  0  0  0  0  0  0  0
    4.0109   -7.5498  -47.4534 H   0  0  0  0  0  0  0  0  0  0  0  0
    2.5854   -7.7896  -44.8365 H   0  0  0  0  0  0  0  0  0  0  0  0
    3.8340   -9.7886  -46.7184 H   0  0  0  0  0  0  0  0  0  0  0  0
    2.1207   -9.4885  -46.5517 H   0  0  0  0  0  0  0  0  0  0  0  0
    3.0203  -10.1784  -45.2220 H   0  0  0  0  0  0  0  0  0  0  0  0
    5.4763   -8.3738  -45.4140 H   0  0  0  0  0  0  0  0  0  0  0  0
    4.6336   -8.7612  -43.9332 H   0  0  0  0  0  0  0  0  0  0  0  0
    4.8802   -7.0920  -44.3871 H   0  0  0  0  0  0  0  0  0  0  0  0
    1.4980   -4.3793  -47.7516 H   0  0  0  0  0  0  0  0  0  0  0  0
   -0.1001   -4.1048  -45.2768 H   0  0  0  0  0  0  0  0  0  0  0  0
   -0.5276   -3.3230  -46.7798 H   0  0  0  0  0  0  0  0  0  0  0  0
    0.9036   -2.8229  -45.9111 H   0  0  0  0  0  0  0  0  0  0  0  0
  1  2  1  0  0  0  0
  1 30  1  0  0  0  0
  1 31  1  0  0  0  0
  1 32  1  0  0  0  0
  2  4  1  0  0  0  0
  3  2  2  0  0  0  0
  4  5  1  0  0  0  0
  4 33  1  0  0  0  0
  5  8  1  0  0  0  0
  5  6  1  0  0  0  0
  5 34  1  6  0  0  0
  6 12  1  0  0  0  0
  7  6  2  0  0  0  0
  8 35  1  0  0  0  0
  8 36  1  0  0  0  0
  9 10  1  0  0  0  0
  9  8  1  0  0  0  0
  9 37  1  0  0  0  0
 10 38  1  0  0  0  0
 10 39  1  0  0  0  0
 10 40  1  0  0  0  0
 11  9  1  0  0  0  0
 11 41  1  0  0  0  0
 11 42  1  0  0  0  0
 11 43  1  0  0  0  0
 12 13  1  0  0  0  0
 12 44  1  0  0  0  0
 13 14  1  0  0  0  0
 13 45  1  0  0  0  0
 13 46  1  0  0  0  0
 14 15  2  0  0  0  0
 16 17  1  0  0  0  0
 16 14  1  0  0  0  0
 16 47  1  0  0  0  0
 17 18  1  0  0  0  0
 17 48  1  0  0  0  0
 17 49  1  0  0  0  0
 18 19  2  0  0  0  0
 18 20  1  0  0  0  0
 20 21  1  0  0  0  0
 20 50  1  0  0  0  0
 21 24  1  0  0  0  0
 21 22  1  0  0  0  0
 21 51  1  6  0  0  0
 22 23  2  0  0  0  0
 24 25  1  0  0  0  0
 24 52  1  0  0  0  0
 24 53  1  0  0  0  0
 25 27  1  0  0  0  0
 25 54  1  0  0  0  0
 26 25  1  0  0  0  0
 26 55  1  0  0  0  0
 26 56  1  0  0  0  0
 26 57  1  0  0  0  0
 27 58  1  0  0  0  0
 27 59  1  0  0  0  0
 27 60  1  0  0  0  0
 28 22  1  0  0  0  0
 28 29  1  0  0  0  0
 28 61  1  0  0  0  0
 29 62  1  0  0  0  0
 29 63  1  0  0  0  0
 29 64  1  0  0  0  0
M  END
>  <MODEL>
       0

$$$$
selected_4mers/LGGL/502_noH.pdb
 OpenBabel03042518173D

 64 63  0  0  1  0  0  0  0  0999 V2000
   66.1860   -5.6090   12.5900 C   0  0  0  0  0  0  0  0  0  0  0  0
   64.6860   -5.5530   12.4180 C   0  0  0  0  0  0  0  0  0  0  0  0
   64.0190   -6.4880   12.8250 O   0  0  0  0  0  0  0  0  0  0  0  0
   64.1590   -4.4750   11.8180 N   0  0  0  0  0  0  0  0  0  0  0  0
   62.7140   -4.3050   11.6990 C   0  0  2  0  0  0  0  0  0  0  0  0
   62.1840   -4.7150   10.3280 C   0  0  0  0  0  0  0  0  0  0  0  0
   60.9780   -4.8770   10.1550 O   0  0  0  0  0  0  0  0  0  0  0  0
   62.2720   -2.8510   12.0430 C   0  0  0  0  0  0  0  0  0  0  0  0
   62.4200   -2.4030   13.5060 C   0  0  0  0  0  0  0  0  0  0  0  0
   61.7870   -1.0240   13.7120 C   0  0  0  0  0  0  0  0  0  0  0  0
   61.7720   -3.4170   14.3920 C   0  0  0  0  0  0  0  0  0  0  0  0
   63.0770   -4.8500    9.3520 N   0  0  0  0  0  0  0  0  0  0  0  0
   62.6640   -5.0760    7.9660 C   0  0  0  0  0  0  0  0  0  0  0  0
   62.2390   -3.8070    7.2390 C   0  0  0  0  0  0  0  0  0  0  0  0
   61.5140   -3.8590    6.2250 O   0  0  0  0  0  0  0  0  0  0  0  0
   62.7100   -2.6610    7.7280 N   0  0  0  0  0  0  0  0  0  0  0  0
   62.4050   -1.3740    7.1260 C   0  0  0  0  0  0  0  0  0  0  0  0
   62.3180   -0.3200    8.2240 C   0  0  0  0  0  0  0  0  0  0  0  0
   62.4020   -0.6470    9.3790 O   0  0  0  0  0  0  0  0  0  0  0  0
   62.1510    0.9490    7.8500 N   0  0  0  0  0  0  0  0  0  0  0  0
   61.9950    2.0200    8.8500 C   0  0  2  0  0  0  0  0  0  0  0  0
   61.2200    3.1770    8.2770 C   0  0  0  0  0  0  0  0  0  0  0  0
   61.6990    3.8250    7.3410 O   0  0  0  0  0  0  0  0  0  0  0  0
   63.3580    2.5240    9.3110 C   0  0  0  0  0  0  0  0  0  0  0  0
   63.3810    3.3820   10.5810 C   0  0  0  0  0  0  0  0  0  0  0  0
   62.9840    2.5710   11.8760 C   0  0  0  0  0  0  0  0  0  0  0  0
   64.7290    4.0160   10.7420 C   0  0  0  0  0  0  0  0  0  0  0  0
   60.0590    3.4810    8.8510 N   0  0  0  0  0  0  0  0  0  0  0  0
   59.2640    4.5990    8.3330 C   0  0  0  0  0  0  0  0  0  0  0  0
   66.6248   -4.7212   12.1849 H   0  0  0  0  0  0  0  0  0  0  0  0
   66.5723   -6.4643   12.0760 H   0  0  0  0  0  0  0  0  0  0  0  0
   66.4232   -5.6812   13.6309 H   0  0  0  0  0  0  0  0  0  0  0  0
   64.7582   -3.7854   11.4510 H   0  0  0  0  0  0  0  0  0  0  0  0
   62.2805   -4.9671   12.4192 H   0  0  0  0  0  0  0  0  0  0  0  0
   61.2391   -2.7571   11.7798 H   0  0  0  0  0  0  0  0  0  0  0  0
   62.9379   -2.2209   11.4913 H   0  0  0  0  0  0  0  0  0  0  0  0
   63.4583   -2.3266   13.7529 H   0  0  0  0  0  0  0  0  0  0  0  0
   60.7453   -1.0703   13.4719 H   0  0  0  0  0  0  0  0  0  0  0  0
   62.2685   -0.3118   13.0750 H   0  0  0  0  0  0  0  0  0  0  0  0
   61.9048   -0.7264   14.7330 H   0  0  0  0  0  0  0  0  0  0  0  0
   60.7336   -3.4941   14.1458 H   0  0  0  0  0  0  0  0  0  0  0  0
   61.8750   -3.1158   15.4136 H   0  0  0  0  0  0  0  0  0  0  0  0
   62.2435   -4.3671   14.2510 H   0  0  0  0  0  0  0  0  0  0  0  0
   64.0364   -4.7968    9.5662 H   0  0  0  0  0  0  0  0  0  0  0  0
   63.4854   -5.5103    7.4353 H   0  0  0  0  0  0  0  0  0  0  0  0
   61.8103   -5.7204    7.9953 H   0  0  0  0  0  0  0  0  0  0  0  0
   63.2857   -2.6868    8.5262 H   0  0  0  0  0  0  0  0  0  0  0  0
   61.4696   -1.4322    6.6098 H   0  0  0  0  0  0  0  0  0  0  0  0
   63.1741   -1.1089    6.4309 H   0  0  0  0  0  0  0  0  0  0  0  0
   62.1316    1.1737    6.8917 H   0  0  0  0  0  0  0  0  0  0  0  0
   61.4614    1.6108    9.6823 H   0  0  0  0  0  0  0  0  0  0  0  0
   63.7730    3.1089    8.5169 H   0  0  0  0  0  0  0  0  0  0  0  0
   63.9152    1.6440    9.5560 H   0  0  0  0  0  0  0  0  0  0  0  0
   62.6390    4.1441   10.4647 H   0  0  0  0  0  0  0  0  0  0  0  0
   63.6974    1.7907   12.0408 H   0  0  0  0  0  0  0  0  0  0  0  0
   62.0118    2.1437   11.7451 H   0  0  0  0  0  0  0  0  0  0  0  0
   62.9738    3.2290   12.7197 H   0  0  0  0  0  0  0  0  0  0  0  0
   65.4703    3.2532   10.8582 H   0  0  0  0  0  0  0  0  0  0  0  0
   64.7261    4.6453   11.6074 H   0  0  0  0  0  0  0  0  0  0  0  0
   64.9532    4.6022    9.8754 H   0  0  0  0  0  0  0  0  0  0  0  0
   59.7352    2.9580    9.6197 H   0  0  0  0  0  0  0  0  0  0  0  0
   59.7723    5.0437    7.5031 H   0  0  0  0  0  0  0  0  0  0  0  0
   59.1317    5.3297    9.1034 H   0  0  0  0  0  0  0  0  0  0  0  0
   58.3079    4.2394    8.0145 H   0  0  0  0  0  0  0  0  0  0  0  0
  1 30  1  0  0  0  0
  1 31  1  0  0  0  0
  1 32  1  0  0  0  0
  2  1  1  0  0  0  0
  2  3  2  0  0  0  0
  4  2  1  0  0  0  0
  4 33  1  0  0  0  0
  5  4  1  0  0  0  0
  5  8  1  0  0  0  0
  5 34  1  1  0  0  0
  6  5  1  0  0  0  0
  7  6  2  0  0  0  0
  8  9  1  0  0  0  0
  8 35  1  0  0  0  0
  8 36  1  0  0  0  0
  9 10  1  0  0  0  0
  9 11  1  0  0  0  0
  9 37  1  0  0  0  0
 10 38  1  0  0  0  0
 10 39  1  0  0  0  0
 10 40  1  0  0  0  0
 11 41  1  0  0  0  0
 11 42  1  0  0  0  0
 11 43  1  0  0  0  0
 12  6  1  0  0  0  0
 12 44  1  0  0  0  0
 13 12  1  0  0  0  0
 13 45  1  0  0  0  0
 13 46  1  0  0  0  0
 14 16  1  0  0  0  0
 14 13  1  0  0  0  0
 15 14  2  0  0  0  0
 16 47  1  0  0  0  0
 17 16  1  0  0  0  0
 17 18  1  0  0  0  0
 17 48  1  0  0  0  0
 17 49  1  0  0  0  0
 18 19  2  0  0  0  0
 20 18  1  0  0  0  0
 20 21  1  0  0  0  0
 20 50  1  0  0  0  0
 21 24  1  0  0  0  0
 21 51  1  1  0  0  0
 22 21  1  0  0  0  0
 22 28  1  0  0  0  0
 23 22  2  0  0  0  0
 24 25  1  0  0  0  0
 24 52  1  0  0  0  0
 24 53  1  0  0  0  0
 25 27  1  0  0  0  0
 25 26  1  0  0  0  0
 25 54  1  0  0  0  0
 26 55  1  0  0  0  0
 26 56  1  0  0  0  0
 26 57  1  0  0  0  0
 27 58  1  0  0  0  0
 27 59  1  0  0  0  0
 27 60  1  0  0  0  0
 28 61  1  0  0  0  0
 29 28  1  0  0  0  0
 29 62  1  0  0  0  0
 29 63  1  0  0  0  0
 29 64  1  0  0  0  0
M  END
>  <MODEL>
       0

$$$$
selected_4mers/LGGL/503_noH.pdb
 OpenBabel03042518173D

 64 63  0  0  1  0  0  0  0  0999 V2000
   31.3880   26.8900   67.9490 C   0  0  0  0  0  0  0  0  0  0  0  0
   31.1420   28.3420   67.5380 C   0  0  0  0  0  0  0  0  0  0  0  0
   31.0480   28.6680   66.3630 O   0  0  0  0  0  0  0  0  0  0  0  0
   31.0420   29.2190   68.5240 N   0  0  0  0  0  0  0  0  0  0  0  0
   30.7390   30.6140   68.2500 C   0  0  2  0  0  0  0  0  0  0  0  0
   31.9080   31.3050   67.5300 C   0  0  0  0  0  0  0  0  0  0  0  0
   31.6860   32.1830   66.6930 O   0  0  0  0  0  0  0  0  0  0  0  0
   30.3640   31.3160   69.5630 C   0  0  0  0  0  0  0  0  0  0  0  0
   29.5550   32.6070   69.4950 C   0  0  0  0  0  0  0  0  0  0  0  0
   28.1930   32.4470   68.7640 C   0  0  0  0  0  0  0  0  0  0  0  0
   29.3560   33.0730   70.9280 C   0  0  0  0  0  0  0  0  0  0  0  0
   33.1450   30.8940   67.8380 N   0  0  0  0  0  0  0  0  0  0  0  0
   34.3090   31.3240   67.0370 C   0  0  0  0  0  0  0  0  0  0  0  0
   34.2190   30.8810   65.5800 C   0  0  0  0  0  0  0  0  0  0  0  0
   34.6310   31.6080   64.6670 O   0  0  0  0  0  0  0  0  0  0  0  0
   33.7190   29.6650   65.3530 N   0  0  0  0  0  0  0  0  0  0  0  0
   33.4870   29.1980   63.9920 C   0  0  0  0  0  0  0  0  0  0  0  0
   32.4570   30.0930   63.2990 C   0  0  0  0  0  0  0  0  0  0  0  0
   32.5790   30.4230   62.1140 O   0  0  0  0  0  0  0  0  0  0  0  0
   31.4280   30.4900   64.0450 N   0  0  0  0  0  0  0  0  0  0  0  0
   30.3900   31.3510   63.4860 C   0  0  2  0  0  0  0  0  0  0  0  0
   30.9730   32.7160   63.0970 C   0  0  0  0  0  0  0  0  0  0  0  0
   30.6440   33.2570   62.0510 O   0  0  0  0  0  0  0  0  0  0  0  0
   29.2560   31.4820   64.5190 C   0  0  0  0  0  0  0  0  0  0  0  0
   27.9120   31.9990   63.9860 C   0  0  0  0  0  0  0  0  0  0  0  0
   27.2840   30.9760   63.0270 C   0  0  0  0  0  0  0  0  0  0  0  0
   26.9740   32.2570   65.1840 C   0  0  0  0  0  0  0  0  0  0  0  0
   31.8430   33.2550   63.9470 N   0  0  0  0  0  0  0  0  0  0  0  0
   32.5570   34.4940   63.6530 C   0  0  0  0  0  0  0  0  0  0  0  0
   31.4505   26.2773   67.0740 H   0  0  0  0  0  0  0  0  0  0  0  0
   30.5806   26.5518   68.5643 H   0  0  0  0  0  0  0  0  0  0  0  0
   32.3051   26.8247   68.4964 H   0  0  0  0  0  0  0  0  0  0  0  0
   31.1743   28.9232   69.4537 H   0  0  0  0  0  0  0  0  0  0  0  0
   29.9023   30.6751   67.5859 H   0  0  0  0  0  0  0  0  0  0  0  0
   31.2777   31.5427   70.0716 H   0  0  0  0  0  0  0  0  0  0  0  0
   29.7104   30.6239   70.0516 H   0  0  0  0  0  0  0  0  0  0  0  0
   30.0905   33.3289   68.9145 H   0  0  0  0  0  0  0  0  0  0  0  0
   27.5897   31.7339   69.2860 H   0  0  0  0  0  0  0  0  0  0  0  0
   28.3628   32.1065   67.7639 H   0  0  0  0  0  0  0  0  0  0  0  0
   27.6888   33.3904   68.7388 H   0  0  0  0  0  0  0  0  0  0  0  0
   28.8185   32.3264   71.4744 H   0  0  0  0  0  0  0  0  0  0  0  0
   28.8001   33.9872   70.9318 H   0  0  0  0  0  0  0  0  0  0  0  0
   30.3094   33.2334   71.3866 H   0  0  0  0  0  0  0  0  0  0  0  0
   33.2802   30.2970   68.6090 H   0  0  0  0  0  0  0  0  0  0  0  0
   34.3689   32.3919   67.0667 H   0  0  0  0  0  0  0  0  0  0  0  0
   35.1786   30.8662   67.4602 H   0  0  0  0  0  0  0  0  0  0  0  0
   33.5045   29.0770   66.1129 H   0  0  0  0  0  0  0  0  0  0  0  0
   34.4066   29.2277   63.4458 H   0  0  0  0  0  0  0  0  0  0  0  0
   33.1155   28.1951   64.0237 H   0  0  0  0  0  0  0  0  0  0  0  0
   31.3665   30.1998   64.9837 H   0  0  0  0  0  0  0  0  0  0  0  0
   29.9934   30.9203   62.5904 H   0  0  0  0  0  0  0  0  0  0  0  0
   29.5856   32.1554   65.2824 H   0  0  0  0  0  0  0  0  0  0  0  0
   29.0648   30.4870   64.8631 H   0  0  0  0  0  0  0  0  0  0  0  0
   28.0657   32.9080   63.4428 H   0  0  0  0  0  0  0  0  0  0  0  0
   27.1192   30.0550   63.5460 H   0  0  0  0  0  0  0  0  0  0  0  0
   27.9449   30.8075   62.2026 H   0  0  0  0  0  0  0  0  0  0  0  0
   26.3506   31.3531   62.6645 H   0  0  0  0  0  0  0  0  0  0  0  0
   26.8244   31.3447   65.7228 H   0  0  0  0  0  0  0  0  0  0  0  0
   26.0323   32.6196   64.8281 H   0  0  0  0  0  0  0  0  0  0  0  0
   27.4149   32.9856   65.8318 H   0  0  0  0  0  0  0  0  0  0  0  0
   32.0113   32.8022   64.8048 H   0  0  0  0  0  0  0  0  0  0  0  0
   32.2630   34.8551   62.6896 H   0  0  0  0  0  0  0  0  0  0  0  0
   33.6107   34.3082   63.6579 H   0  0  0  0  0  0  0  0  0  0  0  0
   32.3206   35.2268   64.3960 H   0  0  0  0  0  0  0  0  0  0  0  0
  1 30  1  0  0  0  0
  1 31  1  0  0  0  0
  1 32  1  0  0  0  0
  2  1  1  0  0  0  0
  2  4  1  0  0  0  0
  3  2  2  0  0  0  0
  4 33  1  0  0  0  0
  5  4  1  0  0  0  0
  5  8  1  0  0  0  0
  5 34  1  6  0  0  0
  6 12  1  0  0  0  0
  6  5  1  0  0  0  0
  7  6  2  0  0  0  0
  8 35  1  0  0  0  0
  8 36  1  0  0  0  0
  9  8  1  0  0  0  0
  9 11  1  0  0  0  0
  9 37  1  0  0  0  0
 10  9  1  0  0  0  0
 10 38  1  0  0  0  0
 10 39  1  0  0  0  0
 10 40  1  0  0  0  0
 11 41  1  0  0  0  0
 11 42  1  0  0  0  0
 11 43  1  0  0  0  0
 12 44  1  0  0  0  0
 13 12  1  0  0  0  0
 13 45  1  0  0  0  0
 13 46  1  0  0  0  0
 14 13  1  0  0  0  0
 15 14  2  0  0  0  0
 16 14  1  0  0  0  0
 16 47  1  0  0  0  0
 17 16  1  0  0  0  0
 17 48  1  0  0  0  0
 17 49  1  0  0  0  0
 18 17  1  0  0  0  0
 18 20  1  0  0  0  0
 19 18  2  0  0  0  0
 20 50  1  0  0  0  0
 21 20  1  0  0  0  0
 21 24  1  0  0  0  0
 21 51  1  6  0  0  0
 22 21  1  0  0  0  0
 22 28  1  0  0  0  0
 23 22  2  0  0  0  0
 24 52  1  0  0  0  0
 24 53  1  0  0  0  0
 25 24  1  0  0  0  0
 25 27  1  0  0  0  0
 25 54  1  0  0  0  0
 26 25  1  0  0  0  0
 26 55  1  0  0  0  0
 26 56  1  0  0  0  0
 26 57  1  0  0  0  0
 27 58  1  0  0  0  0
 27 59  1  0  0  0  0
 27 60  1  0  0  0  0
 28 61  1  0  0  0  0
 29 28  1  0  0  0  0
 29 62  1  0  0  0  0
 29 63  1  0  0  0  0
 29 64  1  0  0  0  0
M  END
>  <MODEL>
       0

$$$$
selected_4mers/LGGL/504_noH.pdb
 OpenBabel03042518173D

 64 63  0  0  1  0  0  0  0  0999 V2000
   29.6430   49.3980   18.5580 C   0  0  0  0  0  0  0  0  0  0  0  0
   30.6080   50.2320   17.7160 C   0  0  0  0  0  0  0  0  0  0  0  0
   31.1490   51.1920   18.2450 O   0  0  0  0  0  0  0  0  0  0  0  0
   30.7870   49.9120   16.4330 N   0  0  0  0  0  0  0  0  0  0  0  0
   31.7520   50.6640   15.6260 C   0  0  2  0  0  0  0  0  0  0  0  0
   31.1570   51.7780   14.7720 C   0  0  0  0  0  0  0  0  0  0  0  0
   31.8450   52.3370   13.9010 O   0  0  0  0  0  0  0  0  0  0  0  0
   32.5940   49.7230   14.7630 C   0  0  0  0  0  0  0  0  0  0  0  0
   33.2800   48.5930   15.5420 C   0  0  0  0  0  0  0  0  0  0  0  0
   34.1320   47.7800   14.5950 C   0  0  0  0  0  0  0  0  0  0  0  0
   34.1210   49.1640   16.6790 C   0  0  0  0  0  0  0  0  0  0  0  0
   29.8880   52.0880   15.0310 N   0  0  0  0  0  0  0  0  0  0  0  0
   29.2290   53.1940   14.3460 C   0  0  0  0  0  0  0  0  0  0  0  0
   28.3970   52.9030   13.1170 C   0  0  0  0  0  0  0  0  0  0  0  0
   27.8210   53.8290   12.5420 O   0  0  0  0  0  0  0  0  0  0  0  0
   28.3070   51.6490   12.7020 N   0  0  0  0  0  0  0  0  0  0  0  0
   27.5540   51.3440   11.5020 C   0  0  0  0  0  0  0  0  0  0  0  0
   26.0730   51.6790   11.5490 C   0  0  0  0  0  0  0  0  0  0  0  0
   25.5380   52.1610   10.5520 O   0  0  0  0  0  0  0  0  0  0  0  0
   25.4110   51.4170   12.6710 N   0  0  0  0  0  0  0  0  0  0  0  0
   23.9800   51.6810   12.7450 C   0  0  2  0  0  0  0  0  0  0  0  0
   23.6710   53.1480   12.4680 C   0  0  0  0  0  0  0  0  0  0  0  0
   22.7380   53.4490   11.7220 O   0  0  0  0  0  0  0  0  0  0  0  0
   23.4170   51.2630   14.1010 C   0  0  0  0  0  0  0  0  0  0  0  0
   21.9070   51.4410   14.2730 C   0  0  0  0  0  0  0  0  0  0  0  0
   21.1660   50.5900   13.2370 C   0  0  0  0  0  0  0  0  0  0  0  0
   21.5250   51.0400   15.6800 C   0  0  0  0  0  0  0  0  0  0  0  0
   24.4600   54.0620   13.0200 N   0  0  0  0  0  0  0  0  0  0  0  0
   24.1640   55.4680   12.8010 C   0  0  0  0  0  0  0  0  0  0  0  0
   29.2509   48.5988   17.9644 H   0  0  0  0  0  0  0  0  0  0  0  0
   28.8394   50.0174   18.8978 H   0  0  0  0  0  0  0  0  0  0  0  0
   30.1631   48.9940   19.4013 H   0  0  0  0  0  0  0  0  0  0  0  0
   30.2735   49.1746   16.0306 H   0  0  0  0  0  0  0  0  0  0  0  0
   32.3735   51.1601   16.3419 H   0  0  0  0  0  0  0  0  0  0  0  0
   31.9548   49.2820   14.0269 H   0  0  0  0  0  0  0  0  0  0  0  0
   33.3745   50.3170   14.3353 H   0  0  0  0  0  0  0  0  0  0  0  0
   32.5370   47.9559   15.9744 H   0  0  0  0  0  0  0  0  0  0  0  0
   34.8786   48.4093   14.1573 H   0  0  0  0  0  0  0  0  0  0  0  0
   33.5149   47.3690   13.8235 H   0  0  0  0  0  0  0  0  0  0  0  0
   34.6058   46.9861   15.1337 H   0  0  0  0  0  0  0  0  0  0  0  0
   34.8753   49.8074   16.2764 H   0  0  0  0  0  0  0  0  0  0  0  0
   34.5848   48.3634   17.2165 H   0  0  0  0  0  0  0  0  0  0  0  0
   33.4930   49.7218   17.3418 H   0  0  0  0  0  0  0  0  0  0  0  0
   29.3868   51.5622   15.6955 H   0  0  0  0  0  0  0  0  0  0  0  0
   28.5831   53.6637   15.0581 H   0  0  0  0  0  0  0  0  0  0  0  0
   30.0395   53.7850   13.9735 H   0  0  0  0  0  0  0  0  0  0  0  0
   28.7491   50.9279   13.2057 H   0  0  0  0  0  0  0  0  0  0  0  0
   27.9893   51.8923   10.6928 H   0  0  0  0  0  0  0  0  0  0  0  0
   27.6086   50.2817   11.3863 H   0  0  0  0  0  0  0  0  0  0  0  0
   25.8858   51.0458   13.4495 H   0  0  0  0  0  0  0  0  0  0  0  0
   23.5051   51.0944   11.9866 H   0  0  0  0  0  0  0  0  0  0  0  0
   23.9051   51.8458   14.8540 H   0  0  0  0  0  0  0  0  0  0  0  0
   23.5990   50.2117   14.1821 H   0  0  0  0  0  0  0  0  0  0  0  0
   21.6336   52.4638   14.1182 H   0  0  0  0  0  0  0  0  0  0  0  0
   21.4235   49.5602   13.3714 H   0  0  0  0  0  0  0  0  0  0  0  0
   21.4463   50.9022   12.2527 H   0  0  0  0  0  0  0  0  0  0  0  0
   20.1106   50.7132   13.3632 H   0  0  0  0  0  0  0  0  0  0  0  0
   21.7945   50.0177   15.8451 H   0  0  0  0  0  0  0  0  0  0  0  0
   20.4692   51.1560   15.8097 H   0  0  0  0  0  0  0  0  0  0  0  0
   22.0410   51.6625   16.3808 H   0  0  0  0  0  0  0  0  0  0  0  0
   25.2320   53.7921   13.5681 H   0  0  0  0  0  0  0  0  0  0  0  0
   23.2939   55.5575   12.1848 H   0  0  0  0  0  0  0  0  0  0  0  0
   24.9947   55.9359   12.3153 H   0  0  0  0  0  0  0  0  0  0  0  0
   23.9855   55.9456   13.7417 H   0  0  0  0  0  0  0  0  0  0  0  0
  1 30  1  0  0  0  0
  1 31  1  0  0  0  0
  1 32  1  0  0  0  0
  2  3  2  0  0  0  0
  2  1  1  0  0  0  0
  4  2  1  0  0  0  0
  4 33  1  0  0  0  0
  5  4  1  0  0  0  0
  5 34  1  1  0  0  0
  6 12  1  0  0  0  0
  6  5  1  0  0  0  0
  7  6  2  0  0  0  0
  8  9  1  0  0  0  0
  8  5  1  0  0  0  0
  8 35  1  0  0  0  0
  8 36  1  0  0  0  0
  9 11  1  0  0  0  0
  9 37  1  0  0  0  0
 10  9  1  0  0  0  0
 10 38  1  0  0  0  0
 10 39  1  0  0  0  0
 10 40  1  0  0  0  0
 11 41  1  0  0  0  0
 11 42  1  0  0  0  0
 11 43  1  0  0  0  0
 12 44  1  0  0  0  0
 13 12  1  0  0  0  0
 13 45  1  0  0  0  0
 13 46  1  0  0  0  0
 14 13  1  0  0  0  0
 15 14  2  0  0  0  0
 16 14  1  0  0  0  0
 16 47  1  0  0  0  0
 17 18  1  0  0  0  0
 17 16  1  0  0  0  0
 17 48  1  0  0  0  0
 17 49  1  0  0  0  0
 18 20  1  0  0  0  0
 19 18  2  0  0  0  0
 20 21  1  0  0  0  0
 20 50  1  0  0  0  0
 21 24  1  0  0  0  0
 21 51  1  6  0  0  0
 22 21  1  0  0  0  0
 22 28  1  0  0  0  0
 23 22  2  0  0  0  0
 24 25  1  0  0  0  0
 24 52  1  0  0  0  0
 24 53  1  0  0  0  0
 25 27  1  0  0  0  0
 25 54  1  0  0  0  0
 26 25  1  0  0  0  0
 26 55  1  0  0  0  0
 26 56  1  0  0  0  0
 26 57  1  0  0  0  0
 27 58  1  0  0  0  0
 27 59  1  0  0  0  0
 27 60  1  0  0  0  0
 28 61  1  0  0  0  0
 29 28  1  0  0  0  0
 29 62  1  0  0  0  0
 29 63  1  0  0  0  0
 29 64  1  0  0  0  0
M  END
>  <MODEL>
       0

$$$$
