selected_4mers/LGLA/480_noH.pdb
 OpenBabel03042518173D

 67 66  0  0  1  0  0  0  0  0999 V2000
   30.4760   37.8050   54.7600 C   0  0  0  0  0  0  0  0  0  0  0  0
   30.9550   37.6080   56.1990 C   0  0  0  0  0  0  0  0  0  0  0  0
   30.1380   37.5600   57.1200 O   0  0  0  0  0  0  0  0  0  0  0  0
   32.2700   37.5040   56.3980 N   0  0  0  0  0  0  0  0  0  0  0  0
   32.8070   37.3340   57.7490 C   0  0  2  0  0  0  0  0  0  0  0  0
   32.5070   38.5820   58.5790 C   0  0  0  0  0  0  0  0  0  0  0  0
   32.2080   38.4820   59.7660 O   0  0  0  0  0  0  0  0  0  0  0  0
   34.3160   37.0610   57.6980 C   0  0  0  0  0  0  0  0  0  0  0  0
   34.6700   35.6580   57.1860 C   0  0  0  0  0  0  0  0  0  0  0  0
   36.1510   35.5600   56.8910 C   0  0  0  0  0  0  0  0  0  0  0  0
   34.2640   34.6160   58.2170 C   0  0  0  0  0  0  0  0  0  0  0  0
   32.5740   39.7490   57.9440 N   0  0  0  0  0  0  0  0  0  0  0  0
   32.2810   40.9950   58.6360 C   0  0  0  0  0  0  0  0  0  0  0  0
   30.8320   41.0220   59.0880 C   0  0  0  0  0  0  0  0  0  0  0  0
   30.5190   41.4350   60.2120 O   0  0  0  0  0  0  0  0  0  0  0  0
   29.9340   40.5830   58.2140 N   0  0  0  0  0  0  0  0  0  0  0  0
   28.5190   40.5490   58.5570 C   0  0  2  0  0  0  0  0  0  0  0  0
   28.2670   39.5530   59.6820 C   0  0  0  0  0  0  0  0  0  0  0  0
   27.5020   39.8300   60.6050 O   0  0  0  0  0  0  0  0  0  0  0  0
   27.6690   40.1720   57.3380 C   0  0  0  0  0  0  0  0  0  0  0  0
   27.4080   41.2680   56.3010 C   0  0  0  0  0  0  0  0  0  0  0  0
   26.7070   40.6600   55.0910 C   0  0  0  0  0  0  0  0  0  0  0  0
   26.5480   42.3730   56.9100 C   0  0  0  0  0  0  0  0  0  0  0  0
   28.9030   38.3880   59.6120 N   0  0  0  0  0  0  0  0  0  0  0  0
   28.7140   37.3770   60.6480 C   0  0  2  0  0  0  0  0  0  0  0  0
   29.1690   37.9310   61.9920 C   0  0  0  0  0  0  0  0  0  0  0  0
   28.5080   37.7340   63.0100 O   0  0  0  0  0  0  0  0  0  0  0  0
   29.4940   36.1060   60.3030 C   0  0  0  0  0  0  0  0  0  0  0  0
   30.3000   38.6290   61.9830 N   0  0  0  0  0  0  0  0  0  0  0  0
   30.8360   39.2260   63.1990 C   0  0  0  0  0  0  0  0  0  0  0  0
   31.3198   37.8212   54.1023 H   0  0  0  0  0  0  0  0  0  0  0  0
   29.9467   38.7318   54.6840 H   0  0  0  0  0  0  0  0  0  0  0  0
   29.8263   36.9998   54.4870 H   0  0  0  0  0  0  0  0  0  0  0  0
   32.8844   37.5419   55.6297 H   0  0  0  0  0  0  0  0  0  0  0  0
   32.3373   36.4907   58.2107 H   0  0  0  0  0  0  0  0  0  0  0  0
   34.7684   37.7818   57.0494 H   0  0  0  0  0  0  0  0  0  0  0  0
   34.6813   37.1301   58.7013 H   0  0  0  0  0  0  0  0  0  0  0  0
   34.1348   35.4753   56.2777 H   0  0  0  0  0  0  0  0  0  0  0  0
   36.7060   35.7398   57.7880 H   0  0  0  0  0  0  0  0  0  0  0  0
   36.4170   36.2894   56.1547 H   0  0  0  0  0  0  0  0  0  0  0  0
   36.3771   34.5815   56.5218 H   0  0  0  0  0  0  0  0  0  0  0  0
   34.7949   34.7912   59.1293 H   0  0  0  0  0  0  0  0  0  0  0  0
   34.4999   33.6394   57.8490 H   0  0  0  0  0  0  0  0  0  0  0  0
   33.2116   34.6844   58.3979 H   0  0  0  0  0  0  0  0  0  0  0  0
   32.8254   39.7699   56.9924 H   0  0  0  0  0  0  0  0  0  0  0  0
   32.4589   41.8163   57.9736 H   0  0  0  0  0  0  0  0  0  0  0  0
   32.9139   41.0715   59.4954 H   0  0  0  0  0  0  0  0  0  0  0  0
   30.2276   40.2775   57.3253 H   0  0  0  0  0  0  0  0  0  0  0  0
   28.2376   41.5283   58.8835 H   0  0  0  0  0  0  0  0  0  0  0  0
   28.1639   39.3663   56.8372 H   0  0  0  0  0  0  0  0  0  0  0  0
   26.7049   39.9344   57.7368 H   0  0  0  0  0  0  0  0  0  0  0  0
   28.3393   41.6949   55.9923 H   0  0  0  0  0  0  0  0  0  0  0  0
   25.7751   40.2321   55.3965 H   0  0  0  0  0  0  0  0  0  0  0  0
   27.3266   39.8986   54.6652 H   0  0  0  0  0  0  0  0  0  0  0  0
   26.5275   41.4227   54.3623 H   0  0  0  0  0  0  0  0  0  0  0  0
   25.6111   41.9632   57.2248 H   0  0  0  0  0  0  0  0  0  0  0  0
   26.3763   43.1352   56.1789 H   0  0  0  0  0  0  0  0  0  0  0  0
   27.0540   42.7950   57.7531 H   0  0  0  0  0  0  0  0  0  0  0  0
   29.5062   38.2055   58.8556 H   0  0  0  0  0  0  0  0  0  0  0  0
   27.6753   37.1268   60.7064 H   0  0  0  0  0  0  0  0  0  0  0  0
   30.5375   36.3341   60.2395 H   0  0  0  0  0  0  0  0  0  0  0  0
   29.1547   35.7234   59.3631 H   0  0  0  0  0  0  0  0  0  0  0  0
   29.3351   35.3720   61.0652 H   0  0  0  0  0  0  0  0  0  0  0  0
   30.7867   38.7453   61.1352 H   0  0  0  0  0  0  0  0  0  0  0  0
   30.1878   39.0042   64.0209 H   0  0  0  0  0  0  0  0  0  0  0  0
   30.9049   40.2866   63.0753 H   0  0  0  0  0  0  0  0  0  0  0  0
   31.8090   38.8257   63.3939 H   0  0  0  0  0  0  0  0  0  0  0  0
  1  2  1  0  0  0  0
  1 31  1  0  0  0  0
  1 32  1  0  0  0  0
  1 33  1  0  0  0  0
  2  4  1  0  0  0  0
  2  3  2  0  0  0  0
  4  5  1  0  0  0  0
  4 34  1  0  0  0  0
  5  6  1  0  0  0  0
  5 35  1  1  0  0  0
  6  7  2  0  0  0  0
  8  5  1  0  0  0  0
  8 36  1  0  0  0  0
  8 37  1  0  0  0  0
  9  8  1  0  0  0  0
  9 11  1  0  0  0  0
  9 38  1  0  0  0  0
 10  9  1  0  0  0  0
 10 39  1  0  0  0  0
 10 40  1  0  0  0  0
 10 41  1  0  0  0  0
 11 42  1  0  0  0  0
 11 43  1  0  0  0  0
 11 44  1  0  0  0  0
 12  6  1  0  0  0  0
 12 13  1  0  0  0  0
 12 45  1  0  0  0  0
 13 14  1  0  0  0  0
 13 46  1  0  0  0  0
 13 47  1  0  0  0  0
 14 15  2  0  0  0  0
 16 17  1  0  0  0  0
 16 14  1  0  0  0  0
 16 48  1  0  0  0  0
 17 18  1  0  0  0  0
 17 49  1  1  0  0  0
 18 19  2  0  0  0  0
 20 17  1  0  0  0  0
 20 50  1  0  0  0  0
 20 51  1  0  0  0  0
 21 23  1  0  0  0  0
 21 20  1  0  0  0  0
 21 52  1  0  0  0  0
 22 21  1  0  0  0  0
 22 53  1  0  0  0  0
 22 54  1  0  0  0  0
 22 55  1  0  0  0  0
 23 56  1  0  0  0  0
 23 57  1  0  0  0  0
 23 58  1  0  0  0  0
 24 18  1  0  0  0  0
 24 25  1  0  0  0  0
 24 59  1  0  0  0  0
 25 26  1  0  0  0  0
 25 60  1  1  0  0  0
 26 27  2  0  0  0  0
 28 25  1  0  0  0  0
 28 61  1  0  0  0  0
 28 62  1  0  0  0  0
 28 63  1  0  0  0  0
 29 26  1  0  0  0  0
 29 30  1  0  0  0  0
 29 64  1  0  0  0  0
 30 65  1  0  0  0  0
 30 66  1  0  0  0  0
 30 67  1  0  0  0  0
M  END
>  <MODEL>
       0

$$$$
selected_4mers/LGLA/481_noH.pdb
 OpenBabel03042518173D

 67 66  0  0  1  0  0  0  0  0999 V2000
    3.2470  106.4570    4.3150 C   0  0  0  0  0  0  0  0  0  0  0  0
    2.0540  105.7530    3.6560 C   0  0  0  0  0  0  0  0  0  0  0  0
    1.0640  106.4050    3.2980 O   0  0  0  0  0  0  0  0  0  0  0  0
    2.1350  104.4270    3.5420 N   0  0  0  0  0  0  0  0  0  0  0  0
    1.0510  103.6030    2.9840 C   0  0  2  0  0  0  0  0  0  0  0  0
    0.1200  102.9890    4.0560 C   0  0  0  0  0  0  0  0  0  0  0  0
   -0.6460  102.0710    3.7630 O   0  0  0  0  0  0  0  0  0  0  0  0
    1.6390  102.5090    2.0600 C   0  0  0  0  0  0  0  0  0  0  0  0
    2.2040  102.9490    0.7000 C   0  0  0  0  0  0  0  0  0  0  0  0
    2.7520  101.7450   -0.0700 C   0  0  0  0  0  0  0  0  0  0  0  0
    1.1890  103.6880   -0.1440 C   0  0  0  0  0  0  0  0  0  0  0  0
    0.1760  103.5040    5.2830 N   0  0  0  0  0  0  0  0  0  0  0  0
   -0.7920  103.1490    6.3250 C   0  0  0  0  0  0  0  0  0  0  0  0
   -0.8060  101.7020    6.7760 C   0  0  0  0  0  0  0  0  0  0  0  0
   -1.8360  101.2230    7.2720 O   0  0  0  0  0  0  0  0  0  0  0  0
    0.3330  101.0070    6.6410 N   0  0  0  0  0  0  0  0  0  0  0  0
    0.4490   99.6070    7.0810 C   0  0  2  0  0  0  0  0  0  0  0  0
    0.7760   99.4890    8.5760 C   0  0  0  0  0  0  0  0  0  0  0  0
    1.5640  100.2750    9.1010 O   0  0  0  0  0  0  0  0  0  0  0  0
    1.5170   98.8830    6.2530 C   0  0  0  0  0  0  0  0  0  0  0  0
    1.3160   98.8660    4.7310 C   0  0  0  0  0  0  0  0  0  0  0  0
    2.3960   98.0310    4.0400 C   0  0  0  0  0  0  0  0  0  0  0  0
   -0.0510   98.3520    4.3660 C   0  0  0  0  0  0  0  0  0  0  0  0
    0.1850   98.4980    9.2460 N   0  0  0  0  0  0  0  0  0  0  0  0
    0.4670   98.2320   10.6720 C   0  0  2  0  0  0  0  0  0  0  0  0
    1.7620   97.4350   10.7830 C   0  0  0  0  0  0  0  0  0  0  0  0
    1.7470   96.2230   11.0300 O   0  0  0  0  0  0  0  0  0  0  0  0
   -0.6930   97.4820   11.3370 C   0  0  0  0  0  0  0  0  0  0  0  0
    2.8780   98.1420   10.5890 N   0  0  0  0  0  0  0  0  0  0  0  0
    4.1860   97.5250   10.3860 C   0  0  0  0  0  0  0  0  0  0  0  0
    3.0651  107.5109    4.3487 H   0  0  0  0  0  0  0  0  0  0  0  0
    4.1327  106.2660    3.7459 H   0  0  0  0  0  0  0  0  0  0  0  0
    3.3753  106.0852    5.3101 H   0  0  0  0  0  0  0  0  0  0  0  0
    2.9575  103.9788    3.8450 H   0  0  0  0  0  0  0  0  0  0  0  0
    0.4300  104.2590    2.4105 H   0  0  0  0  0  0  0  0  0  0  0  0
    2.4322  102.0309    2.5958 H   0  0  0  0  0  0  0  0  0  0  0  0
    0.8051  101.8843    1.8166 H   0  0  0  0  0  0  0  0  0  0  0  0
    3.0005  103.6330    0.9062 H   0  0  0  0  0  0  0  0  0  0  0  0
    1.9555  101.0609   -0.2762 H   0  0  0  0  0  0  0  0  0  0  0  0
    3.4994  101.2553    0.5187 H   0  0  0  0  0  0  0  0  0  0  0  0
    3.1842  102.0771   -0.9907 H   0  0  0  0  0  0  0  0  0  0  0  0
    0.3725  103.0354   -0.3728 H   0  0  0  0  0  0  0  0  0  0  0  0
    1.6504  104.0141   -1.0526 H   0  0  0  0  0  0  0  0  0  0  0  0
    0.8262  104.5372    0.3965 H   0  0  0  0  0  0  0  0  0  0  0  0
    0.8919  104.1449    5.4975 H   0  0  0  0  0  0  0  0  0  0  0  0
   -1.7681  103.3825    5.9540 H   0  0  0  0  0  0  0  0  0  0  0  0
   -0.4958  103.7095    7.1870 H   0  0  0  0  0  0  0  0  0  0  0  0
    1.1151  101.4463    6.2354 H   0  0  0  0  0  0  0  0  0  0  0  0
   -0.5041   99.1460    6.9261 H   0  0  0  0  0  0  0  0  0  0  0  0
    2.4562   99.3560    6.4506 H   0  0  0  0  0  0  0  0  0  0  0  0
    1.4601   97.8582    6.5554 H   0  0  0  0  0  0  0  0  0  0  0  0
    1.3982   99.8763    4.3882 H   0  0  0  0  0  0  0  0  0  0  0  0
    2.3286   97.0159    4.3715 H   0  0  0  0  0  0  0  0  0  0  0  0
    3.3610   98.4229    4.2850 H   0  0  0  0  0  0  0  0  0  0  0  0
    2.2537   98.0703    2.9802 H   0  0  0  0  0  0  0  0  0  0  0  0
   -0.1530   97.3409    4.7010 H   0  0  0  0  0  0  0  0  0  0  0  0
   -0.1744   98.3900    3.3038 H   0  0  0  0  0  0  0  0  0  0  0  0
   -0.7972   98.9597    4.8337 H   0  0  0  0  0  0  0  0  0  0  0  0
   -0.4611   97.9243    8.7742 H   0  0  0  0  0  0  0  0  0  0  0  0
    0.5769   99.1642   11.1856 H   0  0  0  0  0  0  0  0  0  0  0  0
   -0.8351   96.5403   10.8493 H   0  0  0  0  0  0  0  0  0  0  0  0
   -1.5872   98.0641   11.2560 H   0  0  0  0  0  0  0  0  0  0  0  0
   -0.4664   97.3182   12.3698 H   0  0  0  0  0  0  0  0  0  0  0  0
    2.8162   99.1245   10.5825 H   0  0  0  0  0  0  0  0  0  0  0  0
    4.0872   96.4601   10.4201 H   0  0  0  0  0  0  0  0  0  0  0  0
    4.8552   97.8459   11.1567 H   0  0  0  0  0  0  0  0  0  0  0  0
    4.5739   97.8169    9.4325 H   0  0  0  0  0  0  0  0  0  0  0  0
  1 31  1  0  0  0  0
  1 32  1  0  0  0  0
  1 33  1  0  0  0  0
  2  1  1  0  0  0  0
  3  2  2  0  0  0  0
  4  2  1  0  0  0  0
  4 34  1  0  0  0  0
  5  4  1  0  0  0  0
  5  6  1  0  0  0  0
  5 35  1  6  0  0  0
  6 12  1  0  0  0  0
  7  6  2  0  0  0  0
  8  5  1  0  0  0  0
  8 36  1  0  0  0  0
  8 37  1  0  0  0  0
  9  8  1  0  0  0  0
  9 38  1  0  0  0  0
 10  9  1  0  0  0  0
 10 39  1  0  0  0  0
 10 40  1  0  0  0  0
 10 41  1  0  0  0  0
 11  9  1  0  0  0  0
 11 42  1  0  0  0  0
 11 43  1  0  0  0  0
 11 44  1  0  0  0  0
 12 13  1  0  0  0  0
 12 45  1  0  0  0  0
 13 14  1  0  0  0  0
 13 46  1  0  0  0  0
 13 47  1  0  0  0  0
 14 15  2  0  0  0  0
 16 14  1  0  0  0  0
 16 17  1  0  0  0  0
 16 48  1  0  0  0  0
 17 18  1  0  0  0  0
 17 49  1  6  0  0  0
 18 19  2  0  0  0  0
 18 24  1  0  0  0  0
 20 17  1  0  0  0  0
 20 50  1  0  0  0  0
 20 51  1  0  0  0  0
 21 20  1  0  0  0  0
 21 52  1  0  0  0  0
 22 21  1  0  0  0  0
 22 53  1  0  0  0  0
 22 54  1  0  0  0  0
 22 55  1  0  0  0  0
 23 21  1  0  0  0  0
 23 56  1  0  0  0  0
 23 57  1  0  0  0  0
 23 58  1  0  0  0  0
 24 25  1  0  0  0  0
 24 59  1  0  0  0  0
 25 26  1  0  0  0  0
 25 28  1  0  0  0  0
 25 60  1  1  0  0  0
 26 27  2  0  0  0  0
 28 61  1  0  0  0  0
 28 62  1  0  0  0  0
 28 63  1  0  0  0  0
 29 26  1  0  0  0  0
 29 64  1  0  0  0  0
 30 29  1  0  0  0  0
 30 65  1  0  0  0  0
 30 66  1  0  0  0  0
 30 67  1  0  0  0  0
M  END
>  <MODEL>
       0

$$$$
selected_4mers/LGLA/482_noH.pdb
 OpenBabel03042518173D

 67 66  0  0  1  0  0  0  0  0999 V2000
    3.5960   34.9000   -5.6170 C   0  0  0  0  0  0  0  0  0  0  0  0
    4.9130   34.7790   -6.3690 C   0  0  0  0  0  0  0  0  0  0  0  0
    4.9370   34.7000   -7.5960 O   0  0  0  0  0  0  0  0  0  0  0  0
    6.0030   34.8050   -5.6110 N   0  0  0  0  0  0  0  0  0  0  0  0
    7.3540   34.7460   -6.1640 C   0  0  2  0  0  0  0  0  0  0  0  0
    8.1470   33.5710   -5.5960 C   0  0  0  0  0  0  0  0  0  0  0  0
    7.9020   33.1360   -4.4730 O   0  0  0  0  0  0  0  0  0  0  0  0
    8.1000   36.0380   -5.8130 C   0  0  0  0  0  0  0  0  0  0  0  0
    7.4310   37.3890   -6.0930 C   0  0  0  0  0  0  0  0  0  0  0  0
    8.0630   38.4680   -5.2220 C   0  0  0  0  0  0  0  0  0  0  0  0
    7.5620   37.7350   -7.5580 C   0  0  0  0  0  0  0  0  0  0  0  0
    9.1000   33.0720   -6.3820 N   0  0  0  0  0  0  0  0  0  0  0  0
    9.9610   31.9840   -5.9400 C   0  0  0  0  0  0  0  0  0  0  0  0
   11.3520   32.5890   -5.7940 C   0  0  0  0  0  0  0  0  0  0  0  0
   11.8960   33.1130   -6.7670 O   0  0  0  0  0  0  0  0  0  0  0  0
   11.9240   32.5180   -4.5940 N   0  0  0  0  0  0  0  0  0  0  0  0
   13.2350   33.1090   -4.3220 C   0  0  2  0  0  0  0  0  0  0  0  0
   14.3260   32.1100   -3.9560 C   0  0  0  0  0  0  0  0  0  0  0  0
   14.1150   31.2210   -3.1320 O   0  0  0  0  0  0  0  0  0  0  0  0
   13.1170   34.1250   -3.1800 C   0  0  0  0  0  0  0  0  0  0  0  0
   14.3840   34.9240   -2.8520 C   0  0  0  0  0  0  0  0  0  0  0  0
   14.6480   35.9270   -3.9690 C   0  0  0  0  0  0  0  0  0  0  0  0
   14.2230   35.6390   -1.5210 C   0  0  0  0  0  0  0  0  0  0  0  0
   15.5000   32.2790   -4.5590 N   0  0  0  0  0  0  0  0  0  0  0  0
   16.6430   31.4160   -4.2750 C   0  0  2  0  0  0  0  0  0  0  0  0
   17.6830   32.2490   -3.5400 C   0  0  0  0  0  0  0  0  0  0  0  0
   18.2030   33.2300   -4.0850 O   0  0  0  0  0  0  0  0  0  0  0  0
   17.2310   30.8640   -5.5730 C   0  0  0  0  0  0  0  0  0  0  0  0
   17.9710   31.8640   -2.3010 N   0  0  0  0  0  0  0  0  0  0  0  0
   18.9430   32.5710   -1.4800 C   0  0  0  0  0  0  0  0  0  0  0  0
    2.7838   34.8687   -6.3129 H   0  0  0  0  0  0  0  0  0  0  0  0
    3.5735   35.8276   -5.0841 H   0  0  0  0  0  0  0  0  0  0  0  0
    3.5045   34.0889   -4.9252 H   0  0  0  0  0  0  0  0  0  0  0  0
    5.8961   34.8667   -4.6343 H   0  0  0  0  0  0  0  0  0  0  0  0
    7.2661   34.6228   -7.2232 H   0  0  0  0  0  0  0  0  0  0  0  0
    9.0200   36.0258   -6.3592 H   0  0  0  0  0  0  0  0  0  0  0  0
    8.1732   36.0071   -4.7460 H   0  0  0  0  0  0  0  0  0  0  0  0
    6.3899   37.3269   -5.8539 H   0  0  0  0  0  0  0  0  0  0  0  0
    9.1060   38.5436   -5.4485 H   0  0  0  0  0  0  0  0  0  0  0  0
    7.9397   38.2114   -4.1906 H   0  0  0  0  0  0  0  0  0  0  0  0
    7.5870   39.4066   -5.4154 H   0  0  0  0  0  0  0  0  0  0  0  0
    8.5979   37.8019   -7.8174 H   0  0  0  0  0  0  0  0  0  0  0  0
    7.0857   38.6744   -7.7466 H   0  0  0  0  0  0  0  0  0  0  0  0
    7.0951   36.9737   -8.1474 H   0  0  0  0  0  0  0  0  0  0  0  0
    9.2251   33.4479   -7.2833 H   0  0  0  0  0  0  0  0  0  0  0  0
    9.9708   31.1980   -6.6660 H   0  0  0  0  0  0  0  0  0  0  0  0
    9.6178   31.5588   -5.0201 H   0  0  0  0  0  0  0  0  0  0  0  0
   11.4503   32.0534   -3.8667 H   0  0  0  0  0  0  0  0  0  0  0  0
   13.5309   33.5661   -5.2431 H   0  0  0  0  0  0  0  0  0  0  0  0
   12.8291   33.5926   -2.2977 H   0  0  0  0  0  0  0  0  0  0  0  0
   12.4005   34.8472   -3.5117 H   0  0  0  0  0  0  0  0  0  0  0  0
   15.2172   34.2571   -2.7744 H   0  0  0  0  0  0  0  0  0  0  0  0
   13.8174   36.5965   -4.0508 H   0  0  0  0  0  0  0  0  0  0  0  0
   14.7777   35.4049   -4.8939 H   0  0  0  0  0  0  0  0  0  0  0  0
   15.5342   36.4837   -3.7464 H   0  0  0  0  0  0  0  0  0  0  0  0
   13.3935   36.3126   -1.5760 H   0  0  0  0  0  0  0  0  0  0  0  0
   15.1145   36.1883   -1.3011 H   0  0  0  0  0  0  0  0  0  0  0  0
   14.0476   34.9196   -0.7486 H   0  0  0  0  0  0  0  0  0  0  0  0
   15.6008   33.0062   -5.2149 H   0  0  0  0  0  0  0  0  0  0  0  0
   16.3377   30.5844   -3.6749 H   0  0  0  0  0  0  0  0  0  0  0  0
   17.5460   31.6754   -6.1953 H   0  0  0  0  0  0  0  0  0  0  0  0
   16.4878   30.2894   -6.0852 H   0  0  0  0  0  0  0  0  0  0  0  0
   18.0709   30.2406   -5.3473 H   0  0  0  0  0  0  0  0  0  0  0  0
   17.5130   31.0768   -1.9272 H   0  0  0  0  0  0  0  0  0  0  0  0
   19.3443   33.3949   -2.0323 H   0  0  0  0  0  0  0  0  0  0  0  0
   19.7344   31.9035   -1.2098 H   0  0  0  0  0  0  0  0  0  0  0  0
   18.4648   32.9343   -0.5944 H   0  0  0  0  0  0  0  0  0  0  0  0
  1 31  1  0  0  0  0
  1 32  1  0  0  0  0
  1 33  1  0  0  0  0
  2  1  1  0  0  0  0
  2  4  1  0  0  0  0
  3  2  2  0  0  0  0
  4 34  1  0  0  0  0
  5  8  1  0  0  0  0
  5  4  1  0  0  0  0
  5  6  1  0  0  0  0
  5 35  1  6  0  0  0
  6  7  2  0  0  0  0
  8 36  1  0  0  0  0
  8 37  1  0  0  0  0
  9  8  1  0  0  0  0
  9 10  1  0  0  0  0
  9 38  1  0  0  0  0
 10 39  1  0  0  0  0
 10 40  1  0  0  0  0
 10 41  1  0  0  0  0
 11  9  1  0  0  0  0
 11 42  1  0  0  0  0
 11 43  1  0  0  0  0
 11 44  1  0  0  0  0
 12 13  1  0  0  0  0
 12  6  1  0  0  0  0
 12 45  1  0  0  0  0
 13 14  1  0  0  0  0
 13 46  1  0  0  0  0
 13 47  1  0  0  0  0
 14 16  1  0  0  0  0
 15 14  2  0  0  0  0
 16 17  1  0  0  0  0
 16 48  1  0  0  0  0
 17 18  1  0  0  0  0
 17 20  1  0  0  0  0
 17 49  1  6  0  0  0
 18 19  2  0  0  0  0
 20 21  1  0  0  0  0
 20 50  1  0  0  0  0
 20 51  1  0  0  0  0
 21 23  1  0  0  0  0
 21 52  1  0  0  0  0
 22 21  1  0  0  0  0
 22 53  1  0  0  0  0
 22 54  1  0  0  0  0
 22 55  1  0  0  0  0
 23 56  1  0  0  0  0
 23 57  1  0  0  0  0
 23 58  1  0  0  0  0
 24 25  1  0  0  0  0
 24 18  1  0  0  0  0
 24 59  1  0  0  0  0
 25 26  1  0  0  0  0
 25 60  1  1  0  0  0
 26 29  1  0  0  0  0
 27 26  2  0  0  0  0
 28 25  1  0  0  0  0
 28 61  1  0  0  0  0
 28 62  1  0  0  0  0
 28 63  1  0  0  0  0
 29 30  1  0  0  0  0
 29 64  1  0  0  0  0
 30 65  1  0  0  0  0
 30 66  1  0  0  0  0
 30 67  1  0  0  0  0
M  END
>  <MODEL>
       0

$$$$
selected_4mers/LGLA/483_noH.pdb
 OpenBabel03042518173D

 67 66  0  0  1  0  0  0  0  0999 V2000
    1.7610   32.3800   26.3110 C   0  0  0  0  0  0  0  0  0  0  0  0
    1.7170   32.8150   27.7760 C   0  0  0  0  0  0  0  0  0  0  0  0
    0.8710   33.6410   28.1570 O   0  0  0  0  0  0  0  0  0  0  0  0
    2.5950   32.2450   28.5920 N   0  0  0  0  0  0  0  0  0  0  0  0
    2.8220   32.7000   29.9400 C   0  0  2  0  0  0  0  0  0  0  0  0
    4.1580   33.3750   29.9870 C   0  0  0  0  0  0  0  0  0  0  0  0
    5.1460   32.8150   29.5440 O   0  0  0  0  0  0  0  0  0  0  0  0
    2.7950   31.5660   30.9580 C   0  0  0  0  0  0  0  0  0  0  0  0
    1.5840   30.6560   30.9790 C   0  0  0  0  0  0  0  0  0  0  0  0
    1.8040   29.5470   31.9850 C   0  0  0  0  0  0  0  0  0  0  0  0
    0.3710   31.5160   31.3590 C   0  0  0  0  0  0  0  0  0  0  0  0
    4.1720   34.6050   30.4780 N   0  0  0  0  0  0  0  0  0  0  0  0
    5.4190   35.3130   30.6760 C   0  0  0  0  0  0  0  0  0  0  0  0
    6.2340   34.7740   31.8080 C   0  0  0  0  0  0  0  0  0  0  0  0
    7.4560   34.9270   31.8310 O   0  0  0  0  0  0  0  0  0  0  0  0
    5.5500   34.2210   32.8030 N   0  0  0  0  0  0  0  0  0  0  0  0
    6.1800   33.6780   33.9890 C   0  0  2  0  0  0  0  0  0  0  0  0
    5.3040   32.5230   34.5170 C   0  0  0  0  0  0  0  0  0  0  0  0
    4.0880   32.5470   34.3670 O   0  0  0  0  0  0  0  0  0  0  0  0
    6.2780   34.8120   34.9970 C   0  0  0  0  0  0  0  0  0  0  0  0
    6.5050   34.5490   36.4730 C   0  0  0  0  0  0  0  0  0  0  0  0
    7.4770   35.5590   37.0160 C   0  0  0  0  0  0  0  0  0  0  0  0
    5.1720   34.6200   37.1590 C   0  0  0  0  0  0  0  0  0  0  0  0
    5.9480   31.5380   35.1450 N   0  0  0  0  0  0  0  0  0  0  0  0
    5.2590   30.4620   35.8460 C   0  0  2  0  0  0  0  0  0  0  0  0
    6.2450   29.8270   36.7930 C   0  0  0  0  0  0  0  0  0  0  0  0
    7.3740   29.5290   36.3870 O   0  0  0  0  0  0  0  0  0  0  0  0
    4.7820   29.4310   34.9130 C   0  0  0  0  0  0  0  0  0  0  0  0
    5.8540   29.6650   38.0510 N   0  0  0  0  0  0  0  0  0  0  0  0
    6.6820   28.9520   38.9820 C   0  0  0  0  0  0  0  0  0  0  0  0
    1.0103   32.9069   25.7598 H   0  0  0  0  0  0  0  0  0  0  0  0
    1.5787   31.3277   26.2458 H   0  0  0  0  0  0  0  0  0  0  0  0
    2.7248   32.6010   25.9021 H   0  0  0  0  0  0  0  0  0  0  0  0
    3.1144   31.4768   28.2613 H   0  0  0  0  0  0  0  0  0  0  0  0
    2.0312   33.3720   30.2007 H   0  0  0  0  0  0  0  0  0  0  0  0
    2.8772   32.0083   31.9288 H   0  0  0  0  0  0  0  0  0  0  0  0
    3.6032   30.9277   30.6676 H   0  0  0  0  0  0  0  0  0  0  0  0
    1.4200   30.2011   30.0245 H   0  0  0  0  0  0  0  0  0  0  0  0
    1.9714   29.9714   32.9528 H   0  0  0  0  0  0  0  0  0  0  0  0
    2.6566   28.9682   31.6971 H   0  0  0  0  0  0  0  0  0  0  0  0
    0.9395   28.9172   32.0164 H   0  0  0  0  0  0  0  0  0  0  0  0
    0.5397   31.9686   32.3138 H   0  0  0  0  0  0  0  0  0  0  0  0
   -0.5025   30.8998   31.4058 H   0  0  0  0  0  0  0  0  0  0  0  0
    0.2301   32.2792   30.6224 H   0  0  0  0  0  0  0  0  0  0  0  0
    3.3223   35.0440   30.7116 H   0  0  0  0  0  0  0  0  0  0  0  0
    5.1977   36.3405   30.8764 H   0  0  0  0  0  0  0  0  0  0  0  0
    5.9971   35.1907   29.7839 H   0  0  0  0  0  0  0  0  0  0  0  0
    4.5691   34.1781   32.7312 H   0  0  0  0  0  0  0  0  0  0  0  0
    7.1581   33.2901   33.7946 H   0  0  0  0  0  0  0  0  0  0  0  0
    5.3603   35.3576   34.9263 H   0  0  0  0  0  0  0  0  0  0  0  0
    7.1885   35.2946   34.7090 H   0  0  0  0  0  0  0  0  0  0  0  0
    6.9292   33.5812   36.6412 H   0  0  0  0  0  0  0  0  0  0  0  0
    7.0880   36.5445   36.8666 H   0  0  0  0  0  0  0  0  0  0  0  0
    8.4127   35.4637   36.5057 H   0  0  0  0  0  0  0  0  0  0  0  0
    7.6222   35.3877   38.0622 H   0  0  0  0  0  0  0  0  0  0  0  0
    4.7385   35.5847   36.9971 H   0  0  0  0  0  0  0  0  0  0  0  0
    5.3021   34.4591   38.2088 H   0  0  0  0  0  0  0  0  0  0  0  0
    4.5251   33.8668   36.7602 H   0  0  0  0  0  0  0  0  0  0  0  0
    6.9324   31.5379   35.1345 H   0  0  0  0  0  0  0  0  0  0  0  0
    4.4127   30.8673   36.3601 H   0  0  0  0  0  0  0  0  0  0  0  0
    5.6150   29.0123   34.3878 H   0  0  0  0  0  0  0  0  0  0  0  0
    4.1031   29.8705   34.2125 H   0  0  0  0  0  0  0  0  0  0  0  0
    4.2808   28.6597   35.4596 H   0  0  0  0  0  0  0  0  0  0  0  0
    4.9915   30.0358   38.3472 H   0  0  0  0  0  0  0  0  0  0  0  0
    7.5729   28.6241   38.4884 H   0  0  0  0  0  0  0  0  0  0  0  0
    6.1486   28.1033   39.3563 H   0  0  0  0  0  0  0  0  0  0  0  0
    6.9416   29.5972   39.7952 H   0  0  0  0  0  0  0  0  0  0  0  0
  1  2  1  0  0  0  0
  1 31  1  0  0  0  0
  1 32  1  0  0  0  0
  1 33  1  0  0  0  0
  2  3  2  0  0  0  0
  2  4  1  0  0  0  0
  4  5  1  0  0  0  0
  4 34  1  0  0  0  0
  5  6  1  0  0  0  0
  5  8  1  0  0  0  0
  5 35  1  1  0  0  0
  6 12  1  0  0  0  0
  7  6  2  0  0  0  0
  8  9  1  0  0  0  0
  8 36  1  0  0  0  0
  8 37  1  0  0  0  0
  9 11  1  0  0  0  0
  9 10  1  0  0  0  0
  9 38  1  0  0  0  0
 10 39  1  0  0  0  0
 10 40  1  0  0  0  0
 10 41  1  0  0  0  0
 11 42  1  0  0  0  0
 11 43  1  0  0  0  0
 11 44  1  0  0  0  0
 12 13  1  0  0  0  0
 12 45  1  0  0  0  0
 13 14  1  0  0  0  0
 13 46  1  0  0  0  0
 13 47  1  0  0  0  0
 14 15  2  0  0  0  0
 14 16  1  0  0  0  0
 16 17  1  0  0  0  0
 16 48  1  0  0  0  0
 17 18  1  0  0  0  0
 17 20  1  0  0  0  0
 17 49  1  6  0  0  0
 18 24  1  0  0  0  0
 19 18  2  0  0  0  0
 20 21  1  0  0  0  0
 20 50  1  0  0  0  0
 20 51  1  0  0  0  0
 21 22  1  0  0  0  0
 21 23  1  0  0  0  0
 21 52  1  0  0  0  0
 22 53  1  0  0  0  0
 22 54  1  0  0  0  0
 22 55  1  0  0  0  0
 23 56  1  0  0  0  0
 23 57  1  0  0  0  0
 23 58  1  0  0  0  0
 24 25  1  0  0  0  0
 24 59  1  0  0  0  0
 25 26  1  0  0  0  0
 25 60  1  1  0  0  0
 26 29  1  0  0  0  0
 27 26  2  0  0  0  0
 28 25  1  0  0  0  0
 28 61  1  0  0  0  0
 28 62  1  0  0  0  0
 28 63  1  0  0  0  0
 29 30  1  0  0  0  0
 29 64  1  0  0  0  0
 30 65  1  0  0  0  0
 30 66  1  0  0  0  0
 30 67  1  0  0  0  0
M  END
>  <MODEL>
       0

$$$$
selected_4mers/LGLA/484_noH.pdb
 OpenBabel03042518173D

 67 66  0  0  1  0  0  0  0  0999 V2000
  -13.5450   55.4680   39.2540 C   0  0  0  0  0  0  0  0  0  0  0  0
  -12.0860   55.4710   39.7240 C   0  0  0  0  0  0  0  0  0  0  0  0
  -11.7940   55.5230   40.9500 O   0  0  0  0  0  0  0  0  0  0  0  0
  -11.1470   55.4120   38.7780 N   0  0  0  0  0  0  0  0  0  0  0  0
   -9.7390   55.5490   39.1710 C   0  0  2  0  0  0  0  0  0  0  0  0
   -9.4690   56.9320   39.7340 C   0  0  0  0  0  0  0  0  0  0  0  0
   -9.9730   57.9560   39.1940 O   0  0  0  0  0  0  0  0  0  0  0  0
   -8.7940   55.3850   37.9730 C   0  0  0  0  0  0  0  0  0  0  0  0
   -8.4370   53.9600   37.5930 C   0  0  0  0  0  0  0  0  0  0  0  0
   -7.2930   54.0540   36.5310 C   0  0  0  0  0  0  0  0  0  0  0  0
   -7.9790   53.1080   38.7370 C   0  0  0  0  0  0  0  0  0  0  0  0
   -8.6880   56.9570   40.7900 N   0  0  0  0  0  0  0  0  0  0  0  0
   -8.2460   58.2140   41.3740 C   0  0  0  0  0  0  0  0  0  0  0  0
   -6.7770   58.0520   41.7860 C   0  0  0  0  0  0  0  0  0  0  0  0
   -6.1760   56.9770   41.8310 O   0  0  0  0  0  0  0  0  0  0  0  0
   -6.1890   59.1800   42.1240 N   0  0  0  0  0  0  0  0  0  0  0  0
   -4.7770   59.1620   42.4930 C   0  0  2  0  0  0  0  0  0  0  0  0
   -4.5640   58.5750   43.8800 C   0  0  0  0  0  0  0  0  0  0  0  0
   -5.1800   59.0410   44.8540 O   0  0  0  0  0  0  0  0  0  0  0  0
   -4.2200   60.5990   42.4710 C   0  0  0  0  0  0  0  0  0  0  0  0
   -2.7070   60.6840   42.6130 C   0  0  0  0  0  0  0  0  0  0  0  0
   -2.0120   60.2440   41.3250 C   0  0  0  0  0  0  0  0  0  0  0  0
   -2.3520   62.1400   42.8580 C   0  0  0  0  0  0  0  0  0  0  0  0
   -3.7650   57.5280   43.9690 N   0  0  0  0  0  0  0  0  0  0  0  0
   -3.4020   56.9440   45.2520 C   0  0  2  0  0  0  0  0  0  0  0  0
   -2.2510   57.7370   45.8860 C   0  0  0  0  0  0  0  0  0  0  0  0
   -2.2640   58.0290   47.1060 O   0  0  0  0  0  0  0  0  0  0  0  0
   -3.0100   55.4850   45.0760 C   0  0  0  0  0  0  0  0  0  0  0  0
   -1.2220   58.0540   45.0850 N   0  0  0  0  0  0  0  0  0  0  0  0
   -0.0750   58.8380   45.5500 C   0  0  0  0  0  0  0  0  0  0  0  0
  -13.5754   55.4199   38.1855 H   0  0  0  0  0  0  0  0  0  0  0  0
  -14.0280   56.3637   39.5846 H   0  0  0  0  0  0  0  0  0  0  0  0
  -14.0500   54.6183   39.6638 H   0  0  0  0  0  0  0  0  0  0  0  0
  -11.3936   55.2791   37.8342 H   0  0  0  0  0  0  0  0  0  0  0  0
   -9.5614   54.7849   39.8986 H   0  0  0  0  0  0  0  0  0  0  0  0
   -9.2592   55.8425   37.1249 H   0  0  0  0  0  0  0  0  0  0  0  0
   -7.8731   55.8421   38.2694 H   0  0  0  0  0  0  0  0  0  0  0  0
   -9.3218   53.4851   37.2235 H   0  0  0  0  0  0  0  0  0  0  0  0
   -6.4425   54.5371   36.9648 H   0  0  0  0  0  0  0  0  0  0  0  0
   -7.6336   54.6196   35.6890 H   0  0  0  0  0  0  0  0  0  0  0  0
   -7.0202   53.0696   36.2126 H   0  0  0  0  0  0  0  0  0  0  0  0
   -7.0895   53.5265   39.1596 H   0  0  0  0  0  0  0  0  0  0  0  0
   -7.7753   52.1182   38.3853 H   0  0  0  0  0  0  0  0  0  0  0  0
   -8.7451   53.0708   39.4831 H   0  0  0  0  0  0  0  0  0  0  0  0
   -8.3960   56.1082   41.1943 H   0  0  0  0  0  0  0  0  0  0  0  0
   -8.8410   58.4450   42.2328 H   0  0  0  0  0  0  0  0  0  0  0  0
   -8.3490   59.0102   40.6666 H   0  0  0  0  0  0  0  0  0  0  0  0
   -6.6949   60.0246   42.1279 H   0  0  0  0  0  0  0  0  0  0  0  0
   -4.2641   58.5470   41.7833 H   0  0  0  0  0  0  0  0  0  0  0  0
   -4.6639   61.1433   43.2782 H   0  0  0  0  0  0  0  0  0  0  0  0
   -4.4623   61.0080   41.5124 H   0  0  0  0  0  0  0  0  0  0  0  0
   -2.3912   60.0483   43.4137 H   0  0  0  0  0  0  0  0  0  0  0  0
   -2.3225   60.8751   40.5187 H   0  0  0  0  0  0  0  0  0  0  0  0
   -2.2751   59.2302   41.1062 H   0  0  0  0  0  0  0  0  0  0  0  0
   -0.9518   60.3187   41.4484 H   0  0  0  0  0  0  0  0  0  0  0  0
   -2.6873   62.7326   42.0326 H   0  0  0  0  0  0  0  0  0  0  0  0
   -1.2911   62.2364   42.9586 H   0  0  0  0  0  0  0  0  0  0  0  0
   -2.8274   62.4769   43.7554 H   0  0  0  0  0  0  0  0  0  0  0  0
   -3.4041   57.1306   43.1437 H   0  0  0  0  0  0  0  0  0  0  0  0
   -4.2489   56.9902   45.9043 H   0  0  0  0  0  0  0  0  0  0  0  0
   -2.1631   55.4192   44.4254 H   0  0  0  0  0  0  0  0  0  0  0  0
   -3.8295   54.9443   44.6505 H   0  0  0  0  0  0  0  0  0  0  0  0
   -2.7617   55.0650   46.0283 H   0  0  0  0  0  0  0  0  0  0  0  0
   -1.2385   57.7481   44.1494 H   0  0  0  0  0  0  0  0  0  0  0  0
   -0.2098   59.0902   46.5811 H   0  0  0  0  0  0  0  0  0  0  0  0
    0.0027   59.7343   44.9708 H   0  0  0  0  0  0  0  0  0  0  0  0
    0.8198   58.2621   45.4377 H   0  0  0  0  0  0  0  0  0  0  0  0
  1  2  1  0  0  0  0
  1 31  1  0  0  0  0
  1 32  1  0  0  0  0
  1 33  1  0  0  0  0
  2  3  2  0  0  0  0
  4  5  1  0  0  0  0
  4  2  1  0  0  0  0
  4 34  1  0  0  0  0
  5  6  1  0  0  0  0
  5 35  1  1  0  0  0
  6 12  1  0  0  0  0
  7  6  2  0  0  0  0
  8  5  1  0  0  0  0
  8 36  1  0  0  0  0
  8 37  1  0  0  0  0
  9  8  1  0  0  0  0
  9 11  1  0  0  0  0
  9 38  1  0  0  0  0
 10  9  1  0  0  0  0
 10 39  1  0  0  0  0
 10 40  1  0  0  0  0
 10 41  1  0  0  0  0
 11 42  1  0  0  0  0
 11 43  1  0  0  0  0
 11 44  1  0  0  0  0
 12 13  1  0  0  0  0
 12 45  1  0  0  0  0
 13 14  1  0  0  0  0
 13 46  1  0  0  0  0
 13 47  1  0  0  0  0
 14 15  2  0  0  0  0
 14 16  1  0  0  0  0
 16 17  1  0  0  0  0
 16 48  1  0  0  0  0
 17 18  1  0  0  0  0
 17 49  1  6  0  0  0
 18 24  1  0  0  0  0
 18 19  2  0  0  0  0
 20 17  1  0  0  0  0
 20 21  1  0  0  0  0
 20 50  1  0  0  0  0
 20 51  1  0  0  0  0
 21 23  1  0  0  0  0
 21 52  1  0  0  0  0
 22 21  1  0  0  0  0
 22 53  1  0  0  0  0
 22 54  1  0  0  0  0
 22 55  1  0  0  0  0
 23 56  1  0  0  0  0
 23 57  1  0  0  0  0
 23 58  1  0  0  0  0
 24 25  1  0  0  0  0
 24 59  1  0  0  0  0
 25 26  1  0  0  0  0
 25 60  1  1  0  0  0
 26 27  2  0  0  0  0
 28 25  1  0  0  0  0
 28 61  1  0  0  0  0
 28 62  1  0  0  0  0
 28 63  1  0  0  0  0
 29 30  1  0  0  0  0
 29 26  1  0  0  0  0
 29 64  1  0  0  0  0
 30 65  1  0  0  0  0
 30 66  1  0  0  0  0
 30 67  1  0  0  0  0
M  END
>  <MODEL>
       0

$$$$
