selected_4mers/LGPL/505_noH.pdb
 OpenBabel03042518173D

 71 71  0  0  1  0  0  0  0  0999 V2000
    4.7890   11.3660    2.9700 C   0  0  0  0  0  0  0  0  0  0  0  0
    5.1430   12.7230    3.5360 C   0  0  0  0  0  0  0  0  0  0  0  0
    5.4590   13.6250    2.7960 O   0  0  0  0  0  0  0  0  0  0  0  0
    5.0610   12.8940    4.8510 N   0  0  0  0  0  0  0  0  0  0  0  0
    5.3460   14.2020    5.4540 C   0  0  2  0  0  0  0  0  0  0  0  0
    6.8130   14.5950    5.3970 C   0  0  0  0  0  0  0  0  0  0  0  0
    7.1280   15.7800    5.2780 O   0  0  0  0  0  0  0  0  0  0  0  0
    4.8470   14.2700    6.8920 C   0  0  0  0  0  0  0  0  0  0  0  0
    3.3270   14.2360    7.0950 C   0  0  0  0  0  0  0  0  0  0  0  0
    2.9760   14.0950    8.5560 C   0  0  0  0  0  0  0  0  0  0  0  0
    2.6480   15.4570    6.4950 C   0  0  0  0  0  0  0  0  0  0  0  0
    7.7060   13.6140    5.4740 N   0  0  0  0  0  0  0  0  0  0  0  0
    9.1460   13.8930    5.4160 C   0  0  0  0  0  0  0  0  0  0  0  0
    9.5160   14.6760    4.1700 C   0  0  0  0  0  0  0  0  0  0  0  0
   10.1020   15.7460    4.2630 O   0  0  0  0  0  0  0  0  0  0  0  0
    9.2340   14.1190    2.9790 N   0  0  0  0  0  0  0  0  0  0  0  0
    9.5600   14.8550    1.7590 C   0  0  2  0  0  0  0  0  0  0  0  0
    8.8850   16.2150    1.6380 C   0  0  0  0  0  0  0  0  0  0  0  0
    9.4970   17.1570    1.1190 O   0  0  0  0  0  0  0  0  0  0  0  0
    9.1250   13.9040    0.6270 C   0  0  0  0  0  0  0  0  0  0  0  0
    8.9850   12.5630    1.2640 C   0  0  0  0  0  0  0  0  0  0  0  0
    8.7820   12.7450    2.7200 C   0  0  0  0  0  0  0  0  0  0  0  0
    7.6440   16.3470    2.0850 N   0  0  0  0  0  0  0  0  0  0  0  0
    6.9600   17.6380    2.0010 C   0  0  2  0  0  0  0  0  0  0  0  0
    7.5660   18.6740    2.9250 C   0  0  0  0  0  0  0  0  0  0  0  0
    7.5850   19.8700    2.6080 O   0  0  0  0  0  0  0  0  0  0  0  0
    5.4730   17.4930    2.3240 C   0  0  0  0  0  0  0  0  0  0  0  0
    4.6850   16.5910    1.3840 C   0  0  0  0  0  0  0  0  0  0  0  0
    3.2970   16.3030    1.9300 C   0  0  0  0  0  0  0  0  0  0  0  0
    4.5870   17.2820    0.0520 C   0  0  0  0  0  0  0  0  0  0  0  0
    8.0470   18.2470    4.0880 N   0  0  0  0  0  0  0  0  0  0  0  0
    8.6750   19.1920    4.9970 C   0  0  0  0  0  0  0  0  0  0  0  0
    4.9024   11.3827    1.9062 H   0  0  0  0  0  0  0  0  0  0  0  0
    3.7750   11.1300    3.2170 H   0  0  0  0  0  0  0  0  0  0  0  0
    5.4392   10.6252    3.3864 H   0  0  0  0  0  0  0  0  0  0  0  0
    4.8068   12.1367    5.4264 H   0  0  0  0  0  0  0  0  0  0  0  0
    4.8112   14.9104    4.8565 H   0  0  0  0  0  0  0  0  0  0  0  0
    5.2110   15.1811    7.3190 H   0  0  0  0  0  0  0  0  0  0  0  0
    5.2136   13.3802    7.3597 H   0  0  0  0  0  0  0  0  0  0  0  0
    2.9602   13.3752    6.5761 H   0  0  0  0  0  0  0  0  0  0  0  0
    3.3351   14.9479    9.0930 H   0  0  0  0  0  0  0  0  0  0  0  0
    3.4305   13.2093    8.9482 H   0  0  0  0  0  0  0  0  0  0  0  0
    1.9135   14.0278    8.6627 H   0  0  0  0  0  0  0  0  0  0  0  0
    2.9940   16.3384    6.9933 H   0  0  0  0  0  0  0  0  0  0  0  0
    1.5883   15.3714    6.6162 H   0  0  0  0  0  0  0  0  0  0  0  0
    2.8839   15.5204    5.4533 H   0  0  0  0  0  0  0  0  0  0  0  0
    7.3967   12.6845    5.5716 H   0  0  0  0  0  0  0  0  0  0  0  0
    9.4240   14.4620    6.2785 H   0  0  0  0  0  0  0  0  0  0  0  0
    9.6661   12.9583    5.3894 H   0  0  0  0  0  0  0  0  0  0  0  0
   10.6002   15.1047    1.7363 H   0  0  0  0  0  0  0  0  0  0  0  0
    8.1909   14.2199    0.2116 H   0  0  0  0  0  0  0  0  0  0  0  0
    9.8341   13.8905   -0.1742 H   0  0  0  0  0  0  0  0  0  0  0  0
    9.8721   11.9895    1.0935 H   0  0  0  0  0  0  0  0  0  0  0  0
    8.1487   12.0457    0.8422 H   0  0  0  0  0  0  0  0  0  0  0  0
    9.3672   12.0421    3.2754 H   0  0  0  0  0  0  0  0  0  0  0  0
    7.7658   12.5858    3.0148 H   0  0  0  0  0  0  0  0  0  0  0  0
    7.1797   15.5718    2.4758 H   0  0  0  0  0  0  0  0  0  0  0  0
    7.0809   17.9744    0.9925 H   0  0  0  0  0  0  0  0  0  0  0  0
    5.3875   17.0940    3.3131 H   0  0  0  0  0  0  0  0  0  0  0  0
    5.0515   18.4706    2.2165 H   0  0  0  0  0  0  0  0  0  0  0  0
    5.1876   15.6516    1.2848 H   0  0  0  0  0  0  0  0  0  0  0  0
    2.7607   17.2219    2.0437 H   0  0  0  0  0  0  0  0  0  0  0  0
    3.3810   15.8191    2.8806 H   0  0  0  0  0  0  0  0  0  0  0  0
    2.7716   15.6652    1.2503 H   0  0  0  0  0  0  0  0  0  0  0  0
    4.0823   18.2178    0.1720 H   0  0  0  0  0  0  0  0  0  0  0  0
    4.0389   16.6660   -0.6299 H   0  0  0  0  0  0  0  0  0  0  0  0
    5.5701   17.4539   -0.3338 H   0  0  0  0  0  0  0  0  0  0  0  0
    7.9784   17.2959    4.3327 H   0  0  0  0  0  0  0  0  0  0  0  0
    8.6570   20.1700    4.5632 H   0  0  0  0  0  0  0  0  0  0  0  0
    9.6888   18.8983    5.1724 H   0  0  0  0  0  0  0  0  0  0  0  0
    8.1414   19.2033    5.9244 H   0  0  0  0  0  0  0  0  0  0  0  0
  1  2  1  0  0  0  0
  1 33  1  0  0  0  0
  1 34  1  0  0  0  0
  1 35  1  0  0  0  0
  2  4  1  0  0  0  0
  3  2  2  0  0  0  0
  4  5  1  0  0  0  0
  4 36  1  0  0  0  0
  5  8  1  0  0  0  0
  5 37  1  6  0  0  0
  6  5  1  0  0  0  0
  6 12  1  0  0  0  0
  7  6  2  0  0  0  0
  8  9  1  0  0  0  0
  8 38  1  0  0  0  0
  8 39  1  0  0  0  0
  9 10  1  0  0  0  0
  9 40  1  0  0  0  0
 10 41  1  0  0  0  0
 10 42  1  0  0  0  0
 10 43  1  0  0  0  0
 11  9  1  0  0  0  0
 11 44  1  0  0  0  0
 11 45  1  0  0  0  0
 11 46  1  0  0  0  0
 12 47  1  0  0  0  0
 13 12  1  0  0  0  0
 13 48  1  0  0  0  0
 13 49  1  0  0  0  0
 14 15  2  0  0  0  0
 14 13  1  0  0  0  0
 16 14  1  0  0  0  0
 17 16  1  0  0  0  0
 17 50  1  6  0  0  0
 18 17  1  0  0  0  0
 18 23  1  0  0  0  0
 19 18  2  0  0  0  0
 20 21  1  0  0  0  0
 20 17  1  0  0  0  0
 20 51  1  0  0  0  0
 20 52  1  0  0  0  0
 21 22  1  0  0  0  0
 21 53  1  0  0  0  0
 21 54  1  0  0  0  0
 22 16  1  0  0  0  0
 22 55  1  0  0  0  0
 22 56  1  0  0  0  0
 23 57  1  0  0  0  0
 24 23  1  0  0  0  0
 24 27  1  0  0  0  0
 24 25  1  0  0  0  0
 24 58  1  6  0  0  0
 25 31  1  0  0  0  0
 26 25  2  0  0  0  0
 27 59  1  0  0  0  0
 27 60  1  0  0  0  0
 28 29  1  0  0  0  0
 28 27  1  0  0  0  0
 28 61  1  0  0  0  0
 29 62  1  0  0  0  0
 29 63  1  0  0  0  0
 29 64  1  0  0  0  0
 30 28  1  0  0  0  0
 30 65  1  0  0  0  0
 30 66  1  0  0  0  0
 30 67  1  0  0  0  0
 31 32  1  0  0  0  0
 31 68  1  0  0  0  0
 32 69  1  0  0  0  0
 32 70  1  0  0  0  0
 32 71  1  0  0  0  0
M  END
>  <MODEL>
       0

$$$$
selected_4mers/LGPL/506_noH.pdb
 OpenBabel03042518173D

 71 71  0  0  1  0  0  0  0  0999 V2000
   40.9520   67.9550   72.2080 C   0  0  0  0  0  0  0  0  0  0  0  0
   40.3860   67.8700   70.7950 C   0  0  0  0  0  0  0  0  0  0  0  0
   40.0690   68.8880   70.1830 O   0  0  0  0  0  0  0  0  0  0  0  0
   40.2490   66.6470   70.2920 N   0  0  0  0  0  0  0  0  0  0  0  0
   39.7390   66.4160   68.9430 C   0  0  2  0  0  0  0  0  0  0  0  0
   38.4610   65.5860   68.9990 C   0  0  0  0  0  0  0  0  0  0  0  0
   37.8270   65.3240   67.9750 O   0  0  0  0  0  0  0  0  0  0  0  0
   40.7950   65.6720   68.1180 C   0  0  0  0  0  0  0  0  0  0  0  0
   42.2020   66.2800   68.1040 C   0  0  0  0  0  0  0  0  0  0  0  0
   43.1670   65.3360   67.3930 C   0  0  0  0  0  0  0  0  0  0  0  0
   42.1660   67.6330   67.4130 C   0  0  0  0  0  0  0  0  0  0  0  0
   38.1000   65.1870   70.2130 N   0  0  0  0  0  0  0  0  0  0  0  0
   36.9210   64.3690   70.4390 C   0  0  0  0  0  0  0  0  0  0  0  0
   37.2360   63.5070   71.6460 C   0  0  0  0  0  0  0  0  0  0  0  0
   37.5620   64.0390   72.7060 O   0  0  0  0  0  0  0  0  0  0  0  0
   37.1580   62.1740   71.5240 N   0  0  0  0  0  0  0  0  0  0  0  0
   37.4620   61.3040   72.6640 C   0  0  2  0  0  0  0  0  0  0  0  0
   38.9730   61.1990   72.8730 C   0  0  0  0  0  0  0  0  0  0  0  0
   39.4390   60.7040   73.9000 O   0  0  0  0  0  0  0  0  0  0  0  0
   36.8340   59.9770   72.2540 C   0  0  0  0  0  0  0  0  0  0  0  0
   37.0540   59.9670   70.7700 C   0  0  0  0  0  0  0  0  0  0  0  0
   36.6870   61.3870   70.3710 C   0  0  0  0  0  0  0  0  0  0  0  0
   39.7310   61.6690   71.8870 N   0  0  0  0  0  0  0  0  0  0  0  0
   41.1880   61.6420   71.9520 C   0  0  2  0  0  0  0  0  0  0  0  0
   41.7430   63.0480   71.7690 C   0  0  0  0  0  0  0  0  0  0  0  0
   41.0730   63.9200   71.2120 O   0  0  0  0  0  0  0  0  0  0  0  0
   41.7540   60.7410   70.8540 C   0  0  0  0  0  0  0  0  0  0  0  0
   41.2920   59.2820   70.8280 C   0  0  0  0  0  0  0  0  0  0  0  0
   41.9280   58.5780   69.6360 C   0  0  0  0  0  0  0  0  0  0  0  0
   41.6750   58.5940   72.1320 C   0  0  0  0  0  0  0  0  0  0  0  0
   42.9670   63.2610   72.2400 N   0  0  0  0  0  0  0  0  0  0  0  0
   43.6210   64.5580   72.1060 C   0  0  0  0  0  0  0  0  0  0  0  0
   41.0166   68.9809   72.5052 H   0  0  0  0  0  0  0  0  0  0  0  0
   41.9274   67.5156   72.2285 H   0  0  0  0  0  0  0  0  0  0  0  0
   40.3093   67.4282   72.8820 H   0  0  0  0  0  0  0  0  0  0  0  0
   40.4992   65.8727   70.8462 H   0  0  0  0  0  0  0  0  0  0  0  0
   39.5225   67.3591   68.4863 H   0  0  0  0  0  0  0  0  0  0  0  0
   40.8734   64.6791   68.5090 H   0  0  0  0  0  0  0  0  0  0  0  0
   40.4530   65.7239   67.1055 H   0  0  0  0  0  0  0  0  0  0  0  0
   42.5428   66.4178   69.1089 H   0  0  0  0  0  0  0  0  0  0  0  0
   42.8415   65.1862   66.3848 H   0  0  0  0  0  0  0  0  0  0  0  0
   43.1884   64.3963   67.9043 H   0  0  0  0  0  0  0  0  0  0  0  0
   44.1479   65.7635   67.3913 H   0  0  0  0  0  0  0  0  0  0  0  0
   41.8265   67.5101   66.4057 H   0  0  0  0  0  0  0  0  0  0  0  0
   43.1481   68.0577   67.4091 H   0  0  0  0  0  0  0  0  0  0  0  0
   41.4981   68.2838   67.9376 H   0  0  0  0  0  0  0  0  0  0  0  0
   38.6493   65.4543   70.9851 H   0  0  0  0  0  0  0  0  0  0  0  0
   36.7249   63.7553   69.5847 H   0  0  0  0  0  0  0  0  0  0  0  0
   36.0517   64.9709   70.6032 H   0  0  0  0  0  0  0  0  0  0  0  0
   37.0829   61.6594   73.5993 H   0  0  0  0  0  0  0  0  0  0  0  0
   37.3273   59.1525   72.7248 H   0  0  0  0  0  0  0  0  0  0  0  0
   35.8062   59.8829   72.5364 H   0  0  0  0  0  0  0  0  0  0  0  0
   38.0745   59.7505   70.5322 H   0  0  0  0  0  0  0  0  0  0  0  0
   36.4820   59.2203   70.2599 H   0  0  0  0  0  0  0  0  0  0  0  0
   35.6304   61.4904   70.2379 H   0  0  0  0  0  0  0  0  0  0  0  0
   37.1178   61.6935   69.4407 H   0  0  0  0  0  0  0  0  0  0  0  0
   39.2957   62.0467   71.0888 H   0  0  0  0  0  0  0  0  0  0  0  0
   41.4744   61.2596   72.9094 H   0  0  0  0  0  0  0  0  0  0  0  0
   41.4898   61.1775   69.9135 H   0  0  0  0  0  0  0  0  0  0  0  0
   42.8034   60.6907   71.0571 H   0  0  0  0  0  0  0  0  0  0  0  0
   40.2275   59.2387   70.7286 H   0  0  0  0  0  0  0  0  0  0  0  0
   42.9935   58.6159   69.7263 H   0  0  0  0  0  0  0  0  0  0  0  0
   41.6290   59.0664   68.7322 H   0  0  0  0  0  0  0  0  0  0  0  0
   41.6082   57.5572   69.6124 H   0  0  0  0  0  0  0  0  0  0  0  0
   42.7377   58.6251   72.2529 H   0  0  0  0  0  0  0  0  0  0  0  0
   41.3485   57.5753   72.1071 H   0  0  0  0  0  0  0  0  0  0  0  0
   41.2078   59.0983   72.9519 H   0  0  0  0  0  0  0  0  0  0  0  0
   43.4436   62.5264   72.6899 H   0  0  0  0  0  0  0  0  0  0  0  0
   42.9681   65.2357   71.5968 H   0  0  0  0  0  0  0  0  0  0  0  0
   44.5255   64.4452   71.5456 H   0  0  0  0  0  0  0  0  0  0  0  0
   43.8492   64.9445   73.0773 H   0  0  0  0  0  0  0  0  0  0  0  0
  1 33  1  0  0  0  0
  1 34  1  0  0  0  0
  1 35  1  0  0  0  0
  2  1  1  0  0  0  0
  3  2  2  0  0  0  0
  4  2  1  0  0  0  0
  4 36  1  0  0  0  0
  5  6  1  0  0  0  0
  5  4  1  0  0  0  0
  5 37  1  6  0  0  0
  6 12  1  0  0  0  0
  7  6  2  0  0  0  0
  8  5  1  0  0  0  0
  8 38  1  0  0  0  0
  8 39  1  0  0  0  0
  9  8  1  0  0  0  0
  9 40  1  0  0  0  0
 10  9  1  0  0  0  0
 10 41  1  0  0  0  0
 10 42  1  0  0  0  0
 10 43  1  0  0  0  0
 11  9  1  0  0  0  0
 11 44  1  0  0  0  0
 11 45  1  0  0  0  0
 11 46  1  0  0  0  0
 12 13  1  0  0  0  0
 12 47  1  0  0  0  0
 13 14  1  0  0  0  0
 13 48  1  0  0  0  0
 13 49  1  0  0  0  0
 14 15  2  0  0  0  0
 16 14  1  0  0  0  0
 16 17  1  0  0  0  0
 17 18  1  0  0  0  0
 17 50  1  1  0  0  0
 18 19  2  0  0  0  0
 20 17  1  0  0  0  0
 20 51  1  0  0  0  0
 20 52  1  0  0  0  0
 21 20  1  0  0  0  0
 21 53  1  0  0  0  0
 21 54  1  0  0  0  0
 22 21  1  0  0  0  0
 22 16  1  0  0  0  0
 22 55  1  0  0  0  0
 22 56  1  0  0  0  0
 23 24  1  0  0  0  0
 23 18  1  0  0  0  0
 23 57  1  0  0  0  0
 24 58  1  1  0  0  0
 25 24  1  0  0  0  0
 25 31  1  0  0  0  0
 26 25  2  0  0  0  0
 27 24  1  0  0  0  0
 27 59  1  0  0  0  0
 27 60  1  0  0  0  0
 28 27  1  0  0  0  0
 28 30  1  0  0  0  0
 28 61  1  0  0  0  0
 29 28  1  0  0  0  0
 29 62  1  0  0  0  0
 29 63  1  0  0  0  0
 29 64  1  0  0  0  0
 30 65  1  0  0  0  0
 30 66  1  0  0  0  0
 30 67  1  0  0  0  0
 31 68  1  0  0  0  0
 32 31  1  0  0  0  0
 32 69  1  0  0  0  0
 32 70  1  0  0  0  0
 32 71  1  0  0  0  0
M  END
>  <MODEL>
       0

$$$$
selected_4mers/LGPL/507_noH.pdb
 OpenBabel03042518173D

 71 71  0  0  1  0  0  0  0  0999 V2000
  -19.7490   -1.2440    3.4940 C   0  0  0  0  0  0  0  0  0  0  0  0
  -19.0660   -0.1670    2.6470 C   0  0  0  0  0  0  0  0  0  0  0  0
  -19.2990   -0.0820    1.4350 O   0  0  0  0  0  0  0  0  0  0  0  0
  -18.2500    0.6670    3.2990 N   0  0  0  0  0  0  0  0  0  0  0  0
  -17.6160    1.8230    2.6520 C   0  0  2  0  0  0  0  0  0  0  0  0
  -16.2860    1.4150    2.0340 C   0  0  0  0  0  0  0  0  0  0  0  0
  -15.2150    1.8700    2.4400 O   0  0  0  0  0  0  0  0  0  0  0  0
  -17.4560    2.9940    3.6360 C   0  0  0  0  0  0  0  0  0  0  0  0
  -18.6880    3.4520    4.4340 C   0  0  0  0  0  0  0  0  0  0  0  0
  -18.3480    4.6120    5.3730 C   0  0  0  0  0  0  0  0  0  0  0  0
  -19.8510    3.8290    3.5210 C   0  0  0  0  0  0  0  0  0  0  0  0
  -16.3860    0.5470    1.0340 N   0  0  0  0  0  0  0  0  0  0  0  0
  -15.2430   -0.0880    0.4100 C   0  0  0  0  0  0  0  0  0  0  0  0
  -15.6910   -1.5000    0.0950 C   0  0  0  0  0  0  0  0  0  0  0  0
  -16.8910   -1.7970    0.1770 O   0  0  0  0  0  0  0  0  0  0  0  0
  -14.7420   -2.3850   -0.2580 N   0  0  0  0  0  0  0  0  0  0  0  0
  -15.1310   -3.7840   -0.4570 C   0  0  2  0  0  0  0  0  0  0  0  0
  -15.8060   -4.3240    0.8010 C   0  0  0  0  0  0  0  0  0  0  0  0
  -15.4220   -3.9510    1.9200 O   0  0  0  0  0  0  0  0  0  0  0  0
  -13.7980   -4.4990   -0.6910 C   0  0  0  0  0  0  0  0  0  0  0  0
  -12.8330   -3.4490   -1.0710 C   0  0  0  0  0  0  0  0  0  0  0  0
  -13.3000   -2.1620   -0.4790 C   0  0  0  0  0  0  0  0  0  0  0  0
  -16.8080   -5.1760    0.6200 N   0  0  0  0  0  0  0  0  0  0  0  0
  -17.5330   -5.7610    1.7500 C   0  0  2  0  0  0  0  0  0  0  0  0
  -16.5610   -6.4150    2.7280 C   0  0  0  0  0  0  0  0  0  0  0  0
  -15.6860   -7.1710    2.3210 O   0  0  0  0  0  0  0  0  0  0  0  0
  -18.5540   -6.7890    1.2660 C   0  0  0  0  0  0  0  0  0  0  0  0
  -19.4010   -7.4570    2.3550 C   0  0  0  0  0  0  0  0  0  0  0  0
  -20.3880   -6.4790    3.0030 C   0  0  0  0  0  0  0  0  0  0  0  0
  -20.1240   -8.6670    1.7830 C   0  0  0  0  0  0  0  0  0  0  0  0
  -16.7140   -6.0980    4.0110 N   0  0  0  0  0  0  0  0  0  0  0  0
  -15.8520   -6.6560    5.0460 C   0  0  0  0  0  0  0  0  0  0  0  0
  -20.3731   -1.8473    2.8683 H   0  0  0  0  0  0  0  0  0  0  0  0
  -20.3459   -0.7780    4.2500 H   0  0  0  0  0  0  0  0  0  0  0  0
  -19.0054   -1.8595    3.9557 H   0  0  0  0  0  0  0  0  0  0  0  0
  -18.0665    0.4996    4.2516 H   0  0  0  0  0  0  0  0  0  0  0  0
  -18.2538    2.1660    1.8643 H   0  0  0  0  0  0  0  0  0  0  0  0
  -17.1132    3.8364    3.0723 H   0  0  0  0  0  0  0  0  0  0  0  0
  -16.7837    2.6219    4.3806 H   0  0  0  0  0  0  0  0  0  0  0  0
  -18.9962    2.6175    5.0286 H   0  0  0  0  0  0  0  0  0  0  0  0
  -18.0368    5.4580    4.7966 H   0  0  0  0  0  0  0  0  0  0  0  0
  -17.5569    4.3182    6.0309 H   0  0  0  0  0  0  0  0  0  0  0  0
  -19.2125    4.8706    5.9480 H   0  0  0  0  0  0  0  0  0  0  0  0
  -19.5708    4.6634    2.9126 H   0  0  0  0  0  0  0  0  0  0  0  0
  -20.7010    4.0908    4.1158 H   0  0  0  0  0  0  0  0  0  0  0  0
  -20.0967    2.9972    2.8944 H   0  0  0  0  0  0  0  0  0  0  0  0
  -17.2843    0.3232    0.6990 H   0  0  0  0  0  0  0  0  0  0  0  0
  -14.9716    0.4278   -0.4873 H   0  0  0  0  0  0  0  0  0  0  0  0
  -14.3834   -0.0756    1.0471 H   0  0  0  0  0  0  0  0  0  0  0  0
  -15.8232   -3.9173   -1.2620 H   0  0  0  0  0  0  0  0  0  0  0  0
  -13.4783   -4.9913    0.2036 H   0  0  0  0  0  0  0  0  0  0  0  0
  -13.8830   -5.2464   -1.4519 H   0  0  0  0  0  0  0  0  0  0  0  0
  -12.7888   -3.3642   -2.1367 H   0  0  0  0  0  0  0  0  0  0  0  0
  -11.8555   -3.6925   -0.7102 H   0  0  0  0  0  0  0  0  0  0  0  0
  -13.1384   -1.3492   -1.1559 H   0  0  0  0  0  0  0  0  0  0  0  0
  -12.7770   -1.9028    0.4178 H   0  0  0  0  0  0  0  0  0  0  0  0
  -17.0702   -5.4207   -0.2969 H   0  0  0  0  0  0  0  0  0  0  0  0
  -18.0535   -4.9727    2.2526 H   0  0  0  0  0  0  0  0  0  0  0  0
  -18.0228   -7.5586    0.7460 H   0  0  0  0  0  0  0  0  0  0  0  0
  -19.2445   -6.2454    0.6556 H   0  0  0  0  0  0  0  0  0  0  0  0
  -18.7393   -7.7821    3.1304 H   0  0  0  0  0  0  0  0  0  0  0  0
  -21.0751   -6.1235    2.2638 H   0  0  0  0  0  0  0  0  0  0  0  0
  -19.8504   -5.6519    3.4174 H   0  0  0  0  0  0  0  0  0  0  0  0
  -20.9274   -6.9791    3.7801 H   0  0  0  0  0  0  0  0  0  0  0  0
  -20.7885   -8.3511    1.0061 H   0  0  0  0  0  0  0  0  0  0  0  0
  -20.6840   -9.1472    2.5581 H   0  0  0  0  0  0  0  0  0  0  0  0
  -19.4080   -9.3539    1.3825 H   0  0  0  0  0  0  0  0  0  0  0  0
  -17.4277   -5.4705    4.2681 H   0  0  0  0  0  0  0  0  0  0  0  0
  -15.1365   -7.3134    4.5980 H   0  0  0  0  0  0  0  0  0  0  0  0
  -16.4461   -7.2013    5.7492 H   0  0  0  0  0  0  0  0  0  0  0  0
  -15.3408   -5.8628    5.5503 H   0  0  0  0  0  0  0  0  0  0  0  0
  1 33  1  0  0  0  0
  1 34  1  0  0  0  0
  1 35  1  0  0  0  0
  2  4  1  0  0  0  0
  2  1  1  0  0  0  0
  3  2  2  0  0  0  0
  4 36  1  0  0  0  0
  5  4  1  0  0  0  0
  5  8  1  0  0  0  0
  5 37  1  6  0  0  0
  6  7  2  0  0  0  0
  6  5  1  0  0  0  0
  8  9  1  0  0  0  0
  8 38  1  0  0  0  0
  8 39  1  0  0  0  0
  9 10  1  0  0  0  0
  9 40  1  0  0  0  0
 10 41  1  0  0  0  0
 10 42  1  0  0  0  0
 10 43  1  0  0  0  0
 11  9  1  0  0  0  0
 11 44  1  0  0  0  0
 11 45  1  0  0  0  0
 11 46  1  0  0  0  0
 12  6  1  0  0  0  0
 12 47  1  0  0  0  0
 13 12  1  0  0  0  0
 13 48  1  0  0  0  0
 13 49  1  0  0  0  0
 14 15  2  0  0  0  0
 14 13  1  0  0  0  0
 16 14  1  0  0  0  0
 17 16  1  0  0  0  0
 17 18  1  0  0  0  0
 17 50  1  6  0  0  0
 18 19  2  0  0  0  0
 20 17  1  0  0  0  0
 20 51  1  0  0  0  0
 20 52  1  0  0  0  0
 21 20  1  0  0  0  0
 21 22  1  0  0  0  0
 21 53  1  0  0  0  0
 21 54  1  0  0  0  0
 22 16  1  0  0  0  0
 22 55  1  0  0  0  0
 22 56  1  0  0  0  0
 23 18  1  0  0  0  0
 23 24  1  0  0  0  0
 23 57  1  0  0  0  0
 24 25  1  0  0  0  0
 24 58  1  1  0  0  0
 25 31  1  0  0  0  0
 26 25  2  0  0  0  0
 27 24  1  0  0  0  0
 27 28  1  0  0  0  0
 27 59  1  0  0  0  0
 27 60  1  0  0  0  0
 28 29  1  0  0  0  0
 28 61  1  0  0  0  0
 29 62  1  0  0  0  0
 29 63  1  0  0  0  0
 29 64  1  0  0  0  0
 30 28  1  0  0  0  0
 30 65  1  0  0  0  0
 30 66  1  0  0  0  0
 30 67  1  0  0  0  0
 31 32  1  0  0  0  0
 31 68  1  0  0  0  0
 32 69  1  0  0  0  0
 32 70  1  0  0  0  0
 32 71  1  0  0  0  0
M  END
>  <MODEL>
       0

$$$$
selected_4mers/LGPL/508_noH.pdb
 OpenBabel03042518173D

 71 71  0  0  1  0  0  0  0  0999 V2000
  -42.3670   25.3680   77.4140 C   0  0  0  0  0  0  0  0  0  0  0  0
  -43.0230   24.7040   76.2160 C   0  0  0  0  0  0  0  0  0  0  0  0
  -43.5120   25.4230   75.3350 O   0  0  0  0  0  0  0  0  0  0  0  0
  -43.2150   23.3840   76.3020 N   0  0  0  0  0  0  0  0  0  0  0  0
  -43.9340   22.7080   75.2190 C   0  0  2  0  0  0  0  0  0  0  0  0
  -45.3390   22.2600   75.5970 C   0  0  0  0  0  0  0  0  0  0  0  0
  -46.1840   21.9580   74.7310 O   0  0  0  0  0  0  0  0  0  0  0  0
  -43.1340   21.4770   74.7700 C   0  0  0  0  0  0  0  0  0  0  0  0
  -41.6960   21.6600   74.3050 C   0  0  0  0  0  0  0  0  0  0  0  0
  -41.0440   20.3010   74.0100 C   0  0  0  0  0  0  0  0  0  0  0  0
  -41.6320   22.5450   73.0670 C   0  0  0  0  0  0  0  0  0  0  0  0
  -45.6200   22.1660   76.8980 N   0  0  0  0  0  0  0  0  0  0  0  0
  -46.8970   21.6510   77.3750 C   0  0  0  0  0  0  0  0  0  0  0  0
  -47.0840   20.2280   76.8690 C   0  0  0  0  0  0  0  0  0  0  0  0
  -46.1360   19.6470   76.3130 O   0  0  0  0  0  0  0  0  0  0  0  0
  -48.2660   19.6750   77.0320 N   0  0  0  0  0  0  0  0  0  0  0  0
  -48.5790   18.3280   76.5990 C   0  0  2  0  0  0  0  0  0  0  0  0
  -48.3110   18.2160   75.0950 C   0  0  0  0  0  0  0  0  0  0  0  0
  -48.4970   19.1840   74.3650 O   0  0  0  0  0  0  0  0  0  0  0  0
  -50.0490   18.1260   76.9600 C   0  0  0  0  0  0  0  0  0  0  0  0
  -50.3310   19.1540   78.0150 C   0  0  0  0  0  0  0  0  0  0  0  0
  -49.4400   20.3300   77.7020 C   0  0  0  0  0  0  0  0  0  0  0  0
  -47.7100   17.1220   74.6620 N   0  0  0  0  0  0  0  0  0  0  0  0
  -47.3900   16.9570   73.2480 C   0  0  2  0  0  0  0  0  0  0  0  0
  -48.1180   15.7320   72.6930 C   0  0  0  0  0  0  0  0  0  0  0  0
  -48.2060   14.7340   73.3850 O   0  0  0  0  0  0  0  0  0  0  0  0
  -45.8880   16.7430   73.0120 C   0  0  0  0  0  0  0  0  0  0  0  0
  -44.9290   17.9030   73.1440 C   0  0  0  0  0  0  0  0  0  0  0  0
  -43.4800   17.4560   72.8540 C   0  0  0  0  0  0  0  0  0  0  0  0
  -45.2800   19.0420   72.2090 C   0  0  0  0  0  0  0  0  0  0  0  0
  -48.3700   15.7340   71.3760 N   0  0  0  0  0  0  0  0  0  0  0  0
  -49.0670   14.6210   70.7340 C   0  0  0  0  0  0  0  0  0  0  0  0
  -42.2667   26.4172   77.2297 H   0  0  0  0  0  0  0  0  0  0  0  0
  -41.3995   24.9398   77.5737 H   0  0  0  0  0  0  0  0  0  0  0  0
  -42.9726   25.2148   78.2827 H   0  0  0  0  0  0  0  0  0  0  0  0
  -42.8804   22.8768   77.0766 H   0  0  0  0  0  0  0  0  0  0  0  0
  -44.0346   23.4264   74.4324 H   0  0  0  0  0  0  0  0  0  0  0  0
  -43.1120   20.7987   75.5972 H   0  0  0  0  0  0  0  0  0  0  0  0
  -43.6470   21.1442   73.8919 H   0  0  0  0  0  0  0  0  0  0  0  0
  -41.1560   22.1389   75.0950 H   0  0  0  0  0  0  0  0  0  0  0  0
  -41.5771   19.8135   73.2206 H   0  0  0  0  0  0  0  0  0  0  0  0
  -41.0741   19.6925   74.8896 H   0  0  0  0  0  0  0  0  0  0  0  0
  -40.0266   20.4502   73.7142 H   0  0  0  0  0  0  0  0  0  0  0  0
  -42.1684   22.0787   72.2671 H   0  0  0  0  0  0  0  0  0  0  0  0
  -40.6106   22.6823   72.7792 H   0  0  0  0  0  0  0  0  0  0  0  0
  -42.0720   23.4957   73.2850 H   0  0  0  0  0  0  0  0  0  0  0  0
  -44.9450   22.4529   77.5547 H   0  0  0  0  0  0  0  0  0  0  0  0
  -46.9070   21.6544   78.4449 H   0  0  0  0  0  0  0  0  0  0  0  0
  -47.6916   22.2687   77.0118 H   0  0  0  0  0  0  0  0  0  0  0  0
  -47.9823   17.5721   77.0652 H   0  0  0  0  0  0  0  0  0  0  0  0
  -50.2109   17.1398   77.3423 H   0  0  0  0  0  0  0  0  0  0  0  0
  -50.6911   18.2331   76.1108 H   0  0  0  0  0  0  0  0  0  0  0  0
  -50.1031   18.7632   78.9846 H   0  0  0  0  0  0  0  0  0  0  0  0
  -51.3632   19.4360   78.0200 H   0  0  0  0  0  0  0  0  0  0  0  0
  -49.9261   21.0198   77.0441 H   0  0  0  0  0  0  0  0  0  0  0  0
  -49.1741   20.9065   78.5633 H   0  0  0  0  0  0  0  0  0  0  0  0
  -47.4755   16.4102   75.3005 H   0  0  0  0  0  0  0  0  0  0  0  0
  -47.6974   17.8562   72.7562 H   0  0  0  0  0  0  0  0  0  0  0  0
  -45.5689   15.9976   73.7102 H   0  0  0  0  0  0  0  0  0  0  0  0
  -45.8353   16.4979   71.9718 H   0  0  0  0  0  0  0  0  0  0  0  0
  -45.0106   18.2484   74.1534 H   0  0  0  0  0  0  0  0  0  0  0  0
  -43.4083   17.1125   71.8432 H   0  0  0  0  0  0  0  0  0  0  0  0
  -43.2113   16.6629   73.5201 H   0  0  0  0  0  0  0  0  0  0  0  0
  -42.8162   18.2828   72.9977 H   0  0  0  0  0  0  0  0  0  0  0  0
  -45.2020   18.7083   71.1954 H   0  0  0  0  0  0  0  0  0  0  0  0
  -44.6046   19.8562   72.3695 H   0  0  0  0  0  0  0  0  0  0  0  0
  -46.2814   19.3660   72.4017 H   0  0  0  0  0  0  0  0  0  0  0  0
  -48.0798   16.5004   70.8305 H   0  0  0  0  0  0  0  0  0  0  0  0
  -49.3078   13.8802   71.4676 H   0  0  0  0  0  0  0  0  0  0  0  0
  -48.4362   14.1895   69.9852 H   0  0  0  0  0  0  0  0  0  0  0  0
  -49.9672   14.9786   70.2793 H   0  0  0  0  0  0  0  0  0  0  0  0
  1 33  1  0  0  0  0
  1 34  1  0  0  0  0
  1 35  1  0  0  0  0
  2  4  1  0  0  0  0
  2  1  1  0  0  0  0
  3  2  2  0  0  0  0
  4 36  1  0  0  0  0
  5  6  1  0  0  0  0
  5  4  1  0  0  0  0
  5 37  1  6  0  0  0
  6 12  1  0  0  0  0
  7  6  2  0  0  0  0
  8  5  1  0  0  0  0
  8 38  1  0  0  0  0
  8 39  1  0  0  0  0
  9  8  1  0  0  0  0
  9 40  1  0  0  0  0
 10  9  1  0  0  0  0
 10 41  1  0  0  0  0
 10 42  1  0  0  0  0
 10 43  1  0  0  0  0
 11  9  1  0  0  0  0
 11 44  1  0  0  0  0
 11 45  1  0  0  0  0
 11 46  1  0  0  0  0
 12 13  1  0  0  0  0
 12 47  1  0  0  0  0
 13 48  1  0  0  0  0
 13 49  1  0  0  0  0
 14 16  1  0  0  0  0
 14 13  1  0  0  0  0
 15 14  2  0  0  0  0
 16 22  1  0  0  0  0
 17 20  1  0  0  0  0
 17 16  1  0  0  0  0
 17 50  1  1  0  0  0
 18 17  1  0  0  0  0
 19 18  2  0  0  0  0
 20 21  1  0  0  0  0
 20 51  1  0  0  0  0
 20 52  1  0  0  0  0
 21 53  1  0  0  0  0
 21 54  1  0  0  0  0
 22 21  1  0  0  0  0
 22 55  1  0  0  0  0
 22 56  1  0  0  0  0
 23 18  1  0  0  0  0
 23 57  1  0  0  0  0
 24 23  1  0  0  0  0
 24 58  1  6  0  0  0
 25 24  1  0  0  0  0
 25 26  2  0  0  0  0
 27 28  1  0  0  0  0
 27 24  1  0  0  0  0
 27 59  1  0  0  0  0
 27 60  1  0  0  0  0
 28 61  1  0  0  0  0
 29 28  1  0  0  0  0
 29 62  1  0  0  0  0
 29 63  1  0  0  0  0
 29 64  1  0  0  0  0
 30 28  1  0  0  0  0
 30 65  1  0  0  0  0
 30 66  1  0  0  0  0
 30 67  1  0  0  0  0
 31 25  1  0  0  0  0
 31 68  1  0  0  0  0
 32 31  1  0  0  0  0
 32 69  1  0  0  0  0
 32 70  1  0  0  0  0
 32 71  1  0  0  0  0
M  END
>  <MODEL>
       0

$$$$
selected_4mers/LGPL/509_noH.pdb
 OpenBabel03042518173D

 71 71  0  0  1  0  0  0  0  0999 V2000
   58.2610   -2.6820   74.9840 C   0  0  0  0  0  0  0  0  0  0  0  0
   58.5100   -2.0410   76.3630 C   0  0  0  0  0  0  0  0  0  0  0  0
   59.3560   -2.5110   77.1140 O   0  0  0  0  0  0  0  0  0  0  0  0
   57.7920   -0.9640   76.6860 N   0  0  0  0  0  0  0  0  0  0  0  0
   57.9980   -0.2790   77.9680 C   0  0  2  0  0  0  0  0  0  0  0  0
   57.3450   -0.9730   79.1630 C   0  0  0  0  0  0  0  0  0  0  0  0
   57.5770   -0.5660   80.2970 O   0  0  0  0  0  0  0  0  0  0  0  0
   57.5450    1.1830   77.9040 C   0  0  0  0  0  0  0  0  0  0  0  0
   58.1190    2.0500   76.7710 C   0  0  0  0  0  0  0  0  0  0  0  0
   57.4450    3.4350   76.7580 C   0  0  0  0  0  0  0  0  0  0  0  0
   59.6180    2.1800   76.9420 C   0  0  0  0  0  0  0  0  0  0  0  0
   56.5360   -2.0100   78.9100 N   0  0  0  0  0  0  0  0  0  0  0  0
   55.8290   -2.7390   79.9820 C   0  0  0  0  0  0  0  0  0  0  0  0
   54.6420   -1.9560   80.5290 C   0  0  0  0  0  0  0  0  0  0  0  0
   54.3630   -0.8340   80.0730 O   0  0  0  0  0  0  0  0  0  0  0  0
   53.9130   -2.5340   81.5000 N   0  0  0  0  0  0  0  0  0  0  0  0
   52.8350   -1.7410   82.1320 C   0  0  2  0  0  0  0  0  0  0  0  0
   53.2270   -0.3120   82.6000 C   0  0  0  0  0  0  0  0  0  0  0  0
   54.3000   -0.1110   83.1590 O   0  0  0  0  0  0  0  0  0  0  0  0
   52.4380   -2.5980   83.3580 C   0  0  0  0  0  0  0  0  0  0  0  0
   53.5000   -3.7140   83.4620 C   0  0  0  0  0  0  0  0  0  0  0  0
   53.9840   -3.9060   82.0530 C   0  0  0  0  0  0  0  0  0  0  0  0
   52.3460    0.6590   82.3970 N   0  0  0  0  0  0  0  0  0  0  0  0
   52.5920    2.0310   82.8820 C   0  0  2  0  0  0  0  0  0  0  0  0
   51.6110    2.3710   83.9880 C   0  0  0  0  0  0  0  0  0  0  0  0
   50.4620    1.9190   83.9840 O   0  0  0  0  0  0  0  0  0  0  0  0
   52.4270    3.0690   81.7180 C   0  0  0  0  0  0  0  0  0  0  0  0
   53.3980    2.8700   80.5290 C   0  0  0  0  0  0  0  0  0  0  0  0
   53.0020    3.6890   79.3140 C   0  0  0  0  0  0  0  0  0  0  0  0
   54.8700    3.1270   80.8690 C   0  0  0  0  0  0  0  0  0  0  0  0
   52.0270    3.2310   84.9160 N   0  0  0  0  0  0  0  0  0  0  0  0
   51.0840    3.7110   85.9420 C   0  0  0  0  0  0  0  0  0  0  0  0
   57.4928   -2.1406   74.4725 H   0  0  0  0  0  0  0  0  0  0  0  0
   57.9547   -3.6990   75.1135 H   0  0  0  0  0  0  0  0  0  0  0  0
   59.1625   -2.6515   74.4085 H   0  0  0  0  0  0  0  0  0  0  0  0
   57.1154   -0.6243   76.0567 H   0  0  0  0  0  0  0  0  0  0  0  0
   59.0547   -0.3202   78.1310 H   0  0  0  0  0  0  0  0  0  0  0  0
   56.4798    1.1853   77.8025 H   0  0  0  0  0  0  0  0  0  0  0  0
   57.9171    1.6257   78.8043 H   0  0  0  0  0  0  0  0  0  0  0  0
   57.9189    1.5794   75.8311 H   0  0  0  0  0  0  0  0  0  0  0  0
   57.6291    3.9300   77.6886 H   0  0  0  0  0  0  0  0  0  0  0  0
   56.3906    3.3173   76.6191 H   0  0  0  0  0  0  0  0  0  0  0  0
   57.8471    4.0198   75.9573 H   0  0  0  0  0  0  0  0  0  0  0  0
   59.8306    2.6498   77.8795 H   0  0  0  0  0  0  0  0  0  0  0  0
   60.0175    2.7739   76.1467 H   0  0  0  0  0  0  0  0  0  0  0  0
   60.0650    1.2081   76.9206 H   0  0  0  0  0  0  0  0  0  0  0  0
   56.4082   -2.2962   77.9767 H   0  0  0  0  0  0  0  0  0  0  0  0
   56.5154   -2.9261   80.7812 H   0  0  0  0  0  0  0  0  0  0  0  0
   55.4553   -3.6511   79.5658 H   0  0  0  0  0  0  0  0  0  0  0  0
   52.0591   -1.5589   81.4180 H   0  0  0  0  0  0  0  0  0  0  0  0
   51.4661   -3.0223   83.2155 H   0  0  0  0  0  0  0  0  0  0  0  0
   52.4005   -2.0095   84.2508 H   0  0  0  0  0  0  0  0  0  0  0  0
   54.3041   -3.4124   84.1002 H   0  0  0  0  0  0  0  0  0  0  0  0
   53.1035   -4.6147   83.8820 H   0  0  0  0  0  0  0  0  0  0  0  0
   54.9870   -4.2783   82.0360 H   0  0  0  0  0  0  0  0  0  0  0  0
   53.4109   -4.6196   81.4986 H   0  0  0  0  0  0  0  0  0  0  0  0
   51.5118    0.4604   81.9134 H   0  0  0  0  0  0  0  0  0  0  0  0
   53.5939    2.0786   83.2547 H   0  0  0  0  0  0  0  0  0  0  0  0
   51.4262    2.9963   81.3464 H   0  0  0  0  0  0  0  0  0  0  0  0
   52.6536    4.0280   82.1350 H   0  0  0  0  0  0  0  0  0  0  0  0
   53.3080    1.8302   80.2933 H   0  0  0  0  0  0  0  0  0  0  0  0
   53.0895    4.7307   79.5421 H   0  0  0  0  0  0  0  0  0  0  0  0
   51.9899    3.4659   79.0479 H   0  0  0  0  0  0  0  0  0  0  0  0
   53.6474    3.4477   78.4954 H   0  0  0  0  0  0  0  0  0  0  0  0
   55.0048    4.1603   81.1121 H   0  0  0  0  0  0  0  0  0  0  0  0
   55.4797    2.8764   80.0262 H   0  0  0  0  0  0  0  0  0  0  0  0
   55.1533    2.5238   81.7061 H   0  0  0  0  0  0  0  0  0  0  0  0
   52.9602    3.5447   84.9166 H   0  0  0  0  0  0  0  0  0  0  0  0
   50.1249    3.2646   85.7816 H   0  0  0  0  0  0  0  0  0  0  0  0
   50.9974    4.7755   85.8768 H   0  0  0  0  0  0  0  0  0  0  0  0
   51.4451    3.4413   86.9124 H   0  0  0  0  0  0  0  0  0  0  0  0
  1  2  1  0  0  0  0
  1 33  1  0  0  0  0
  1 34  1  0  0  0  0
  1 35  1  0  0  0  0
  2  4  1  0  0  0  0
  2  3  2  0  0  0  0
  4  5  1  0  0  0  0
  4 36  1  0  0  0  0
  5  6  1  0  0  0  0
  5 37  1  1  0  0  0
  6  7  2  0  0  0  0
  8  5  1  0  0  0  0
  8 38  1  0  0  0  0
  8 39  1  0  0  0  0
  9 11  1  0  0  0  0
  9  8  1  0  0  0  0
  9 40  1  0  0  0  0
 10  9  1  0  0  0  0
 10 41  1  0  0  0  0
 10 42  1  0  0  0  0
 10 43  1  0  0  0  0
 11 44  1  0  0  0  0
 11 45  1  0  0  0  0
 11 46  1  0  0  0  0
 12  6  1  0  0  0  0
 12 13  1  0  0  0  0
 12 47  1  0  0  0  0
 13 14  1  0  0  0  0
 13 48  1  0  0  0  0
 13 49  1  0  0  0  0
 14 16  1  0  0  0  0
 15 14  2  0  0  0  0
 16 22  1  0  0  0  0
 16 17  1  0  0  0  0
 17 18  1  0  0  0  0
 17 20  1  0  0  0  0
 17 50  1  6  0  0  0
 18 19  2  0  0  0  0
 20 21  1  0  0  0  0
 20 51  1  0  0  0  0
 20 52  1  0  0  0  0
 21 53  1  0  0  0  0
 21 54  1  0  0  0  0
 22 21  1  0  0  0  0
 22 55  1  0  0  0  0
 22 56  1  0  0  0  0
 23 18  1  0  0  0  0
 23 24  1  0  0  0  0
 23 57  1  0  0  0  0
 24 25  1  0  0  0  0
 24 58  1  1  0  0  0
 25 31  1  0  0  0  0
 26 25  2  0  0  0  0
 27 24  1  0  0  0  0
 27 59  1  0  0  0  0
 27 60  1  0  0  0  0
 28 30  1  0  0  0  0
 28 27  1  0  0  0  0
 28 61  1  0  0  0  0
 29 28  1  0  0  0  0
 29 62  1  0  0  0  0
 29 63  1  0  0  0  0
 29 64  1  0  0  0  0
 30 65  1  0  0  0  0
 30 66  1  0  0  0  0
 30 67  1  0  0  0  0
 31 32  1  0  0  0  0
 31 68  1  0  0  0  0
 32 69  1  0  0  0  0
 32 70  1  0  0  0  0
 32 71  1  0  0  0  0
M  END
>  <MODEL>
       0

$$$$
