selected_4mers/LKEL/95_noH.pdb
 OpenBabel03042517503D

 86 85  0  0  1  0  0  0  0  0999 V2000
   20.8000   17.7230   -0.4770 C   0  0  0  0  0  0  0  0  0  0  0  0
   19.3530   17.6380   -0.9710 C   0  0  0  0  0  0  0  0  0  0  0  0
   19.0940   17.0150   -1.9980 O   0  0  0  0  0  0  0  0  0  0  0  0
   18.4130   18.2730   -0.2710 N   0  0  0  0  0  0  0  0  0  0  0  0
   17.0060   18.1790   -0.6680 C   0  0  2  0  0  0  0  0  0  0  0  0
   16.7390   18.6690   -2.0840 C   0  0  0  0  0  0  0  0  0  0  0  0
   17.1900   19.7490   -2.4670 O   0  0  0  0  0  0  0  0  0  0  0  0
   16.1270   18.9510    0.3170 C   0  0  0  0  0  0  0  0  0  0  0  0
   14.6830   18.4620    0.4340 C   0  0  0  0  0  0  0  0  0  0  0  0
   14.6530   17.0130    0.9640 C   0  0  0  0  0  0  0  0  0  0  0  0
   13.9440   19.3910    1.3810 C   0  0  0  0  0  0  0  0  0  0  0  0
   16.0120   17.8620   -2.8530 N   0  0  0  0  0  0  0  0  0  0  0  0
   15.6840   18.1930   -4.2380 C   0  0  2  0  0  0  0  0  0  0  0  0
   14.1960   18.4770   -4.4030 C   0  0  0  0  0  0  0  0  0  0  0  0
   13.7890   19.2860   -5.2440 O   0  0  0  0  0  0  0  0  0  0  0  0
   16.0630   17.0390   -5.1770 C   0  0  0  0  0  0  0  0  0  0  0  0
   17.5430   16.6760   -5.2000 C   0  0  0  0  0  0  0  0  0  0  0  0
   17.8050   15.5670   -6.2060 C   0  0  0  0  0  0  0  0  0  0  0  0
   19.2830   15.2330   -6.2830 C   0  0  0  0  0  0  0  0  0  0  0  0
   20.1070   16.4470   -6.5420 N   0  0  0  0  0  0  0  0  0  0  0  0
   13.3730   17.7960   -3.6150 N   0  0  0  0  0  0  0  0  0  0  0  0
   11.9280   17.9930   -3.6940 C   0  0  2  0  0  0  0  0  0  0  0  0
   11.3430   18.1830   -2.3020 C   0  0  0  0  0  0  0  0  0  0  0  0
   11.6220   17.4030   -1.3910 O   0  0  0  0  0  0  0  0  0  0  0  0
   11.2700   16.7960   -4.3980 C   0  0  0  0  0  0  0  0  0  0  0  0
    9.8280   17.0170   -4.8490 C   0  0  0  0  0  0  0  0  0  0  0  0
    8.8190   16.6780   -3.7780 C   0  0  0  0  0  0  0  0  0  0  0  0
    7.6090   16.9030   -4.0040 O   0  0  0  0  0  0  0  0  0  0  0  0
    9.2320   16.1800   -2.7120 O   0  0  0  0  0  0  0  0  0  0  0  0
   10.5560   19.2420   -2.1410 N   0  0  0  0  0  0  0  0  0  0  0  0
    9.8920   19.5470   -0.8760 C   0  0  2  0  0  0  0  0  0  0  0  0
    8.4390   19.8930   -1.1450 C   0  0  0  0  0  0  0  0  0  0  0  0
    8.1290   20.9140   -1.7840 O   0  0  0  0  0  0  0  0  0  0  0  0
   10.5830   20.7090   -0.1500 C   0  0  0  0  0  0  0  0  0  0  0  0
    9.9570   21.1860    1.1680 C   0  0  0  0  0  0  0  0  0  0  0  0
    9.8250   20.0240    2.1590 C   0  0  0  0  0  0  0  0  0  0  0  0
   10.8370   22.2660    1.7560 C   0  0  0  0  0  0  0  0  0  0  0  0
    7.5390   19.0330   -0.6880 N   0  0  0  0  0  0  0  0  0  0  0  0
    6.1150   19.2640   -0.8770 C   0  0  0  0  0  0  0  0  0  0  0  0
   21.4350   17.1683   -1.1358 H   0  0  0  0  0  0  0  0  0  0  0  0
   20.8648   17.3135    0.5094 H   0  0  0  0  0  0  0  0  0  0  0  0
   21.1113   18.7466   -0.4594 H   0  0  0  0  0  0  0  0  0  0  0  0
   18.6654   18.8075    0.5163 H   0  0  0  0  0  0  0  0  0  0  0  0
   16.7603   17.1378   -0.6501 H   0  0  0  0  0  0  0  0  0  0  0  0
   16.1042   19.9746    0.0062 H   0  0  0  0  0  0  0  0  0  0  0  0
   16.5663   18.8026    1.2813 H   0  0  0  0  0  0  0  0  0  0  0  0
   14.2105   18.4700   -0.5260 H   0  0  0  0  0  0  0  0  0  0  0  0
   15.1204   16.9753    1.9258 H   0  0  0  0  0  0  0  0  0  0  0  0
   15.1798   16.3743    0.2862 H   0  0  0  0  0  0  0  0  0  0  0  0
   13.6380   16.6847    1.0475 H   0  0  0  0  0  0  0  0  0  0  0  0
   14.4217   19.3780    2.3384 H   0  0  0  0  0  0  0  0  0  0  0  0
   12.9306   19.0633    1.4835 H   0  0  0  0  0  0  0  0  0  0  0  0
   13.9590   20.3862    0.9884 H   0  0  0  0  0  0  0  0  0  0  0  0
   15.6842   17.0136   -2.4762 H   0  0  0  0  0  0  0  0  0  0  0  0
   16.2433   19.0696   -4.4903 H   0  0  0  0  0  0  0  0  0  0  0  0
   15.5148   16.1719   -4.8728 H   0  0  0  0  0  0  0  0  0  0  0  0
   15.8251   17.3722   -6.1656 H   0  0  0  0  0  0  0  0  0  0  0  0
   18.1130   17.5397   -5.4721 H   0  0  0  0  0  0  0  0  0  0  0  0
   17.8302   16.3350   -4.2273 H   0  0  0  0  0  0  0  0  0  0  0  0
   17.2646   14.6923   -5.9097 H   0  0  0  0  0  0  0  0  0  0  0  0
   17.4828   15.9014   -7.1700 H   0  0  0  0  0  0  0  0  0  0  0  0
   19.5892   14.7970   -5.3551 H   0  0  0  0  0  0  0  0  0  0  0  0
   19.4299   14.5498   -7.0933 H   0  0  0  0  0  0  0  0  0  0  0  0
   19.9809   17.1125   -5.7794 H   0  0  0  0  0  0  0  0  0  0  0  0
   19.8138   16.8761   -7.4197 H   0  0  0  0  0  0  0  0  0  0  0  0
   13.7411   17.1503   -2.9694 H   0  0  0  0  0  0  0  0  0  0  0  0
   11.7302   18.8758   -4.2654 H   0  0  0  0  0  0  0  0  0  0  0  0
   11.8542   16.5588   -5.2625 H   0  0  0  0  0  0  0  0  0  0  0  0
   11.2366   16.0086   -3.6743 H   0  0  0  0  0  0  0  0  0  0  0  0
    9.6392   16.4009   -5.7032 H   0  0  0  0  0  0  0  0  0  0  0  0
    9.7183   18.0569   -5.0760 H   0  0  0  0  0  0  0  0  0  0  0  0
   10.4148   19.8457   -2.9058 H   0  0  0  0  0  0  0  0  0  0  0  0
    9.9503   18.6858   -0.2437 H   0  0  0  0  0  0  0  0  0  0  0  0
   10.5976   21.5434   -0.8196 H   0  0  0  0  0  0  0  0  0  0  0  0
   11.5451   20.3292    0.1239 H   0  0  0  0  0  0  0  0  0  0  0  0
    8.9770   21.5705    0.9763 H   0  0  0  0  0  0  0  0  0  0  0  0
   10.7941   19.6212    2.3675 H   0  0  0  0  0  0  0  0  0  0  0  0
    9.2057   19.2617    1.7344 H   0  0  0  0  0  0  0  0  0  0  0  0
    9.3830   20.3780    3.0669 H   0  0  0  0  0  0  0  0  0  0  0  0
   11.8128   21.8687    1.9427 H   0  0  0  0  0  0  0  0  0  0  0  0
   10.4112   22.6122    2.6745 H   0  0  0  0  0  0  0  0  0  0  0  0
   10.9097   23.0813    1.0669 H   0  0  0  0  0  0  0  0  0  0  0  0
    7.8394   18.2247   -0.2129 H   0  0  0  0  0  0  0  0  0  0  0  0
    5.9699   20.1813   -1.4084 H   0  0  0  0  0  0  0  0  0  0  0  0
    5.6338   19.3244    0.0768 H   0  0  0  0  0  0  0  0  0  0  0  0
    5.6940   18.4562   -1.4384 H   0  0  0  0  0  0  0  0  0  0  0  0
  1 40  1  0  0  0  0
  1 41  1  0  0  0  0
  1 42  1  0  0  0  0
  2  1  1  0  0  0  0
  2  4  1  0  0  0  0
  3  2  2  0  0  0  0
  4 43  1  0  0  0  0
  5  4  1  0  0  0  0
  5  8  1  0  0  0  0
  5 44  1  1  0  0  0
  6  5  1  0  0  0  0
  7  6  2  0  0  0  0
  8  9  1  0  0  0  0
  8 45  1  0  0  0  0
  8 46  1  0  0  0  0
  9 10  1  0  0  0  0
  9 11  1  0  0  0  0
  9 47  1  0  0  0  0
 10 48  1  0  0  0  0
 10 49  1  0  0  0  0
 10 50  1  0  0  0  0
 11 51  1  0  0  0  0
 11 52  1  0  0  0  0
 11 53  1  0  0  0  0
 12  6  1  0  0  0  0
 12 54  1  0  0  0  0
 13 12  1  0  0  0  0
 13 55  1  6  0  0  0
 14 13  1  0  0  0  0
 14 21  1  0  0  0  0
 15 14  2  0  0  0  0
 16 13  1  0  0  0  0
 16 56  1  0  0  0  0
 16 57  1  0  0  0  0
 17 16  1  0  0  0  0
 17 58  1  0  0  0  0
 17 59  1  0  0  0  0
 18 17  1  0  0  0  0
 18 60  1  0  0  0  0
 18 61  1  0  0  0  0
 19 18  1  0  0  0  0
 19 62  1  0  0  0  0
 19 63  1  0  0  0  0
 20 19  1  0  0  0  0
 20 64  1  0  0  0  0
 20 65  1  0  0  0  0
 21 66  1  0  0  0  0
 22 21  1  0  0  0  0
 22 23  1  0  0  0  0
 22 67  1  6  0  0  0
 23 30  1  0  0  0  0
 23 24  2  0  0  0  0
 25 22  1  0  0  0  0
 25 68  1  0  0  0  0
 25 69  1  0  0  0  0
 26 25  1  0  0  0  0
 26 27  1  0  0  0  0
 26 70  1  0  0  0  0
 26 71  1  0  0  0  0
 27 29  1  0  0  0  0
 28 27  2  0  0  0  0
 30 31  1  0  0  0  0
 30 72  1  0  0  0  0
 31 34  1  0  0  0  0
 31 73  1  1  0  0  0
 32 31  1  0  0  0  0
 32 38  1  0  0  0  0
 33 32  2  0  0  0  0
 34 35  1  0  0  0  0
 34 74  1  0  0  0  0
 34 75  1  0  0  0  0
 35 37  1  0  0  0  0
 35 36  1  0  0  0  0
 35 76  1  0  0  0  0
 36 77  1  0  0  0  0
 36 78  1  0  0  0  0
 36 79  1  0  0  0  0
 37 80  1  0  0  0  0
 37 81  1  0  0  0  0
 37 82  1  0  0  0  0
 38 83  1  0  0  0  0
 39 38  1  0  0  0  0
 39 84  1  0  0  0  0
 39 85  1  0  0  0  0
 39 86  1  0  0  0  0
M  CHG  1  29  -1
M  END
>  <MODEL>
       0

$$$$
selected_4mers/LKEL/96_noH.pdb
 OpenBabel03042517503D

 86 85  0  0  1  0  0  0  0  0999 V2000
   23.1240   51.8680   11.3970 C   0  0  0  0  0  0  0  0  0  0  0  0
   23.8890   50.6300   10.9680 C   0  0  0  0  0  0  0  0  0  0  0  0
   24.5200   50.6080    9.9170 O   0  0  0  0  0  0  0  0  0  0  0  0
   23.8430   49.5890   11.7930 N   0  0  0  0  0  0  0  0  0  0  0  0
   24.5340   48.3510   11.4620 C   0  0  2  0  0  0  0  0  0  0  0  0
   23.8880   47.7070   10.2420 C   0  0  0  0  0  0  0  0  0  0  0  0
   24.5760   47.1590    9.3820 O   0  0  0  0  0  0  0  0  0  0  0  0
   24.5020   47.3870   12.6550 C   0  0  0  0  0  0  0  0  0  0  0  0
   25.3990   47.7500   13.8420 C   0  0  0  0  0  0  0  0  0  0  0  0
   25.0600   46.8580   15.0260 C   0  0  0  0  0  0  0  0  0  0  0  0
   26.8670   47.6060   13.4450 C   0  0  0  0  0  0  0  0  0  0  0  0
   22.5620   47.7890   10.1610 N   0  0  0  0  0  0  0  0  0  0  0  0
   21.8480   47.2150    9.0300 C   0  0  2  0  0  0  0  0  0  0  0  0
   22.2600   47.9250    7.7430 C   0  0  0  0  0  0  0  0  0  0  0  0
   22.4360   47.2890    6.7060 O   0  0  0  0  0  0  0  0  0  0  0  0
   20.3350   47.3370    9.2350 C   0  0  0  0  0  0  0  0  0  0  0  0
   19.5170   46.7700    8.0860 C   0  0  0  0  0  0  0  0  0  0  0  0
   18.0230   46.9220    8.3230 C   0  0  0  0  0  0  0  0  0  0  0  0
   17.2300   46.4180    7.1220 C   0  0  0  0  0  0  0  0  0  0  0  0
   15.7590   46.5650    7.2970 N   0  0  0  0  0  0  0  0  0  0  0  0
   22.4250   49.2440    7.8160 N   0  0  0  0  0  0  0  0  0  0  0  0
   22.8280   50.0150    6.6490 C   0  0  2  0  0  0  0  0  0  0  0  0
   24.2200   49.5990    6.1750 C   0  0  0  0  0  0  0  0  0  0  0  0
   24.4750   49.5220    4.9760 O   0  0  0  0  0  0  0  0  0  0  0  0
   22.7730   51.5080    6.9710 C   0  0  0  0  0  0  0  0  0  0  0  0
   21.3510   51.9890    7.2400 C   0  0  0  0  0  0  0  0  0  0  0  0
   21.2860   53.4070    7.7690 C   0  0  0  0  0  0  0  0  0  0  0  0
   20.1580   53.9170    7.9480 O   0  0  0  0  0  0  0  0  0  0  0  0
   22.3540   54.0070    8.0120 O   0  0  0  0  0  0  0  0  0  0  0  0
   25.1160   49.3150    7.1160 N   0  0  0  0  0  0  0  0  0  0  0  0
   26.4580   48.8730    6.7560 C   0  0  2  0  0  0  0  0  0  0  0  0
   26.3800   47.4790    6.1390 C   0  0  0  0  0  0  0  0  0  0  0  0
   27.0290   47.1880    5.1340 O   0  0  0  0  0  0  0  0  0  0  0  0
   27.3580   48.8030    7.9920 C   0  0  0  0  0  0  0  0  0  0  0  0
   27.8680   50.0920    8.6360 C   0  0  0  0  0  0  0  0  0  0  0  0
   28.7080   49.7370    9.8560 C   0  0  0  0  0  0  0  0  0  0  0  0
   28.7060   50.8820    7.6440 C   0  0  0  0  0  0  0  0  0  0  0  0
   25.5840   46.6170    6.7640 N   0  0  0  0  0  0  0  0  0  0  0  0
   25.4240   45.2420    6.3080 C   0  0  0  0  0  0  0  0  0  0  0  0
   23.2367   52.6316   10.6560 H   0  0  0  0  0  0  0  0  0  0  0  0
   23.5085   52.2187   12.3319 H   0  0  0  0  0  0  0  0  0  0  0  0
   22.0872   51.6268   11.5057 H   0  0  0  0  0  0  0  0  0  0  0  0
   23.3374   49.6556   12.6351 H   0  0  0  0  0  0  0  0  0  0  0  0
   25.5556   48.5741   11.2353 H   0  0  0  0  0  0  0  0  0  0  0  0
   24.8011   46.4219   12.3029 H   0  0  0  0  0  0  0  0  0  0  0  0
   23.5006   47.4283   13.0297 H   0  0  0  0  0  0  0  0  0  0  0  0
   25.2301   48.7676   14.1262 H   0  0  0  0  0  0  0  0  0  0  0  0
   25.2232   45.8346   14.7598 H   0  0  0  0  0  0  0  0  0  0  0  0
   24.0338   46.9972   15.2952 H   0  0  0  0  0  0  0  0  0  0  0  0
   25.6844   47.1146   15.8562 H   0  0  0  0  0  0  0  0  0  0  0  0
   27.0607   46.5941   13.1560 H   0  0  0  0  0  0  0  0  0  0  0  0
   27.4884   47.8646   14.2768 H   0  0  0  0  0  0  0  0  0  0  0  0
   27.0801   48.2584   12.6241 H   0  0  0  0  0  0  0  0  0  0  0  0
   22.0582   48.2433   10.8745 H   0  0  0  0  0  0  0  0  0  0  0  0
   22.0991   46.1776    8.9551 H   0  0  0  0  0  0  0  0  0  0  0  0
   20.0715   46.8118   10.1292 H   0  0  0  0  0  0  0  0  0  0  0  0
   20.1099   48.3813    9.2948 H   0  0  0  0  0  0  0  0  0  0  0  0
   19.7788   47.2876    7.1868 H   0  0  0  0  0  0  0  0  0  0  0  0
   19.7353   45.7254    8.0080 H   0  0  0  0  0  0  0  0  0  0  0  0
   17.7459   46.3571    9.1884 H   0  0  0  0  0  0  0  0  0  0  0  0
   17.8027   47.9589    8.4687 H   0  0  0  0  0  0  0  0  0  0  0  0
   17.5284   46.9741    6.2579 H   0  0  0  0  0  0  0  0  0  0  0  0
   17.4382   45.3740    7.0146 H   0  0  0  0  0  0  0  0  0  0  0  0
   15.5262   47.5524    7.4026 H   0  0  0  0  0  0  0  0  0  0  0  0
   15.4630   46.0550    8.1293 H   0  0  0  0  0  0  0  0  0  0  0  0
   22.2721   49.7050    8.6724 H   0  0  0  0  0  0  0  0  0  0  0  0
   22.1464   49.8156    5.8486 H   0  0  0  0  0  0  0  0  0  0  0  0
   23.1699   52.0541    6.1409 H   0  0  0  0  0  0  0  0  0  0  0  0
   23.3483   51.6734    7.8579 H   0  0  0  0  0  0  0  0  0  0  0  0
   20.9030   51.3372    7.9607 H   0  0  0  0  0  0  0  0  0  0  0  0
   20.8309   51.9763    6.3050 H   0  0  0  0  0  0  0  0  0  0  0  0
   24.8706   49.4041    8.0653 H   0  0  0  0  0  0  0  0  0  0  0  0
   26.8683   49.5747    6.0602 H   0  0  0  0  0  0  0  0  0  0  0  0
   28.2203   48.2331    7.7152 H   0  0  0  0  0  0  0  0  0  0  0  0
   26.7169   48.3886    8.7418 H   0  0  0  0  0  0  0  0  0  0  0  0
   27.0349   50.6949    8.9317 H   0  0  0  0  0  0  0  0  0  0  0  0
   29.5390   49.1344    9.5538 H   0  0  0  0  0  0  0  0  0  0  0  0
   28.1086   49.1929   10.5557 H   0  0  0  0  0  0  0  0  0  0  0  0
   29.0665   50.6343   10.3155 H   0  0  0  0  0  0  0  0  0  0  0  0
   29.5450   50.2930    7.3372 H   0  0  0  0  0  0  0  0  0  0  0  0
   29.0525   51.7822    8.1071 H   0  0  0  0  0  0  0  0  0  0  0  0
   28.1105   51.1269    6.7894 H   0  0  0  0  0  0  0  0  0  0  0  0
   25.0873   46.9167    7.5594 H   0  0  0  0  0  0  0  0  0  0  0  0
   26.0281   45.0817    5.4395 H   0  0  0  0  0  0  0  0  0  0  0  0
   24.3971   45.0637    6.0661 H   0  0  0  0  0  0  0  0  0  0  0  0
   25.7294   44.5712    7.0837 H   0  0  0  0  0  0  0  0  0  0  0  0
  1 40  1  0  0  0  0
  1 41  1  0  0  0  0
  1 42  1  0  0  0  0
  2  1  1  0  0  0  0
  2  4  1  0  0  0  0
  3  2  2  0  0  0  0
  4 43  1  0  0  0  0
  5  4  1  0  0  0  0
  5  8  1  0  0  0  0
  5 44  1  6  0  0  0
  6  5  1  0  0  0  0
  7  6  2  0  0  0  0
  8  9  1  0  0  0  0
  8 45  1  0  0  0  0
  8 46  1  0  0  0  0
  9 10  1  0  0  0  0
  9 47  1  0  0  0  0
 10 48  1  0  0  0  0
 10 49  1  0  0  0  0
 10 50  1  0  0  0  0
 11  9  1  0  0  0  0
 11 51  1  0  0  0  0
 11 52  1  0  0  0  0
 11 53  1  0  0  0  0
 12  6  1  0  0  0  0
 12 54  1  0  0  0  0
 13 16  1  0  0  0  0
 13 12  1  0  0  0  0
 13 55  1  6  0  0  0
 14 21  1  0  0  0  0
 14 13  1  0  0  0  0
 15 14  2  0  0  0  0
 16 56  1  0  0  0  0
 16 57  1  0  0  0  0
 17 18  1  0  0  0  0
 17 16  1  0  0  0  0
 17 58  1  0  0  0  0
 17 59  1  0  0  0  0
 18 60  1  0  0  0  0
 18 61  1  0  0  0  0
 19 20  1  0  0  0  0
 19 18  1  0  0  0  0
 19 62  1  0  0  0  0
 19 63  1  0  0  0  0
 20 64  1  0  0  0  0
 20 65  1  0  0  0  0
 21 66  1  0  0  0  0
 22 25  1  0  0  0  0
 22 21  1  0  0  0  0
 22 67  1  6  0  0  0
 23 22  1  0  0  0  0
 23 30  1  0  0  0  0
 24 23  2  0  0  0  0
 25 26  1  0  0  0  0
 25 68  1  0  0  0  0
 25 69  1  0  0  0  0
 26 27  1  0  0  0  0
 26 70  1  0  0  0  0
 26 71  1  0  0  0  0
 27 28  2  0  0  0  0
 27 29  1  0  0  0  0
 30 72  1  0  0  0  0
 31 30  1  0  0  0  0
 31 34  1  0  0  0  0
 31 73  1  6  0  0  0
 32 31  1  0  0  0  0
 32 38  1  0  0  0  0
 33 32  2  0  0  0  0
 34 35  1  0  0  0  0
 34 74  1  0  0  0  0
 34 75  1  0  0  0  0
 35 36  1  0  0  0  0
 35 76  1  0  0  0  0
 36 77  1  0  0  0  0
 36 78  1  0  0  0  0
 36 79  1  0  0  0  0
 37 35  1  0  0  0  0
 37 80  1  0  0  0  0
 37 81  1  0  0  0  0
 37 82  1  0  0  0  0
 38 83  1  0  0  0  0
 39 38  1  0  0  0  0
 39 84  1  0  0  0  0
 39 85  1  0  0  0  0
 39 86  1  0  0  0  0
M  CHG  1  29  -1
M  END
>  <MODEL>
       0

$$$$
selected_4mers/LKEL/97_noH.pdb
 OpenBabel03042517503D

 86 85  0  0  1  0  0  0  0  0999 V2000
   -3.0160  -12.9250  -14.7140 C   0  0  0  0  0  0  0  0  0  0  0  0
   -3.3780  -11.4630  -15.0230 C   0  0  0  0  0  0  0  0  0  0  0  0
   -3.8910  -11.1690  -16.0990 O   0  0  0  0  0  0  0  0  0  0  0  0
   -3.1170  -10.5650  -14.0650 N   0  0  0  0  0  0  0  0  0  0  0  0
   -3.4250   -9.1500  -14.2590 C   0  0  2  0  0  0  0  0  0  0  0  0
   -2.5890   -8.5160  -15.3690 C   0  0  0  0  0  0  0  0  0  0  0  0
   -2.9150   -7.4310  -15.8780 O   0  0  0  0  0  0  0  0  0  0  0  0
   -3.2870   -8.3990  -12.9320 C   0  0  0  0  0  0  0  0  0  0  0  0
   -4.2720   -8.8900  -11.8610 C   0  0  0  0  0  0  0  0  0  0  0  0
   -3.9910   -8.2670  -10.5230 C   0  0  0  0  0  0  0  0  0  0  0  0
   -5.7200   -8.6370  -12.2480 C   0  0  0  0  0  0  0  0  0  0  0  0
   -1.5160   -9.1990  -15.7720 N   0  0  0  0  0  0  0  0  0  0  0  0
   -0.7080   -8.7220  -16.8910 C   0  0  2  0  0  0  0  0  0  0  0  0
   -1.5100   -8.6500  -18.1850 C   0  0  0  0  0  0  0  0  0  0  0  0
   -1.1830   -7.8930  -19.0770 O   0  0  0  0  0  0  0  0  0  0  0  0
    0.5320   -9.5990  -17.0580 C   0  0  0  0  0  0  0  0  0  0  0  0
    1.5520   -9.3390  -15.9620 C   0  0  0  0  0  0  0  0  0  0  0  0
    2.8330  -10.1650  -16.0480 C   0  0  0  0  0  0  0  0  0  0  0  0
    3.3150  -10.5150  -17.4270 C   0  0  0  0  0  0  0  0  0  0  0  0
    4.5130  -11.4410  -17.2590 N   0  0  0  0  0  0  0  0  0  0  0  0
   -2.5640   -9.4600  -18.2670 N   0  0  0  0  0  0  0  0  0  0  0  0
   -3.4280   -9.4750  -19.4290 C   0  0  2  0  0  0  0  0  0  0  0  0
   -4.2900   -8.2110  -19.5280 C   0  0  0  0  0  0  0  0  0  0  0  0
   -4.8740   -7.9220  -20.5630 O   0  0  0  0  0  0  0  0  0  0  0  0
   -4.3430  -10.6960  -19.3570 C   0  0  0  0  0  0  0  0  0  0  0  0
   -3.6240  -12.0340  -19.6590 C   0  0  0  0  0  0  0  0  0  0  0  0
   -4.4240  -13.2170  -19.1480 C   0  0  0  0  0  0  0  0  0  0  0  0
   -5.6660  -13.0650  -18.9710 O   0  0  0  0  0  0  0  0  0  0  0  0
   -3.8040  -14.2920  -18.9040 O   0  0  0  0  0  0  0  0  0  0  0  0
   -4.4080   -7.4790  -18.4400 N   0  0  0  0  0  0  0  0  0  0  0  0
   -5.2490   -6.2720  -18.4370 C   0  0  2  0  0  0  0  0  0  0  0  0
   -4.4720   -5.1610  -19.1230 C   0  0  0  0  0  0  0  0  0  0  0  0
   -3.8020   -4.3410  -18.4780 O   0  0  0  0  0  0  0  0  0  0  0  0
   -5.6840   -5.9140  -17.0240 C   0  0  0  0  0  0  0  0  0  0  0  0
   -6.5200   -6.9200  -16.2380 C   0  0  0  0  0  0  0  0  0  0  0  0
   -6.7940   -6.3240  -14.8510 C   0  0  0  0  0  0  0  0  0  0  0  0
   -7.8320   -7.2850  -16.9020 C   0  0  0  0  0  0  0  0  0  0  0  0
   -4.4830   -5.2070  -20.4460 N   0  0  0  0  0  0  0  0  0  0  0  0
   -3.7690   -4.2240  -21.2700 C   0  0  0  0  0  0  0  0  0  0  0  0
   -3.2711  -13.5402  -15.5514 H   0  0  0  0  0  0  0  0  0  0  0  0
   -3.5592  -13.2525  -13.8523 H   0  0  0  0  0  0  0  0  0  0  0  0
   -1.9658  -12.9997  -14.5233 H   0  0  0  0  0  0  0  0  0  0  0  0
   -2.7120  -10.8621  -13.2183 H   0  0  0  0  0  0  0  0  0  0  0  0
   -4.4411   -9.0747  -14.5858 H   0  0  0  0  0  0  0  0  0  0  0  0
   -3.4654   -7.3588  -13.1084 H   0  0  0  0  0  0  0  0  0  0  0  0
   -2.2982   -8.5772  -12.5640 H   0  0  0  0  0  0  0  0  0  0  0  0
   -4.1262   -9.9476  -11.7889 H   0  0  0  0  0  0  0  0  0  0  0  0
   -4.1343   -7.2085  -10.5853 H   0  0  0  0  0  0  0  0  0  0  0  0
   -2.9806   -8.4740  -10.2383 H   0  0  0  0  0  0  0  0  0  0  0  0
   -4.6580   -8.6748   -9.7925 H   0  0  0  0  0  0  0  0  0  0  0  0
   -5.8894   -7.5834  -12.3262 H   0  0  0  0  0  0  0  0  0  0  0  0
   -6.3660   -9.0476  -11.5003 H   0  0  0  0  0  0  0  0  0  0  0  0
   -5.9239   -9.1019  -13.1899 H   0  0  0  0  0  0  0  0  0  0  0  0
   -1.2667  -10.0322  -15.3107 H   0  0  0  0  0  0  0  0  0  0  0  0
   -0.3946   -7.7239  -16.6664 H   0  0  0  0  0  0  0  0  0  0  0  0
    0.9804   -9.3895  -18.0066 H   0  0  0  0  0  0  0  0  0  0  0  0
    0.2285  -10.6232  -16.9970 H   0  0  0  0  0  0  0  0  0  0  0  0
    1.0866   -9.5492  -15.0217 H   0  0  0  0  0  0  0  0  0  0  0  0
    1.8521   -8.3183  -16.0757 H   0  0  0  0  0  0  0  0  0  0  0  0
    3.6097   -9.6113  -15.5632 H   0  0  0  0  0  0  0  0  0  0  0  0
    2.5977  -11.1005  -15.5850 H   0  0  0  0  0  0  0  0  0  0  0  0
    2.5399  -11.0122  -17.9719 H   0  0  0  0  0  0  0  0  0  0  0  0
    3.5865   -9.6347  -17.9713 H   0  0  0  0  0  0  0  0  0  0  0  0
    4.2305  -12.2714  -16.7384 H   0  0  0  0  0  0  0  0  0  0  0  0
    5.2500  -10.9543  -16.7488 H   0  0  0  0  0  0  0  0  0  0  0  0
   -2.7613  -10.0657  -17.5164 H   0  0  0  0  0  0  0  0  0  0  0  0
   -2.8036   -9.5142  -20.2971 H   0  0  0  0  0  0  0  0  0  0  0  0
   -4.7566  -10.7501  -18.3716 H   0  0  0  0  0  0  0  0  0  0  0  0
   -5.0931  -10.5684  -20.1093 H   0  0  0  0  0  0  0  0  0  0  0  0
   -2.6656  -12.0298  -19.1833 H   0  0  0  0  0  0  0  0  0  0  0  0
   -3.5198  -12.1296  -20.7196 H   0  0  0  0  0  0  0  0  0  0  0  0
   -3.9290   -7.7418  -17.6210 H   0  0  0  0  0  0  0  0  0  0  0  0
   -6.1568   -6.4384  -18.9784 H   0  0  0  0  0  0  0  0  0  0  0  0
   -6.2559   -5.0120  -17.0895 H   0  0  0  0  0  0  0  0  0  0  0  0
   -4.7665   -5.8545  -16.4767 H   0  0  0  0  0  0  0  0  0  0  0  0
   -5.9598   -7.8299  -16.1824 H   0  0  0  0  0  0  0  0  0  0  0  0
   -7.3546   -5.4187  -14.9562 H   0  0  0  0  0  0  0  0  0  0  0  0
   -5.8651   -6.1136  -14.3633 H   0  0  0  0  0  0  0  0  0  0  0  0
   -7.3534   -7.0240  -14.2662 H   0  0  0  0  0  0  0  0  0  0  0  0
   -8.4434   -6.4111  -16.9882 H   0  0  0  0  0  0  0  0  0  0  0  0
   -8.3393   -8.0182  -16.3104 H   0  0  0  0  0  0  0  0  0  0  0  0
   -7.6399   -7.6834  -17.8763 H   0  0  0  0  0  0  0  0  0  0  0  0
   -4.9873   -5.9250  -20.8926 H   0  0  0  0  0  0  0  0  0  0  0  0
   -3.2760   -3.5175  -20.6354 H   0  0  0  0  0  0  0  0  0  0  0  0
   -4.4667   -3.7121  -21.8993 H   0  0  0  0  0  0  0  0  0  0  0  0
   -3.0438   -4.7259  -21.8759 H   0  0  0  0  0  0  0  0  0  0  0  0
  1 40  1  0  0  0  0
  1 41  1  0  0  0  0
  1 42  1  0  0  0  0
  2  1  1  0  0  0  0
  2  4  1  0  0  0  0
  3  2  2  0  0  0  0
  4 43  1  0  0  0  0
  5  4  1  0  0  0  0
  5  8  1  0  0  0  0
  5 44  1  6  0  0  0
  6  5  1  0  0  0  0
  7  6  2  0  0  0  0
  8  9  1  0  0  0  0
  8 45  1  0  0  0  0
  8 46  1  0  0  0  0
  9 10  1  0  0  0  0
  9 47  1  0  0  0  0
 10 48  1  0  0  0  0
 10 49  1  0  0  0  0
 10 50  1  0  0  0  0
 11  9  1  0  0  0  0
 11 51  1  0  0  0  0
 11 52  1  0  0  0  0
 11 53  1  0  0  0  0
 12  6  1  0  0  0  0
 12 54  1  0  0  0  0
 13 12  1  0  0  0  0
 13 55  1  1  0  0  0
 14 13  1  0  0  0  0
 15 14  2  0  0  0  0
 16 13  1  0  0  0  0
 16 17  1  0  0  0  0
 16 56  1  0  0  0  0
 16 57  1  0  0  0  0
 17 58  1  0  0  0  0
 17 59  1  0  0  0  0
 18 17  1  0  0  0  0
 18 60  1  0  0  0  0
 18 61  1  0  0  0  0
 19 20  1  0  0  0  0
 19 18  1  0  0  0  0
 19 62  1  0  0  0  0
 19 63  1  0  0  0  0
 20 64  1  0  0  0  0
 20 65  1  0  0  0  0
 21 14  1  0  0  0  0
 21 66  1  0  0  0  0
 22 25  1  0  0  0  0
 22 21  1  0  0  0  0
 22 67  1  6  0  0  0
 23 22  1  0  0  0  0
 23 30  1  0  0  0  0
 24 23  2  0  0  0  0
 25 68  1  0  0  0  0
 25 69  1  0  0  0  0
 26 25  1  0  0  0  0
 26 27  1  0  0  0  0
 26 70  1  0  0  0  0
 26 71  1  0  0  0  0
 27 28  2  0  0  0  0
 27 29  1  0  0  0  0
 30 31  1  0  0  0  0
 30 72  1  0  0  0  0
 31 34  1  0  0  0  0
 31 73  1  6  0  0  0
 32 33  2  0  0  0  0
 32 31  1  0  0  0  0
 34 35  1  0  0  0  0
 34 74  1  0  0  0  0
 34 75  1  0  0  0  0
 35 36  1  0  0  0  0
 35 76  1  0  0  0  0
 36 77  1  0  0  0  0
 36 78  1  0  0  0  0
 36 79  1  0  0  0  0
 37 35  1  0  0  0  0
 37 80  1  0  0  0  0
 37 81  1  0  0  0  0
 37 82  1  0  0  0  0
 38 32  1  0  0  0  0
 38 83  1  0  0  0  0
 39 38  1  0  0  0  0
 39 84  1  0  0  0  0
 39 85  1  0  0  0  0
 39 86  1  0  0  0  0
M  CHG  1  29  -1
M  END
>  <MODEL>
       0

$$$$
selected_4mers/LKEL/98_noH.pdb
 OpenBabel03042517503D

 86 85  0  0  1  0  0  0  0  0999 V2000
   40.0010   18.5390    9.4830 C   0  0  0  0  0  0  0  0  0  0  0  0
   39.9480   18.2820    7.9990 C   0  0  0  0  0  0  0  0  0  0  0  0
   39.0620   18.7140    7.3490 O   0  0  0  0  0  0  0  0  0  0  0  0
   40.9570   17.6140    7.4570 N   0  0  0  0  0  0  0  0  0  0  0  0
   40.9440   17.2230    6.0570 C   0  0  2  0  0  0  0  0  0  0  0  0
   41.6550   15.8510    5.9310 C   0  0  0  0  0  0  0  0  0  0  0  0
   42.7470   15.6610    6.4420 O   0  0  0  0  0  0  0  0  0  0  0  0
   41.6020   18.2700    5.1490 C   0  0  0  0  0  0  0  0  0  0  0  0
   41.3810   18.0930    3.5880 C   0  0  0  0  0  0  0  0  0  0  0  0
   41.4610   19.4050    2.8220 C   0  0  0  0  0  0  0  0  0  0  0  0
   42.3700   17.1830    3.0150 C   0  0  0  0  0  0  0  0  0  0  0  0
   40.9550   14.9340    5.2900 N   0  0  0  0  0  0  0  0  0  0  0  0
   41.5180   13.6100    4.9510 C   0  0  2  0  0  0  0  0  0  0  0  0
   41.3610   13.2890    3.4810 C   0  0  0  0  0  0  0  0  0  0  0  0
   40.3190   13.4510    2.8780 O   0  0  0  0  0  0  0  0  0  0  0  0
   40.7970   12.5540    5.7660 C   0  0  0  0  0  0  0  0  0  0  0  0
   41.1190   12.5650    7.1930 C   0  0  0  0  0  0  0  0  0  0  0  0
   40.4840   11.3780    7.9640 C   0  0  0  0  0  0  0  0  0  0  0  0
   40.9510   11.2430    9.3880 C   0  0  0  0  0  0  0  0  0  0  0  0
   40.4500    9.9210   10.0080 N   0  0  0  0  0  0  0  0  0  0  0  0
   42.4250   12.7660    2.9260 N   0  0  0  0  0  0  0  0  0  0  0  0
   42.4510   12.2830    1.5540 C   0  0  2  0  0  0  0  0  0  0  0  0
   41.7720   10.9410    1.4900 C   0  0  0  0  0  0  0  0  0  0  0  0
   41.8210   10.1980    2.4600 O   0  0  0  0  0  0  0  0  0  0  0  0
   43.9080   12.1110    1.1420 C   0  0  0  0  0  0  0  0  0  0  0  0
   44.6590   13.4390    1.2500 C   0  0  0  0  0  0  0  0  0  0  0  0
   45.5100   13.5600    2.5140 C   0  0  0  0  0  0  0  0  0  0  0  0
   45.1950   12.9890    3.6260 O   0  0  0  0  0  0  0  0  0  0  0  0
   46.5440   14.2360    2.3530 O   0  0  0  0  0  0  0  0  0  0  0  0
   41.1590   10.6280    0.3450 N   0  0  0  0  0  0  0  0  0  0  0  0
   40.5500    9.3030    0.1630 C   0  0  2  0  0  0  0  0  0  0  0  0
   41.3840    8.5080   -0.8260 C   0  0  0  0  0  0  0  0  0  0  0  0
   41.6650    8.9710   -1.9710 O   0  0  0  0  0  0  0  0  0  0  0  0
   39.1500    9.4210   -0.3970 C   0  0  0  0  0  0  0  0  0  0  0  0
   38.0400    9.7550    0.6150 C   0  0  0  0  0  0  0  0  0  0  0  0
   38.2630   11.0980    1.2270 C   0  0  0  0  0  0  0  0  0  0  0  0
   36.6820    9.6530   -0.1200 C   0  0  0  0  0  0  0  0  0  0  0  0
   41.7690    7.3150   -0.4130 N   0  0  0  0  0  0  0  0  0  0  0  0
   42.3680    6.3400   -1.3640 C   0  0  0  0  0  0  0  0  0  0  0  0
   39.1296   19.0832    9.7821 H   0  0  0  0  0  0  0  0  0  0  0  0
   40.8754   19.1103    9.7150 H   0  0  0  0  0  0  0  0  0  0  0  0
   40.0355   17.6059   10.0056 H   0  0  0  0  0  0  0  0  0  0  0  0
   41.7326   17.3775    8.0154 H   0  0  0  0  0  0  0  0  0  0  0  0
   39.9285   17.1476    5.7285 H   0  0  0  0  0  0  0  0  0  0  0  0
   41.2155   19.2287    5.4253 H   0  0  0  0  0  0  0  0  0  0  0  0
   42.6549   18.1545    5.3006 H   0  0  0  0  0  0  0  0  0  0  0  0
   40.3933   17.6939    3.4877 H   0  0  0  0  0  0  0  0  0  0  0  0
   42.4456   19.8133    2.9157 H   0  0  0  0  0  0  0  0  0  0  0  0
   40.7488   20.0958    3.2225 H   0  0  0  0  0  0  0  0  0  0  0  0
   41.2449   19.2287    1.7890 H   0  0  0  0  0  0  0  0  0  0  0  0
   43.3479   17.6027    3.1269 H   0  0  0  0  0  0  0  0  0  0  0  0
   42.1610   17.0377    1.9757 H   0  0  0  0  0  0  0  0  0  0  0  0
   42.3254   16.2422    3.5227 H   0  0  0  0  0  0  0  0  0  0  0  0
   40.0279   15.1384    5.0292 H   0  0  0  0  0  0  0  0  0  0  0  0
   42.5644   13.6240    5.1743 H   0  0  0  0  0  0  0  0  0  0  0  0
   41.0559   11.5934    5.3723 H   0  0  0  0  0  0  0  0  0  0  0  0
   39.7520   12.7701    5.6880 H   0  0  0  0  0  0  0  0  0  0  0  0
   40.7594   13.4792    7.6172 H   0  0  0  0  0  0  0  0  0  0  0  0
   42.1814   12.4751    7.2833 H   0  0  0  0  0  0  0  0  0  0  0  0
   40.7256   10.4739    7.4451 H   0  0  0  0  0  0  0  0  0  0  0  0
   39.4315   11.5667    8.0036 H   0  0  0  0  0  0  0  0  0  0  0  0
   40.5726   12.0641    9.9603 H   0  0  0  0  0  0  0  0  0  0  0  0
   42.0209   11.2422    9.3987 H   0  0  0  0  0  0  0  0  0  0  0  0
   39.4301    9.9086   10.0040 H   0  0  0  0  0  0  0  0  0  0  0  0
   40.7872    9.8463   10.9678 H   0  0  0  0  0  0  0  0  0  0  0  0
   43.2472   12.6962    3.4630 H   0  0  0  0  0  0  0  0  0  0  0  0
   41.9509   12.9731    0.9071 H   0  0  0  0  0  0  0  0  0  0  0  0
   44.3722   11.3915    1.7837 H   0  0  0  0  0  0  0  0  0  0  0  0
   43.9418   11.7775    0.1259 H   0  0  0  0  0  0  0  0  0  0  0  0
   43.9427   14.2339    1.2472 H   0  0  0  0  0  0  0  0  0  0  0  0
   45.3272   13.4902    0.4159 H   0  0  0  0  0  0  0  0  0  0  0  0
   41.1149   11.2900   -0.3824 H   0  0  0  0  0  0  0  0  0  0  0  0
   40.5096    8.8187    1.1163 H   0  0  0  0  0  0  0  0  0  0  0  0
   38.9024    8.4871   -0.8568 H   0  0  0  0  0  0  0  0  0  0  0  0
   39.1806   10.2500   -1.0728 H   0  0  0  0  0  0  0  0  0  0  0  0
   38.0476    9.0604    1.4288 H   0  0  0  0  0  0  0  0  0  0  0  0
   38.2663   11.8436    0.4595 H   0  0  0  0  0  0  0  0  0  0  0  0
   39.2040   11.1061    1.7362 H   0  0  0  0  0  0  0  0  0  0  0  0
   37.4785   11.3071    1.9240 H   0  0  0  0  0  0  0  0  0  0  0  0
   36.6653   10.3448   -0.9361 H   0  0  0  0  0  0  0  0  0  0  0  0
   35.8897    9.8852    0.5606 H   0  0  0  0  0  0  0  0  0  0  0  0
   36.5520    8.6585   -0.4927 H   0  0  0  0  0  0  0  0  0  0  0  0
   41.6588    7.0678    0.5336 H   0  0  0  0  0  0  0  0  0  0  0  0
   42.4102    6.7745   -2.3409 H   0  0  0  0  0  0  0  0  0  0  0  0
   41.7674    5.4549   -1.3929 H   0  0  0  0  0  0  0  0  0  0  0  0
   43.3572    6.0894   -1.0421 H   0  0  0  0  0  0  0  0  0  0  0  0
  1 40  1  0  0  0  0
  1 41  1  0  0  0  0
  1 42  1  0  0  0  0
  2  1  1  0  0  0  0
  3  2  2  0  0  0  0
  4  2  1  0  0  0  0
  4 43  1  0  0  0  0
  5  4  1  0  0  0  0
  5 44  1  6  0  0  0
  6  5  1  0  0  0  0
  6  7  2  0  0  0  0
  8  5  1  0  0  0  0
  8 45  1  0  0  0  0
  8 46  1  0  0  0  0
  9  8  1  0  0  0  0
  9 47  1  0  0  0  0
 10  9  1  0  0  0  0
 10 48  1  0  0  0  0
 10 49  1  0  0  0  0
 10 50  1  0  0  0  0
 11  9  1  0  0  0  0
 11 51  1  0  0  0  0
 11 52  1  0  0  0  0
 11 53  1  0  0  0  0
 12  6  1  0  0  0  0
 12 54  1  0  0  0  0
 13 12  1  0  0  0  0
 13 16  1  0  0  0  0
 13 55  1  1  0  0  0
 14 13  1  0  0  0  0
 15 14  2  0  0  0  0
 16 17  1  0  0  0  0
 16 56  1  0  0  0  0
 16 57  1  0  0  0  0
 17 18  1  0  0  0  0
 17 58  1  0  0  0  0
 17 59  1  0  0  0  0
 18 19  1  0  0  0  0
 18 60  1  0  0  0  0
 18 61  1  0  0  0  0
 19 20  1  0  0  0  0
 19 62  1  0  0  0  0
 19 63  1  0  0  0  0
 20 64  1  0  0  0  0
 20 65  1  0  0  0  0
 21 14  1  0  0  0  0
 21 66  1  0  0  0  0
 22 21  1  0  0  0  0
 22 67  1  6  0  0  0
 23 22  1  0  0  0  0
 23 24  2  0  0  0  0
 25 26  1  0  0  0  0
 25 22  1  0  0  0  0
 25 68  1  0  0  0  0
 25 69  1  0  0  0  0
 26 27  1  0  0  0  0
 26 70  1  0  0  0  0
 26 71  1  0  0  0  0
 27 28  1  0  0  0  0
 29 27  2  0  0  0  0
 30 23  1  0  0  0  0
 30 72  1  0  0  0  0
 31 30  1  0  0  0  0
 31 73  1  1  0  0  0
 32 38  1  0  0  0  0
 32 31  1  0  0  0  0
 33 32  2  0  0  0  0
 34 31  1  0  0  0  0
 34 35  1  0  0  0  0
 34 74  1  0  0  0  0
 34 75  1  0  0  0  0
 35 36  1  0  0  0  0
 35 76  1  0  0  0  0
 36 77  1  0  0  0  0
 36 78  1  0  0  0  0
 36 79  1  0  0  0  0
 37 35  1  0  0  0  0
 37 80  1  0  0  0  0
 37 81  1  0  0  0  0
 37 82  1  0  0  0  0
 38 83  1  0  0  0  0
 39 38  1  0  0  0  0
 39 84  1  0  0  0  0
 39 85  1  0  0  0  0
 39 86  1  0  0  0  0
M  CHG  1  28  -1
M  END
>  <MODEL>
       0

$$$$
selected_4mers/LKEL/99_noH.pdb
 OpenBabel03042517503D

 86 85  0  0  1  0  0  0  0  0999 V2000
   12.6080   61.4610   11.0240 C   0  0  0  0  0  0  0  0  0  0  0  0
   11.3570   60.8700   11.6980 C   0  0  0  0  0  0  0  0  0  0  0  0
   10.3680   60.6490   11.0420 O   0  0  0  0  0  0  0  0  0  0  0  0
   11.4360   60.5540   12.9790 N   0  0  0  0  0  0  0  0  0  0  0  0
   10.3210   59.9280   13.6820 C   0  0  2  0  0  0  0  0  0  0  0  0
    9.5440   61.0760   14.3330 C   0  0  0  0  0  0  0  0  0  0  0  0
   10.0970   61.9190   15.0600 O   0  0  0  0  0  0  0  0  0  0  0  0
   10.8220   58.9100   14.6950 C   0  0  0  0  0  0  0  0  0  0  0  0
   11.6660   57.7950   14.0370 C   0  0  0  0  0  0  0  0  0  0  0  0
   12.1700   56.7990   15.0600 C   0  0  0  0  0  0  0  0  0  0  0  0
   10.9160   57.0470   12.9390 C   0  0  0  0  0  0  0  0  0  0  0  0
    8.2730   61.1610   14.0040 N   0  0  0  0  0  0  0  0  0  0  0  0
    7.4820   62.2690   14.5170 C   0  0  2  0  0  0  0  0  0  0  0  0
    7.4720   62.2400   16.0510 C   0  0  0  0  0  0  0  0  0  0  0  0
    7.5870   63.2810   16.6900 O   0  0  0  0  0  0  0  0  0  0  0  0
    6.0640   62.2550   13.9450 C   0  0  0  0  0  0  0  0  0  0  0  0
    5.1200   63.2940   14.5510 C   0  0  0  0  0  0  0  0  0  0  0  0
    5.6540   64.7130   14.4470 C   0  0  0  0  0  0  0  0  0  0  0  0
    4.8000   65.6760   15.2570 C   0  0  0  0  0  0  0  0  0  0  0  0
    5.4470   67.0130   15.2950 N   0  0  0  0  0  0  0  0  0  0  0  0
    7.3860   61.0630   16.6320 N   0  0  0  0  0  0  0  0  0  0  0  0
    7.3910   60.9250   18.1070 C   0  0  2  0  0  0  0  0  0  0  0  0
    8.6640   61.5170   18.7920 C   0  0  0  0  0  0  0  0  0  0  0  0
    8.5920   61.9730   19.9370 O   0  0  0  0  0  0  0  0  0  0  0  0
    7.2000   59.4560   18.5390 C   0  0  0  0  0  0  0  0  0  0  0  0
    6.3000   58.5960   17.5840 C   0  0  0  0  0  0  0  0  0  0  0  0
    7.1150   57.9270   16.4390 C   0  0  0  0  0  0  0  0  0  0  0  0
    7.6470   56.8160   16.6730 O   0  0  0  0  0  0  0  0  0  0  0  0
    7.2340   58.5000   15.3200 O   0  0  0  0  0  0  0  0  0  0  0  0
    9.8100   61.5090   18.1000 N   0  0  0  0  0  0  0  0  0  0  0  0
   11.0220   62.1210   18.6360 C   0  0  2  0  0  0  0  0  0  0  0  0
   11.2110   63.5750   18.2140 C   0  0  0  0  0  0  0  0  0  0  0  0
   12.3080   64.1310   18.3610 O   0  0  0  0  0  0  0  0  0  0  0  0
   12.2450   61.2910   18.2670 C   0  0  0  0  0  0  0  0  0  0  0  0
   12.1260   59.8540   18.7640 C   0  0  0  0  0  0  0  0  0  0  0  0
   13.4000   59.1060   18.4110 C   0  0  0  0  0  0  0  0  0  0  0  0
   11.8700   59.8300   20.2920 C   0  0  0  0  0  0  0  0  0  0  0  0
   10.1400   64.2150   17.7310 N   0  0  0  0  0  0  0  0  0  0  0  0
   10.1740   65.6530   17.4830 C   0  0  0  0  0  0  0  0  0  0  0  0
   12.3958   61.6659    9.9954 H   0  0  0  0  0  0  0  0  0  0  0  0
   13.4133   60.7595   11.0892 H   0  0  0  0  0  0  0  0  0  0  0  0
   12.8846   62.3685   11.5187 H   0  0  0  0  0  0  0  0  0  0  0  0
   12.2671   60.7456   13.4707 H   0  0  0  0  0  0  0  0  0  0  0  0
    9.6856   59.3759   13.0215 H   0  0  0  0  0  0  0  0  0  0  0  0
    9.9791   58.4631   15.1796 H   0  0  0  0  0  0  0  0  0  0  0  0
   11.4472   59.4244   15.3946 H   0  0  0  0  0  0  0  0  0  0  0  0
   12.4966   58.2977   13.5872 H   0  0  0  0  0  0  0  0  0  0  0  0
   11.3385   56.2971   15.5089 H   0  0  0  0  0  0  0  0  0  0  0  0
   12.7259   57.3140   15.8154 H   0  0  0  0  0  0  0  0  0  0  0  0
   12.8018   56.0821   14.5786 H   0  0  0  0  0  0  0  0  0  0  0  0
   10.0786   56.5346   13.3645 H   0  0  0  0  0  0  0  0  0  0  0  0
   11.5717   56.3378   12.4787 H   0  0  0  0  0  0  0  0  0  0  0  0
   10.5717   57.7440   12.2038 H   0  0  0  0  0  0  0  0  0  0  0  0
    7.8628   60.4840   13.4186 H   0  0  0  0  0  0  0  0  0  0  0  0
    7.9347   63.1853   14.2001 H   0  0  0  0  0  0  0  0  0  0  0  0
    5.6455   61.2851   14.1153 H   0  0  0  0  0  0  0  0  0  0  0  0
    6.1546   62.4982   12.9070 H   0  0  0  0  0  0  0  0  0  0  0  0
    4.9733   63.0597   15.5847 H   0  0  0  0  0  0  0  0  0  0  0  0
    4.2042   63.2552   13.9990 H   0  0  0  0  0  0  0  0  0  0  0  0
    5.6457   65.0159   13.4208 H   0  0  0  0  0  0  0  0  0  0  0  0
    6.6511   64.7319   14.8347 H   0  0  0  0  0  0  0  0  0  0  0  0
    4.6944   65.3040   16.2547 H   0  0  0  0  0  0  0  0  0  0  0  0
    3.8361   65.7629   14.8006 H   0  0  0  0  0  0  0  0  0  0  0  0
    6.3663   66.9336   15.7297 H   0  0  0  0  0  0  0  0  0  0  0  0
    4.8689   67.6552   15.8371 H   0  0  0  0  0  0  0  0  0  0  0  0
    7.3167   60.2551   16.0737 H   0  0  0  0  0  0  0  0  0  0  0  0
    6.5578   61.5063   18.4428 H   0  0  0  0  0  0  0  0  0  0  0  0
    8.1650   58.9965   18.5888 H   0  0  0  0  0  0  0  0  0  0  0  0
    6.6941   59.4847   19.4814 H   0  0  0  0  0  0  0  0  0  0  0  0
    5.8237   57.8297   18.1592 H   0  0  0  0  0  0  0  0  0  0  0  0
    5.5846   59.2519   17.1335 H   0  0  0  0  0  0  0  0  0  0  0  0
    9.8358   61.0824   17.2131 H   0  0  0  0  0  0  0  0  0  0  0  0
   10.9063   62.1343   19.6996 H   0  0  0  0  0  0  0  0  0  0  0  0
   13.1123   61.7384   18.7058 H   0  0  0  0  0  0  0  0  0  0  0  0
   12.3216   61.2683   17.2000 H   0  0  0  0  0  0  0  0  0  0  0  0
   11.2950   59.3738   18.2909 H   0  0  0  0  0  0  0  0  0  0  0  0
   14.2350   59.5818   18.8815 H   0  0  0  0  0  0  0  0  0  0  0  0
   13.5362   59.1145   17.3497 H   0  0  0  0  0  0  0  0  0  0  0  0
   13.3263   58.0948   18.7531 H   0  0  0  0  0  0  0  0  0  0  0  0
   12.6851   60.3041   20.7977 H   0  0  0  0  0  0  0  0  0  0  0  0
   11.7857   58.8162   20.6236 H   0  0  0  0  0  0  0  0  0  0  0  0
   10.9624   60.3532   20.5098 H   0  0  0  0  0  0  0  0  0  0  0  0
    9.3174   63.7089   17.5402 H   0  0  0  0  0  0  0  0  0  0  0  0
   11.1378   66.0373   17.7443 H   0  0  0  0  0  0  0  0  0  0  0  0
    9.4251   66.1350   18.0760 H   0  0  0  0  0  0  0  0  0  0  0  0
    9.9840   65.8408   16.4469 H   0  0  0  0  0  0  0  0  0  0  0  0
  1  2  1  0  0  0  0
  1 40  1  0  0  0  0
  1 41  1  0  0  0  0
  1 42  1  0  0  0  0
  2  4  1  0  0  0  0
  3  2  2  0  0  0  0
  4  5  1  0  0  0  0
  4 43  1  0  0  0  0
  5  6  1  0  0  0  0
  5  8  1  0  0  0  0
  5 44  1  6  0  0  0
  6  7  2  0  0  0  0
  8 45  1  0  0  0  0
  8 46  1  0  0  0  0
  9  8  1  0  0  0  0
  9 10  1  0  0  0  0
  9 47  1  0  0  0  0
 10 48  1  0  0  0  0
 10 49  1  0  0  0  0
 10 50  1  0  0  0  0
 11  9  1  0  0  0  0
 11 51  1  0  0  0  0
 11 52  1  0  0  0  0
 11 53  1  0  0  0  0
 12  6  1  0  0  0  0
 12 13  1  0  0  0  0
 12 54  1  0  0  0  0
 13 14  1  0  0  0  0
 13 55  1  6  0  0  0
 14 21  1  0  0  0  0
 14 15  2  0  0  0  0
 16 13  1  0  0  0  0
 16 17  1  0  0  0  0
 16 56  1  0  0  0  0
 16 57  1  0  0  0  0
 17 58  1  0  0  0  0
 17 59  1  0  0  0  0
 18 17  1  0  0  0  0
 18 19  1  0  0  0  0
 18 60  1  0  0  0  0
 18 61  1  0  0  0  0
 19 20  1  0  0  0  0
 19 62  1  0  0  0  0
 19 63  1  0  0  0  0
 20 64  1  0  0  0  0
 20 65  1  0  0  0  0
 21 22  1  0  0  0  0
 21 66  1  0  0  0  0
 22 25  1  0  0  0  0
 22 23  1  0  0  0  0
 22 67  1  1  0  0  0
 23 24  2  0  0  0  0
 25 68  1  0  0  0  0
 25 69  1  0  0  0  0
 26 25  1  0  0  0  0
 26 70  1  0  0  0  0
 26 71  1  0  0  0  0
 27 28  1  0  0  0  0
 27 26  1  0  0  0  0
 29 27  2  0  0  0  0
 30 31  1  0  0  0  0
 30 23  1  0  0  0  0
 30 72  1  0  0  0  0
 31 73  1  1  0  0  0
 32 33  2  0  0  0  0
 32 31  1  0  0  0  0
 34 31  1  0  0  0  0
 34 35  1  0  0  0  0
 34 74  1  0  0  0  0
 34 75  1  0  0  0  0
 35 37  1  0  0  0  0
 35 76  1  0  0  0  0
 36 35  1  0  0  0  0
 36 77  1  0  0  0  0
 36 78  1  0  0  0  0
 36 79  1  0  0  0  0
 37 80  1  0  0  0  0
 37 81  1  0  0  0  0
 37 82  1  0  0  0  0
 38 32  1  0  0  0  0
 38 83  1  0  0  0  0
 39 38  1  0  0  0  0
 39 84  1  0  0  0  0
 39 85  1  0  0  0  0
 39 86  1  0  0  0  0
M  CHG  1  28  -1
M  END
>  <MODEL>
       0

$$$$
