selected_4mers/LKPE/365_noH.pdb
 OpenBabel03042517593D

 81 81  0  0  1  0  0  0  0  0999 V2000
   35.7250   27.0150   39.0200 C   0  0  0  0  0  0  0  0  0  0  0  0
   35.2000   26.7680   37.6010 C   0  0  0  0  0  0  0  0  0  0  0  0
   34.2430   25.9930   37.4070 O   0  0  0  0  0  0  0  0  0  0  0  0
   35.8160   27.4230   36.6230 N   0  0  0  0  0  0  0  0  0  0  0  0
   35.4470   27.2230   35.2180 C   0  0  2  0  0  0  0  0  0  0  0  0
   36.5640   26.4590   34.5400 C   0  0  0  0  0  0  0  0  0  0  0  0
   37.7180   26.5460   34.9420 O   0  0  0  0  0  0  0  0  0  0  0  0
   35.2050   28.5520   34.4910 C   0  0  0  0  0  0  0  0  0  0  0  0
   34.0700   29.4650   35.0000 C   0  0  0  0  0  0  0  0  0  0  0  0
   33.8940   30.5980   34.0140 C   0  0  0  0  0  0  0  0  0  0  0  0
   32.7700   28.7090   35.1840 C   0  0  0  0  0  0  0  0  0  0  0  0
   36.2230   25.7060   33.5040 N   0  0  0  0  0  0  0  0  0  0  0  0
   37.2490   24.9560   32.8080 C   0  0  2  0  0  0  0  0  0  0  0  0
   37.0340   25.0100   31.3050 C   0  0  0  0  0  0  0  0  0  0  0  0
   35.9220   25.2640   30.8260 O   0  0  0  0  0  0  0  0  0  0  0  0
   37.1710   23.4920   33.2320 C   0  0  0  0  0  0  0  0  0  0  0  0
   35.9130   22.8330   32.7410 C   0  0  0  0  0  0  0  0  0  0  0  0
   35.8140   21.3910   33.2360 C   0  0  0  0  0  0  0  0  0  0  0  0
   34.8170   20.6120   32.3810 C   0  0  0  0  0  0  0  0  0  0  0  0
   34.4230   19.3380   33.0300 N   0  0  0  0  0  0  0  0  0  0  0  0
   38.0970   24.7480   30.5420 N   0  0  0  0  0  0  0  0  0  0  0  0
   37.8880   24.7280   29.0950 C   0  0  2  0  0  0  0  0  0  0  0  0
   36.9870   23.5610   28.7010 C   0  0  0  0  0  0  0  0  0  0  0  0
   37.0370   22.4840   29.3060 O   0  0  0  0  0  0  0  0  0  0  0  0
   39.3140   24.5370   28.5340 C   0  0  0  0  0  0  0  0  0  0  0  0
   40.0490   23.8290   29.6470 C   0  0  0  0  0  0  0  0  0  0  0  0
   39.4670   24.3840   30.9230 C   0  0  0  0  0  0  0  0  0  0  0  0
   36.1760   23.7890   27.6760 N   0  0  0  0  0  0  0  0  0  0  0  0
   35.2840   22.7620   27.1470 C   0  0  2  0  0  0  0  0  0  0  0  0
   36.0570   21.7520   26.3000 C   0  0  0  0  0  0  0  0  0  0  0  0
   36.6660   22.1080   25.3010 O   0  0  0  0  0  0  0  0  0  0  0  0
   34.2020   23.4150   26.2920 C   0  0  0  0  0  0  0  0  0  0  0  0
   33.1590   22.4320   25.7710 C   0  0  0  0  0  0  0  0  0  0  0  0
   32.0460   23.1070   24.9860 C   0  0  0  0  0  0  0  0  0  0  0  0
   32.2270   24.2790   24.5810 O   0  0  0  0  0  0  0  0  0  0  0  0
   30.9890   22.4580   24.7690 O   0  0  0  0  0  0  0  0  0  0  0  0
   36.0130   20.4930   26.7180 N   0  0  0  0  0  0  0  0  0  0  0  0
   36.5760   19.3840   25.9490 C   0  0  0  0  0  0  0  0  0  0  0  0
   36.5424   27.7045   38.9829 H   0  0  0  0  0  0  0  0  0  0  0  0
   36.0574   26.0902   39.4433 H   0  0  0  0  0  0  0  0  0  0  0  0
   34.9416   27.4227   39.6242 H   0  0  0  0  0  0  0  0  0  0  0  0
   36.5358   28.0564   36.8464 H   0  0  0  0  0  0  0  0  0  0  0  0
   34.5296   26.6738   35.1779 H   0  0  0  0  0  0  0  0  0  0  0  0
   36.1137   29.1142   34.5468 H   0  0  0  0  0  0  0  0  0  0  0  0
   34.8935   28.2641   33.5087 H   0  0  0  0  0  0  0  0  0  0  0  0
   34.3373   29.8472   35.9630 H   0  0  0  0  0  0  0  0  0  0  0  0
   33.6272   30.2000   33.0573 H   0  0  0  0  0  0  0  0  0  0  0  0
   34.8106   31.1436   33.9303 H   0  0  0  0  0  0  0  0  0  0  0  0
   33.1196   31.2520   34.3567 H   0  0  0  0  0  0  0  0  0  0  0  0
   32.4569   28.3040   34.2444 H   0  0  0  0  0  0  0  0  0  0  0  0
   32.0189   29.3757   35.5532 H   0  0  0  0  0  0  0  0  0  0  0  0
   32.9161   27.9134   35.8844 H   0  0  0  0  0  0  0  0  0  0  0  0
   35.2844   25.6569   33.2110 H   0  0  0  0  0  0  0  0  0  0  0  0
   38.1988   25.3843   33.0517 H   0  0  0  0  0  0  0  0  0  0  0  0
   38.0144   22.9701   32.8304 H   0  0  0  0  0  0  0  0  0  0  0  0
   37.1687   23.4560   34.3014 H   0  0  0  0  0  0  0  0  0  0  0  0
   35.9128   22.8353   31.6710 H   0  0  0  0  0  0  0  0  0  0  0  0
   35.0747   23.3792   33.1202 H   0  0  0  0  0  0  0  0  0  0  0  0
   36.7759   20.9269   33.1699 H   0  0  0  0  0  0  0  0  0  0  0  0
   35.4799   21.3910   34.2525 H   0  0  0  0  0  0  0  0  0  0  0  0
   33.9432   21.2115   32.2329 H   0  0  0  0  0  0  0  0  0  0  0  0
   35.2842   20.3820   31.4463 H   0  0  0  0  0  0  0  0  0  0  0  0
   33.9748   19.5365   33.9245 H   0  0  0  0  0  0  0  0  0  0  0  0
   35.2523   18.7647   33.1850 H   0  0  0  0  0  0  0  0  0  0  0  0
   37.4083   25.6095   28.7239 H   0  0  0  0  0  0  0  0  0  0  0  0
   39.7681   25.4815   28.3182 H   0  0  0  0  0  0  0  0  0  0  0  0
   39.3266   23.9878   27.6158 H   0  0  0  0  0  0  0  0  0  0  0  0
   41.0979   24.0336   29.5932 H   0  0  0  0  0  0  0  0  0  0  0  0
   39.9377   22.7665   29.5864 H   0  0  0  0  0  0  0  0  0  0  0  0
   40.0141   25.2429   31.2515 H   0  0  0  0  0  0  0  0  0  0  0  0
   39.5039   23.6891   31.7358 H   0  0  0  0  0  0  0  0  0  0  0  0
   36.1759   24.6805   27.2584 H   0  0  0  0  0  0  0  0  0  0  0  0
   34.8371   22.2463   27.9712 H   0  0  0  0  0  0  0  0  0  0  0  0
   33.7040   24.1546   26.8835 H   0  0  0  0  0  0  0  0  0  0  0  0
   34.6893   23.8371   25.4380 H   0  0  0  0  0  0  0  0  0  0  0  0
   33.6460   21.7248   25.1325 H   0  0  0  0  0  0  0  0  0  0  0  0
   32.7108   21.9609   26.6208 H   0  0  0  0  0  0  0  0  0  0  0  0
   35.5833   20.2976   27.5820 H   0  0  0  0  0  0  0  0  0  0  0  0
   37.0029   19.7591   25.0424 H   0  0  0  0  0  0  0  0  0  0  0  0
   35.8022   18.6828   25.7154 H   0  0  0  0  0  0  0  0  0  0  0  0
   37.3348   18.8985   26.5264 H   0  0  0  0  0  0  0  0  0  0  0  0
  1 39  1  0  0  0  0
  1 40  1  0  0  0  0
  1 41  1  0  0  0  0
  2  1  1  0  0  0  0
  3  2  2  0  0  0  0
  4  2  1  0  0  0  0
  4 42  1  0  0  0  0
  5  4  1  0  0  0  0
  5 43  1  6  0  0  0
  6  7  2  0  0  0  0
  6  5  1  0  0  0  0
  8  9  1  0  0  0  0
  8  5  1  0  0  0  0
  8 44  1  0  0  0  0
  8 45  1  0  0  0  0
  9 11  1  0  0  0  0
  9 46  1  0  0  0  0
 10  9  1  0  0  0  0
 10 47  1  0  0  0  0
 10 48  1  0  0  0  0
 10 49  1  0  0  0  0
 11 50  1  0  0  0  0
 11 51  1  0  0  0  0
 11 52  1  0  0  0  0
 12  6  1  0  0  0  0
 12 53  1  0  0  0  0
 13 16  1  0  0  0  0
 13 12  1  0  0  0  0
 13 54  1  1  0  0  0
 14 13  1  0  0  0  0
 15 14  2  0  0  0  0
 16 55  1  0  0  0  0
 16 56  1  0  0  0  0
 17 16  1  0  0  0  0
 17 18  1  0  0  0  0
 17 57  1  0  0  0  0
 17 58  1  0  0  0  0
 18 59  1  0  0  0  0
 18 60  1  0  0  0  0
 19 20  1  0  0  0  0
 19 18  1  0  0  0  0
 19 61  1  0  0  0  0
 19 62  1  0  0  0  0
 20 63  1  0  0  0  0
 20 64  1  0  0  0  0
 21 27  1  0  0  0  0
 21 14  1  0  0  0  0
 22 21  1  0  0  0  0
 22 65  1  6  0  0  0
 23 22  1  0  0  0  0
 23 24  2  0  0  0  0
 25 22  1  0  0  0  0
 25 26  1  0  0  0  0
 25 66  1  0  0  0  0
 25 67  1  0  0  0  0
 26 27  1  0  0  0  0
 26 68  1  0  0  0  0
 26 69  1  0  0  0  0
 27 70  1  0  0  0  0
 27 71  1  0  0  0  0
 28 23  1  0  0  0  0
 28 72  1  0  0  0  0
 29 28  1  0  0  0  0
 29 73  1  1  0  0  0
 30 37  1  0  0  0  0
 30 29  1  0  0  0  0
 31 30  2  0  0  0  0
 32 29  1  0  0  0  0
 32 74  1  0  0  0  0
 32 75  1  0  0  0  0
 33 32  1  0  0  0  0
 33 76  1  0  0  0  0
 33 77  1  0  0  0  0
 34 33  1  0  0  0  0
 35 34  2  0  0  0  0
 36 34  1  0  0  0  0
 37 78  1  0  0  0  0
 38 37  1  0  0  0  0
 38 79  1  0  0  0  0
 38 80  1  0  0  0  0
 38 81  1  0  0  0  0
M  CHG  1  36  -1
M  END
>  <MODEL>
       0

$$$$
selected_4mers/LKPE/366_noH.pdb
 OpenBabel03042517593D

 81 81  0  0  1  0  0  0  0  0999 V2000
    0.6660    9.0640    6.8570 C   0  0  0  0  0  0  0  0  0  0  0  0
    2.1240    9.3270    6.4250 C   0  0  0  0  0  0  0  0  0  0  0  0
    3.0350    9.2370    7.2320 O   0  0  0  0  0  0  0  0  0  0  0  0
    2.3320    9.6650    5.1440 N   0  0  0  0  0  0  0  0  0  0  0  0
    3.7060    9.8420    4.6110 C   0  0  2  0  0  0  0  0  0  0  0  0
    4.3460   11.1200    5.1260 C   0  0  0  0  0  0  0  0  0  0  0  0
    3.9620   12.2100    4.7020 O   0  0  0  0  0  0  0  0  0  0  0  0
    3.7200    9.8730    3.0840 C   0  0  0  0  0  0  0  0  0  0  0  0
    5.0540   10.2790    2.4660 C   0  0  0  0  0  0  0  0  0  0  0  0
    6.1060    9.2020    2.6820 C   0  0  0  0  0  0  0  0  0  0  0  0
    4.8740   10.5530    0.9960 C   0  0  0  0  0  0  0  0  0  0  0  0
    5.3620   10.9560    5.9810 N   0  0  0  0  0  0  0  0  0  0  0  0
    6.0390   12.0420    6.6880 C   0  0  2  0  0  0  0  0  0  0  0  0
    7.5020   12.1390    6.2390 C   0  0  0  0  0  0  0  0  0  0  0  0
    8.0910   11.1430    5.8310 O   0  0  0  0  0  0  0  0  0  0  0  0
    6.0160   11.7690    8.2180 C   0  0  0  0  0  0  0  0  0  0  0  0
    4.6240   11.6470    8.8270 C   0  0  0  0  0  0  0  0  0  0  0  0
    4.5520   11.9020   10.3550 C   0  0  0  0  0  0  0  0  0  0  0  0
    3.0810   11.8320   10.8590 C   0  0  0  0  0  0  0  0  0  0  0  0
    2.7860   12.3900   12.2380 N   0  0  0  0  0  0  0  0  0  0  0  0
    8.1170   13.3310    6.3690 N   0  0  0  0  0  0  0  0  0  0  0  0
    9.5300   13.4760    6.0180 C   0  0  2  0  0  0  0  0  0  0  0  0
   10.4490   12.4550    6.7080 C   0  0  0  0  0  0  0  0  0  0  0  0
   11.3690   11.9110    6.0660 O   0  0  0  0  0  0  0  0  0  0  0  0
    9.8570   14.9080    6.4760 C   0  0  0  0  0  0  0  0  0  0  0  0
    8.5750   15.6350    6.4690 C   0  0  0  0  0  0  0  0  0  0  0  0
    7.5280   14.6020    6.8410 C   0  0  0  0  0  0  0  0  0  0  0  0
   10.1630   12.1630    7.9840 N   0  0  0  0  0  0  0  0  0  0  0  0
   10.9220   11.1830    8.7840 C   0  0  2  0  0  0  0  0  0  0  0  0
   10.9180    9.7420    8.2270 C   0  0  0  0  0  0  0  0  0  0  0  0
   11.7700    8.9250    8.6020 O   0  0  0  0  0  0  0  0  0  0  0  0
   10.3880   11.1470   10.2260 C   0  0  0  0  0  0  0  0  0  0  0  0
   10.6630   12.3960   11.0290 C   0  0  0  0  0  0  0  0  0  0  0  0
    9.7420   13.5700   10.6970 C   0  0  0  0  0  0  0  0  0  0  0  0
    8.6290   13.3510   10.1370 O   0  0  0  0  0  0  0  0  0  0  0  0
   10.1620   14.7210   11.0050 O   0  0  0  0  0  0  0  0  0  0  0  0
    9.9530    9.4330    7.3670 N   0  0  0  0  0  0  0  0  0  0  0  0
    9.8090    8.0840    6.7730 C   0  0  0  0  0  0  0  0  0  0  0  0
    0.0165    9.1909    6.0162 H   0  0  0  0  0  0  0  0  0  0  0  0
    0.3920    9.7548    7.6268 H   0  0  0  0  0  0  0  0  0  0  0  0
    0.5786    8.0640    7.2275 H   0  0  0  0  0  0  0  0  0  0  0  0
    1.5605    9.7980    4.5471 H   0  0  0  0  0  0  0  0  0  0  0  0
    4.2686    8.9988    4.9537 H   0  0  0  0  0  0  0  0  0  0  0  0
    3.4723    8.8946    2.7287 H   0  0  0  0  0  0  0  0  0  0  0  0
    3.0119   10.6197    2.7908 H   0  0  0  0  0  0  0  0  0  0  0  0
    5.3945   11.1711    2.9488 H   0  0  0  0  0  0  0  0  0  0  0  0
    5.7910    8.2957    2.2084 H   0  0  0  0  0  0  0  0  0  0  0  0
    6.2317    9.0314    3.7308 H   0  0  0  0  0  0  0  0  0  0  0  0
    7.0354    9.5213    2.2587 H   0  0  0  0  0  0  0  0  0  0  0  0
    4.5334    9.6645    0.5067 H   0  0  0  0  0  0  0  0  0  0  0  0
    5.8085   10.8573    0.5729 H   0  0  0  0  0  0  0  0  0  0  0  0
    4.1523   11.3319    0.8641 H   0  0  0  0  0  0  0  0  0  0  0  0
    5.6764   10.0378    6.1460 H   0  0  0  0  0  0  0  0  0  0  0  0
    5.5298   12.9564    6.4656 H   0  0  0  0  0  0  0  0  0  0  0  0
    6.5234   12.5742    8.7070 H   0  0  0  0  0  0  0  0  0  0  0  0
    6.4904   10.8206    8.3609 H   0  0  0  0  0  0  0  0  0  0  0  0
    4.2649   10.6568    8.6385 H   0  0  0  0  0  0  0  0  0  0  0  0
    4.0293   12.4092    8.3685 H   0  0  0  0  0  0  0  0  0  0  0  0
    4.9498   12.8723   10.5677 H   0  0  0  0  0  0  0  0  0  0  0  0
    5.1221   11.1475   10.8556 H   0  0  0  0  0  0  0  0  0  0  0  0
    2.7918   10.8018   10.8615 H   0  0  0  0  0  0  0  0  0  0  0  0
    2.5328   12.4597   10.1879 H   0  0  0  0  0  0  0  0  0  0  0  0
    3.2787   11.8385   12.9405 H   0  0  0  0  0  0  0  0  0  0  0  0
    1.7823   12.3471   12.4146 H   0  0  0  0  0  0  0  0  0  0  0  0
    9.6942   13.2991    4.9756 H   0  0  0  0  0  0  0  0  0  0  0  0
   10.5488   15.3663    5.8005 H   0  0  0  0  0  0  0  0  0  0  0  0
   10.3096   14.9175    7.4455 H   0  0  0  0  0  0  0  0  0  0  0  0
    8.3769   16.0364    5.4971 H   0  0  0  0  0  0  0  0  0  0  0  0
    8.5806   16.4608    7.1494 H   0  0  0  0  0  0  0  0  0  0  0  0
    7.3700   14.5810    7.8991 H   0  0  0  0  0  0  0  0  0  0  0  0
    6.5702   14.8041    6.4090 H   0  0  0  0  0  0  0  0  0  0  0  0
    9.4064   12.6269    8.4102 H   0  0  0  0  0  0  0  0  0  0  0  0
   11.9350   11.5251    8.7433 H   0  0  0  0  0  0  0  0  0  0  0  0
   10.8424   10.3195   10.7297 H   0  0  0  0  0  0  0  0  0  0  0  0
    9.3239   11.0610   10.1535 H   0  0  0  0  0  0  0  0  0  0  0  0
   11.6724   12.6986   10.8436 H   0  0  0  0  0  0  0  0  0  0  0  0
   10.4864   12.1472   12.0546 H   0  0  0  0  0  0  0  0  0  0  0  0
    9.3062   10.1307    7.1140 H   0  0  0  0  0  0  0  0  0  0  0  0
   10.5826    7.4457    7.1458 H   0  0  0  0  0  0  0  0  0  0  0  0
    9.8859    8.1532    5.7080 H   0  0  0  0  0  0  0  0  0  0  0  0
    8.8544    7.6785    7.0360 H   0  0  0  0  0  0  0  0  0  0  0  0
  1 39  1  0  0  0  0
  1 40  1  0  0  0  0
  1 41  1  0  0  0  0
  2  1  1  0  0  0  0
  2  3  2  0  0  0  0
  4  2  1  0  0  0  0
  4 42  1  0  0  0  0
  5  6  1  0  0  0  0
  5  4  1  0  0  0  0
  5 43  1  1  0  0  0
  6 12  1  0  0  0  0
  7  6  2  0  0  0  0
  8  5  1  0  0  0  0
  8 44  1  0  0  0  0
  8 45  1  0  0  0  0
  9 10  1  0  0  0  0
  9  8  1  0  0  0  0
  9 46  1  0  0  0  0
 10 47  1  0  0  0  0
 10 48  1  0  0  0  0
 10 49  1  0  0  0  0
 11  9  1  0  0  0  0
 11 50  1  0  0  0  0
 11 51  1  0  0  0  0
 11 52  1  0  0  0  0
 12 13  1  0  0  0  0
 12 53  1  0  0  0  0
 13 16  1  0  0  0  0
 13 54  1  6  0  0  0
 14 21  1  0  0  0  0
 14 13  1  0  0  0  0
 15 14  2  0  0  0  0
 16 17  1  0  0  0  0
 16 55  1  0  0  0  0
 16 56  1  0  0  0  0
 17 18  1  0  0  0  0
 17 57  1  0  0  0  0
 17 58  1  0  0  0  0
 18 19  1  0  0  0  0
 18 59  1  0  0  0  0
 18 60  1  0  0  0  0
 19 20  1  0  0  0  0
 19 61  1  0  0  0  0
 19 62  1  0  0  0  0
 20 63  1  0  0  0  0
 20 64  1  0  0  0  0
 21 27  1  0  0  0  0
 22 21  1  0  0  0  0
 22 25  1  0  0  0  0
 22 23  1  0  0  0  0
 22 65  1  6  0  0  0
 23 28  1  0  0  0  0
 24 23  2  0  0  0  0
 25 66  1  0  0  0  0
 25 67  1  0  0  0  0
 26 25  1  0  0  0  0
 26 27  1  0  0  0  0
 26 68  1  0  0  0  0
 26 69  1  0  0  0  0
 27 70  1  0  0  0  0
 27 71  1  0  0  0  0
 28 29  1  0  0  0  0
 28 72  1  0  0  0  0
 29 32  1  0  0  0  0
 29 73  1  1  0  0  0
 30 31  2  0  0  0  0
 30 29  1  0  0  0  0
 32 33  1  0  0  0  0
 32 74  1  0  0  0  0
 32 75  1  0  0  0  0
 33 76  1  0  0  0  0
 33 77  1  0  0  0  0
 34 36  1  0  0  0  0
 34 33  1  0  0  0  0
 35 34  2  0  0  0  0
 37 30  1  0  0  0  0
 37 78  1  0  0  0  0
 38 37  1  0  0  0  0
 38 79  1  0  0  0  0
 38 80  1  0  0  0  0
 38 81  1  0  0  0  0
M  CHG  1  36  -1
M  END
>  <MODEL>
       0

$$$$
selected_4mers/LKPE/367_noH.pdb
 OpenBabel03042517593D

 81 81  0  0  1  0  0  0  0  0999 V2000
   61.4040   15.2520   32.9720 C   0  0  0  0  0  0  0  0  0  0  0  0
   61.7450   14.0150   32.1680 C   0  0  0  0  0  0  0  0  0  0  0  0
   61.6460   12.8520   32.6500 O   0  0  0  0  0  0  0  0  0  0  0  0
   62.1380   14.1850   30.9440 N   0  0  0  0  0  0  0  0  0  0  0  0
   62.2800   13.0700   30.0300 C   0  0  2  0  0  0  0  0  0  0  0  0
   63.2560   12.0560   30.5720 C   0  0  0  0  0  0  0  0  0  0  0  0
   64.3310   12.4380   31.0620 O   0  0  0  0  0  0  0  0  0  0  0  0
   62.7920   13.6090   28.6980 C   0  0  0  0  0  0  0  0  0  0  0  0
   61.7900   14.3920   27.8960 C   0  0  0  0  0  0  0  0  0  0  0  0
   62.4960   15.3330   26.9290 C   0  0  0  0  0  0  0  0  0  0  0  0
   60.8190   13.4660   27.1780 C   0  0  0  0  0  0  0  0  0  0  0  0
   62.9320   10.7710   30.5130 N   0  0  0  0  0  0  0  0  0  0  0  0
   63.8460    9.6820   30.8490 C   0  0  2  0  0  0  0  0  0  0  0  0
   64.2760    8.9830   29.5770 C   0  0  0  0  0  0  0  0  0  0  0  0
   63.5370    8.9580   28.5810 O   0  0  0  0  0  0  0  0  0  0  0  0
   63.1750    8.6580   31.7520 C   0  0  0  0  0  0  0  0  0  0  0  0
   62.7680    9.1660   33.1220 C   0  0  0  0  0  0  0  0  0  0  0  0
   62.2490    8.0270   33.9830 C   0  0  0  0  0  0  0  0  0  0  0  0
   62.0520    8.4510   35.4310 C   0  0  0  0  0  0  0  0  0  0  0  0
   61.5170    7.3420   36.2730 N   0  0  0  0  0  0  0  0  0  0  0  0
   65.4340    8.3290   29.6030 N   0  0  0  0  0  0  0  0  0  0  0  0
   65.8490    7.5050   28.4530 C   0  0  2  0  0  0  0  0  0  0  0  0
   64.7800    6.5040   28.0110 C   0  0  0  0  0  0  0  0  0  0  0  0
   64.5660    6.2960   26.8020 O   0  0  0  0  0  0  0  0  0  0  0  0
   67.0980    6.7750   28.9880 C   0  0  0  0  0  0  0  0  0  0  0  0
   67.6480    7.7160   29.9880 C   0  0  0  0  0  0  0  0  0  0  0  0
   66.4500    8.3320   30.6840 C   0  0  0  0  0  0  0  0  0  0  0  0
   64.0450    5.9050   28.9180 N   0  0  0  0  0  0  0  0  0  0  0  0
   63.0280    4.9270   28.5990 C   0  0  2  0  0  0  0  0  0  0  0  0
   61.8390    5.5410   27.8600 C   0  0  0  0  0  0  0  0  0  0  0  0
   60.9870    4.7900   27.3570 O   0  0  0  0  0  0  0  0  0  0  0  0
   62.5390    4.2500   29.8690 C   0  0  0  0  0  0  0  0  0  0  0  0
   61.6950    5.1560   30.7510 C   0  0  0  0  0  0  0  0  0  0  0  0
   61.5330    4.5890   32.1350 C   0  0  0  0  0  0  0  0  0  0  0  0
   62.5510    4.4660   32.8480 O   0  0  0  0  0  0  0  0  0  0  0  0
   60.4030    4.2370   32.5080 O   0  0  0  0  0  0  0  0  0  0  0  0
   61.7520    6.8660   27.7510 N   0  0  0  0  0  0  0  0  0  0  0  0
   60.6620    7.5350   27.0470 C   0  0  0  0  0  0  0  0  0  0  0  0
   61.5598   16.1228   32.3701 H   0  0  0  0  0  0  0  0  0  0  0  0
   62.0319   15.2994   33.8371 H   0  0  0  0  0  0  0  0  0  0  0  0
   60.3793   15.2079   33.2770 H   0  0  0  0  0  0  0  0  0  0  0  0
   62.3450   15.0942   30.6281 H   0  0  0  0  0  0  0  0  0  0  0  0
   61.3331   12.5877   29.9047 H   0  0  0  0  0  0  0  0  0  0  0  0
   63.6270   14.2474   28.8983 H   0  0  0  0  0  0  0  0  0  0  0  0
   63.0406   12.7523   28.1071 H   0  0  0  0  0  0  0  0  0  0  0  0
   61.2129   14.9918   28.5685 H   0  0  0  0  0  0  0  0  0  0  0  0
   63.0836   14.7621   26.2408 H   0  0  0  0  0  0  0  0  0  0  0  0
   63.1325   15.9959   27.4771 H   0  0  0  0  0  0  0  0  0  0  0  0
   61.7680   15.9022   26.3897 H   0  0  0  0  0  0  0  0  0  0  0  0
   61.3582   12.8459   26.4926 H   0  0  0  0  0  0  0  0  0  0  0  0
   60.1003   14.0495   26.6415 H   0  0  0  0  0  0  0  0  0  0  0  0
   60.3159   12.8515   27.8950 H   0  0  0  0  0  0  0  0  0  0  0  0
   62.0200   10.5369   30.2253 H   0  0  0  0  0  0  0  0  0  0  0  0
   64.6870   10.1005   31.3613 H   0  0  0  0  0  0  0  0  0  0  0  0
   63.8555    7.8440   31.8906 H   0  0  0  0  0  0  0  0  0  0  0  0
   62.2669    8.3803   31.2589 H   0  0  0  0  0  0  0  0  0  0  0  0
   61.9984    9.9009   33.0100 H   0  0  0  0  0  0  0  0  0  0  0  0
   63.6242    9.5958   33.5986 H   0  0  0  0  0  0  0  0  0  0  0  0
   62.9529    7.2217   33.9516 H   0  0  0  0  0  0  0  0  0  0  0  0
   61.2986    7.7257   33.5946 H   0  0  0  0  0  0  0  0  0  0  0  0
   61.3633    9.2694   35.4602 H   0  0  0  0  0  0  0  0  0  0  0  0
   63.0064    8.7323   35.8245 H   0  0  0  0  0  0  0  0  0  0  0  0
   60.6051    7.0548   35.9176 H   0  0  0  0  0  0  0  0  0  0  0  0
   61.4208    7.6626   37.2365 H   0  0  0  0  0  0  0  0  0  0  0  0
   66.0267    8.0976   27.5800 H   0  0  0  0  0  0  0  0  0  0  0  0
   67.8025    6.5972   28.2025 H   0  0  0  0  0  0  0  0  0  0  0  0
   66.8733    5.8137   29.4006 H   0  0  0  0  0  0  0  0  0  0  0  0
   68.2283    8.4744   29.5053 H   0  0  0  0  0  0  0  0  0  0  0  0
   68.2920    7.2182   30.6825 H   0  0  0  0  0  0  0  0  0  0  0  0
   66.1350    7.7375   31.5160 H   0  0  0  0  0  0  0  0  0  0  0  0
   66.6402    9.3009   31.0963 H   0  0  0  0  0  0  0  0  0  0  0  0
   64.1933    6.1329   29.8642 H   0  0  0  0  0  0  0  0  0  0  0  0
   63.4790    4.2078   27.9477 H   0  0  0  0  0  0  0  0  0  0  0  0
   63.3907    3.9277   30.4308 H   0  0  0  0  0  0  0  0  0  0  0  0
   61.9172    3.4318   29.5709 H   0  0  0  0  0  0  0  0  0  0  0  0
   60.7280    5.2696   30.3071 H   0  0  0  0  0  0  0  0  0  0  0  0
   62.1919    6.1001   30.8327 H   0  0  0  0  0  0  0  0  0  0  0  0
   62.4543    7.4188   28.1638 H   0  0  0  0  0  0  0  0  0  0  0  0
   59.9860    6.8025   26.6580 H   0  0  0  0  0  0  0  0  0  0  0  0
   61.0609    8.1156   26.2416 H   0  0  0  0  0  0  0  0  0  0  0  0
   60.1403    8.1772   27.7254 H   0  0  0  0  0  0  0  0  0  0  0  0
  1 39  1  0  0  0  0
  1 40  1  0  0  0  0
  1 41  1  0  0  0  0
  2  3  2  0  0  0  0
  2  1  1  0  0  0  0
  4  2  1  0  0  0  0
  4 42  1  0  0  0  0
  5  6  1  0  0  0  0
  5  4  1  0  0  0  0
  5 43  1  6  0  0  0
  6  7  2  0  0  0  0
  8  5  1  0  0  0  0
  8 44  1  0  0  0  0
  8 45  1  0  0  0  0
  9  8  1  0  0  0  0
  9 46  1  0  0  0  0
 10  9  1  0  0  0  0
 10 47  1  0  0  0  0
 10 48  1  0  0  0  0
 10 49  1  0  0  0  0
 11  9  1  0  0  0  0
 11 50  1  0  0  0  0
 11 51  1  0  0  0  0
 11 52  1  0  0  0  0
 12  6  1  0  0  0  0
 12 13  1  0  0  0  0
 12 53  1  0  0  0  0
 13 16  1  0  0  0  0
 13 54  1  1  0  0  0
 14 21  1  0  0  0  0
 14 13  1  0  0  0  0
 15 14  2  0  0  0  0
 16 17  1  0  0  0  0
 16 55  1  0  0  0  0
 16 56  1  0  0  0  0
 17 18  1  0  0  0  0
 17 57  1  0  0  0  0
 17 58  1  0  0  0  0
 18 19  1  0  0  0  0
 18 59  1  0  0  0  0
 18 60  1  0  0  0  0
 19 20  1  0  0  0  0
 19 61  1  0  0  0  0
 19 62  1  0  0  0  0
 20 63  1  0  0  0  0
 20 64  1  0  0  0  0
 21 27  1  0  0  0  0
 22 25  1  0  0  0  0
 22 21  1  0  0  0  0
 22 65  1  6  0  0  0
 23 22  1  0  0  0  0
 23 28  1  0  0  0  0
 24 23  2  0  0  0  0
 25 26  1  0  0  0  0
 25 66  1  0  0  0  0
 25 67  1  0  0  0  0
 26 27  1  0  0  0  0
 26 68  1  0  0  0  0
 26 69  1  0  0  0  0
 27 70  1  0  0  0  0
 27 71  1  0  0  0  0
 28 72  1  0  0  0  0
 29 28  1  0  0  0  0
 29 32  1  0  0  0  0
 29 73  1  6  0  0  0
 30 29  1  0  0  0  0
 31 30  2  0  0  0  0
 32 33  1  0  0  0  0
 32 74  1  0  0  0  0
 32 75  1  0  0  0  0
 33 34  1  0  0  0  0
 33 76  1  0  0  0  0
 33 77  1  0  0  0  0
 34 36  2  0  0  0  0
 34 35  1  0  0  0  0
 37 30  1  0  0  0  0
 37 78  1  0  0  0  0
 38 37  1  0  0  0  0
 38 79  1  0  0  0  0
 38 80  1  0  0  0  0
 38 81  1  0  0  0  0
M  CHG  1  35  -1
M  END
>  <MODEL>
       0

$$$$
selected_4mers/LKPE/368_noH.pdb
 OpenBabel03042517593D

 81 81  0  0  1  0  0  0  0  0999 V2000
   12.1880   14.7580   63.1970 C   0  0  0  0  0  0  0  0  0  0  0  0
   11.1990   13.7350   63.6980 C   0  0  0  0  0  0  0  0  0  0  0  0
   10.9980   12.7000   63.0740 O   0  0  0  0  0  0  0  0  0  0  0  0
   10.5600   14.0090   64.8220 N   0  0  0  0  0  0  0  0  0  0  0  0
    9.3800   13.2260   65.2010 C   0  0  2  0  0  0  0  0  0  0  0  0
    8.2150   13.4770   64.2380 C   0  0  0  0  0  0  0  0  0  0  0  0
    7.9110   14.6170   63.8560 O   0  0  0  0  0  0  0  0  0  0  0  0
    8.9270   13.5390   66.6260 C   0  0  0  0  0  0  0  0  0  0  0  0
    9.6730   12.7610   67.6940 C   0  0  0  0  0  0  0  0  0  0  0  0
    9.6410   13.4540   69.0450 C   0  0  0  0  0  0  0  0  0  0  0  0
    9.1040   11.3340   67.8250 C   0  0  0  0  0  0  0  0  0  0  0  0
    7.6020   12.3900   63.7910 N   0  0  0  0  0  0  0  0  0  0  0  0
    6.4530   12.4610   62.9060 C   0  0  2  0  0  0  0  0  0  0  0  0
    5.2090   13.0760   63.6030 C   0  0  0  0  0  0  0  0  0  0  0  0
    4.6600   14.0470   63.0920 O   0  0  0  0  0  0  0  0  0  0  0  0
    6.1440   11.0730   62.3370 C   0  0  0  0  0  0  0  0  0  0  0  0
    7.1150   10.6370   61.2560 C   0  0  0  0  0  0  0  0  0  0  0  0
    6.7760    9.2500   60.7290 C   0  0  0  0  0  0  0  0  0  0  0  0
    7.9240    8.6330   59.9480 C   0  0  0  0  0  0  0  0  0  0  0  0
    8.0200    9.1360   58.5740 N   0  0  0  0  0  0  0  0  0  0  0  0
    4.8000   12.5570   64.7600 N   0  0  0  0  0  0  0  0  0  0  0  0
    3.6290   13.1260   65.4470 C   0  0  2  0  0  0  0  0  0  0  0  0
    3.9690   14.4720   66.0460 C   0  0  0  0  0  0  0  0  0  0  0  0
    5.0790   14.6570   66.5600 O   0  0  0  0  0  0  0  0  0  0  0  0
    3.3500   12.1300   66.5640 C   0  0  0  0  0  0  0  0  0  0  0  0
    4.6560   11.4690   66.8440 C   0  0  0  0  0  0  0  0  0  0  0  0
    5.3750   11.4530   65.5360 C   0  0  0  0  0  0  0  0  0  0  0  0
    3.0300   15.4020   65.9660 N   0  0  0  0  0  0  0  0  0  0  0  0
    3.1250   16.6540   66.7130 C   0  0  2  0  0  0  0  0  0  0  0  0
    2.8370   16.3760   68.1800 C   0  0  0  0  0  0  0  0  0  0  0  0
    2.0320   15.5060   68.5110 O   0  0  0  0  0  0  0  0  0  0  0  0
    2.1420   17.6830   66.1380 C   0  0  0  0  0  0  0  0  0  0  0  0
    2.5230   18.1000   64.7320 C   0  0  0  0  0  0  0  0  0  0  0  0
    1.6890   19.2370   64.1830 C   0  0  0  0  0  0  0  0  0  0  0  0
    0.5060   19.3790   64.5750 O   0  0  0  0  0  0  0  0  0  0  0  0
    2.2240   19.9780   63.3280 O   0  0  0  0  0  0  0  0  0  0  0  0
    3.5340   17.0920   69.0620 N   0  0  0  0  0  0  0  0  0  0  0  0
    3.3650   16.9560   70.5090 C   0  0  0  0  0  0  0  0  0  0  0  0
   12.6292   14.4112   62.2860 H   0  0  0  0  0  0  0  0  0  0  0  0
   12.9529   14.9039   63.9309 H   0  0  0  0  0  0  0  0  0  0  0  0
   11.6834   15.6845   63.0188 H   0  0  0  0  0  0  0  0  0  0  0  0
   10.8759   14.7377   65.4038 H   0  0  0  0  0  0  0  0  0  0  0  0
    9.6673   12.1966   65.1488 H   0  0  0  0  0  0  0  0  0  0  0  0
    7.8854   13.3078   66.7067 H   0  0  0  0  0  0  0  0  0  0  0  0
    9.1326   14.5751   66.7964 H   0  0  0  0  0  0  0  0  0  0  0  0
   10.6947   12.7106   67.3803 H   0  0  0  0  0  0  0  0  0  0  0  0
    8.6296   13.5206   69.3878 H   0  0  0  0  0  0  0  0  0  0  0  0
   10.0512   14.4378   68.9510 H   0  0  0  0  0  0  0  0  0  0  0  0
   10.2196   12.8919   69.7480 H   0  0  0  0  0  0  0  0  0  0  0  0
    8.0823   11.3848   68.1387 H   0  0  0  0  0  0  0  0  0  0  0  0
    9.6726   10.7884   68.5488 H   0  0  0  0  0  0  0  0  0  0  0  0
    9.1623   10.8385   66.8784 H   0  0  0  0  0  0  0  0  0  0  0  0
    7.9364   11.5064   64.0679 H   0  0  0  0  0  0  0  0  0  0  0  0
    6.7016   13.1180   62.0989 H   0  0  0  0  0  0  0  0  0  0  0  0
    6.1836   10.3621   63.1357 H   0  0  0  0  0  0  0  0  0  0  0  0
    5.1735   11.1233   61.8893 H   0  0  0  0  0  0  0  0  0  0  0  0
    7.0722   11.3364   60.4473 H   0  0  0  0  0  0  0  0  0  0  0  0
    8.0970   10.6047   61.6796 H   0  0  0  0  0  0  0  0  0  0  0  0
    6.5430    8.6146   61.5577 H   0  0  0  0  0  0  0  0  0  0  0  0
    5.9430    9.3471   60.0644 H   0  0  0  0  0  0  0  0  0  0  0  0
    8.8393    8.8537   60.4563 H   0  0  0  0  0  0  0  0  0  0  0  0
    7.7418    7.5802   59.8907 H   0  0  0  0  0  0  0  0  0  0  0  0
    8.1941   10.1409   58.5912 H   0  0  0  0  0  0  0  0  0  0  0  0
    7.1458    8.9508   58.0823 H   0  0  0  0  0  0  0  0  0  0  0  0
    2.7985   13.2754   64.7890 H   0  0  0  0  0  0  0  0  0  0  0  0
    2.6256   11.4082   66.2490 H   0  0  0  0  0  0  0  0  0  0  0  0
    2.9538   12.6104   67.4341 H   0  0  0  0  0  0  0  0  0  0  0  0
    5.2104   12.0260   67.5701 H   0  0  0  0  0  0  0  0  0  0  0  0
    4.5284   10.4841   67.2423 H   0  0  0  0  0  0  0  0  0  0  0  0
    6.4237   11.6060   65.6837 H   0  0  0  0  0  0  0  0  0  0  0  0
    5.2649   10.5147   65.0336 H   0  0  0  0  0  0  0  0  0  0  0  0
    2.2480   15.2459   65.3886 H   0  0  0  0  0  0  0  0  0  0  0  0
    4.1108   17.0609   66.6262 H   0  0  0  0  0  0  0  0  0  0  0  0
    1.1624   17.2529   66.1183 H   0  0  0  0  0  0  0  0  0  0  0  0
    2.1677   18.5523   66.7614 H   0  0  0  0  0  0  0  0  0  0  0  0
    3.5482   18.4062   64.7375 H   0  0  0  0  0  0  0  0  0  0  0  0
    2.3504   17.2544   64.0995 H   0  0  0  0  0  0  0  0  0  0  0  0
    4.1923   17.7417   68.7247 H   0  0  0  0  0  0  0  0  0  0  0  0
    2.6195   16.2161   70.7130 H   0  0  0  0  0  0  0  0  0  0  0  0
    3.0587   17.8943   70.9221 H   0  0  0  0  0  0  0  0  0  0  0  0
    4.2932   16.6581   70.9501 H   0  0  0  0  0  0  0  0  0  0  0  0
  1  2  1  0  0  0  0
  1 39  1  0  0  0  0
  1 40  1  0  0  0  0
  1 41  1  0  0  0  0
  2  4  1  0  0  0  0
  3  2  2  0  0  0  0
  4  5  1  0  0  0  0
  4 42  1  0  0  0  0
  5  8  1  0  0  0  0
  5 43  1  6  0  0  0
  6  5  1  0  0  0  0
  7  6  2  0  0  0  0
  8  9  1  0  0  0  0
  8 44  1  0  0  0  0
  8 45  1  0  0  0  0
  9 11  1  0  0  0  0
  9 10  1  0  0  0  0
  9 46  1  0  0  0  0
 10 47  1  0  0  0  0
 10 48  1  0  0  0  0
 10 49  1  0  0  0  0
 11 50  1  0  0  0  0
 11 51  1  0  0  0  0
 11 52  1  0  0  0  0
 12  6  1  0  0  0  0
 12 53  1  0  0  0  0
 13 14  1  0  0  0  0
 13 12  1  0  0  0  0
 13 54  1  6  0  0  0
 14 21  1  0  0  0  0
 15 14  2  0  0  0  0
 16 13  1  0  0  0  0
 16 55  1  0  0  0  0
 16 56  1  0  0  0  0
 17 16  1  0  0  0  0
 17 57  1  0  0  0  0
 17 58  1  0  0  0  0
 18 17  1  0  0  0  0
 18 59  1  0  0  0  0
 18 60  1  0  0  0  0
 19 18  1  0  0  0  0
 19 61  1  0  0  0  0
 19 62  1  0  0  0  0
 20 19  1  0  0  0  0
 20 63  1  0  0  0  0
 20 64  1  0  0  0  0
 21 22  1  0  0  0  0
 21 27  1  0  0  0  0
 22 23  1  0  0  0  0
 22 25  1  0  0  0  0
 22 65  1  6  0  0  0
 23 24  2  0  0  0  0
 25 26  1  0  0  0  0
 25 66  1  0  0  0  0
 25 67  1  0  0  0  0
 26 68  1  0  0  0  0
 26 69  1  0  0  0  0
 27 26  1  0  0  0  0
 27 70  1  0  0  0  0
 27 71  1  0  0  0  0
 28 23  1  0  0  0  0
 28 29  1  0  0  0  0
 28 72  1  0  0  0  0
 29 30  1  0  0  0  0
 29 73  1  6  0  0  0
 30 31  2  0  0  0  0
 30 37  1  0  0  0  0
 32 29  1  0  0  0  0
 32 74  1  0  0  0  0
 32 75  1  0  0  0  0
 33 32  1  0  0  0  0
 33 76  1  0  0  0  0
 33 77  1  0  0  0  0
 34 35  1  0  0  0  0
 34 33  1  0  0  0  0
 36 34  2  0  0  0  0
 37 38  1  0  0  0  0
 37 78  1  0  0  0  0
 38 79  1  0  0  0  0
 38 80  1  0  0  0  0
 38 81  1  0  0  0  0
M  CHG  1  35  -1
M  END
>  <MODEL>
       0

$$$$
selected_4mers/LKPE/369_noH.pdb
 OpenBabel03042517593D

 81 81  0  0  1  0  0  0  0  0999 V2000
  -49.8730   17.1230    7.3870 C   0  0  0  0  0  0  0  0  0  0  0  0
  -50.6130   15.8500    7.7970 C   0  0  0  0  0  0  0  0  0  0  0  0
  -51.6260   15.9150    8.5000 O   0  0  0  0  0  0  0  0  0  0  0  0
  -50.1330   14.6900    7.3420 N   0  0  0  0  0  0  0  0  0  0  0  0
  -50.8370   13.4310    7.5740 C   0  0  2  0  0  0  0  0  0  0  0  0
  -50.7680   12.9980    9.0340 C   0  0  0  0  0  0  0  0  0  0  0  0
  -49.7340   13.1500    9.7010 O   0  0  0  0  0  0  0  0  0  0  0  0
  -50.2600   12.3320    6.6900 C   0  0  0  0  0  0  0  0  0  0  0  0
  -50.4350   12.5890    5.1990 C   0  0  0  0  0  0  0  0  0  0  0  0
  -49.6700   11.5040    4.4640 C   0  0  0  0  0  0  0  0  0  0  0  0
  -51.9040   12.5720    4.8230 C   0  0  0  0  0  0  0  0  0  0  0  0
  -51.8620   12.4150    9.4910 N   0  0  0  0  0  0  0  0  0  0  0  0
  -51.8790   11.7270   10.7700 C   0  0  2  0  0  0  0  0  0  0  0  0
  -51.3000   10.3230   10.6000 C   0  0  0  0  0  0  0  0  0  0  0  0
  -51.3080    9.7710    9.4970 O   0  0  0  0  0  0  0  0  0  0  0  0
  -53.3080   11.6240   11.2610 C   0  0  0  0  0  0  0  0  0  0  0  0
  -53.9190   12.9830   11.5730 C   0  0  0  0  0  0  0  0  0  0  0  0
  -55.2770   12.8600   12.2320 C   0  0  0  0  0  0  0  0  0  0  0  0
  -56.3490   12.4730   11.2570 C   0  0  0  0  0  0  0  0  0  0  0  0
  -57.6940   12.7110   11.8570 N   0  0  0  0  0  0  0  0  0  0  0  0
  -50.8450    9.7050   11.6930 N   0  0  0  0  0  0  0  0  0  0  0  0
  -50.3010    8.3410   11.5690 C   0  0  2  0  0  0  0  0  0  0  0  0
  -51.2890    7.3330   10.9790 C   0  0  0  0  0  0  0  0  0  0  0  0
  -50.8530    6.3920   10.2960 O   0  0  0  0  0  0  0  0  0  0  0  0
  -49.8930    8.0000   13.0050 C   0  0  0  0  0  0  0  0  0  0  0  0
  -49.5160    9.3850   13.5950 C   0  0  0  0  0  0  0  0  0  0  0  0
  -50.6050   10.2830   13.0330 C   0  0  0  0  0  0  0  0  0  0  0  0
  -52.5920    7.5030   11.2130 N   0  0  0  0  0  0  0  0  0  0  0  0
  -53.5490    6.5390   10.6940 C   0  0  2  0  0  0  0  0  0  0  0  0
  -53.7970    6.7050    9.1960 C   0  0  0  0  0  0  0  0  0  0  0  0
  -54.4340    5.8640    8.5720 O   0  0  0  0  0  0  0  0  0  0  0  0
  -54.8810    6.6830   11.4330 C   0  0  0  0  0  0  0  0  0  0  0  0
  -55.6450    7.9800   11.1450 C   0  0  0  0  0  0  0  0  0  0  0  0
  -56.7610    8.2710   12.1650 C   0  0  0  0  0  0  0  0  0  0  0  0
  -56.4930    8.9450   13.1880 O   0  0  0  0  0  0  0  0  0  0  0  0
  -57.9220    7.8620   11.9400 O   0  0  0  0  0  0  0  0  0  0  0  0
  -53.3460    7.8050    8.6090 N   0  0  0  0  0  0  0  0  0  0  0  0
  -53.5680    8.0620    7.1820 C   0  0  0  0  0  0  0  0  0  0  0  0
  -49.0273   16.8655    6.7842 H   0  0  0  0  0  0  0  0  0  0  0  0
  -49.5422   17.6410    8.2628 H   0  0  0  0  0  0  0  0  0  0  0  0
  -50.5315   17.7536    6.8270 H   0  0  0  0  0  0  0  0  0  0  0  0
  -49.2865   14.6830    6.8394 H   0  0  0  0  0  0  0  0  0  0  0  0
  -51.8650   13.5939    7.3256 H   0  0  0  0  0  0  0  0  0  0  0  0
  -49.2138   12.2464    6.8973 H   0  0  0  0  0  0  0  0  0  0  0  0
  -50.7966   11.4346    6.9172 H   0  0  0  0  0  0  0  0  0  0  0  0
  -50.0578   13.5543    4.9330 H   0  0  0  0  0  0  0  0  0  0  0  0
  -50.0575   10.5454    4.7394 H   0  0  0  0  0  0  0  0  0  0  0  0
  -48.6339   11.5585    4.7256 H   0  0  0  0  0  0  0  0  0  0  0  0
  -49.7792   11.6431    3.4087 H   0  0  0  0  0  0  0  0  0  0  0  0
  -52.3250   11.6205    5.0724 H   0  0  0  0  0  0  0  0  0  0  0  0
  -52.0050   12.7421    3.7715 H   0  0  0  0  0  0  0  0  0  0  0  0
  -52.4185   13.3414    5.3598 H   0  0  0  0  0  0  0  0  0  0  0  0
  -52.6851   12.4477    8.9519 H   0  0  0  0  0  0  0  0  0  0  0  0
  -51.2916   12.2720   11.4792 H   0  0  0  0  0  0  0  0  0  0  0  0
  -53.3228   11.0293   12.1504 H   0  0  0  0  0  0  0  0  0  0  0  0
  -53.8881   11.1795   10.4794 H   0  0  0  0  0  0  0  0  0  0  0  0
  -54.0270   13.5304   10.6600 H   0  0  0  0  0  0  0  0  0  0  0  0
  -53.2670   13.4885   12.2543 H   0  0  0  0  0  0  0  0  0  0  0  0
  -55.2220   12.1141   12.9972 H   0  0  0  0  0  0  0  0  0  0  0  0
  -55.5325   13.8168   12.6372 H   0  0  0  0  0  0  0  0  0  0  0  0
  -56.2485   13.0602   10.3682 H   0  0  0  0  0  0  0  0  0  0  0  0
  -56.2492   11.4346   11.0189 H   0  0  0  0  0  0  0  0  0  0  0  0
  -57.7940   13.7000   12.0858 H   0  0  0  0  0  0  0  0  0  0  0  0
  -57.7909   12.1541   12.7060 H   0  0  0  0  0  0  0  0  0  0  0  0
  -49.4865    8.2932   10.8767 H   0  0  0  0  0  0  0  0  0  0  0  0
  -49.0555    7.3342   13.0197 H   0  0  0  0  0  0  0  0  0  0  0  0
  -50.6623    7.5006   13.5561 H   0  0  0  0  0  0  0  0  0  0  0  0
  -48.5474    9.6967   13.2639 H   0  0  0  0  0  0  0  0  0  0  0  0
  -49.4610    9.3952   14.6635 H   0  0  0  0  0  0  0  0  0  0  0  0
  -51.4885   10.2409   13.6351 H   0  0  0  0  0  0  0  0  0  0  0  0
  -50.3305   11.3168   13.0061 H   0  0  0  0  0  0  0  0  0  0  0  0
  -52.9038    8.2776   11.7346 H   0  0  0  0  0  0  0  0  0  0  0  0
  -53.1286    5.5678   10.8520 H   0  0  0  0  0  0  0  0  0  0  0  0
  -54.6838    6.6403   12.4838 H   0  0  0  0  0  0  0  0  0  0  0  0
  -55.5038    5.8857   11.0847 H   0  0  0  0  0  0  0  0  0  0  0  0
  -56.0851    7.9057   10.1725 H   0  0  0  0  0  0  0  0  0  0  0  0
  -54.9406    8.7828   11.2096 H   0  0  0  0  0  0  0  0  0  0  0  0
  -52.8498    8.4657    9.1442 H   0  0  0  0  0  0  0  0  0  0  0  0
  -54.1191    7.2503    6.7549 H   0  0  0  0  0  0  0  0  0  0  0  0
  -52.6248    8.1532    6.6851 H   0  0  0  0  0  0  0  0  0  0  0  0
  -54.1220    8.9699    7.0651 H   0  0  0  0  0  0  0  0  0  0  0  0
  1  2  1  0  0  0  0
  1 39  1  0  0  0  0
  1 40  1  0  0  0  0
  1 41  1  0  0  0  0
  2  3  2  0  0  0  0
  4  5  1  0  0  0  0
  4  2  1  0  0  0  0
  4 42  1  0  0  0  0
  5  6  1  0  0  0  0
  5 43  1  6  0  0  0
  6 12  1  0  0  0  0
  6  7  2  0  0  0  0
  8  5  1  0  0  0  0
  8 44  1  0  0  0  0
  8 45  1  0  0  0  0
  9  8  1  0  0  0  0
  9 46  1  0  0  0  0
 10  9  1  0  0  0  0
 10 47  1  0  0  0  0
 10 48  1  0  0  0  0
 10 49  1  0  0  0  0
 11  9  1  0  0  0  0
 11 50  1  0  0  0  0
 11 51  1  0  0  0  0
 11 52  1  0  0  0  0
 12 13  1  0  0  0  0
 12 53  1  0  0  0  0
 13 16  1  0  0  0  0
 13 54  1  1  0  0  0
 14 13  1  0  0  0  0
 14 21  1  0  0  0  0
 15 14  2  0  0  0  0
 16 17  1  0  0  0  0
 16 55  1  0  0  0  0
 16 56  1  0  0  0  0
 17 18  1  0  0  0  0
 17 57  1  0  0  0  0
 17 58  1  0  0  0  0
 18 59  1  0  0  0  0
 18 60  1  0  0  0  0
 19 20  1  0  0  0  0
 19 18  1  0  0  0  0
 19 61  1  0  0  0  0
 19 62  1  0  0  0  0
 20 63  1  0  0  0  0
 20 64  1  0  0  0  0
 21 27  1  0  0  0  0
 22 21  1  0  0  0  0
 22 25  1  0  0  0  0
 22 65  1  6  0  0  0
 23 28  1  0  0  0  0
 23 22  1  0  0  0  0
 24 23  2  0  0  0  0
 25 26  1  0  0  0  0
 25 66  1  0  0  0  0
 25 67  1  0  0  0  0
 26 68  1  0  0  0  0
 26 69  1  0  0  0  0
 27 26  1  0  0  0  0
 27 70  1  0  0  0  0
 27 71  1  0  0  0  0
 28 72  1  0  0  0  0
 29 28  1  0  0  0  0
 29 32  1  0  0  0  0
 29 73  1  1  0  0  0
 30 29  1  0  0  0  0
 31 30  2  0  0  0  0
 32 74  1  0  0  0  0
 32 75  1  0  0  0  0
 33 32  1  0  0  0  0
 33 34  1  0  0  0  0
 33 76  1  0  0  0  0
 33 77  1  0  0  0  0
 34 35  1  0  0  0  0
 36 34  2  0  0  0  0
 37 30  1  0  0  0  0
 37 78  1  0  0  0  0
 38 37  1  0  0  0  0
 38 79  1  0  0  0  0
 38 80  1  0  0  0  0
 38 81  1  0  0  0  0
M  CHG  1  35  -1
M  END
>  <MODEL>
       0

$$$$
