selected_4mers/LLAG/245_noH.pdb
 OpenBabel03042517503D

 67 66  0  0  1  0  0  0  0  0999 V2000
   52.9740   39.0130  -20.9370 C   0  0  0  0  0  0  0  0  0  0  0  0
   52.9800   39.5590  -19.5110 C   0  0  0  0  0  0  0  0  0  0  0  0
   52.8240   40.7620  -19.2850 O   0  0  0  0  0  0  0  0  0  0  0  0
   53.1500   38.6690  -18.5410 N   0  0  0  0  0  0  0  0  0  0  0  0
   53.1590   39.0870  -17.1490 C   0  0  2  0  0  0  0  0  0  0  0  0
   54.3830   39.9530  -16.8420 C   0  0  0  0  0  0  0  0  0  0  0  0
   54.2860   40.9400  -16.1100 O   0  0  0  0  0  0  0  0  0  0  0  0
   53.1190   37.8500  -16.2380 C   0  0  0  0  0  0  0  0  0  0  0  0
   52.7770   38.0350  -14.7550 C   0  0  0  0  0  0  0  0  0  0  0  0
   51.5610   38.9230  -14.6050 C   0  0  0  0  0  0  0  0  0  0  0  0
   52.5250   36.6690  -14.1220 C   0  0  0  0  0  0  0  0  0  0  0  0
   55.5340   39.5960  -17.4070 N   0  0  0  0  0  0  0  0  0  0  0  0
   56.7490   40.3700  -17.1660 C   0  0  2  0  0  0  0  0  0  0  0  0
   56.5980   41.7790  -17.7330 C   0  0  0  0  0  0  0  0  0  0  0  0
   56.9570   42.7620  -17.0840 O   0  0  0  0  0  0  0  0  0  0  0  0
   57.9640   39.6840  -17.7960 C   0  0  0  0  0  0  0  0  0  0  0  0
   59.3140   40.3940  -17.6420 C   0  0  0  0  0  0  0  0  0  0  0  0
   59.6280   40.6420  -16.1640 C   0  0  0  0  0  0  0  0  0  0  0  0
   60.4040   39.5380  -18.2810 C   0  0  0  0  0  0  0  0  0  0  0  0
   56.0610   41.8730  -18.9450 N   0  0  0  0  0  0  0  0  0  0  0  0
   55.8560   43.1710  -19.5750 C   0  0  2  0  0  0  0  0  0  0  0  0
   54.9270   43.9950  -18.6930 C   0  0  0  0  0  0  0  0  0  0  0  0
   55.1070   45.2040  -18.5450 O   0  0  0  0  0  0  0  0  0  0  0  0
   55.2500   42.9910  -20.9750 C   0  0  0  0  0  0  0  0  0  0  0  0
   53.9410   43.3300  -18.0970 N   0  0  0  0  0  0  0  0  0  0  0  0
   53.0060   44.0150  -17.2220 C   0  0  0  0  0  0  0  0  0  0  0  0
   53.6810   44.5530  -15.9710 C   0  0  0  0  0  0  0  0  0  0  0  0
   53.3580   45.6450  -15.4940 O   0  0  0  0  0  0  0  0  0  0  0  0
   54.6150   43.7830  -15.4230 N   0  0  0  0  0  0  0  0  0  0  0  0
   55.3300   44.2050  -14.2240 C   0  0  0  0  0  0  0  0  0  0  0  0
   52.8304   39.8184  -21.6267 H   0  0  0  0  0  0  0  0  0  0  0  0
   52.1788   38.3052  -21.0446 H   0  0  0  0  0  0  0  0  0  0  0  0
   53.9086   38.5328  -21.1390 H   0  0  0  0  0  0  0  0  0  0  0  0
   53.2709   37.7183  -18.7662 H   0  0  0  0  0  0  0  0  0  0  0  0
   52.2902   39.6832  -16.9630 H   0  0  0  0  0  0  0  0  0  0  0  0
   54.0864   37.3949  -16.2831 H   0  0  0  0  0  0  0  0  0  0  0  0
   52.3035   37.2730  -16.6213 H   0  0  0  0  0  0  0  0  0  0  0  0
   53.5975   38.5068  -14.2559 H   0  0  0  0  0  0  0  0  0  0  0  0
   50.7259   38.4704  -15.0975 H   0  0  0  0  0  0  0  0  0  0  0  0
   51.7601   39.8777  -15.0452 H   0  0  0  0  0  0  0  0  0  0  0  0
   51.3372   39.0488  -13.5663 H   0  0  0  0  0  0  0  0  0  0  0  0
   51.7051   36.1922  -14.6172 H   0  0  0  0  0  0  0  0  0  0  0  0
   52.2916   36.7939  -13.0853 H   0  0  0  0  0  0  0  0  0  0  0  0
   53.4017   36.0634  -14.2198 H   0  0  0  0  0  0  0  0  0  0  0  0
   55.5667   38.8045  -17.9916 H   0  0  0  0  0  0  0  0  0  0  0  0
   56.9019   40.4312  -16.1088 H   0  0  0  0  0  0  0  0  0  0  0  0
   58.0552   38.7148  -17.3520 H   0  0  0  0  0  0  0  0  0  0  0  0
   57.7686   39.6779  -18.8480 H   0  0  0  0  0  0  0  0  0  0  0  0
   59.2714   41.3435  -18.1334 H   0  0  0  0  0  0  0  0  0  0  0  0
   59.6765   39.7060  -15.6477 H   0  0  0  0  0  0  0  0  0  0  0  0
   58.8587   41.2478  -15.7327 H   0  0  0  0  0  0  0  0  0  0  0  0
   60.5683   41.1455  -16.0787 H   0  0  0  0  0  0  0  0  0  0  0  0
   60.4461   38.5886  -17.7892 H   0  0  0  0  0  0  0  0  0  0  0  0
   61.3482   40.0321  -18.1842 H   0  0  0  0  0  0  0  0  0  0  0  0
   60.1819   39.3931  -19.3176 H   0  0  0  0  0  0  0  0  0  0  0  0
   55.7979   41.0541  -19.4240 H   0  0  0  0  0  0  0  0  0  0  0  0
   56.7925   43.6772  -19.6834 H   0  0  0  0  0  0  0  0  0  0  0  0
   54.3102   42.4859  -20.8946 H   0  0  0  0  0  0  0  0  0  0  0  0
   55.9157   42.4116  -21.5800 H   0  0  0  0  0  0  0  0  0  0  0  0
   55.1020   43.9501  -21.4256 H   0  0  0  0  0  0  0  0  0  0  0  0
   53.8440   42.3624  -18.2508 H   0  0  0  0  0  0  0  0  0  0  0  0
   52.2389   43.3279  -16.9315 H   0  0  0  0  0  0  0  0  0  0  0  0
   52.6002   44.8460  -17.7602 H   0  0  0  0  0  0  0  0  0  0  0  0
   54.8278   42.9136  -15.8330 H   0  0  0  0  0  0  0  0  0  0  0  0
   54.9750   45.1665  -13.9169 H   0  0  0  0  0  0  0  0  0  0  0  0
   56.3774   44.2622  -14.4349 H   0  0  0  0  0  0  0  0  0  0  0  0
   55.1622   43.4959  -13.4405 H   0  0  0  0  0  0  0  0  0  0  0  0
  1  2  1  0  0  0  0
  1 31  1  0  0  0  0
  1 32  1  0  0  0  0
  1 33  1  0  0  0  0
  2  3  2  0  0  0  0
  2  4  1  0  0  0  0
  4  5  1  0  0  0  0
  4 34  1  0  0  0  0
  5  6  1  0  0  0  0
  5  8  1  0  0  0  0
  5 35  1  1  0  0  0
  6  7  2  0  0  0  0
  8  9  1  0  0  0  0
  8 36  1  0  0  0  0
  8 37  1  0  0  0  0
  9 10  1  0  0  0  0
  9 11  1  0  0  0  0
  9 38  1  0  0  0  0
 10 39  1  0  0  0  0
 10 40  1  0  0  0  0
 10 41  1  0  0  0  0
 11 42  1  0  0  0  0
 11 43  1  0  0  0  0
 11 44  1  0  0  0  0
 12 13  1  0  0  0  0
 12  6  1  0  0  0  0
 12 45  1  0  0  0  0
 13 46  1  1  0  0  0
 14 13  1  0  0  0  0
 14 15  2  0  0  0  0
 16 17  1  0  0  0  0
 16 13  1  0  0  0  0
 16 47  1  0  0  0  0
 16 48  1  0  0  0  0
 17 18  1  0  0  0  0
 17 49  1  0  0  0  0
 18 50  1  0  0  0  0
 18 51  1  0  0  0  0
 18 52  1  0  0  0  0
 19 17  1  0  0  0  0
 19 53  1  0  0  0  0
 19 54  1  0  0  0  0
 19 55  1  0  0  0  0
 20 14  1  0  0  0  0
 20 56  1  0  0  0  0
 21 20  1  0  0  0  0
 21 22  1  0  0  0  0
 21 57  1  6  0  0  0
 22 23  2  0  0  0  0
 22 25  1  0  0  0  0
 24 21  1  0  0  0  0
 24 58  1  0  0  0  0
 24 59  1  0  0  0  0
 24 60  1  0  0  0  0
 25 26  1  0  0  0  0
 25 61  1  0  0  0  0
 26 27  1  0  0  0  0
 26 62  1  0  0  0  0
 26 63  1  0  0  0  0
 27 28  2  0  0  0  0
 27 29  1  0  0  0  0
 29 30  1  0  0  0  0
 29 64  1  0  0  0  0
 30 65  1  0  0  0  0
 30 66  1  0  0  0  0
 30 67  1  0  0  0  0
M  END
>  <MODEL>
       0

$$$$
selected_4mers/LLAG/246_noH.pdb
 OpenBabel03042517503D

 67 66  0  0  1  0  0  0  0  0999 V2000
    1.0580   46.3430   31.9090 C   0  0  0  0  0  0  0  0  0  0  0  0
    1.2330   47.0180   33.2710 C   0  0  0  0  0  0  0  0  0  0  0  0
    1.6970   48.1670   33.3120 O   0  0  0  0  0  0  0  0  0  0  0  0
    0.8770   46.3540   34.3560 N   0  0  0  0  0  0  0  0  0  0  0  0
    1.0280   46.9700   35.6870 C   0  0  2  0  0  0  0  0  0  0  0  0
    2.4960   47.3850   35.9480 C   0  0  0  0  0  0  0  0  0  0  0  0
    2.7790   48.5300   36.4260 O   0  0  0  0  0  0  0  0  0  0  0  0
    0.5770   46.0020   36.7720 C   0  0  0  0  0  0  0  0  0  0  0  0
   -0.1240   46.5870   38.0060 C   0  0  0  0  0  0  0  0  0  0  0  0
   -0.4260   45.5210   39.0480 C   0  0  0  0  0  0  0  0  0  0  0  0
    0.7310   47.6500   38.6090 C   0  0  0  0  0  0  0  0  0  0  0  0
    3.4430   46.4930   35.6370 N   0  0  0  0  0  0  0  0  0  0  0  0
    4.8470   46.8440   35.8650 C   0  0  2  0  0  0  0  0  0  0  0  0
    5.4110   47.7710   34.7920 C   0  0  0  0  0  0  0  0  0  0  0  0
    6.6080   48.1380   34.8640 O   0  0  0  0  0  0  0  0  0  0  0  0
    5.7270   45.5830   35.9910 C   0  0  0  0  0  0  0  0  0  0  0  0
    5.3060   44.6700   37.1470 C   0  0  0  0  0  0  0  0  0  0  0  0
    6.2230   43.4490   37.2210 C   0  0  0  0  0  0  0  0  0  0  0  0
    5.3710   45.4550   38.5080 C   0  0  0  0  0  0  0  0  0  0  0  0
    4.6190   48.1350   33.7750 N   0  0  0  0  0  0  0  0  0  0  0  0
    5.1100   49.0810   32.7630 C   0  0  2  0  0  0  0  0  0  0  0  0
    4.7750   50.5320   33.1290 C   0  0  0  0  0  0  0  0  0  0  0  0
    5.0240   51.4310   32.3160 O   0  0  0  0  0  0  0  0  0  0  0  0
    4.5350   48.7790   31.3670 C   0  0  0  0  0  0  0  0  0  0  0  0
    4.1840   50.7320   34.3030 N   0  0  0  0  0  0  0  0  0  0  0  0
    3.8360   52.0770   34.7600 C   0  0  0  0  0  0  0  0  0  0  0  0
    2.8120   52.7610   33.8580 C   0  0  0  0  0  0  0  0  0  0  0  0
    2.8500   53.9760   33.6310 O   0  0  0  0  0  0  0  0  0  0  0  0
    1.8880   51.9710   33.3520 N   0  0  0  0  0  0  0  0  0  0  0  0
    0.8410   52.4750   32.4530 C   0  0  0  0  0  0  0  0  0  0  0  0
    1.3897   47.0057   31.1372 H   0  0  0  0  0  0  0  0  0  0  0  0
    0.0252   46.1078   31.7576 H   0  0  0  0  0  0  0  0  0  0  0  0
    1.6367   45.4435   31.8798 H   0  0  0  0  0  0  0  0  0  0  0  0
    0.5094   45.4442   34.2756 H   0  0  0  0  0  0  0  0  0  0  0  0
    0.4146   47.8464   35.7109 H   0  0  0  0  0  0  0  0  0  0  0  0
    1.4457   45.4804   37.1157 H   0  0  0  0  0  0  0  0  0  0  0  0
   -0.1683   45.3963   36.3002 H   0  0  0  0  0  0  0  0  0  0  0  0
   -1.0570   47.0014   37.6856 H   0  0  0  0  0  0  0  0  0  0  0  0
    0.4902   45.0862   39.3893 H   0  0  0  0  0  0  0  0  0  0  0  0
   -1.0412   44.7612   38.6130 H   0  0  0  0  0  0  0  0  0  0  0  0
   -0.9395   45.9657   39.8747 H   0  0  0  0  0  0  0  0  0  0  0  0
    1.6601   47.2238   38.9252 H   0  0  0  0  0  0  0  0  0  0  0  0
    0.2287   48.0761   39.4523 H   0  0  0  0  0  0  0  0  0  0  0  0
    0.9175   48.4128   37.8821 H   0  0  0  0  0  0  0  0  0  0  0  0
    3.2007   45.6158   35.2614 H   0  0  0  0  0  0  0  0  0  0  0  0
    4.8689   47.3796   36.7910 H   0  0  0  0  0  0  0  0  0  0  0  0
    6.7399   45.8890   36.1501 H   0  0  0  0  0  0  0  0  0  0  0  0
    5.6152   45.0239   35.0856 H   0  0  0  0  0  0  0  0  0  0  0  0
    4.3017   44.3449   36.9723 H   0  0  0  0  0  0  0  0  0  0  0  0
    7.2291   43.7686   37.3957 H   0  0  0  0  0  0  0  0  0  0  0  0
    6.1751   42.9105   36.2976 H   0  0  0  0  0  0  0  0  0  0  0  0
    5.9066   42.8133   38.0215 H   0  0  0  0  0  0  0  0  0  0  0  0
    6.3748   45.7808   38.6842 H   0  0  0  0  0  0  0  0  0  0  0  0
    5.0592   44.8131   39.3052 H   0  0  0  0  0  0  0  0  0  0  0  0
    4.7232   46.3053   38.4606 H   0  0  0  0  0  0  0  0  0  0  0  0
    3.7078   47.7688   33.7054 H   0  0  0  0  0  0  0  0  0  0  0  0
    6.1727   48.9589   32.7394 H   0  0  0  0  0  0  0  0  0  0  0  0
    3.4720   48.8998   31.3853 H   0  0  0  0  0  0  0  0  0  0  0  0
    4.7750   47.7731   31.0924 H   0  0  0  0  0  0  0  0  0  0  0  0
    4.9584   49.4543   30.6531 H   0  0  0  0  0  0  0  0  0  0  0  0
    3.9764   49.9591   34.8763 H   0  0  0  0  0  0  0  0  0  0  0  0
    3.4300   52.0083   35.7476 H   0  0  0  0  0  0  0  0  0  0  0  0
    4.7290   52.6660   34.7385 H   0  0  0  0  0  0  0  0  0  0  0  0
    1.8991   51.0141   33.5830 H   0  0  0  0  0  0  0  0  0  0  0  0
    0.9726   53.5267   32.3065 H   0  0  0  0  0  0  0  0  0  0  0  0
   -0.1199   52.2928   32.8871 H   0  0  0  0  0  0  0  0  0  0  0  0
    0.9077   51.9725   31.5107 H   0  0  0  0  0  0  0  0  0  0  0  0
  1  2  1  0  0  0  0
  1 31  1  0  0  0  0
  1 32  1  0  0  0  0
  1 33  1  0  0  0  0
  2  3  2  0  0  0  0
  2  4  1  0  0  0  0
  4  5  1  0  0  0  0
  4 34  1  0  0  0  0
  5  6  1  0  0  0  0
  5  8  1  0  0  0  0
  5 35  1  1  0  0  0
  6  7  2  0  0  0  0
  8  9  1  0  0  0  0
  8 36  1  0  0  0  0
  8 37  1  0  0  0  0
  9 11  1  0  0  0  0
  9 10  1  0  0  0  0
  9 38  1  0  0  0  0
 10 39  1  0  0  0  0
 10 40  1  0  0  0  0
 10 41  1  0  0  0  0
 11 42  1  0  0  0  0
 11 43  1  0  0  0  0
 11 44  1  0  0  0  0
 12 13  1  0  0  0  0
 12  6  1  0  0  0  0
 12 45  1  0  0  0  0
 13 16  1  0  0  0  0
 13 46  1  1  0  0  0
 14 15  2  0  0  0  0
 14 13  1  0  0  0  0
 16 17  1  0  0  0  0
 16 47  1  0  0  0  0
 16 48  1  0  0  0  0
 17 18  1  0  0  0  0
 17 19  1  0  0  0  0
 17 49  1  0  0  0  0
 18 50  1  0  0  0  0
 18 51  1  0  0  0  0
 18 52  1  0  0  0  0
 19 53  1  0  0  0  0
 19 54  1  0  0  0  0
 19 55  1  0  0  0  0
 20 14  1  0  0  0  0
 20 56  1  0  0  0  0
 21 22  1  0  0  0  0
 21 20  1  0  0  0  0
 21 57  1  6  0  0  0
 22 25  1  0  0  0  0
 23 22  2  0  0  0  0
 24 21  1  0  0  0  0
 24 58  1  0  0  0  0
 24 59  1  0  0  0  0
 24 60  1  0  0  0  0
 25 26  1  0  0  0  0
 25 61  1  0  0  0  0
 26 62  1  0  0  0  0
 26 63  1  0  0  0  0
 27 26  1  0  0  0  0
 28 27  2  0  0  0  0
 29 27  1  0  0  0  0
 29 64  1  0  0  0  0
 30 29  1  0  0  0  0
 30 65  1  0  0  0  0
 30 66  1  0  0  0  0
 30 67  1  0  0  0  0
M  END
>  <MODEL>
       0

$$$$
selected_4mers/LLAG/247_noH.pdb
 OpenBabel03042517503D

 67 66  0  0  1  0  0  0  0  0999 V2000
   39.0350   31.1950    9.7980 C   0  0  0  0  0  0  0  0  0  0  0  0
   38.9290   32.3460    8.7920 C   0  0  0  0  0  0  0  0  0  0  0  0
   38.3100   33.3540    9.0920 O   0  0  0  0  0  0  0  0  0  0  0  0
   39.5280   32.1690    7.6100 N   0  0  0  0  0  0  0  0  0  0  0  0
   39.4330   33.1700    6.5420 C   0  0  2  0  0  0  0  0  0  0  0  0
   37.9660   33.4090    6.1890 C   0  0  0  0  0  0  0  0  0  0  0  0
   37.4950   34.5560    6.1860 O   0  0  0  0  0  0  0  0  0  0  0  0
   40.2510   32.7270    5.3100 C   0  0  0  0  0  0  0  0  0  0  0  0
   40.2370   33.6370    4.0740 C   0  0  0  0  0  0  0  0  0  0  0  0
   40.9350   34.9620    4.3460 C   0  0  0  0  0  0  0  0  0  0  0  0
   40.8780   32.9160    2.8960 C   0  0  0  0  0  0  0  0  0  0  0  0
   37.2270   32.3300    5.9540 N   0  0  0  0  0  0  0  0  0  0  0  0
   35.7970   32.4550    5.6290 C   0  0  2  0  0  0  0  0  0  0  0  0
   34.9380   32.9990    6.7760 C   0  0  0  0  0  0  0  0  0  0  0  0
   33.9210   33.6440    6.5250 O   0  0  0  0  0  0  0  0  0  0  0  0
   35.2230   31.1440    5.1010 C   0  0  0  0  0  0  0  0  0  0  0  0
   35.8840   30.5860    3.8420 C   0  0  0  0  0  0  0  0  0  0  0  0
   35.3190   29.2120    3.5460 C   0  0  0  0  0  0  0  0  0  0  0  0
   35.7100   31.5190    2.6560 C   0  0  0  0  0  0  0  0  0  0  0  0
   35.3700   32.7750    8.0170 N   0  0  0  0  0  0  0  0  0  0  0  0
   34.6820   33.2950    9.2220 C   0  0  2  0  0  0  0  0  0  0  0  0
   34.9640   34.7770    9.5110 C   0  0  0  0  0  0  0  0  0  0  0  0
   34.4880   35.3310   10.5130 O   0  0  0  0  0  0  0  0  0  0  0  0
   35.0620   32.4490   10.4440 C   0  0  0  0  0  0  0  0  0  0  0  0
   35.7670   35.4050    8.6550 N   0  0  0  0  0  0  0  0  0  0  0  0
   36.0700   36.8210    8.7910 C   0  0  0  0  0  0  0  0  0  0  0  0
   37.3300   37.1770    9.5460 C   0  0  0  0  0  0  0  0  0  0  0  0
   37.5100   38.3450    9.9200 O   0  0  0  0  0  0  0  0  0  0  0  0
   38.2150   36.2000    9.7660 N   0  0  0  0  0  0  0  0  0  0  0  0
   39.4790   36.4900   10.4500 C   0  0  0  0  0  0  0  0  0  0  0  0
   39.6086   30.3993    9.3705 H   0  0  0  0  0  0  0  0  0  0  0  0
   38.0547   30.8393   10.0375 H   0  0  0  0  0  0  0  0  0  0  0  0
   39.5157   31.5427   10.6885 H   0  0  0  0  0  0  0  0  0  0  0  0
   40.0456   31.3465    7.4525 H   0  0  0  0  0  0  0  0  0  0  0  0
   39.8488   34.0945    6.8844 H   0  0  0  0  0  0  0  0  0  0  0  0
   41.2697   32.6292    5.6222 H   0  0  0  0  0  0  0  0  0  0  0  0
   39.7780   31.8243    4.9841 H   0  0  0  0  0  0  0  0  0  0  0  0
   39.2189   33.8614    3.8331 H   0  0  0  0  0  0  0  0  0  0  0  0
   41.9605   34.7810    4.5919 H   0  0  0  0  0  0  0  0  0  0  0  0
   40.4542   35.4572    5.1636 H   0  0  0  0  0  0  0  0  0  0  0  0
   40.8810   35.5793    3.4737 H   0  0  0  0  0  0  0  0  0  0  0  0
   41.8971   32.6879    3.1291 H   0  0  0  0  0  0  0  0  0  0  0  0
   40.8421   33.5445    2.0308 H   0  0  0  0  0  0  0  0  0  0  0  0
   40.3452   32.0089    2.7003 H   0  0  0  0  0  0  0  0  0  0  0  0
   37.6404   31.4376    5.9977 H   0  0  0  0  0  0  0  0  0  0  0  0
   35.7535   33.1898    4.8524 H   0  0  0  0  0  0  0  0  0  0  0  0
   35.3173   30.4099    5.8737 H   0  0  0  0  0  0  0  0  0  0  0  0
   34.2119   31.3603    4.8259 H   0  0  0  0  0  0  0  0  0  0  0  0
   36.9365   30.5031    4.0158 H   0  0  0  0  0  0  0  0  0  0  0  0
   34.2662   29.2893    3.3713 H   0  0  0  0  0  0  0  0  0  0  0  0
   35.4956   28.5663    4.3808 H   0  0  0  0  0  0  0  0  0  0  0  0
   35.7962   28.8098    2.6768 H   0  0  0  0  0  0  0  0  0  0  0  0
   34.6678   31.6339    2.4425 H   0  0  0  0  0  0  0  0  0  0  0  0
   36.2056   31.1066    1.8021 H   0  0  0  0  0  0  0  0  0  0  0  0
   36.1340   32.4736    2.8880 H   0  0  0  0  0  0  0  0  0  0  0  0
   36.1860   32.2379    8.1389 H   0  0  0  0  0  0  0  0  0  0  0  0
   33.6336   33.2219    9.0212 H   0  0  0  0  0  0  0  0  0  0  0  0
   36.1128   32.5369   10.6259 H   0  0  0  0  0  0  0  0  0  0  0  0
   34.8167   31.4241   10.2585 H   0  0  0  0  0  0  0  0  0  0  0  0
   34.5216   32.7958   11.2999 H   0  0  0  0  0  0  0  0  0  0  0  0
   36.1658   34.8982    7.9111 H   0  0  0  0  0  0  0  0  0  0  0  0
   35.2476   37.2811    9.2978 H   0  0  0  0  0  0  0  0  0  0  0  0
   36.2326   37.1705    7.7928 H   0  0  0  0  0  0  0  0  0  0  0  0
   38.0176   35.2827    9.4678 H   0  0  0  0  0  0  0  0  0  0  0  0
   39.5198   37.5300   10.6982 H   0  0  0  0  0  0  0  0  0  0  0  0
   40.2975   36.2446    9.8060 H   0  0  0  0  0  0  0  0  0  0  0  0
   39.5422   35.9070   11.3450 H   0  0  0  0  0  0  0  0  0  0  0  0
  1 31  1  0  0  0  0
  1 32  1  0  0  0  0
  1 33  1  0  0  0  0
  2  3  2  0  0  0  0
  2  1  1  0  0  0  0
  4  2  1  0  0  0  0
  4 34  1  0  0  0  0
  5  4  1  0  0  0  0
  5 35  1  1  0  0  0
  6  5  1  0  0  0  0
  7  6  2  0  0  0  0
  8  5  1  0  0  0  0
  8 36  1  0  0  0  0
  8 37  1  0  0  0  0
  9 10  1  0  0  0  0
  9  8  1  0  0  0  0
  9 38  1  0  0  0  0
 10 39  1  0  0  0  0
 10 40  1  0  0  0  0
 10 41  1  0  0  0  0
 11  9  1  0  0  0  0
 11 42  1  0  0  0  0
 11 43  1  0  0  0  0
 11 44  1  0  0  0  0
 12  6  1  0  0  0  0
 12 45  1  0  0  0  0
 13 12  1  0  0  0  0
 13 14  1  0  0  0  0
 13 46  1  6  0  0  0
 14 20  1  0  0  0  0
 15 14  2  0  0  0  0
 16 13  1  0  0  0  0
 16 47  1  0  0  0  0
 16 48  1  0  0  0  0
 17 16  1  0  0  0  0
 17 49  1  0  0  0  0
 18 17  1  0  0  0  0
 18 50  1  0  0  0  0
 18 51  1  0  0  0  0
 18 52  1  0  0  0  0
 19 17  1  0  0  0  0
 19 53  1  0  0  0  0
 19 54  1  0  0  0  0
 19 55  1  0  0  0  0
 20 21  1  0  0  0  0
 20 56  1  0  0  0  0
 21 22  1  0  0  0  0
 21 24  1  0  0  0  0
 21 57  1  6  0  0  0
 22 23  2  0  0  0  0
 24 58  1  0  0  0  0
 24 59  1  0  0  0  0
 24 60  1  0  0  0  0
 25 26  1  0  0  0  0
 25 22  1  0  0  0  0
 25 61  1  0  0  0  0
 26 27  1  0  0  0  0
 26 62  1  0  0  0  0
 26 63  1  0  0  0  0
 27 29  1  0  0  0  0
 27 28  2  0  0  0  0
 29 30  1  0  0  0  0
 29 64  1  0  0  0  0
 30 65  1  0  0  0  0
 30 66  1  0  0  0  0
 30 67  1  0  0  0  0
M  END
>  <MODEL>
       0

$$$$
selected_4mers/LLAG/248_noH.pdb
 OpenBabel03042517503D

 67 66  0  0  1  0  0  0  0  0999 V2000
   12.5330   27.6790  -15.2420 C   0  0  0  0  0  0  0  0  0  0  0  0
   11.2780   27.7410  -14.3910 C   0  0  0  0  0  0  0  0  0  0  0  0
   10.6090   28.7660  -14.3280 O   0  0  0  0  0  0  0  0  0  0  0  0
   10.9390   26.6100  -13.7690 N   0  0  0  0  0  0  0  0  0  0  0  0
    9.7550   26.4910  -12.9330 C   0  0  2  0  0  0  0  0  0  0  0  0
   10.1940   26.1050  -11.5270 C   0  0  0  0  0  0  0  0  0  0  0  0
   10.8590   25.1300  -11.3610 O   0  0  0  0  0  0  0  0  0  0  0  0
    8.8370   25.3880  -13.4790 C   0  0  0  0  0  0  0  0  0  0  0  0
    8.5080   25.4720  -14.9700 C   0  0  0  0  0  0  0  0  0  0  0  0
    7.8210   24.1730  -15.3690 C   0  0  0  0  0  0  0  0  0  0  0  0
    7.6290   26.6800  -15.2270 C   0  0  0  0  0  0  0  0  0  0  0  0
    9.8500   26.9290  -10.5510 N   0  0  0  0  0  0  0  0  0  0  0  0
   10.3000   26.7780   -9.2060 C   0  0  2  0  0  0  0  0  0  0  0  0
    9.1260   26.7330   -8.2390 C   0  0  0  0  0  0  0  0  0  0  0  0
    8.1910   27.5300   -8.3200 O   0  0  0  0  0  0  0  0  0  0  0  0
   11.1640   27.9400   -8.8280 C   0  0  0  0  0  0  0  0  0  0  0  0
   12.4790   28.0480   -9.5840 C   0  0  0  0  0  0  0  0  0  0  0  0
   13.0180   29.4710   -9.3390 C   0  0  0  0  0  0  0  0  0  0  0  0
   13.4230   27.0260   -9.1300 C   0  0  0  0  0  0  0  0  0  0  0  0
    9.2340   25.8400   -7.2700 N   0  0  0  0  0  0  0  0  0  0  0  0
    8.2320   25.6790   -6.2440 C   0  0  2  0  0  0  0  0  0  0  0  0
    8.8240   25.6520   -4.8440 C   0  0  0  0  0  0  0  0  0  0  0  0
    9.8970   25.0550   -4.5640 O   0  0  0  0  0  0  0  0  0  0  0  0
    7.4430   24.3980   -6.4870 C   0  0  0  0  0  0  0  0  0  0  0  0
    8.0870   26.3070   -3.9610 N   0  0  0  0  0  0  0  0  0  0  0  0
    8.3720   26.2750   -2.5340 C   0  0  0  0  0  0  0  0  0  0  0  0
    7.1520   26.5970   -1.6880 C   0  0  0  0  0  0  0  0  0  0  0  0
    6.0500   26.8730   -2.1880 O   0  0  0  0  0  0  0  0  0  0  0  0
    7.3610   26.5980   -0.3830 N   0  0  0  0  0  0  0  0  0  0  0  0
    6.3530   27.0000    0.5780 C   0  0  0  0  0  0  0  0  0  0  0  0
   12.7077   28.6349  -15.6900 H   0  0  0  0  0  0  0  0  0  0  0  0
   12.4080   26.9432  -16.0088 H   0  0  0  0  0  0  0  0  0  0  0  0
   13.3681   27.4152  -14.6273 H   0  0  0  0  0  0  0  0  0  0  0  0
   11.5165   25.8206  -13.8811 H   0  0  0  0  0  0  0  0  0  0  0  0
    9.2273   27.4218  -12.9256 H   0  0  0  0  0  0  0  0  0  0  0  0
    9.3133   24.4466  -13.3007 H   0  0  0  0  0  0  0  0  0  0  0  0
    7.9041   25.5080  -12.9688 H   0  0  0  0  0  0  0  0  0  0  0  0
    9.3929   25.5925  -15.5594 H   0  0  0  0  0  0  0  0  0  0  0  0
    6.9343   24.0442  -14.7841 H   0  0  0  0  0  0  0  0  0  0  0  0
    8.4843   23.3512  -15.1969 H   0  0  0  0  0  0  0  0  0  0  0  0
    7.5616   24.2108  -16.4064 H   0  0  0  0  0  0  0  0  0  0  0  0
    6.7302   26.5958  -14.6526 H   0  0  0  0  0  0  0  0  0  0  0  0
    7.3841   26.7280  -16.2675 H   0  0  0  0  0  0  0  0  0  0  0  0
    8.1522   27.5689  -14.9424 H   0  0  0  0  0  0  0  0  0  0  0  0
    9.2542   27.6834  -10.7634 H   0  0  0  0  0  0  0  0  0  0  0  0
   10.8481   25.8610   -9.1469 H   0  0  0  0  0  0  0  0  0  0  0  0
   10.6072   28.8365   -9.0043 H   0  0  0  0  0  0  0  0  0  0  0  0
   11.4255   27.7913   -7.8012 H   0  0  0  0  0  0  0  0  0  0  0  0
   12.3381   27.8812  -10.6315 H   0  0  0  0  0  0  0  0  0  0  0  0
   13.1544   29.6249   -8.2889 H   0  0  0  0  0  0  0  0  0  0  0  0
   12.3185   30.1873   -9.7165 H   0  0  0  0  0  0  0  0  0  0  0  0
   13.9553   29.5888   -9.8414 H   0  0  0  0  0  0  0  0  0  0  0  0
   13.6018   27.1460   -8.0819 H   0  0  0  0  0  0  0  0  0  0  0  0
   14.3448   27.1298   -9.6633 H   0  0  0  0  0  0  0  0  0  0  0  0
   13.0126   26.0549   -9.3129 H   0  0  0  0  0  0  0  0  0  0  0  0
   10.0302   25.2614   -7.2475 H   0  0  0  0  0  0  0  0  0  0  0  0
    7.5866   26.5305   -6.3016 H   0  0  0  0  0  0  0  0  0  0  0  0
    8.1013   23.5567   -6.4263 H   0  0  0  0  0  0  0  0  0  0  0  0
    6.9973   24.4326   -7.4591 H   0  0  0  0  0  0  0  0  0  0  0  0
    6.6765   24.3053   -5.7462 H   0  0  0  0  0  0  0  0  0  0  0  0
    7.3194   26.8342   -4.2805 H   0  0  0  0  0  0  0  0  0  0  0  0
    9.1362   26.9930   -2.3208 H   0  0  0  0  0  0  0  0  0  0  0  0
    8.6845   25.2817   -2.2878 H   0  0  0  0  0  0  0  0  0  0  0  0
    8.2417   26.3126   -0.0482 H   0  0  0  0  0  0  0  0  0  0  0  0
    5.4589   27.2798    0.0611 H   0  0  0  0  0  0  0  0  0  0  0  0
    6.7128   27.8331    1.1449 H   0  0  0  0  0  0  0  0  0  0  0  0
    6.1432   26.1838    1.2374 H   0  0  0  0  0  0  0  0  0  0  0  0
  1  2  1  0  0  0  0
  1 31  1  0  0  0  0
  1 32  1  0  0  0  0
  1 33  1  0  0  0  0
  2  3  2  0  0  0  0
  2  4  1  0  0  0  0
  4  5  1  0  0  0  0
  4 34  1  0  0  0  0
  5  6  1  0  0  0  0
  5 35  1  1  0  0  0
  6  7  2  0  0  0  0
  6 12  1  0  0  0  0
  8  5  1  0  0  0  0
  8 36  1  0  0  0  0
  8 37  1  0  0  0  0
  9  8  1  0  0  0  0
  9 38  1  0  0  0  0
 10  9  1  0  0  0  0
 10 39  1  0  0  0  0
 10 40  1  0  0  0  0
 10 41  1  0  0  0  0
 11  9  1  0  0  0  0
 11 42  1  0  0  0  0
 11 43  1  0  0  0  0
 11 44  1  0  0  0  0
 12 13  1  0  0  0  0
 12 45  1  0  0  0  0
 13 16  1  0  0  0  0
 13 14  1  0  0  0  0
 13 46  1  1  0  0  0
 14 20  1  0  0  0  0
 15 14  2  0  0  0  0
 16 47  1  0  0  0  0
 16 48  1  0  0  0  0
 17 18  1  0  0  0  0
 17 19  1  0  0  0  0
 17 16  1  0  0  0  0
 17 49  1  0  0  0  0
 18 50  1  0  0  0  0
 18 51  1  0  0  0  0
 18 52  1  0  0  0  0
 19 53  1  0  0  0  0
 19 54  1  0  0  0  0
 19 55  1  0  0  0  0
 20 21  1  0  0  0  0
 20 56  1  0  0  0  0
 21 22  1  0  0  0  0
 21 57  1  6  0  0  0
 22 23  2  0  0  0  0
 22 25  1  0  0  0  0
 24 21  1  0  0  0  0
 24 58  1  0  0  0  0
 24 59  1  0  0  0  0
 24 60  1  0  0  0  0
 25 26  1  0  0  0  0
 25 61  1  0  0  0  0
 26 27  1  0  0  0  0
 26 62  1  0  0  0  0
 26 63  1  0  0  0  0
 27 29  1  0  0  0  0
 28 27  2  0  0  0  0
 29 30  1  0  0  0  0
 29 64  1  0  0  0  0
 30 65  1  0  0  0  0
 30 66  1  0  0  0  0
 30 67  1  0  0  0  0
M  END
>  <MODEL>
       0

$$$$
selected_4mers/LLAG/249_noH.pdb
 OpenBabel03042517503D

 67 66  0  0  1  0  0  0  0  0999 V2000
   46.8320   19.9760  -29.5620 C   0  0  0  0  0  0  0  0  0  0  0  0
   47.3680   20.9990  -30.5750 C   0  0  0  0  0  0  0  0  0  0  0  0
   48.2050   20.6590  -31.4260 O   0  0  0  0  0  0  0  0  0  0  0  0
   46.8670   22.2290  -30.4960 N   0  0  0  0  0  0  0  0  0  0  0  0
   47.3180   23.3450  -31.3350 C   0  0  2  0  0  0  0  0  0  0  0  0
   47.6880   24.5420  -30.4860 C   0  0  0  0  0  0  0  0  0  0  0  0
   46.9150   24.9350  -29.6050 O   0  0  0  0  0  0  0  0  0  0  0  0
   46.1740   23.7970  -32.2430 C   0  0  0  0  0  0  0  0  0  0  0  0
   45.6420   22.7910  -33.2360 C   0  0  0  0  0  0  0  0  0  0  0  0
   44.3710   23.3570  -33.8570 C   0  0  0  0  0  0  0  0  0  0  0  0
   46.6960   22.4470  -34.3270 C   0  0  0  0  0  0  0  0  0  0  0  0
   48.8200   25.1730  -30.7910 N   0  0  0  0  0  0  0  0  0  0  0  0
   49.2860   26.3190  -30.0180 C   0  0  2  0  0  0  0  0  0  0  0  0
   48.2380   27.4260  -30.0360 C   0  0  0  0  0  0  0  0  0  0  0  0
   48.0780   28.1610  -29.0570 O   0  0  0  0  0  0  0  0  0  0  0  0
   50.6110   26.8370  -30.5800 C   0  0  0  0  0  0  0  0  0  0  0  0
   51.2770   28.0240  -29.8880 C   0  0  0  0  0  0  0  0  0  0  0  0
   51.6570   27.6840  -28.4470 C   0  0  0  0  0  0  0  0  0  0  0  0
   52.5110   28.4490  -30.6790 C   0  0  0  0  0  0  0  0  0  0  0  0
   47.5290   27.5270  -31.1680 N   0  0  0  0  0  0  0  0  0  0  0  0
   46.4880   28.5240  -31.3720 C   0  0  2  0  0  0  0  0  0  0  0  0
   45.1400   28.1530  -30.7450 C   0  0  0  0  0  0  0  0  0  0  0  0
   44.1920   28.9240  -30.8450 O   0  0  0  0  0  0  0  0  0  0  0  0
   46.2900   28.7400  -32.8690 C   0  0  0  0  0  0  0  0  0  0  0  0
   45.0430   26.9770  -30.1320 N   0  0  0  0  0  0  0  0  0  0  0  0
   43.7850   26.5110  -29.5580 C   0  0  0  0  0  0  0  0  0  0  0  0
   43.8090   26.3590  -28.0530 C   0  0  0  0  0  0  0  0  0  0  0  0
   44.8250   26.5990  -27.3950 O   0  0  0  0  0  0  0  0  0  0  0  0
   42.6710   25.9800  -27.4840 N   0  0  0  0  0  0  0  0  0  0  0  0
   42.5890   25.8100  -26.0380 C   0  0  0  0  0  0  0  0  0  0  0  0
   47.3067   19.0309  -29.7243 H   0  0  0  0  0  0  0  0  0  0  0  0
   45.7746   19.8702  -29.6874 H   0  0  0  0  0  0  0  0  0  0  0  0
   47.0413   20.3143  -28.5687 H   0  0  0  0  0  0  0  0  0  0  0  0
   46.1545   22.3997  -29.8384 H   0  0  0  0  0  0  0  0  0  0  0  0
   48.1632   23.0054  -31.8965 H   0  0  0  0  0  0  0  0  0  0  0  0
   45.3597   24.0894  -31.6135 H   0  0  0  0  0  0  0  0  0  0  0  0
   46.5897   24.5811  -32.8407 H   0  0  0  0  0  0  0  0  0  0  0  0
   45.4224   21.8746  -32.7292 H   0  0  0  0  0  0  0  0  0  0  0  0
   44.5979   24.2727  -34.3618 H   0  0  0  0  0  0  0  0  0  0  0  0
   43.6504   23.5426  -33.0881 H   0  0  0  0  0  0  0  0  0  0  0  0
   43.9721   22.6531  -34.5572 H   0  0  0  0  0  0  0  0  0  0  0  0
   46.9527   23.3342  -34.8673 H   0  0  0  0  0  0  0  0  0  0  0  0
   46.2878   21.7239  -35.0019 H   0  0  0  0  0  0  0  0  0  0  0  0
   47.5726   22.0462  -33.8623 H   0  0  0  0  0  0  0  0  0  0  0  0
   49.3548   24.8590  -31.5557 H   0  0  0  0  0  0  0  0  0  0  0  0
   49.4426   26.0083  -29.0062 H   0  0  0  0  0  0  0  0  0  0  0  0
   50.4343   27.1213  -31.5963 H   0  0  0  0  0  0  0  0  0  0  0  0
   51.2948   26.0275  -30.4316 H   0  0  0  0  0  0  0  0  0  0  0  0
   50.5792   28.8345  -29.8556 H   0  0  0  0  0  0  0  0  0  0  0  0
   52.3563   26.8741  -28.4442 H   0  0  0  0  0  0  0  0  0  0  0  0
   50.7797   27.3996  -27.9044 H   0  0  0  0  0  0  0  0  0  0  0  0
   52.1010   28.5402  -27.9837 H   0  0  0  0  0  0  0  0  0  0  0  0
   53.2097   27.6393  -30.7122 H   0  0  0  0  0  0  0  0  0  0  0  0
   52.9657   29.2932  -30.2042 H   0  0  0  0  0  0  0  0  0  0  0  0
   52.2228   28.7124  -31.6752 H   0  0  0  0  0  0  0  0  0  0  0  0
   47.7215   26.8956  -31.8984 H   0  0  0  0  0  0  0  0  0  0  0  0
   46.8219   29.4147  -30.8820 H   0  0  0  0  0  0  0  0  0  0  0  0
   45.9570   27.8286  -33.3199 H   0  0  0  0  0  0  0  0  0  0  0  0
   47.2170   29.0391  -33.3119 H   0  0  0  0  0  0  0  0  0  0  0  0
   45.5571   29.5038  -33.0253 H   0  0  0  0  0  0  0  0  0  0  0  0
   45.8415   26.4053  -30.0636 H   0  0  0  0  0  0  0  0  0  0  0  0
   43.5522   25.5592  -29.9878 H   0  0  0  0  0  0  0  0  0  0  0  0
   43.0506   27.2568  -29.7802 H   0  0  0  0  0  0  0  0  0  0  0  0
   41.8773   25.8126  -28.0419 H   0  0  0  0  0  0  0  0  0  0  0  0
   43.5385   26.0333  -25.5982 H   0  0  0  0  0  0  0  0  0  0  0  0
   42.3204   24.7991  -25.8124 H   0  0  0  0  0  0  0  0  0  0  0  0
   41.8480   26.4728  -25.6424 H   0  0  0  0  0  0  0  0  0  0  0  0
  1 31  1  0  0  0  0
  1 32  1  0  0  0  0
  1 33  1  0  0  0  0
  2  4  1  0  0  0  0
  2  1  1  0  0  0  0
  3  2  2  0  0  0  0
  4 34  1  0  0  0  0
  5  4  1  0  0  0  0
  5  6  1  0  0  0  0
  5 35  1  6  0  0  0
  6  7  2  0  0  0  0
  8  5  1  0  0  0  0
  8 36  1  0  0  0  0
  8 37  1  0  0  0  0
  9  8  1  0  0  0  0
  9 38  1  0  0  0  0
 10  9  1  0  0  0  0
 10 39  1  0  0  0  0
 10 40  1  0  0  0  0
 10 41  1  0  0  0  0
 11  9  1  0  0  0  0
 11 42  1  0  0  0  0
 11 43  1  0  0  0  0
 11 44  1  0  0  0  0
 12  6  1  0  0  0  0
 12 13  1  0  0  0  0
 12 45  1  0  0  0  0
 13 46  1  1  0  0  0
 14 13  1  0  0  0  0
 14 15  2  0  0  0  0
 16 13  1  0  0  0  0
 16 17  1  0  0  0  0
 16 47  1  0  0  0  0
 16 48  1  0  0  0  0
 17 18  1  0  0  0  0
 17 49  1  0  0  0  0
 18 50  1  0  0  0  0
 18 51  1  0  0  0  0
 18 52  1  0  0  0  0
 19 17  1  0  0  0  0
 19 53  1  0  0  0  0
 19 54  1  0  0  0  0
 19 55  1  0  0  0  0
 20 14  1  0  0  0  0
 20 56  1  0  0  0  0
 21 20  1  0  0  0  0
 21 22  1  0  0  0  0
 21 57  1  1  0  0  0
 22 25  1  0  0  0  0
 23 22  2  0  0  0  0
 24 21  1  0  0  0  0
 24 58  1  0  0  0  0
 24 59  1  0  0  0  0
 24 60  1  0  0  0  0
 25 26  1  0  0  0  0
 25 61  1  0  0  0  0
 26 27  1  0  0  0  0
 26 62  1  0  0  0  0
 26 63  1  0  0  0  0
 27 29  1  0  0  0  0
 27 28  2  0  0  0  0
 29 30  1  0  0  0  0
 29 64  1  0  0  0  0
 30 65  1  0  0  0  0
 30 66  1  0  0  0  0
 30 67  1  0  0  0  0
M  END
>  <MODEL>
       0

$$$$
