selected_4mers/LLAL/200_noH.pdb
 OpenBabel03042517503D

 79 78  0  0  1  0  0  0  0  0999 V2000
   13.4730  -14.5180   31.1470 C   0  0  0  0  0  0  0  0  0  0  0  0
   12.6100  -14.9830   29.9740 C   0  0  0  0  0  0  0  0  0  0  0  0
   13.0950  -15.7010   29.0970 O   0  0  0  0  0  0  0  0  0  0  0  0
   11.3500  -14.5520   29.9410 N   0  0  0  0  0  0  0  0  0  0  0  0
   10.4490  -14.9460   28.8600 C   0  0  2  0  0  0  0  0  0  0  0  0
   10.9180  -14.4310   27.4960 C   0  0  0  0  0  0  0  0  0  0  0  0
   10.8850  -15.1680   26.5090 O   0  0  0  0  0  0  0  0  0  0  0  0
    9.0070  -14.5220   29.1580 C   0  0  0  0  0  0  0  0  0  0  0  0
    8.3470  -15.1780   30.3760 C   0  0  0  0  0  0  0  0  0  0  0  0
    6.9270  -14.6900   30.5100 C   0  0  0  0  0  0  0  0  0  0  0  0
    8.3740  -16.7010   30.3090 C   0  0  0  0  0  0  0  0  0  0  0  0
   11.3800  -13.1820   27.4480 N   0  0  0  0  0  0  0  0  0  0  0  0
   11.9300  -12.6320   26.2100 C   0  0  2  0  0  0  0  0  0  0  0  0
   13.1400  -13.4340   25.7450 C   0  0  0  0  0  0  0  0  0  0  0  0
   13.2840  -13.7200   24.5550 O   0  0  0  0  0  0  0  0  0  0  0  0
   12.2990  -11.1540   26.3810 C   0  0  0  0  0  0  0  0  0  0  0  0
   11.1340  -10.1790   26.5770 C   0  0  0  0  0  0  0  0  0  0  0  0
   11.6550   -8.7910   26.8770 C   0  0  0  0  0  0  0  0  0  0  0  0
   10.2050  -10.1490   25.3660 C   0  0  0  0  0  0  0  0  0  0  0  0
   13.9950  -13.8090   26.6940 N   0  0  0  0  0  0  0  0  0  0  0  0
   15.1620  -14.6310   26.3900 C   0  0  2  0  0  0  0  0  0  0  0  0
   14.7750  -15.9850   25.8130 C   0  0  0  0  0  0  0  0  0  0  0  0
   15.3660  -16.4410   24.8290 O   0  0  0  0  0  0  0  0  0  0  0  0
   16.0070  -14.8200   27.6300 C   0  0  0  0  0  0  0  0  0  0  0  0
   13.7720  -16.6110   26.4260 N   0  0  0  0  0  0  0  0  0  0  0  0
   13.3210  -17.9400   26.0300 C   0  0  2  0  0  0  0  0  0  0  0  0
   12.6790  -17.9550   24.6520 C   0  0  0  0  0  0  0  0  0  0  0  0
   12.9150  -18.8760   23.8660 O   0  0  0  0  0  0  0  0  0  0  0  0
   12.3590  -18.5060   27.0720 C   0  0  0  0  0  0  0  0  0  0  0  0
   13.0050  -18.9000   28.4030 C   0  0  0  0  0  0  0  0  0  0  0  0
   11.9370  -19.2800   29.4180 C   0  0  0  0  0  0  0  0  0  0  0  0
   14.0050  -20.0230   28.2210 C   0  0  0  0  0  0  0  0  0  0  0  0
   11.8810  -16.9340   24.3510 N   0  0  0  0  0  0  0  0  0  0  0  0
   11.3130  -16.8020   23.0130 C   0  0  0  0  0  0  0  0  0  0  0  0
   14.4550  -14.9326   31.0537 H   0  0  0  0  0  0  0  0  0  0  0  0
   13.0331  -14.8462   32.0655 H   0  0  0  0  0  0  0  0  0  0  0  0
   13.5349  -13.4498   31.1428 H   0  0  0  0  0  0  0  0  0  0  0  0
   11.0210  -13.9595   30.6551 H   0  0  0  0  0  0  0  0  0  0  0  0
   10.4712  -16.0145   28.8072 H   0  0  0  0  0  0  0  0  0  0  0  0
    8.4136  -14.7567   28.2991 H   0  0  0  0  0  0  0  0  0  0  0  0
    9.0569  -13.4779   29.3868 H   0  0  0  0  0  0  0  0  0  0  0  0
    8.9144  -14.8939   31.2376 H   0  0  0  0  0  0  0  0  0  0  0  0
    6.3676  -14.9784   29.6447 H   0  0  0  0  0  0  0  0  0  0  0  0
    6.9231  -13.6236   30.5981 H   0  0  0  0  0  0  0  0  0  0  0  0
    6.4824  -15.1216   31.3823 H   0  0  0  0  0  0  0  0  0  0  0  0
    7.8157  -17.0305   29.4577 H   0  0  0  0  0  0  0  0  0  0  0  0
    7.9387  -17.1049   31.1991 H   0  0  0  0  0  0  0  0  0  0  0  0
    9.3865  -17.0363   30.2232 H   0  0  0  0  0  0  0  0  0  0  0  0
   11.3506  -12.6220   28.2572 H   0  0  0  0  0  0  0  0  0  0  0  0
   11.1721  -12.7032   25.4580 H   0  0  0  0  0  0  0  0  0  0  0  0
   12.8350  -10.8491   25.5066 H   0  0  0  0  0  0  0  0  0  0  0  0
   12.8654  -11.1057   27.2875 H   0  0  0  0  0  0  0  0  0  0  0  0
   10.5610  -10.5261   27.4113 H   0  0  0  0  0  0  0  0  0  0  0  0
   12.2292   -8.4382   26.0459 H   0  0  0  0  0  0  0  0  0  0  0  0
   12.2733   -8.8230   27.7497 H   0  0  0  0  0  0  0  0  0  0  0  0
   10.8311   -8.1299   27.0476 H   0  0  0  0  0  0  0  0  0  0  0  0
   10.7465   -9.8053   24.5095 H   0  0  0  0  0  0  0  0  0  0  0  0
    9.3871   -9.4870   25.5602 H   0  0  0  0  0  0  0  0  0  0  0  0
    9.8303  -11.1337   25.1795 H   0  0  0  0  0  0  0  0  0  0  0  0
   13.8363  -13.5250   27.6232 H   0  0  0  0  0  0  0  0  0  0  0  0
   15.7300  -14.1132   25.6456 H   0  0  0  0  0  0  0  0  0  0  0  0
   15.4381  -15.3378   28.3737 H   0  0  0  0  0  0  0  0  0  0  0  0
   16.3031  -13.8642   28.0089 H   0  0  0  0  0  0  0  0  0  0  0  0
   16.8775  -15.3917   27.3846 H   0  0  0  0  0  0  0  0  0  0  0  0
   13.3182  -16.1598   27.1742 H   0  0  0  0  0  0  0  0  0  0  0  0
   14.1905  -18.5612   25.9743 H   0  0  0  0  0  0  0  0  0  0  0  0
   11.8955  -19.3768   26.6574 H   0  0  0  0  0  0  0  0  0  0  0  0
   11.6664  -17.7219   27.2964 H   0  0  0  0  0  0  0  0  0  0  0  0
   13.5407  -18.0520   28.7756 H   0  0  0  0  0  0  0  0  0  0  0  0
   11.3908  -20.1278   29.0605 H   0  0  0  0  0  0  0  0  0  0  0  0
   11.2675  -18.4569   29.5564 H   0  0  0  0  0  0  0  0  0  0  0  0
   12.4017  -19.5225   30.3508 H   0  0  0  0  0  0  0  0  0  0  0  0
   13.5026  -20.8910   27.8480 H   0  0  0  0  0  0  0  0  0  0  0  0
   14.4602  -20.2512   29.1621 H   0  0  0  0  0  0  0  0  0  0  0  0
   14.7586  -19.7201   27.5244 H   0  0  0  0  0  0  0  0  0  0  0  0
   11.6714  -16.2605   25.0378 H   0  0  0  0  0  0  0  0  0  0  0  0
   11.6449  -17.6158   22.4028 H   0  0  0  0  0  0  0  0  0  0  0  0
   11.6328  -15.8775   22.5794 H   0  0  0  0  0  0  0  0  0  0  0  0
   10.2449  -16.8158   23.0760 H   0  0  0  0  0  0  0  0  0  0  0  0
  1 35  1  0  0  0  0
  1 36  1  0  0  0  0
  1 37  1  0  0  0  0
  2  1  1  0  0  0  0
  3  2  2  0  0  0  0
  4  2  1  0  0  0  0
  4 38  1  0  0  0  0
  5  8  1  0  0  0  0
  5  4  1  0  0  0  0
  5 39  1  6  0  0  0
  6  5  1  0  0  0  0
  7  6  2  0  0  0  0
  8  9  1  0  0  0  0
  8 40  1  0  0  0  0
  8 41  1  0  0  0  0
  9 10  1  0  0  0  0
  9 42  1  0  0  0  0
 10 43  1  0  0  0  0
 10 44  1  0  0  0  0
 10 45  1  0  0  0  0
 11  9  1  0  0  0  0
 11 46  1  0  0  0  0
 11 47  1  0  0  0  0
 11 48  1  0  0  0  0
 12  6  1  0  0  0  0
 12 49  1  0  0  0  0
 13 16  1  0  0  0  0
 13 12  1  0  0  0  0
 13 50  1  6  0  0  0
 14 13  1  0  0  0  0
 14 20  1  0  0  0  0
 15 14  2  0  0  0  0
 16 17  1  0  0  0  0
 16 51  1  0  0  0  0
 16 52  1  0  0  0  0
 17 18  1  0  0  0  0
 17 53  1  0  0  0  0
 18 54  1  0  0  0  0
 18 55  1  0  0  0  0
 18 56  1  0  0  0  0
 19 17  1  0  0  0  0
 19 57  1  0  0  0  0
 19 58  1  0  0  0  0
 19 59  1  0  0  0  0
 20 60  1  0  0  0  0
 21 20  1  0  0  0  0
 21 24  1  0  0  0  0
 21 61  1  6  0  0  0
 22 21  1  0  0  0  0
 22 25  1  0  0  0  0
 23 22  2  0  0  0  0
 24 62  1  0  0  0  0
 24 63  1  0  0  0  0
 24 64  1  0  0  0  0
 25 65  1  0  0  0  0
 26 25  1  0  0  0  0
 26 29  1  0  0  0  0
 26 66  1  6  0  0  0
 27 26  1  0  0  0  0
 28 27  2  0  0  0  0
 29 30  1  0  0  0  0
 29 67  1  0  0  0  0
 29 68  1  0  0  0  0
 30 31  1  0  0  0  0
 30 69  1  0  0  0  0
 31 70  1  0  0  0  0
 31 71  1  0  0  0  0
 31 72  1  0  0  0  0
 32 30  1  0  0  0  0
 32 73  1  0  0  0  0
 32 74  1  0  0  0  0
 32 75  1  0  0  0  0
 33 27  1  0  0  0  0
 33 76  1  0  0  0  0
 34 33  1  0  0  0  0
 34 77  1  0  0  0  0
 34 78  1  0  0  0  0
 34 79  1  0  0  0  0
M  END
>  <MODEL>
       0

$$$$
selected_4mers/LLAL/201_noH.pdb
 OpenBabel03042517503D

 79 78  0  0  1  0  0  0  0  0999 V2000
  -12.0070   82.0510   -5.0030 C   0  0  0  0  0  0  0  0  0  0  0  0
  -13.0530   81.2050   -4.2390 C   0  0  0  0  0  0  0  0  0  0  0  0
  -13.5830   80.2380   -4.8020 O   0  0  0  0  0  0  0  0  0  0  0  0
  -13.3360   81.5770   -2.9870 N   0  0  0  0  0  0  0  0  0  0  0  0
  -14.4030   80.9230   -2.1920 C   0  0  2  0  0  0  0  0  0  0  0  0
  -15.7390   80.9050   -2.9710 C   0  0  0  0  0  0  0  0  0  0  0  0
  -16.3830   79.8360   -3.1370 O   0  0  0  0  0  0  0  0  0  0  0  0
  -14.6150   81.6560   -0.8570 C   0  0  0  0  0  0  0  0  0  0  0  0
  -15.7520   81.1920    0.0780 C   0  0  0  0  0  0  0  0  0  0  0  0
  -15.5480   79.7490    0.5430 C   0  0  0  0  0  0  0  0  0  0  0  0
  -16.0110   82.1140    1.2620 C   0  0  0  0  0  0  0  0  0  0  0  0
  -16.1690   82.0840   -3.4270 N   0  0  0  0  0  0  0  0  0  0  0  0
  -17.4300   82.1790   -4.1730 C   0  0  2  0  0  0  0  0  0  0  0  0
  -17.4140   81.3890   -5.4820 C   0  0  0  0  0  0  0  0  0  0  0  0
  -18.4010   80.7110   -5.8040 O   0  0  0  0  0  0  0  0  0  0  0  0
  -17.8470   83.6510   -4.4000 C   0  0  0  0  0  0  0  0  0  0  0  0
  -19.1540   83.8750   -5.1770 C   0  0  0  0  0  0  0  0  0  0  0  0
  -20.4050   83.2340   -4.4800 C   0  0  0  0  0  0  0  0  0  0  0  0
  -19.3640   85.3810   -5.4780 C   0  0  0  0  0  0  0  0  0  0  0  0
  -16.3140   81.4450   -6.2310 N   0  0  0  0  0  0  0  0  0  0  0  0
  -16.2390   80.7180   -7.4980 C   0  0  2  0  0  0  0  0  0  0  0  0
  -16.3430   79.2030   -7.2880 C   0  0  0  0  0  0  0  0  0  0  0  0
  -17.0950   78.5100   -8.0000 O   0  0  0  0  0  0  0  0  0  0  0  0
  -14.9620   81.0780   -8.2630 C   0  0  0  0  0  0  0  0  0  0  0  0
  -15.5940   78.6970   -6.3140 N   0  0  0  0  0  0  0  0  0  0  0  0
  -15.6530   77.3010   -5.9410 C   0  0  2  0  0  0  0  0  0  0  0  0
  -17.0320   76.9200   -5.3630 C   0  0  0  0  0  0  0  0  0  0  0  0
  -17.5290   75.8180   -5.6590 O   0  0  0  0  0  0  0  0  0  0  0  0
  -14.5310   76.9400   -4.9640 C   0  0  0  0  0  0  0  0  0  0  0  0
  -13.0620   76.9800   -5.4560 C   0  0  0  0  0  0  0  0  0  0  0  0
  -12.1050   76.8690   -4.2460 C   0  0  0  0  0  0  0  0  0  0  0  0
  -12.7780   75.8660   -6.4670 C   0  0  0  0  0  0  0  0  0  0  0  0
  -17.6690   77.8100   -4.5870 N   0  0  0  0  0  0  0  0  0  0  0  0
  -19.0140   77.5060   -4.0610 C   0  0  0  0  0  0  0  0  0  0  0  0
  -11.8733   81.6502   -5.9860 H   0  0  0  0  0  0  0  0  0  0  0  0
  -11.0752   82.0256   -4.4777 H   0  0  0  0  0  0  0  0  0  0  0  0
  -12.3491   83.0624   -5.0737 H   0  0  0  0  0  0  0  0  0  0  0  0
  -12.8192   82.3091   -2.5793 H   0  0  0  0  0  0  0  0  0  0  0  0
  -14.0901   79.9177   -2.0015 H   0  0  0  0  0  0  0  0  0  0  0  0
  -14.7997   82.6840   -1.0894 H   0  0  0  0  0  0  0  0  0  0  0  0
  -13.7243   81.4442   -0.3032 H   0  0  0  0  0  0  0  0  0  0  0  0
  -16.6361   81.2390   -0.5229 H   0  0  0  0  0  0  0  0  0  0  0  0
  -14.6657   79.6898    1.1454 H   0  0  0  0  0  0  0  0  0  0  0  0
  -15.4413   79.1113   -0.3095 H   0  0  0  0  0  0  0  0  0  0  0  0
  -16.3944   79.4366    1.1183 H   0  0  0  0  0  0  0  0  0  0  0  0
  -15.1581   82.1130    1.9081 H   0  0  0  0  0  0  0  0  0  0  0  0
  -16.8679   81.7690    1.8020 H   0  0  0  0  0  0  0  0  0  0  0  0
  -16.1890   83.1079    0.9079 H   0  0  0  0  0  0  0  0  0  0  0  0
  -15.6366   82.8955   -3.2618 H   0  0  0  0  0  0  0  0  0  0  0  0
  -18.1751   81.7189   -3.5582 H   0  0  0  0  0  0  0  0  0  0  0  0
  -17.9551   84.1112   -3.4401 H   0  0  0  0  0  0  0  0  0  0  0  0
  -17.0762   84.0759   -5.0085 H   0  0  0  0  0  0  0  0  0  0  0  0
  -19.0523   83.3601   -6.1094 H   0  0  0  0  0  0  0  0  0  0  0  0
  -20.5666   83.7058   -3.5333 H   0  0  0  0  0  0  0  0  0  0  0  0
  -20.2343   82.1880   -4.3327 H   0  0  0  0  0  0  0  0  0  0  0  0
  -21.2672   83.3710   -5.0986 H   0  0  0  0  0  0  0  0  0  0  0  0
  -19.4685   85.9174   -4.5581 H   0  0  0  0  0  0  0  0  0  0  0  0
  -20.2485   85.5071   -6.0668 H   0  0  0  0  0  0  0  0  0  0  0  0
  -18.5200   85.7581   -6.0169 H   0  0  0  0  0  0  0  0  0  0  0  0
  -15.5448   81.9803   -5.9292 H   0  0  0  0  0  0  0  0  0  0  0  0
  -17.0783   81.0188   -8.0895 H   0  0  0  0  0  0  0  0  0  0  0  0
  -14.1078   80.7855   -7.6888 H   0  0  0  0  0  0  0  0  0  0  0  0
  -14.9334   82.1341   -8.4322 H   0  0  0  0  0  0  0  0  0  0  0  0
  -14.9526   80.5659   -9.2024 H   0  0  0  0  0  0  0  0  0  0  0  0
  -14.9778   79.2928   -5.8297 H   0  0  0  0  0  0  0  0  0  0  0  0
  -15.5109   76.7298   -6.8345 H   0  0  0  0  0  0  0  0  0  0  0  0
  -14.7204   75.9433   -4.6241 H   0  0  0  0  0  0  0  0  0  0  0  0
  -14.5749   77.7142   -4.2267 H   0  0  0  0  0  0  0  0  0  0  0  0
  -12.8995   77.9135   -5.9531 H   0  0  0  0  0  0  0  0  0  0  0  0
  -12.2665   75.9358   -3.7480 H   0  0  0  0  0  0  0  0  0  0  0  0
  -12.2945   77.6735   -3.5664 H   0  0  0  0  0  0  0  0  0  0  0  0
  -11.0920   76.9209   -4.5865 H   0  0  0  0  0  0  0  0  0  0  0  0
  -12.9313   74.9147   -6.0019 H   0  0  0  0  0  0  0  0  0  0  0  0
  -11.7649   75.9394   -6.8034 H   0  0  0  0  0  0  0  0  0  0  0  0
  -13.4393   75.9653   -7.3023 H   0  0  0  0  0  0  0  0  0  0  0  0
  -17.2383   78.6678   -4.3680 H   0  0  0  0  0  0  0  0  0  0  0  0
  -19.3191   76.5380   -4.3998 H   0  0  0  0  0  0  0  0  0  0  0  0
  -19.7083   78.2414   -4.4105 H   0  0  0  0  0  0  0  0  0  0  0  0
  -18.9898   77.5182   -2.9913 H   0  0  0  0  0  0  0  0  0  0  0  0
  1  2  1  0  0  0  0
  1 35  1  0  0  0  0
  1 36  1  0  0  0  0
  1 37  1  0  0  0  0
  2  4  1  0  0  0  0
  3  2  2  0  0  0  0
  4  5  1  0  0  0  0
  4 38  1  0  0  0  0
  5  8  1  0  0  0  0
  5 39  1  1  0  0  0
  6  5  1  0  0  0  0
  7  6  2  0  0  0  0
  8  9  1  0  0  0  0
  8 40  1  0  0  0  0
  8 41  1  0  0  0  0
  9 10  1  0  0  0  0
  9 11  1  0  0  0  0
  9 42  1  0  0  0  0
 10 43  1  0  0  0  0
 10 44  1  0  0  0  0
 10 45  1  0  0  0  0
 11 46  1  0  0  0  0
 11 47  1  0  0  0  0
 11 48  1  0  0  0  0
 12  6  1  0  0  0  0
 12 49  1  0  0  0  0
 13 12  1  0  0  0  0
 13 50  1  1  0  0  0
 14 13  1  0  0  0  0
 15 14  2  0  0  0  0
 16 13  1  0  0  0  0
 16 51  1  0  0  0  0
 16 52  1  0  0  0  0
 17 18  1  0  0  0  0
 17 16  1  0  0  0  0
 17 53  1  0  0  0  0
 18 54  1  0  0  0  0
 18 55  1  0  0  0  0
 18 56  1  0  0  0  0
 19 17  1  0  0  0  0
 19 57  1  0  0  0  0
 19 58  1  0  0  0  0
 19 59  1  0  0  0  0
 20 14  1  0  0  0  0
 20 60  1  0  0  0  0
 21 22  1  0  0  0  0
 21 20  1  0  0  0  0
 21 61  1  6  0  0  0
 22 25  1  0  0  0  0
 23 22  2  0  0  0  0
 24 21  1  0  0  0  0
 24 62  1  0  0  0  0
 24 63  1  0  0  0  0
 24 64  1  0  0  0  0
 25 26  1  0  0  0  0
 25 65  1  0  0  0  0
 26 27  1  0  0  0  0
 26 29  1  0  0  0  0
 26 66  1  6  0  0  0
 27 33  1  0  0  0  0
 28 27  2  0  0  0  0
 29 67  1  0  0  0  0
 29 68  1  0  0  0  0
 30 29  1  0  0  0  0
 30 31  1  0  0  0  0
 30 69  1  0  0  0  0
 31 70  1  0  0  0  0
 31 71  1  0  0  0  0
 31 72  1  0  0  0  0
 32 30  1  0  0  0  0
 32 73  1  0  0  0  0
 32 74  1  0  0  0  0
 32 75  1  0  0  0  0
 33 34  1  0  0  0  0
 33 76  1  0  0  0  0
 34 77  1  0  0  0  0
 34 78  1  0  0  0  0
 34 79  1  0  0  0  0
M  END
>  <MODEL>
       0

$$$$
selected_4mers/LLAL/202_noH.pdb
 OpenBabel03042517503D

 79 78  0  0  1  0  0  0  0  0999 V2000
   25.6950   19.6730   23.3400 C   0  0  0  0  0  0  0  0  0  0  0  0
   24.3440   20.3350   23.5440 C   0  0  0  0  0  0  0  0  0  0  0  0
   23.5730   19.9270   24.4120 O   0  0  0  0  0  0  0  0  0  0  0  0
   24.0790   21.3680   22.7490 N   0  0  0  0  0  0  0  0  0  0  0  0
   22.7770   22.0340   22.7580 C   0  0  2  0  0  0  0  0  0  0  0  0
   21.6290   21.0710   22.4260 C   0  0  0  0  0  0  0  0  0  0  0  0
   20.6090   21.0640   23.1220 O   0  0  0  0  0  0  0  0  0  0  0  0
   22.8370   23.2690   21.8510 C   0  0  0  0  0  0  0  0  0  0  0  0
   23.7280   24.4390   22.2950 C   0  0  0  0  0  0  0  0  0  0  0  0
   24.1030   25.4250   21.1470 C   0  0  0  0  0  0  0  0  0  0  0  0
   23.0760   25.1370   23.5090 C   0  0  0  0  0  0  0  0  0  0  0  0
   21.8240   20.1910   21.4350 N   0  0  0  0  0  0  0  0  0  0  0  0
   20.7690   19.2920   20.9510 C   0  0  2  0  0  0  0  0  0  0  0  0
   20.4440   18.2130   21.9930 C   0  0  0  0  0  0  0  0  0  0  0  0
   19.3730   17.6130   21.9800 O   0  0  0  0  0  0  0  0  0  0  0  0
   21.1750   18.6810   19.6040 C   0  0  0  0  0  0  0  0  0  0  0  0
   21.1380   19.5980   18.3840 C   0  0  0  0  0  0  0  0  0  0  0  0
   21.9190   18.9860   17.1970 C   0  0  0  0  0  0  0  0  0  0  0  0
   19.6590   19.8430   18.0330 C   0  0  0  0  0  0  0  0  0  0  0  0
   21.3660   18.0010   22.9280 N   0  0  0  0  0  0  0  0  0  0  0  0
   21.1380   17.0170   23.9840 C   0  0  2  0  0  0  0  0  0  0  0  0
   20.2930   17.5880   25.1330 C   0  0  0  0  0  0  0  0  0  0  0  0
   19.7570   16.8190   25.9470 O   0  0  0  0  0  0  0  0  0  0  0  0
   22.4660   16.4920   24.4840 C   0  0  0  0  0  0  0  0  0  0  0  0
   20.1450   18.9100   25.2160 N   0  0  0  0  0  0  0  0  0  0  0  0
   19.3370   19.5060   26.2820 C   0  0  2  0  0  0  0  0  0  0  0  0
   17.8550   19.1210   26.1210 C   0  0  0  0  0  0  0  0  0  0  0  0
   17.3230   19.1860   24.9960 O   0  0  0  0  0  0  0  0  0  0  0  0
   19.4490   21.0270   26.2560 C   0  0  0  0  0  0  0  0  0  0  0  0
   20.7780   21.6870   26.5950 C   0  0  0  0  0  0  0  0  0  0  0  0
   20.7400   23.2060   26.2680 C   0  0  0  0  0  0  0  0  0  0  0  0
   21.1160   21.4400   28.0480 C   0  0  0  0  0  0  0  0  0  0  0  0
   17.1690   18.7160   27.2120 N   0  0  0  0  0  0  0  0  0  0  0  0
   15.7370   18.3630   27.0580 C   0  0  0  0  0  0  0  0  0  0  0  0
   26.2170   20.1650   22.5460 H   0  0  0  0  0  0  0  0  0  0  0  0
   25.5530   18.6426   23.0889 H   0  0  0  0  0  0  0  0  0  0  0  0
   26.2671   19.7449   24.2413 H   0  0  0  0  0  0  0  0  0  0  0  0
   24.7787   21.6932   22.1376 H   0  0  0  0  0  0  0  0  0  0  0  0
   22.5562   22.3718   23.7490 H   0  0  0  0  0  0  0  0  0  0  0  0
   23.1882   22.9454   20.8935 H   0  0  0  0  0  0  0  0  0  0  0  0
   21.8431   23.6649   21.8674 H   0  0  0  0  0  0  0  0  0  0  0  0
   24.6744   24.0380   22.5925 H   0  0  0  0  0  0  0  0  0  0  0  0
   23.2151   25.8888   20.7710 H   0  0  0  0  0  0  0  0  0  0  0  0
   24.5858   24.8869   20.3582 H   0  0  0  0  0  0  0  0  0  0  0  0
   24.7654   26.1760   21.5240 H   0  0  0  0  0  0  0  0  0  0  0  0
   22.1282   25.5416   23.2212 H   0  0  0  0  0  0  0  0  0  0  0  0
   23.7121   25.9268   23.8504 H   0  0  0  0  0  0  0  0  0  0  0  0
   22.9361   24.4261   24.2964 H   0  0  0  0  0  0  0  0  0  0  0  0
   22.7125   20.1452   21.0134 H   0  0  0  0  0  0  0  0  0  0  0  0
   19.8743   19.8591   20.7998 H   0  0  0  0  0  0  0  0  0  0  0  0
   22.1765   18.3178   19.7038 H   0  0  0  0  0  0  0  0  0  0  0  0
   20.4384   17.9301   19.4078 H   0  0  0  0  0  0  0  0  0  0  0  0
   21.6180   20.5291   18.6021 H   0  0  0  0  0  0  0  0  0  0  0  0
   21.4833   18.0458   16.9302 H   0  0  0  0  0  0  0  0  0  0  0  0
   22.9402   18.8383   17.4802 H   0  0  0  0  0  0  0  0  0  0  0  0
   21.8736   19.6506   16.3596 H   0  0  0  0  0  0  0  0  0  0  0  0
   19.1845   18.9089   17.8160 H   0  0  0  0  0  0  0  0  0  0  0  0
   19.5967   20.4821   17.1771 H   0  0  0  0  0  0  0  0  0  0  0  0
   19.1680   20.3083   18.8620 H   0  0  0  0  0  0  0  0  0  0  0  0
   22.2081   18.5107   22.9085 H   0  0  0  0  0  0  0  0  0  0  0  0
   20.5759   16.2058   23.5706 H   0  0  0  0  0  0  0  0  0  0  0  0
   23.0346   17.2978   24.8992 H   0  0  0  0  0  0  0  0  0  0  0  0
   23.0067   16.0564   23.6699 H   0  0  0  0  0  0  0  0  0  0  0  0
   22.2959   15.7506   25.2365 H   0  0  0  0  0  0  0  0  0  0  0  0
   20.5834   19.4918   24.5538 H   0  0  0  0  0  0  0  0  0  0  0  0
   19.7071   19.1329   27.2140 H   0  0  0  0  0  0  0  0  0  0  0  0
   18.7281   21.4040   26.9511 H   0  0  0  0  0  0  0  0  0  0  0  0
   19.3029   21.2719   25.2247 H   0  0  0  0  0  0  0  0  0  0  0  0
   21.5479   21.2526   25.9922 H   0  0  0  0  0  0  0  0  0  0  0  0
   19.9790   23.6780   26.8537 H   0  0  0  0  0  0  0  0  0  0  0  0
   20.5257   23.3418   25.2285 H   0  0  0  0  0  0  0  0  0  0  0  0
   21.6891   23.6439   26.4967 H   0  0  0  0  0  0  0  0  0  0  0  0
   20.3565   21.8677   28.6686 H   0  0  0  0  0  0  0  0  0  0  0  0
   22.0591   21.8909   28.2765 H   0  0  0  0  0  0  0  0  0  0  0  0
   21.1716   20.3866   28.2272 H   0  0  0  0  0  0  0  0  0  0  0  0
   17.6101   18.6565   28.0901 H   0  0  0  0  0  0  0  0  0  0  0  0
   15.4458   18.4918   26.0365 H   0  0  0  0  0  0  0  0  0  0  0  0
   15.1438   18.9994   27.6809 H   0  0  0  0  0  0  0  0  0  0  0  0
   15.5881   17.3432   27.3455 H   0  0  0  0  0  0  0  0  0  0  0  0
  1  2  1  0  0  0  0
  1 35  1  0  0  0  0
  1 36  1  0  0  0  0
  1 37  1  0  0  0  0
  2  3  2  0  0  0  0
  4  5  1  0  0  0  0
  4  2  1  0  0  0  0
  4 38  1  0  0  0  0
  5 39  1  1  0  0  0
  6  5  1  0  0  0  0
  6  7  2  0  0  0  0
  8  9  1  0  0  0  0
  8  5  1  0  0  0  0
  8 40  1  0  0  0  0
  8 41  1  0  0  0  0
  9 11  1  0  0  0  0
  9 42  1  0  0  0  0
 10  9  1  0  0  0  0
 10 43  1  0  0  0  0
 10 44  1  0  0  0  0
 10 45  1  0  0  0  0
 11 46  1  0  0  0  0
 11 47  1  0  0  0  0
 11 48  1  0  0  0  0
 12  6  1  0  0  0  0
 12 49  1  0  0  0  0
 13 12  1  0  0  0  0
 13 14  1  0  0  0  0
 13 50  1  6  0  0  0
 14 20  1  0  0  0  0
 15 14  2  0  0  0  0
 16 13  1  0  0  0  0
 16 51  1  0  0  0  0
 16 52  1  0  0  0  0
 17 16  1  0  0  0  0
 17 53  1  0  0  0  0
 18 17  1  0  0  0  0
 18 54  1  0  0  0  0
 18 55  1  0  0  0  0
 18 56  1  0  0  0  0
 19 17  1  0  0  0  0
 19 57  1  0  0  0  0
 19 58  1  0  0  0  0
 19 59  1  0  0  0  0
 20 21  1  0  0  0  0
 20 60  1  0  0  0  0
 21 24  1  0  0  0  0
 21 22  1  0  0  0  0
 21 61  1  6  0  0  0
 22 25  1  0  0  0  0
 22 23  2  0  0  0  0
 24 62  1  0  0  0  0
 24 63  1  0  0  0  0
 24 64  1  0  0  0  0
 25 26  1  0  0  0  0
 25 65  1  0  0  0  0
 26 66  1  1  0  0  0
 27 26  1  0  0  0  0
 27 33  1  0  0  0  0
 28 27  2  0  0  0  0
 29 26  1  0  0  0  0
 29 30  1  0  0  0  0
 29 67  1  0  0  0  0
 29 68  1  0  0  0  0
 30 32  1  0  0  0  0
 30 69  1  0  0  0  0
 31 30  1  0  0  0  0
 31 70  1  0  0  0  0
 31 71  1  0  0  0  0
 31 72  1  0  0  0  0
 32 73  1  0  0  0  0
 32 74  1  0  0  0  0
 32 75  1  0  0  0  0
 33 76  1  0  0  0  0
 34 33  1  0  0  0  0
 34 77  1  0  0  0  0
 34 78  1  0  0  0  0
 34 79  1  0  0  0  0
M  END
>  <MODEL>
       0

$$$$
selected_4mers/LLAL/203_noH.pdb
 OpenBabel03042517503D

 79 78  0  0  1  0  0  0  0  0999 V2000
   88.7240   15.2420   46.4120 C   0  0  0  0  0  0  0  0  0  0  0  0
   90.1870   15.4290   46.7650 C   0  0  0  0  0  0  0  0  0  0  0  0
   90.9630   14.4740   46.8120 O   0  0  0  0  0  0  0  0  0  0  0  0
   90.5360   16.6880   47.0160 N   0  0  0  0  0  0  0  0  0  0  0  0
   91.8640   17.0780   47.4690 C   0  0  2  0  0  0  0  0  0  0  0  0
   91.5250   17.7300   48.8010 C   0  0  0  0  0  0  0  0  0  0  0  0
   90.8750   18.7790   48.8250 O   0  0  0  0  0  0  0  0  0  0  0  0
   92.5030   18.1240   46.5540 C   0  0  0  0  0  0  0  0  0  0  0  0
   93.7570   18.7320   47.2040 C   0  0  0  0  0  0  0  0  0  0  0  0
   94.8070   17.6450   47.4040 C   0  0  0  0  0  0  0  0  0  0  0  0
   94.3080   19.8610   46.3540 C   0  0  0  0  0  0  0  0  0  0  0  0
   91.9450   17.1100   49.8990 N   0  0  0  0  0  0  0  0  0  0  0  0
   91.6360   17.6280   51.2250 C   0  0  2  0  0  0  0  0  0  0  0  0
   92.7840   18.2950   51.9710 C   0  0  0  0  0  0  0  0  0  0  0  0
   93.8740   17.7330   52.0970 O   0  0  0  0  0  0  0  0  0  0  0  0
   91.0800   16.5110   52.1200 C   0  0  0  0  0  0  0  0  0  0  0  0
   89.8180   15.7730   51.6730 C   0  0  0  0  0  0  0  0  0  0  0  0
   90.2070   14.6050   50.7800 C   0  0  0  0  0  0  0  0  0  0  0  0
   89.0520   15.2730   52.9030 C   0  0  0  0  0  0  0  0  0  0  0  0
   92.5140   19.4920   52.4820 N   0  0  0  0  0  0  0  0  0  0  0  0
   93.4890   20.2300   53.2630 C   0  0  2  0  0  0  0  0  0  0  0  0
   92.9730   20.2830   54.6970 C   0  0  0  0  0  0  0  0  0  0  0  0
   91.8360   20.7000   54.9430 O   0  0  0  0  0  0  0  0  0  0  0  0
   93.6590   21.6410   52.7110 C   0  0  0  0  0  0  0  0  0  0  0  0
   93.7970   19.8320   55.6360 N   0  0  0  0  0  0  0  0  0  0  0  0
   93.4350   19.8480   57.0500 C   0  0  2  0  0  0  0  0  0  0  0  0
   94.3030   20.8580   57.7950 C   0  0  0  0  0  0  0  0  0  0  0  0
   95.5360   20.8060   57.7240 O   0  0  0  0  0  0  0  0  0  0  0  0
   93.6200   18.4580   57.6790 C   0  0  0  0  0  0  0  0  0  0  0  0
   92.4320   17.4750   57.6630 C   0  0  0  0  0  0  0  0  0  0  0  0
   92.0050   17.1590   56.2400 C   0  0  0  0  0  0  0  0  0  0  0  0
   92.8240   16.1990   58.4000 C   0  0  0  0  0  0  0  0  0  0  0  0
   93.6620   21.7900   58.4920 N   0  0  0  0  0  0  0  0  0  0  0  0
   94.3980   22.7880   59.2630 C   0  0  0  0  0  0  0  0  0  0  0  0
   88.5314   14.2059   46.2266 H   0  0  0  0  0  0  0  0  0  0  0  0
   88.4932   15.8101   45.5351 H   0  0  0  0  0  0  0  0  0  0  0  0
   88.1151   15.5780   47.2252 H   0  0  0  0  0  0  0  0  0  0  0  0
   89.8609   17.3932   46.8888 H   0  0  0  0  0  0  0  0  0  0  0  0
   92.5561   16.2626   47.5015 H   0  0  0  0  0  0  0  0  0  0  0  0
   92.7779   17.6596   45.6301 H   0  0  0  0  0  0  0  0  0  0  0  0
   91.7937   18.9068   46.3834 H   0  0  0  0  0  0  0  0  0  0  0  0
   93.4923   19.1394   48.1573 H   0  0  0  0  0  0  0  0  0  0  0  0
   95.0778   17.2317   46.4549 H   0  0  0  0  0  0  0  0  0  0  0  0
   94.4071   16.8733   48.0281 H   0  0  0  0  0  0  0  0  0  0  0  0
   95.6731   18.0671   47.8694 H   0  0  0  0  0  0  0  0  0  0  0  0
   94.5820   19.4819   45.3917 H   0  0  0  0  0  0  0  0  0  0  0  0
   95.1696   20.2790   46.8313 H   0  0  0  0  0  0  0  0  0  0  0  0
   93.5610   20.6185   46.2395 H   0  0  0  0  0  0  0  0  0  0  0  0
   92.4752   16.2848   49.8146 H   0  0  0  0  0  0  0  0  0  0  0  0
   90.9168   18.3963   51.0315 H   0  0  0  0  0  0  0  0  0  0  0  0
   90.8687   16.9473   53.0739 H   0  0  0  0  0  0  0  0  0  0  0  0
   91.8413   15.7594   52.1013 H   0  0  0  0  0  0  0  0  0  0  0  0
   89.1861   16.4374   51.1214 H   0  0  0  0  0  0  0  0  0  0  0  0
   90.8395   13.9352   51.3242 H   0  0  0  0  0  0  0  0  0  0  0  0
   90.7302   14.9712   49.9215 H   0  0  0  0  0  0  0  0  0  0  0  0
   89.3250   14.0869   50.4661 H   0  0  0  0  0  0  0  0  0  0  0  0
   89.6737   14.6068   53.4639 H   0  0  0  0  0  0  0  0  0  0  0  0
   88.1693   14.7568   52.5879 H   0  0  0  0  0  0  0  0  0  0  0  0
   88.7783   16.1063   53.5158 H   0  0  0  0  0  0  0  0  0  0  0  0
   91.6268   19.8893   52.3260 H   0  0  0  0  0  0  0  0  0  0  0  0
   94.4444   19.7500   53.2204 H   0  0  0  0  0  0  0  0  0  0  0  0
   92.7187   22.1508   52.7393 H   0  0  0  0  0  0  0  0  0  0  0  0
   94.0063   21.5891   51.7003 H   0  0  0  0  0  0  0  0  0  0  0  0
   94.3713   22.1734   53.3060 H   0  0  0  0  0  0  0  0  0  0  0  0
   94.6762   19.4771   55.3710 H   0  0  0  0  0  0  0  0  0  0  0  0
   92.4049   20.1267   57.1283 H   0  0  0  0  0  0  0  0  0  0  0  0
   93.8903   18.6090   58.7032 H   0  0  0  0  0  0  0  0  0  0  0  0
   94.3551   17.9879   57.0598 H   0  0  0  0  0  0  0  0  0  0  0  0
   91.5991   17.9296   58.1575 H   0  0  0  0  0  0  0  0  0  0  0  0
   92.8186   16.7017   55.7167 H   0  0  0  0  0  0  0  0  0  0  0  0
   91.7245   18.0638   55.7425 H   0  0  0  0  0  0  0  0  0  0  0  0
   91.1711   16.4888   56.2583 H   0  0  0  0  0  0  0  0  0  0  0  0
   93.6569   15.7435   57.9063 H   0  0  0  0  0  0  0  0  0  0  0  0
   91.9966   15.5205   58.4032 H   0  0  0  0  0  0  0  0  0  0  0  0
   93.0936   16.4376   59.4076 H   0  0  0  0  0  0  0  0  0  0  0  0
   92.6777   21.8079   58.4886 H   0  0  0  0  0  0  0  0  0  0  0  0
   95.4489   22.6196   59.1532 H   0  0  0  0  0  0  0  0  0  0  0  0
   94.1301   22.7094   60.2959 H   0  0  0  0  0  0  0  0  0  0  0  0
   94.1542   23.7663   58.9048 H   0  0  0  0  0  0  0  0  0  0  0  0
  1  2  1  0  0  0  0
  1 35  1  0  0  0  0
  1 36  1  0  0  0  0
  1 37  1  0  0  0  0
  2  3  2  0  0  0  0
  2  4  1  0  0  0  0
  4  5  1  0  0  0  0
  4 38  1  0  0  0  0
  5  6  1  0  0  0  0
  5 39  1  1  0  0  0
  6  7  2  0  0  0  0
  6 12  1  0  0  0  0
  8  9  1  0  0  0  0
  8  5  1  0  0  0  0
  8 40  1  0  0  0  0
  8 41  1  0  0  0  0
  9 10  1  0  0  0  0
  9 42  1  0  0  0  0
 10 43  1  0  0  0  0
 10 44  1  0  0  0  0
 10 45  1  0  0  0  0
 11  9  1  0  0  0  0
 11 46  1  0  0  0  0
 11 47  1  0  0  0  0
 11 48  1  0  0  0  0
 12 13  1  0  0  0  0
 12 49  1  0  0  0  0
 13 14  1  0  0  0  0
 13 16  1  0  0  0  0
 13 50  1  6  0  0  0
 14 15  2  0  0  0  0
 14 20  1  0  0  0  0
 16 51  1  0  0  0  0
 16 52  1  0  0  0  0
 17 16  1  0  0  0  0
 17 19  1  0  0  0  0
 17 53  1  0  0  0  0
 18 17  1  0  0  0  0
 18 54  1  0  0  0  0
 18 55  1  0  0  0  0
 18 56  1  0  0  0  0
 19 57  1  0  0  0  0
 19 58  1  0  0  0  0
 19 59  1  0  0  0  0
 20 21  1  0  0  0  0
 20 60  1  0  0  0  0
 21 22  1  0  0  0  0
 21 61  1  6  0  0  0
 22 23  2  0  0  0  0
 22 25  1  0  0  0  0
 24 21  1  0  0  0  0
 24 62  1  0  0  0  0
 24 63  1  0  0  0  0
 24 64  1  0  0  0  0
 25 26  1  0  0  0  0
 25 65  1  0  0  0  0
 26 29  1  0  0  0  0
 26 27  1  0  0  0  0
 26 66  1  1  0  0  0
 27 33  1  0  0  0  0
 28 27  2  0  0  0  0
 29 67  1  0  0  0  0
 29 68  1  0  0  0  0
 30 29  1  0  0  0  0
 30 32  1  0  0  0  0
 30 69  1  0  0  0  0
 31 30  1  0  0  0  0
 31 70  1  0  0  0  0
 31 71  1  0  0  0  0
 31 72  1  0  0  0  0
 32 73  1  0  0  0  0
 32 74  1  0  0  0  0
 32 75  1  0  0  0  0
 33 34  1  0  0  0  0
 33 76  1  0  0  0  0
 34 77  1  0  0  0  0
 34 78  1  0  0  0  0
 34 79  1  0  0  0  0
M  END
>  <MODEL>
       0

$$$$
selected_4mers/LLAL/204_noH.pdb
 OpenBabel03042517503D

 79 78  0  0  1  0  0  0  0  0999 V2000
   22.7370   11.5240   10.7320 C   0  0  0  0  0  0  0  0  0  0  0  0
   21.8000   11.0370    9.6210 C   0  0  0  0  0  0  0  0  0  0  0  0
   21.3670    9.8910    9.6600 O   0  0  0  0  0  0  0  0  0  0  0  0
   21.5090   11.8790    8.6240 N   0  0  0  0  0  0  0  0  0  0  0  0
   20.6850   11.4170    7.4930 C   0  0  2  0  0  0  0  0  0  0  0  0
   21.3960   10.2680    6.7390 C   0  0  0  0  0  0  0  0  0  0  0  0
   20.7790    9.2530    6.3840 O   0  0  0  0  0  0  0  0  0  0  0  0
   20.3510   12.5900    6.5570 C   0  0  0  0  0  0  0  0  0  0  0  0
   19.5260   12.2250    5.3000 C   0  0  0  0  0  0  0  0  0  0  0  0
   18.1970   11.5540    5.6830 C   0  0  0  0  0  0  0  0  0  0  0  0
   19.2770   13.4780    4.4950 C   0  0  0  0  0  0  0  0  0  0  0  0
   22.7020   10.4070    6.5080 N   0  0  0  0  0  0  0  0  0  0  0  0
   23.4530    9.3430    5.8090 C   0  0  2  0  0  0  0  0  0  0  0  0
   23.3510    8.0360    6.5950 C   0  0  0  0  0  0  0  0  0  0  0  0
   23.2460    6.9410    5.9930 O   0  0  0  0  0  0  0  0  0  0  0  0
   24.9430    9.7270    5.6160 C   0  0  0  0  0  0  0  0  0  0  0  0
   25.1800   11.0150    4.8070 C   0  0  0  0  0  0  0  0  0  0  0  0
   26.6830   11.2530    4.5200 C   0  0  0  0  0  0  0  0  0  0  0  0
   24.3690   11.0300    3.4880 C   0  0  0  0  0  0  0  0  0  0  0  0
   23.4350    8.1430    7.9250 N   0  0  0  0  0  0  0  0  0  0  0  0
   23.3400    6.9660    8.8000 C   0  0  2  0  0  0  0  0  0  0  0  0
   21.9580    6.3290    8.7000 C   0  0  0  0  0  0  0  0  0  0  0  0
   21.8340    5.1100    8.5460 O   0  0  0  0  0  0  0  0  0  0  0  0
   23.6640    7.3290   10.2710 C   0  0  0  0  0  0  0  0  0  0  0  0
   20.9060    7.1440    8.7440 N   0  0  0  0  0  0  0  0  0  0  0  0
   19.5580    6.5810    8.5610 C   0  0  2  0  0  0  0  0  0  0  0  0
   19.3980    5.8940    7.1870 C   0  0  0  0  0  0  0  0  0  0  0  0
   18.7910    4.8300    7.0690 O   0  0  0  0  0  0  0  0  0  0  0  0
   18.5100    7.6820    8.7250 C   0  0  0  0  0  0  0  0  0  0  0  0
   18.4010    8.2950   10.1390 C   0  0  0  0  0  0  0  0  0  0  0  0
   17.5300    9.5640   10.0900 C   0  0  0  0  0  0  0  0  0  0  0  0
   17.8680    7.2630   11.1510 C   0  0  0  0  0  0  0  0  0  0  0  0
   19.9390    6.5200    6.1500 N   0  0  0  0  0  0  0  0  0  0  0  0
   19.8470    5.9640    4.8050 C   0  0  0  0  0  0  0  0  0  0  0  0
   23.0172   12.5392   10.5427 H   0  0  0  0  0  0  0  0  0  0  0  0
   23.6132   10.9103   10.7541 H   0  0  0  0  0  0  0  0  0  0  0  0
   22.2346   11.4625   11.6747 H   0  0  0  0  0  0  0  0  0  0  0  0
   21.8441   12.8045    8.6454 H   0  0  0  0  0  0  0  0  0  0  0  0
   19.7613   11.0321    7.8718 H   0  0  0  0  0  0  0  0  0  0  0  0
   19.7949   13.3116    7.1182 H   0  0  0  0  0  0  0  0  0  0  0  0
   21.2901   12.9547    6.1964 H   0  0  0  0  0  0  0  0  0  0  0  0
   20.0791   11.5236    4.7109 H   0  0  0  0  0  0  0  0  0  0  0  0
   17.6146   12.2285    6.2752 H   0  0  0  0  0  0  0  0  0  0  0  0
   18.3951   10.6655    6.2454 H   0  0  0  0  0  0  0  0  0  0  0  0
   17.6563   11.3009    4.7950 H   0  0  0  0  0  0  0  0  0  0  0  0
   18.7238   14.1777    5.0861 H   0  0  0  0  0  0  0  0  0  0  0  0
   18.7175   13.2323    3.6166 H   0  0  0  0  0  0  0  0  0  0  0  0
   20.2132   13.9119    4.2118 H   0  0  0  0  0  0  0  0  0  0  0  0
   23.1680   11.2220    6.8044 H   0  0  0  0  0  0  0  0  0  0  0  0
   23.0190    9.2166    4.8392 H   0  0  0  0  0  0  0  0  0  0  0  0
   25.3810    9.8567    6.5836 H   0  0  0  0  0  0  0  0  0  0  0  0
   25.3875    8.9328    5.0534 H   0  0  0  0  0  0  0  0  0  0  0  0
   24.8298   11.8201    5.4187 H   0  0  0  0  0  0  0  0  0  0  0  0
   27.0593   10.4598    3.9083 H   0  0  0  0  0  0  0  0  0  0  0  0
   27.2229   11.2780    5.4435 H   0  0  0  0  0  0  0  0  0  0  0  0
   26.8054   12.1856    4.0100 H   0  0  0  0  0  0  0  0  0  0  0  0
   24.7005   10.2324    2.8564 H   0  0  0  0  0  0  0  0  0  0  0  0
   24.5167   11.9650    2.9891 H   0  0  0  0  0  0  0  0  0  0  0  0
   23.3294   10.9030    3.7071 H   0  0  0  0  0  0  0  0  0  0  0  0
   23.5636    9.0319    8.3281 H   0  0  0  0  0  0  0  0  0  0  0  0
   24.0679    6.2554    8.4680 H   0  0  0  0  0  0  0  0  0  0  0  0
   22.9490    8.0402   10.6286 H   0  0  0  0  0  0  0  0  0  0  0  0
   24.6456    7.7514   10.3263 H   0  0  0  0  0  0  0  0  0  0  0  0
   23.6212    6.4461   10.8740 H   0  0  0  0  0  0  0  0  0  0  0  0
   21.0278    8.1089    8.8967 H   0  0  0  0  0  0  0  0  0  0  0  0
   19.4138    5.8315    9.3109 H   0  0  0  0  0  0  0  0  0  0  0  0
   17.5562    7.2690    8.4709 H   0  0  0  0  0  0  0  0  0  0  0  0
   18.8210    8.4798    8.0834 H   0  0  0  0  0  0  0  0  0  0  0  0
   19.3769    8.5765   10.4756 H   0  0  0  0  0  0  0  0  0  0  0  0
   16.5463    9.3087    9.7554 H   0  0  0  0  0  0  0  0  0  0  0  0
   17.9651   10.2693    9.4132 H   0  0  0  0  0  0  0  0  0  0  0  0
   17.4734    9.9957   11.0674 H   0  0  0  0  0  0  0  0  0  0  0  0
   16.8885    6.9482   10.8570 H   0  0  0  0  0  0  0  0  0  0  0  0
   17.8230    7.7073   12.1233 H   0  0  0  0  0  0  0  0  0  0  0  0
   18.5223    6.4167   11.1755 H   0  0  0  0  0  0  0  0  0  0  0  0
   20.4099    7.3731    6.2906 H   0  0  0  0  0  0  0  0  0  0  0  0
   19.3062    5.0413    4.8367 H   0  0  0  0  0  0  0  0  0  0  0  0
   20.8311    5.7877    4.4239 H   0  0  0  0  0  0  0  0  0  0  0  0
   19.3362    6.6551    4.1675 H   0  0  0  0  0  0  0  0  0  0  0  0
  1 35  1  0  0  0  0
  1 36  1  0  0  0  0
  1 37  1  0  0  0  0
  2  3  2  0  0  0  0
  2  1  1  0  0  0  0
  4  2  1  0  0  0  0
  4 38  1  0  0  0  0
  5  4  1  0  0  0  0
  5 39  1  1  0  0  0
  6  5  1  0  0  0  0
  7  6  2  0  0  0  0
  8  5  1  0  0  0  0
  8 40  1  0  0  0  0
  8 41  1  0  0  0  0
  9 10  1  0  0  0  0
  9  8  1  0  0  0  0
  9 42  1  0  0  0  0
 10 43  1  0  0  0  0
 10 44  1  0  0  0  0
 10 45  1  0  0  0  0
 11  9  1  0  0  0  0
 11 46  1  0  0  0  0
 11 47  1  0  0  0  0
 11 48  1  0  0  0  0
 12  6  1  0  0  0  0
 12 49  1  0  0  0  0
 13 12  1  0  0  0  0
 13 14  1  0  0  0  0
 13 50  1  6  0  0  0
 14 20  1  0  0  0  0
 15 14  2  0  0  0  0
 16 13  1  0  0  0  0
 16 51  1  0  0  0  0
 16 52  1  0  0  0  0
 17 16  1  0  0  0  0
 17 53  1  0  0  0  0
 18 17  1  0  0  0  0
 18 54  1  0  0  0  0
 18 55  1  0  0  0  0
 18 56  1  0  0  0  0
 19 17  1  0  0  0  0
 19 57  1  0  0  0  0
 19 58  1  0  0  0  0
 19 59  1  0  0  0  0
 20 21  1  0  0  0  0
 20 60  1  0  0  0  0
 21 24  1  0  0  0  0
 21 61  1  6  0  0  0
 22 25  1  0  0  0  0
 22 21  1  0  0  0  0
 23 22  2  0  0  0  0
 24 62  1  0  0  0  0
 24 63  1  0  0  0  0
 24 64  1  0  0  0  0
 25 65  1  0  0  0  0
 26 29  1  0  0  0  0
 26 25  1  0  0  0  0
 26 66  1  1  0  0  0
 27 26  1  0  0  0  0
 28 27  2  0  0  0  0
 29 30  1  0  0  0  0
 29 67  1  0  0  0  0
 29 68  1  0  0  0  0
 30 32  1  0  0  0  0
 30 69  1  0  0  0  0
 31 30  1  0  0  0  0
 31 70  1  0  0  0  0
 31 71  1  0  0  0  0
 31 72  1  0  0  0  0
 32 73  1  0  0  0  0
 32 74  1  0  0  0  0
 32 75  1  0  0  0  0
 33 27  1  0  0  0  0
 33 76  1  0  0  0  0
 34 33  1  0  0  0  0
 34 77  1  0  0  0  0
 34 78  1  0  0  0  0
 34 79  1  0  0  0  0
M  END
>  <MODEL>
       0

$$$$
