selected_4mers/LLEA/65_noH.pdb
 OpenBabel03042517503D

 75 74  0  0  1  0  0  0  0  0999 V2000
   91.1080  100.3770  124.2210 C   0  0  0  0  0  0  0  0  0  0  0  0
   92.2750  100.6130  123.2770 C   0  0  0  0  0  0  0  0  0  0  0  0
   92.4420  101.7130  122.7470 O   0  0  0  0  0  0  0  0  0  0  0  0
   93.0820   99.5720  123.0660 N   0  0  0  0  0  0  0  0  0  0  0  0
   94.2320   99.6850  122.1670 C   0  0  2  0  0  0  0  0  0  0  0  0
   93.7920   99.8990  120.7160 C   0  0  0  0  0  0  0  0  0  0  0  0
   94.3670  100.7320  120.0170 O   0  0  0  0  0  0  0  0  0  0  0  0
   95.1270   98.4400  122.2750 C   0  0  0  0  0  0  0  0  0  0  0  0
   96.4540   98.4810  121.5420 C   0  0  0  0  0  0  0  0  0  0  0  0
   97.4310   99.4940  122.1640 C   0  0  0  0  0  0  0  0  0  0  0  0
   97.0640   97.1000  121.5190 C   0  0  0  0  0  0  0  0  0  0  0  0
   92.7920   99.1450  120.2700 N   0  0  0  0  0  0  0  0  0  0  0  0
   92.2780   99.2650  118.8930 C   0  0  2  0  0  0  0  0  0  0  0  0
   91.7050  100.6710  118.6530 C   0  0  0  0  0  0  0  0  0  0  0  0
   91.8810  101.2650  117.5860 O   0  0  0  0  0  0  0  0  0  0  0  0
   91.1990   98.2090  118.6050 C   0  0  0  0  0  0  0  0  0  0  0  0
   91.6940   96.7390  118.5210 C   0  0  0  0  0  0  0  0  0  0  0  0
   90.5800   95.7880  118.0900 C   0  0  0  0  0  0  0  0  0  0  0  0
   92.9300   96.5650  117.6330 C   0  0  0  0  0  0  0  0  0  0  0  0
   91.0170  101.1980  119.6550 N   0  0  0  0  0  0  0  0  0  0  0  0
   90.4490  102.5310  119.5370 C   0  0  2  0  0  0  0  0  0  0  0  0
   91.5290  103.6230  119.4130 C   0  0  0  0  0  0  0  0  0  0  0  0
   91.3740  104.5840  118.6250 O   0  0  0  0  0  0  0  0  0  0  0  0
   89.4750  102.7770  120.6890 C   0  0  0  0  0  0  0  0  0  0  0  0
   88.1550  102.0230  120.5000 C   0  0  0  0  0  0  0  0  0  0  0  0
   87.3600  102.5490  119.3000 C   0  0  0  0  0  0  0  0  0  0  0  0
   87.2090  101.8080  118.3000 O   0  0  0  0  0  0  0  0  0  0  0  0
   86.8900  103.7120  119.3590 O   0  0  0  0  0  0  0  0  0  0  0  0
   92.6280  103.4580  120.1560 N   0  0  0  0  0  0  0  0  0  0  0  0
   93.7860  104.3700  120.0390 C   0  0  2  0  0  0  0  0  0  0  0  0
   94.4150  104.2140  118.6540 C   0  0  0  0  0  0  0  0  0  0  0  0
   94.8120  105.2050  118.0340 O   0  0  0  0  0  0  0  0  0  0  0  0
   94.8200  104.0830  121.1250 C   0  0  0  0  0  0  0  0  0  0  0  0
   94.4800  102.9730  118.1560 N   0  0  0  0  0  0  0  0  0  0  0  0
   95.0250  102.7380  116.8110 C   0  0  0  0  0  0  0  0  0  0  0  0
   90.5353  101.2762  124.3119 H   0  0  0  0  0  0  0  0  0  0  0  0
   91.4795  100.0920  125.1831 H   0  0  0  0  0  0  0  0  0  0  0  0
   90.4874   99.5966  123.8328 H   0  0  0  0  0  0  0  0  0  0  0  0
   92.9021   98.7173  123.5203 H   0  0  0  0  0  0  0  0  0  0  0  0
   94.7952  100.5431  122.4693 H   0  0  0  0  0  0  0  0  0  0  0  0
   95.3359   98.2815  123.3124 H   0  0  0  0  0  0  0  0  0  0  0  0
   94.5722   97.6568  121.8021 H   0  0  0  0  0  0  0  0  0  0  0  0
   96.2657   98.8064  120.5402 H   0  0  0  0  0  0  0  0  0  0  0  0
   97.6488   99.2070  123.1715 H   0  0  0  0  0  0  0  0  0  0  0  0
   96.9869  100.4675  122.1585 H   0  0  0  0  0  0  0  0  0  0  0  0
   98.3367   99.5119  121.5945 H   0  0  0  0  0  0  0  0  0  0  0  0
   97.2516   96.7762  122.5214 H   0  0  0  0  0  0  0  0  0  0  0  0
   97.9846   97.1258  120.9743 H   0  0  0  0  0  0  0  0  0  0  0  0
   96.3881   96.4194  121.0449 H   0  0  0  0  0  0  0  0  0  0  0  0
   92.3824   98.4870  120.8770 H   0  0  0  0  0  0  0  0  0  0  0  0
   93.0984   99.0998  118.2263 H   0  0  0  0  0  0  0  0  0  0  0  0
   90.4689   98.2650  119.3852 H   0  0  0  0  0  0  0  0  0  0  0  0
   90.8176   98.4422  117.6328 H   0  0  0  0  0  0  0  0  0  0  0  0
   91.9913   96.4806  119.5159 H   0  0  0  0  0  0  0  0  0  0  0  0
   90.2686   96.0309  117.0956 H   0  0  0  0  0  0  0  0  0  0  0  0
   89.7496   95.8855  118.7577 H   0  0  0  0  0  0  0  0  0  0  0  0
   90.9412   94.7811  118.1147 H   0  0  0  0  0  0  0  0  0  0  0  0
   92.6809   96.8133  116.6224 H   0  0  0  0  0  0  0  0  0  0  0  0
   93.2622   95.5489  117.6792 H   0  0  0  0  0  0  0  0  0  0  0  0
   93.7102   97.2113  117.9771 H   0  0  0  0  0  0  0  0  0  0  0  0
   90.8896  100.6837  120.4847 H   0  0  0  0  0  0  0  0  0  0  0  0
   89.8977  102.5884  118.6217 H   0  0  0  0  0  0  0  0  0  0  0  0
   89.2680  103.8252  120.7477 H   0  0  0  0  0  0  0  0  0  0  0  0
   89.9320  102.4200  121.5882 H   0  0  0  0  0  0  0  0  0  0  0  0
   88.3686  100.9860  120.3451 H   0  0  0  0  0  0  0  0  0  0  0  0
   87.5622  102.1690  121.3788 H   0  0  0  0  0  0  0  0  0  0  0  0
   92.6673  102.7113  120.7965 H   0  0  0  0  0  0  0  0  0  0  0  0
   93.4469  105.3767  120.1670 H   0  0  0  0  0  0  0  0  0  0  0  0
   95.1775  103.0799  121.0209 H   0  0  0  0  0  0  0  0  0  0  0  0
   94.3687  104.2027  122.0878 H   0  0  0  0  0  0  0  0  0  0  0  0
   95.6385  104.7653  121.0274 H   0  0  0  0  0  0  0  0  0  0  0  0
   94.1607  102.2128  118.6940 H   0  0  0  0  0  0  0  0  0  0  0  0
   95.3201  103.6708  116.3778 H   0  0  0  0  0  0  0  0  0  0  0  0
   94.2767  102.2808  116.1978 H   0  0  0  0  0  0  0  0  0  0  0  0
   95.8748  102.0914  116.8785 H   0  0  0  0  0  0  0  0  0  0  0  0
  1 36  1  0  0  0  0
  1 37  1  0  0  0  0
  1 38  1  0  0  0  0
  2  1  1  0  0  0  0
  3  2  2  0  0  0  0
  4  2  1  0  0  0  0
  4 39  1  0  0  0  0
  5  8  1  0  0  0  0
  5  4  1  0  0  0  0
  5 40  1  1  0  0  0
  6  5  1  0  0  0  0
  7  6  2  0  0  0  0
  8 41  1  0  0  0  0
  8 42  1  0  0  0  0
  9 10  1  0  0  0  0
  9  8  1  0  0  0  0
  9 43  1  0  0  0  0
 10 44  1  0  0  0  0
 10 45  1  0  0  0  0
 10 46  1  0  0  0  0
 11  9  1  0  0  0  0
 11 47  1  0  0  0  0
 11 48  1  0  0  0  0
 11 49  1  0  0  0  0
 12  6  1  0  0  0  0
 12 50  1  0  0  0  0
 13 12  1  0  0  0  0
 13 51  1  6  0  0  0
 14 13  1  0  0  0  0
 14 20  1  0  0  0  0
 15 14  2  0  0  0  0
 16 13  1  0  0  0  0
 16 52  1  0  0  0  0
 16 53  1  0  0  0  0
 17 16  1  0  0  0  0
 17 54  1  0  0  0  0
 18 17  1  0  0  0  0
 18 55  1  0  0  0  0
 18 56  1  0  0  0  0
 18 57  1  0  0  0  0
 19 17  1  0  0  0  0
 19 58  1  0  0  0  0
 19 59  1  0  0  0  0
 19 60  1  0  0  0  0
 20 61  1  0  0  0  0
 21 20  1  0  0  0  0
 21 24  1  0  0  0  0
 21 62  1  6  0  0  0
 22 21  1  0  0  0  0
 22 29  1  0  0  0  0
 23 22  2  0  0  0  0
 24 63  1  0  0  0  0
 24 64  1  0  0  0  0
 25 24  1  0  0  0  0
 25 65  1  0  0  0  0
 25 66  1  0  0  0  0
 26 28  1  0  0  0  0
 26 25  1  0  0  0  0
 27 26  2  0  0  0  0
 29 67  1  0  0  0  0
 30 29  1  0  0  0  0
 30 33  1  0  0  0  0
 30 68  1  1  0  0  0
 31 30  1  0  0  0  0
 32 31  2  0  0  0  0
 33 69  1  0  0  0  0
 33 70  1  0  0  0  0
 33 71  1  0  0  0  0
 34 31  1  0  0  0  0
 34 72  1  0  0  0  0
 35 34  1  0  0  0  0
 35 73  1  0  0  0  0
 35 74  1  0  0  0  0
 35 75  1  0  0  0  0
M  CHG  1  28  -1
M  END
>  <MODEL>
       0

$$$$
selected_4mers/LLEA/66_noH.pdb
 OpenBabel03042517503D

 75 74  0  0  1  0  0  0  0  0999 V2000
   52.4170   14.1640   27.3370 C   0  0  0  0  0  0  0  0  0  0  0  0
   53.7050   13.6540   26.7140 C   0  0  0  0  0  0  0  0  0  0  0  0
   54.7590   14.2810   26.8570 O   0  0  0  0  0  0  0  0  0  0  0  0
   53.6150   12.5010   26.0550 N   0  0  0  0  0  0  0  0  0  0  0  0
   54.7540   11.8920   25.3780 C   0  0  2  0  0  0  0  0  0  0  0  0
   54.3500   11.7370   23.9130 C   0  0  0  0  0  0  0  0  0  0  0  0
   53.2520   11.2500   23.6010 O   0  0  0  0  0  0  0  0  0  0  0  0
   55.0780   10.5410   26.0270 C   0  0  0  0  0  0  0  0  0  0  0  0
   56.0830    9.6150   25.3330 C   0  0  0  0  0  0  0  0  0  0  0  0
   57.5170   10.1430   25.4510 C   0  0  0  0  0  0  0  0  0  0  0  0
   55.9640    8.2020   25.9180 C   0  0  0  0  0  0  0  0  0  0  0  0
   55.2020   12.2050   23.0150 N   0  0  0  0  0  0  0  0  0  0  0  0
   54.9380   12.0380   21.5960 C   0  0  2  0  0  0  0  0  0  0  0  0
   56.1970   11.4740   20.9600 C   0  0  0  0  0  0  0  0  0  0  0  0
   57.2610   12.1010   20.9990 O   0  0  0  0  0  0  0  0  0  0  0  0
   54.5770   13.3750   20.9610 C   0  0  0  0  0  0  0  0  0  0  0  0
   54.1980   13.3860   19.4860 C   0  0  0  0  0  0  0  0  0  0  0  0
   53.0100   12.4910   19.1640 C   0  0  0  0  0  0  0  0  0  0  0  0
   53.8730   14.8260   19.1520 C   0  0  0  0  0  0  0  0  0  0  0  0
   56.0630   10.2730   20.4070 N   0  0  0  0  0  0  0  0  0  0  0  0
   57.1820    9.5650   19.7750 C   0  0  2  0  0  0  0  0  0  0  0  0
   56.8370    9.2810   18.3400 C   0  0  0  0  0  0  0  0  0  0  0  0
   55.6530    9.1270   18.0050 O   0  0  0  0  0  0  0  0  0  0  0  0
   57.4560    8.2600   20.5020 C   0  0  0  0  0  0  0  0  0  0  0  0
   57.9660    8.4820   21.9000 C   0  0  0  0  0  0  0  0  0  0  0  0
   58.0370    7.1970   22.6950 C   0  0  0  0  0  0  0  0  0  0  0  0
   57.0460    6.4410   22.7000 O   0  0  0  0  0  0  0  0  0  0  0  0
   59.0770    6.9640   23.3320 O   0  0  0  0  0  0  0  0  0  0  0  0
   57.8530    9.2310   17.4780 N   0  0  0  0  0  0  0  0  0  0  0  0
   57.6160    8.8670   16.0980 C   0  0  2  0  0  0  0  0  0  0  0  0
   58.8620    8.2860   15.4630 C   0  0  0  0  0  0  0  0  0  0  0  0
   59.9830    8.5750   15.8970 O   0  0  0  0  0  0  0  0  0  0  0  0
   57.1510   10.0670   15.2830 C   0  0  0  0  0  0  0  0  0  0  0  0
   58.6400    7.4840   14.4240 N   0  0  0  0  0  0  0  0  0  0  0  0
   59.7120    6.9200   13.5990 C   0  0  0  0  0  0  0  0  0  0  0  0
   51.6179   13.4913   27.1052 H   0  0  0  0  0  0  0  0  0  0  0  0
   52.1913   15.1341   26.9459 H   0  0  0  0  0  0  0  0  0  0  0  0
   52.5345   14.2259   28.3987 H   0  0  0  0  0  0  0  0  0  0  0  0
   52.7451   12.0412   26.0234 H   0  0  0  0  0  0  0  0  0  0  0  0
   55.6378   12.4904   25.4538 H   0  0  0  0  0  0  0  0  0  0  0  0
   55.4606   10.7449   27.0052 H   0  0  0  0  0  0  0  0  0  0  0  0
   54.1543   10.0027   25.9830 H   0  0  0  0  0  0  0  0  0  0  0  0
   55.8511    9.5835   24.2889 H   0  0  0  0  0  0  0  0  0  0  0  0
   57.7951   10.1924   26.4830 H   0  0  0  0  0  0  0  0  0  0  0  0
   57.5739   11.1203   25.0191 H   0  0  0  0  0  0  0  0  0  0  0  0
   58.1831    9.4849   24.9332 H   0  0  0  0  0  0  0  0  0  0  0  0
   56.1949    8.2278   26.9625 H   0  0  0  0  0  0  0  0  0  0  0  0
   56.6488    7.5498   25.4173 H   0  0  0  0  0  0  0  0  0  0  0  0
   54.9653    7.8427   25.7823 H   0  0  0  0  0  0  0  0  0  0  0  0
   56.0189   12.6687   23.3099 H   0  0  0  0  0  0  0  0  0  0  0  0
   54.1121   11.3747   21.4453 H   0  0  0  0  0  0  0  0  0  0  0  0
   53.7464   13.7723   21.5061 H   0  0  0  0  0  0  0  0  0  0  0  0
   55.4801   13.9468   21.0095 H   0  0  0  0  0  0  0  0  0  0  0  0
   55.0083   12.9995   18.9039 H   0  0  0  0  0  0  0  0  0  0  0  0
   52.1548   12.8212   19.7158 H   0  0  0  0  0  0  0  0  0  0  0  0
   53.2405   11.4815   19.4337 H   0  0  0  0  0  0  0  0  0  0  0  0
   52.7994   12.5410   18.1161 H   0  0  0  0  0  0  0  0  0  0  0  0
   53.0589   15.1585   19.7615 H   0  0  0  0  0  0  0  0  0  0  0  0
   53.5994   14.8998   18.1202 H   0  0  0  0  0  0  0  0  0  0  0  0
   54.7309   15.4377   19.3382 H   0  0  0  0  0  0  0  0  0  0  0  0
   55.1783    9.8415   20.4220 H   0  0  0  0  0  0  0  0  0  0  0  0
   58.0590   10.1761   19.8240 H   0  0  0  0  0  0  0  0  0  0  0  0
   58.1886    7.7069   19.9521 H   0  0  0  0  0  0  0  0  0  0  0  0
   56.5328    7.7236   20.5714 H   0  0  0  0  0  0  0  0  0  0  0  0
   57.3095    9.1616   22.4021 H   0  0  0  0  0  0  0  0  0  0  0  0
   58.9574    8.8782   21.8282 H   0  0  0  0  0  0  0  0  0  0  0  0
   58.7656    9.4421   17.7810 H   0  0  0  0  0  0  0  0  0  0  0  0
   56.8450    8.1250   16.0985 H   0  0  0  0  0  0  0  0  0  0  0  0
   57.9176   10.8135   15.2781 H   0  0  0  0  0  0  0  0  0  0  0  0
   56.2618   10.4717   15.7195 H   0  0  0  0  0  0  0  0  0  0  0  0
   56.9470    9.7587   14.2789 H   0  0  0  0  0  0  0  0  0  0  0  0
   57.7087    7.2583   14.1984 H   0  0  0  0  0  0  0  0  0  0  0  0
   60.6592    7.2549   13.9672 H   0  0  0  0  0  0  0  0  0  0  0  0
   59.5892    7.2417   12.5859 H   0  0  0  0  0  0  0  0  0  0  0  0
   59.6703    5.8517   13.6415 H   0  0  0  0  0  0  0  0  0  0  0  0
  1 36  1  0  0  0  0
  1 37  1  0  0  0  0
  1 38  1  0  0  0  0
  2  3  2  0  0  0  0
  2  1  1  0  0  0  0
  4  2  1  0  0  0  0
  4 39  1  0  0  0  0
  5  8  1  0  0  0  0
  5  4  1  0  0  0  0
  5 40  1  1  0  0  0
  6  5  1  0  0  0  0
  7  6  2  0  0  0  0
  8 41  1  0  0  0  0
  8 42  1  0  0  0  0
  9 10  1  0  0  0  0
  9 11  1  0  0  0  0
  9  8  1  0  0  0  0
  9 43  1  0  0  0  0
 10 44  1  0  0  0  0
 10 45  1  0  0  0  0
 10 46  1  0  0  0  0
 11 47  1  0  0  0  0
 11 48  1  0  0  0  0
 11 49  1  0  0  0  0
 12  6  1  0  0  0  0
 12 50  1  0  0  0  0
 13 12  1  0  0  0  0
 13 51  1  6  0  0  0
 14 15  2  0  0  0  0
 14 13  1  0  0  0  0
 16 13  1  0  0  0  0
 16 52  1  0  0  0  0
 16 53  1  0  0  0  0
 17 16  1  0  0  0  0
 17 54  1  0  0  0  0
 18 17  1  0  0  0  0
 18 55  1  0  0  0  0
 18 56  1  0  0  0  0
 18 57  1  0  0  0  0
 19 17  1  0  0  0  0
 19 58  1  0  0  0  0
 19 59  1  0  0  0  0
 19 60  1  0  0  0  0
 20 14  1  0  0  0  0
 20 61  1  0  0  0  0
 21 20  1  0  0  0  0
 21 24  1  0  0  0  0
 21 62  1  1  0  0  0
 22 21  1  0  0  0  0
 23 22  2  0  0  0  0
 24 25  1  0  0  0  0
 24 63  1  0  0  0  0
 24 64  1  0  0  0  0
 25 26  1  0  0  0  0
 25 65  1  0  0  0  0
 25 66  1  0  0  0  0
 26 27  2  0  0  0  0
 26 28  1  0  0  0  0
 29 22  1  0  0  0  0
 29 67  1  0  0  0  0
 30 29  1  0  0  0  0
 30 68  1  6  0  0  0
 31 32  2  0  0  0  0
 31 30  1  0  0  0  0
 33 30  1  0  0  0  0
 33 69  1  0  0  0  0
 33 70  1  0  0  0  0
 33 71  1  0  0  0  0
 34 31  1  0  0  0  0
 34 72  1  0  0  0  0
 35 34  1  0  0  0  0
 35 73  1  0  0  0  0
 35 74  1  0  0  0  0
 35 75  1  0  0  0  0
M  CHG  1  28  -1
M  END
>  <MODEL>
       0

$$$$
selected_4mers/LLEA/67_noH.pdb
 OpenBabel03042517503D

 75 74  0  0  1  0  0  0  0  0999 V2000
   21.0850   24.8120   26.4960 C   0  0  0  0  0  0  0  0  0  0  0  0
   21.6960   26.1580   26.1300 C   0  0  0  0  0  0  0  0  0  0  0  0
   22.1950   26.3350   25.0250 O   0  0  0  0  0  0  0  0  0  0  0  0
   21.6650   27.0880   27.0800 N   0  0  0  0  0  0  0  0  0  0  0  0
   22.1950   28.4280   26.8780 C   0  0  2  0  0  0  0  0  0  0  0  0
   23.5000   28.6710   27.6360 C   0  0  0  0  0  0  0  0  0  0  0  0
   24.1850   29.6640   27.3900 O   0  0  0  0  0  0  0  0  0  0  0  0
   21.1790   29.4630   27.3630 C   0  0  0  0  0  0  0  0  0  0  0  0
   19.7550   29.3650   26.8250 C   0  0  0  0  0  0  0  0  0  0  0  0
   18.8860   30.4280   27.4740 C   0  0  0  0  0  0  0  0  0  0  0  0
   19.7780   29.5180   25.3260 C   0  0  0  0  0  0  0  0  0  0  0  0
   23.8540   27.7570   28.5350 N   0  0  0  0  0  0  0  0  0  0  0  0
   25.0260   27.9430   29.3820 C   0  0  2  0  0  0  0  0  0  0  0  0
   26.4100   28.1340   28.7700 C   0  0  0  0  0  0  0  0  0  0  0  0
   27.3280   28.5290   29.4770 O   0  0  0  0  0  0  0  0  0  0  0  0
   25.0710   26.8400   30.4410 C   0  0  0  0  0  0  0  0  0  0  0  0
   23.7930   26.7470   31.2890 C   0  0  0  0  0  0  0  0  0  0  0  0
   24.0290   25.7950   32.4450 C   0  0  0  0  0  0  0  0  0  0  0  0
   23.3890   28.1110   31.8160 C   0  0  0  0  0  0  0  0  0  0  0  0
   26.5760   27.8680   27.4790 N   0  0  0  0  0  0  0  0  0  0  0  0
   27.8780   28.0800   26.8390 C   0  0  2  0  0  0  0  0  0  0  0  0
   27.9230   29.4720   26.2150 C   0  0  0  0  0  0  0  0  0  0  0  0
   28.9730   29.9380   25.7820 O   0  0  0  0  0  0  0  0  0  0  0  0
   28.1320   27.0490   25.7390 C   0  0  0  0  0  0  0  0  0  0  0  0
   28.4250   25.6560   26.2430 C   0  0  0  0  0  0  0  0  0  0  0  0
   28.6060   24.6680   25.1080 C   0  0  0  0  0  0  0  0  0  0  0  0
   29.0230   23.5200   25.3820 O   0  0  0  0  0  0  0  0  0  0  0  0
   28.3240   25.0410   23.9430 O   0  0  0  0  0  0  0  0  0  0  0  0
   26.7750   30.1310   26.1730 N   0  0  0  0  0  0  0  0  0  0  0  0
   26.6850   31.4580   25.5860 C   0  0  2  0  0  0  0  0  0  0  0  0
   27.3770   32.5440   26.4000 C   0  0  0  0  0  0  0  0  0  0  0  0
   27.4550   32.4780   27.6300 O   0  0  0  0  0  0  0  0  0  0  0  0
   25.2160   31.8360   25.3820 C   0  0  0  0  0  0  0  0  0  0  0  0
   27.8670   33.5510   25.6870 N   0  0  0  0  0  0  0  0  0  0  0  0
   28.5220   34.6970   26.3000 C   0  0  0  0  0  0  0  0  0  0  0  0
   21.1647   24.1457   25.6626 H   0  0  0  0  0  0  0  0  0  0  0  0
   20.0538   24.9453   26.7487 H   0  0  0  0  0  0  0  0  0  0  0  0
   21.6071   24.3993   27.3339 H   0  0  0  0  0  0  0  0  0  0  0  0
   21.2688   26.8615   27.9523 H   0  0  0  0  0  0  0  0  0  0  0  0
   22.3876   28.5218   25.8297 H   0  0  0  0  0  0  0  0  0  0  0  0
   21.1243   29.3821   28.4285 H   0  0  0  0  0  0  0  0  0  0  0  0
   21.5452   30.3967   26.9903 H   0  0  0  0  0  0  0  0  0  0  0  0
   19.3388   28.4082   27.0622 H   0  0  0  0  0  0  0  0  0  0  0  0
   19.2817   31.3969   27.2514 H   0  0  0  0  0  0  0  0  0  0  0  0
   18.8755   30.2819   28.5339 H   0  0  0  0  0  0  0  0  0  0  0  0
   17.8885   30.3542   27.0939 H   0  0  0  0  0  0  0  0  0  0  0  0
   20.1920   30.4711   25.0711 H   0  0  0  0  0  0  0  0  0  0  0  0
   18.7805   29.4491   24.9451 H   0  0  0  0  0  0  0  0  0  0  0  0
   20.3778   28.7424   24.8975 H   0  0  0  0  0  0  0  0  0  0  0  0
   23.3143   26.9392   28.6303 H   0  0  0  0  0  0  0  0  0  0  0  0
   24.8461   28.9221   29.7744 H   0  0  0  0  0  0  0  0  0  0  0  0
   25.8967   27.0318   31.0939 H   0  0  0  0  0  0  0  0  0  0  0  0
   25.1700   25.9102   29.9208 H   0  0  0  0  0  0  0  0  0  0  0  0
   22.9978   26.3812   30.6736 H   0  0  0  0  0  0  0  0  0  0  0  0
   24.8249   26.1664   33.0561 H   0  0  0  0  0  0  0  0  0  0  0  0
   24.2919   24.8301   32.0645 H   0  0  0  0  0  0  0  0  0  0  0  0
   23.1367   25.7166   33.0303 H   0  0  0  0  0  0  0  0  0  0  0  0
   24.1698   28.4994   32.4361 H   0  0  0  0  0  0  0  0  0  0  0  0
   22.4902   28.0199   32.3893 H   0  0  0  0  0  0  0  0  0  0  0  0
   23.2221   28.7757   30.9943 H   0  0  0  0  0  0  0  0  0  0  0  0
   25.8201   27.5264   26.9488 H   0  0  0  0  0  0  0  0  0  0  0  0
   28.6315   27.9786   27.5919 H   0  0  0  0  0  0  0  0  0  0  0  0
   27.2630   27.0034   25.1164 H   0  0  0  0  0  0  0  0  0  0  0  0
   29.0060   27.3730   25.2137 H   0  0  0  0  0  0  0  0  0  0  0  0
   29.3221   25.6810   26.8256 H   0  0  0  0  0  0  0  0  0  0  0  0
   27.5906   25.3349   26.8308 H   0  0  0  0  0  0  0  0  0  0  0  0
   25.9657   29.7136   26.5471 H   0  0  0  0  0  0  0  0  0  0  0  0
   27.2009   31.4033   24.6502 H   0  0  0  0  0  0  0  0  0  0  0  0
   24.7248   31.8836   26.3314 H   0  0  0  0  0  0  0  0  0  0  0  0
   24.7395   31.0985   24.7705 H   0  0  0  0  0  0  0  0  0  0  0  0
   25.1567   32.7902   24.9015 H   0  0  0  0  0  0  0  0  0  0  0  0
   27.7841   33.5214   24.7064 H   0  0  0  0  0  0  0  0  0  0  0  0
   28.5302   34.5766   27.3632 H   0  0  0  0  0  0  0  0  0  0  0  0
   27.9897   35.5899   26.0463 H   0  0  0  0  0  0  0  0  0  0  0  0
   29.5276   34.7671   25.9412 H   0  0  0  0  0  0  0  0  0  0  0  0
  1 36  1  0  0  0  0
  1 37  1  0  0  0  0
  1 38  1  0  0  0  0
  2  1  1  0  0  0  0
  2  4  1  0  0  0  0
  3  2  2  0  0  0  0
  4 39  1  0  0  0  0
  5  4  1  0  0  0  0
  5  8  1  0  0  0  0
  5  6  1  0  0  0  0
  5 40  1  6  0  0  0
  6 12  1  0  0  0  0
  7  6  2  0  0  0  0
  8 41  1  0  0  0  0
  8 42  1  0  0  0  0
  9  8  1  0  0  0  0
  9 10  1  0  0  0  0
  9 43  1  0  0  0  0
 10 44  1  0  0  0  0
 10 45  1  0  0  0  0
 10 46  1  0  0  0  0
 11  9  1  0  0  0  0
 11 47  1  0  0  0  0
 11 48  1  0  0  0  0
 11 49  1  0  0  0  0
 12 13  1  0  0  0  0
 12 50  1  0  0  0  0
 13 16  1  0  0  0  0
 13 51  1  1  0  0  0
 14 13  1  0  0  0  0
 14 15  2  0  0  0  0
 16 17  1  0  0  0  0
 16 52  1  0  0  0  0
 16 53  1  0  0  0  0
 17 19  1  0  0  0  0
 17 18  1  0  0  0  0
 17 54  1  0  0  0  0
 18 55  1  0  0  0  0
 18 56  1  0  0  0  0
 18 57  1  0  0  0  0
 19 58  1  0  0  0  0
 19 59  1  0  0  0  0
 19 60  1  0  0  0  0
 20 14  1  0  0  0  0
 20 61  1  0  0  0  0
 21 20  1  0  0  0  0
 21 62  1  1  0  0  0
 22 21  1  0  0  0  0
 23 22  2  0  0  0  0
 24 25  1  0  0  0  0
 24 21  1  0  0  0  0
 24 63  1  0  0  0  0
 24 64  1  0  0  0  0
 25 65  1  0  0  0  0
 25 66  1  0  0  0  0
 26 27  1  0  0  0  0
 26 25  1  0  0  0  0
 28 26  2  0  0  0  0
 29 22  1  0  0  0  0
 29 67  1  0  0  0  0
 30 29  1  0  0  0  0
 30 31  1  0  0  0  0
 30 68  1  6  0  0  0
 31 32  2  0  0  0  0
 33 30  1  0  0  0  0
 33 69  1  0  0  0  0
 33 70  1  0  0  0  0
 33 71  1  0  0  0  0
 34 35  1  0  0  0  0
 34 31  1  0  0  0  0
 34 72  1  0  0  0  0
 35 73  1  0  0  0  0
 35 74  1  0  0  0  0
 35 75  1  0  0  0  0
M  CHG  1  27  -1
M  END
>  <MODEL>
       0

$$$$
selected_4mers/LLEA/68_noH.pdb
 OpenBabel03042517503D

 75 74  0  0  1  0  0  0  0  0999 V2000
   26.4520   67.9230   20.5000 C   0  0  0  0  0  0  0  0  0  0  0  0
   25.3840   68.4590   19.5470 C   0  0  0  0  0  0  0  0  0  0  0  0
   25.7120   68.9340   18.4410 O   0  0  0  0  0  0  0  0  0  0  0  0
   24.1140   68.4190   19.9660 N   0  0  0  0  0  0  0  0  0  0  0  0
   23.0150   68.9140   19.1210 C   0  0  2  0  0  0  0  0  0  0  0  0
   23.0750   70.4000   18.8190 C   0  0  0  0  0  0  0  0  0  0  0  0
   22.4760   70.8640   17.8480 O   0  0  0  0  0  0  0  0  0  0  0  0
   21.6500   68.5920   19.7590 C   0  0  0  0  0  0  0  0  0  0  0  0
   21.1210   67.1770   19.6150 C   0  0  0  0  0  0  0  0  0  0  0  0
   19.7850   67.0400   20.3940 C   0  0  0  0  0  0  0  0  0  0  0  0
   20.9300   66.8420   18.1210 C   0  0  0  0  0  0  0  0  0  0  0  0
   23.8020   71.1390   19.6610 N   0  0  0  0  0  0  0  0  0  0  0  0
   23.9720   72.5850   19.5070 C   0  0  2  0  0  0  0  0  0  0  0  0
   25.1230   72.9310   18.5960 C   0  0  0  0  0  0  0  0  0  0  0  0
   25.3220   74.1030   18.2450 O   0  0  0  0  0  0  0  0  0  0  0  0
   24.2290   73.2360   20.8740 C   0  0  0  0  0  0  0  0  0  0  0  0
   22.9730   73.3870   21.7250 C   0  0  0  0  0  0  0  0  0  0  0  0
   23.4280   73.8470   23.1190 C   0  0  0  0  0  0  0  0  0  0  0  0
   22.0080   74.3730   21.1060 C   0  0  0  0  0  0  0  0  0  0  0  0
   25.9040   71.9170   18.2330 N   0  0  0  0  0  0  0  0  0  0  0  0
   26.9860   72.0950   17.2730 C   0  0  2  0  0  0  0  0  0  0  0  0
   27.9140   73.2310   17.7000 C   0  0  0  0  0  0  0  0  0  0  0  0
   28.3540   74.0440   16.8740 O   0  0  0  0  0  0  0  0  0  0  0  0
   26.4180   72.2620   15.8650 C   0  0  0  0  0  0  0  0  0  0  0  0
   25.5990   71.0180   15.5120 C   0  0  0  0  0  0  0  0  0  0  0  0
   25.3730   70.7740   14.0360 C   0  0  0  0  0  0  0  0  0  0  0  0
   25.0650   71.7440   13.3050 O   0  0  0  0  0  0  0  0  0  0  0  0
   25.4390   69.5810   13.6220 O   0  0  0  0  0  0  0  0  0  0  0  0
   28.2000   73.2730   19.0010 N   0  0  0  0  0  0  0  0  0  0  0  0
   29.0250   74.3490   19.5780 C   0  0  2  0  0  0  0  0  0  0  0  0
   28.5620   75.7530   19.1640 C   0  0  0  0  0  0  0  0  0  0  0  0
   29.3850   76.6610   18.9830 O   0  0  0  0  0  0  0  0  0  0  0  0
   30.5040   74.1220   19.1900 C   0  0  0  0  0  0  0  0  0  0  0  0
   27.2600   75.9410   18.9930 N   0  0  0  0  0  0  0  0  0  0  0  0
   26.7220   77.2270   18.5480 C   0  0  0  0  0  0  0  0  0  0  0  0
   27.4154   68.0139   20.0434 H   0  0  0  0  0  0  0  0  0  0  0  0
   26.2545   66.8934   20.7143 H   0  0  0  0  0  0  0  0  0  0  0  0
   26.4337   68.4865   21.4094 H   0  0  0  0  0  0  0  0  0  0  0  0
   23.9106   68.0515   20.8564 H   0  0  0  0  0  0  0  0  0  0  0  0
   23.1329   68.4016   18.1891 H   0  0  0  0  0  0  0  0  0  0  0  0
   20.9288   69.2492   19.3197 H   0  0  0  0  0  0  0  0  0  0  0  0
   21.8062   68.7169   20.8101 H   0  0  0  0  0  0  0  0  0  0  0  0
   21.8243   66.4832   20.0261 H   0  0  0  0  0  0  0  0  0  0  0  0
   19.0680   67.7274   19.9961 H   0  0  0  0  0  0  0  0  0  0  0  0
   19.9514   67.2571   21.4284 H   0  0  0  0  0  0  0  0  0  0  0  0
   19.4148   66.0410   20.2943 H   0  0  0  0  0  0  0  0  0  0  0  0
   20.2289   67.5252   17.6891 H   0  0  0  0  0  0  0  0  0  0  0  0
   20.5602   65.8426   18.0240 H   0  0  0  0  0  0  0  0  0  0  0  0
   21.8685   66.9258   17.6139 H   0  0  0  0  0  0  0  0  0  0  0  0
   24.2432   70.6916   20.4189 H   0  0  0  0  0  0  0  0  0  0  0  0
   23.0675   72.9563   19.0725 H   0  0  0  0  0  0  0  0  0  0  0  0
   24.6468   74.2077   20.7125 H   0  0  0  0  0  0  0  0  0  0  0  0
   24.8940   72.5903   21.4086 H   0  0  0  0  0  0  0  0  0  0  0  0
   22.4475   72.4572   21.7909 H   0  0  0  0  0  0  0  0  0  0  0  0
   23.9509   74.7767   23.0347 H   0  0  0  0  0  0  0  0  0  0  0  0
   24.0771   73.1099   23.5436 H   0  0  0  0  0  0  0  0  0  0  0  0
   22.5728   73.9747   23.7492 H   0  0  0  0  0  0  0  0  0  0  0  0
   22.4828   75.3275   21.0150 H   0  0  0  0  0  0  0  0  0  0  0  0
   21.1422   74.4632   21.7282 H   0  0  0  0  0  0  0  0  0  0  0  0
   21.7162   74.0259   20.1368 H   0  0  0  0  0  0  0  0  0  0  0  0
   25.7475   71.0261   18.6217 H   0  0  0  0  0  0  0  0  0  0  0  0
   27.5957   71.2159   17.2533 H   0  0  0  0  0  0  0  0  0  0  0  0
   25.7898   73.1275   15.8311 H   0  0  0  0  0  0  0  0  0  0  0  0
   27.2165   72.3824   15.1631 H   0  0  0  0  0  0  0  0  0  0  0  0
   26.1082   70.1658   15.9112 H   0  0  0  0  0  0  0  0  0  0  0  0
   24.6281   71.1814   15.9310 H   0  0  0  0  0  0  0  0  0  0  0  0
   27.8511   72.5670   19.5918 H   0  0  0  0  0  0  0  0  0  0  0  0
   28.9139   74.3053   20.6413 H   0  0  0  0  0  0  0  0  0  0  0  0
   30.6045   74.1675   18.1257 H   0  0  0  0  0  0  0  0  0  0  0  0
   30.8204   73.1607   19.5374 H   0  0  0  0  0  0  0  0  0  0  0  0
   31.1108   74.8807   19.6383 H   0  0  0  0  0  0  0  0  0  0  0  0
   26.6403   75.1968   19.1699 H   0  0  0  0  0  0  0  0  0  0  0  0
   27.5253   77.9188   18.4032 H   0  0  0  0  0  0  0  0  0  0  0  0
   26.0516   77.6089   19.2894 H   0  0  0  0  0  0  0  0  0  0  0  0
   26.1957   77.0936   17.6260 H   0  0  0  0  0  0  0  0  0  0  0  0
  1 36  1  0  0  0  0
  1 37  1  0  0  0  0
  1 38  1  0  0  0  0
  2  4  1  0  0  0  0
  2  1  1  0  0  0  0
  3  2  2  0  0  0  0
  4 39  1  0  0  0  0
  5  8  1  0  0  0  0
  5  4  1  0  0  0  0
  5 40  1  6  0  0  0
  6  5  1  0  0  0  0
  6 12  1  0  0  0  0
  7  6  2  0  0  0  0
  8 41  1  0  0  0  0
  8 42  1  0  0  0  0
  9  8  1  0  0  0  0
  9 10  1  0  0  0  0
  9 43  1  0  0  0  0
 10 44  1  0  0  0  0
 10 45  1  0  0  0  0
 10 46  1  0  0  0  0
 11  9  1  0  0  0  0
 11 47  1  0  0  0  0
 11 48  1  0  0  0  0
 11 49  1  0  0  0  0
 12 50  1  0  0  0  0
 13 12  1  0  0  0  0
 13 16  1  0  0  0  0
 13 51  1  6  0  0  0
 14 13  1  0  0  0  0
 15 14  2  0  0  0  0
 16 17  1  0  0  0  0
 16 52  1  0  0  0  0
 16 53  1  0  0  0  0
 17 18  1  0  0  0  0
 17 54  1  0  0  0  0
 18 55  1  0  0  0  0
 18 56  1  0  0  0  0
 18 57  1  0  0  0  0
 19 17  1  0  0  0  0
 19 58  1  0  0  0  0
 19 59  1  0  0  0  0
 19 60  1  0  0  0  0
 20 14  1  0  0  0  0
 20 61  1  0  0  0  0
 21 22  1  0  0  0  0
 21 20  1  0  0  0  0
 21 62  1  1  0  0  0
 22 29  1  0  0  0  0
 23 22  2  0  0  0  0
 24 21  1  0  0  0  0
 24 63  1  0  0  0  0
 24 64  1  0  0  0  0
 25 24  1  0  0  0  0
 25 65  1  0  0  0  0
 25 66  1  0  0  0  0
 26 25  1  0  0  0  0
 27 26  2  0  0  0  0
 28 26  1  0  0  0  0
 29 30  1  0  0  0  0
 29 67  1  0  0  0  0
 30 68  1  1  0  0  0
 31 30  1  0  0  0  0
 32 31  2  0  0  0  0
 33 30  1  0  0  0  0
 33 69  1  0  0  0  0
 33 70  1  0  0  0  0
 33 71  1  0  0  0  0
 34 31  1  0  0  0  0
 34 72  1  0  0  0  0
 35 34  1  0  0  0  0
 35 73  1  0  0  0  0
 35 74  1  0  0  0  0
 35 75  1  0  0  0  0
M  CHG  1  28  -1
M  END
>  <MODEL>
       0

$$$$
selected_4mers/LLEA/69_noH.pdb
 OpenBabel03042517503D

 75 74  0  0  1  0  0  0  0  0999 V2000
   22.3170   33.9350   -2.4480 C   0  0  0  0  0  0  0  0  0  0  0  0
   22.5320   33.9070   -0.9300 C   0  0  0  0  0  0  0  0  0  0  0  0
   23.6590   34.1520   -0.4110 O   0  0  0  0  0  0  0  0  0  0  0  0
   21.4880   33.5740   -0.2080 N   0  0  0  0  0  0  0  0  0  0  0  0
   21.5140   33.6530    1.2460 C   0  0  2  0  0  0  0  0  0  0  0  0
   22.4770   32.6290    1.8470 C   0  0  0  0  0  0  0  0  0  0  0  0
   23.0650   32.8920    2.9060 O   0  0  0  0  0  0  0  0  0  0  0  0
   20.1210   33.4670    1.8240 C   0  0  0  0  0  0  0  0  0  0  0  0
   19.9360   34.0090    3.2670 C   0  0  0  0  0  0  0  0  0  0  0  0
   20.1050   35.5490    3.3870 C   0  0  0  0  0  0  0  0  0  0  0  0
   18.6050   33.5840    3.8500 C   0  0  0  0  0  0  0  0  0  0  0  0
   22.6110   31.4720    1.2090 N   0  0  0  0  0  0  0  0  0  0  0  0
   23.5330   30.4630    1.7000 C   0  0  2  0  0  0  0  0  0  0  0  0
   24.9760   30.9400    1.5550 C   0  0  0  0  0  0  0  0  0  0  0  0
   25.7620   30.7070    2.4600 O   0  0  0  0  0  0  0  0  0  0  0  0
   23.3000   29.1030    1.0400 C   0  0  0  0  0  0  0  0  0  0  0  0
   24.2500   27.9730    1.4990 C   0  0  0  0  0  0  0  0  0  0  0  0
   24.1150   27.7860    3.0370 C   0  0  0  0  0  0  0  0  0  0  0  0
   23.9050   26.7080    0.7330 C   0  0  0  0  0  0  0  0  0  0  0  0
   25.3260   31.6440    0.4650 N   0  0  0  0  0  0  0  0  0  0  0  0
   26.6300   32.2510    0.3590 C   0  0  2  0  0  0  0  0  0  0  0  0
   26.8970   33.1860    1.4640 C   0  0  0  0  0  0  0  0  0  0  0  0
   27.9730   33.1220    2.1030 O   0  0  0  0  0  0  0  0  0  0  0  0
   26.8400   32.9740   -0.9830 C   0  0  0  0  0  0  0  0  0  0  0  0
   27.6410   32.1540   -1.9610 C   0  0  0  0  0  0  0  0  0  0  0  0
   27.8760   32.8590   -3.3110 C   0  0  0  0  0  0  0  0  0  0  0  0
   29.0050   32.7750   -3.8020 O   0  0  0  0  0  0  0  0  0  0  0  0
   26.9510   33.5370   -3.8210 O   0  0  0  0  0  0  0  0  0  0  0  0
   25.9340   34.0650    1.7390 N   0  0  0  0  0  0  0  0  0  0  0  0
   26.0620   35.0060    2.7980 C   0  0  2  0  0  0  0  0  0  0  0  0
   26.1870   34.2650    4.1410 C   0  0  0  0  0  0  0  0  0  0  0  0
   26.9740   34.6830    4.9780 O   0  0  0  0  0  0  0  0  0  0  0  0
   24.8370   35.9660    2.8380 C   0  0  0  0  0  0  0  0  0  0  0  0
   25.4040   33.1880    4.3400 N   0  0  0  0  0  0  0  0  0  0  0  0
   25.4770   32.4490    5.5730 C   0  0  0  0  0  0  0  0  0  0  0  0
   23.2285   34.2173   -2.9322 H   0  0  0  0  0  0  0  0  0  0  0  0
   21.5519   34.6439   -2.6868 H   0  0  0  0  0  0  0  0  0  0  0  0
   22.0206   32.9634   -2.7842 H   0  0  0  0  0  0  0  0  0  0  0  0
   20.6696   33.2641   -0.6590 H   0  0  0  0  0  0  0  0  0  0  0  0
   21.8655   34.6297    1.5055 H   0  0  0  0  0  0  0  0  0  0  0  0
   19.9009   32.4199    1.8312 H   0  0  0  0  0  0  0  0  0  0  0  0
   19.4595   34.0338    1.2027 H   0  0  0  0  0  0  0  0  0  0  0  0
   20.7286   33.5693    3.8356 H   0  0  0  0  0  0  0  0  0  0  0  0
   19.3313   36.0370    2.8319 H   0  0  0  0  0  0  0  0  0  0  0  0
   21.0591   35.8347    2.9958 H   0  0  0  0  0  0  0  0  0  0  0  0
   20.0410   35.8357    4.4159 H   0  0  0  0  0  0  0  0  0  0  0  0
   17.8108   34.0226    3.2828 H   0  0  0  0  0  0  0  0  0  0  0  0
   18.5401   33.9112    4.8667 H   0  0  0  0  0  0  0  0  0  0  0  0
   18.5234   32.5178    3.8126 H   0  0  0  0  0  0  0  0  0  0  0  0
   22.0817   31.2971    0.3976 H   0  0  0  0  0  0  0  0  0  0  0  0
   23.3424   30.3206    2.7432 H   0  0  0  0  0  0  0  0  0  0  0  0
   22.2969   28.7990    1.2551 H   0  0  0  0  0  0  0  0  0  0  0  0
   23.4915   29.2443   -0.0032 H   0  0  0  0  0  0  0  0  0  0  0  0
   25.2711   28.2175    1.2927 H   0  0  0  0  0  0  0  0  0  0  0  0
   23.1022   27.5397    3.2788 H   0  0  0  0  0  0  0  0  0  0  0  0
   24.3892   28.6941    3.5321 H   0  0  0  0  0  0  0  0  0  0  0  0
   24.7608   26.9956    3.3582 H   0  0  0  0  0  0  0  0  0  0  0  0
   22.8862   26.4423    0.9235 H   0  0  0  0  0  0  0  0  0  0  0  0
   24.5464   25.9126    1.0506 H   0  0  0  0  0  0  0  0  0  0  0  0
   24.0393   26.8777   -0.3149 H   0  0  0  0  0  0  0  0  0  0  0  0
   24.6822   31.7470   -0.2727 H   0  0  0  0  0  0  0  0  0  0  0  0
   27.3252   31.4396    0.4158 H   0  0  0  0  0  0  0  0  0  0  0  0
   25.8830   33.1832   -1.4135 H   0  0  0  0  0  0  0  0  0  0  0  0
   27.3877   33.8719   -0.7864 H   0  0  0  0  0  0  0  0  0  0  0  0
   28.5926   31.9385   -1.5219 H   0  0  0  0  0  0  0  0  0  0  0  0
   27.0762   31.2682   -2.1640 H   0  0  0  0  0  0  0  0  0  0  0  0
   25.1131   34.0631    1.1955 H   0  0  0  0  0  0  0  0  0  0  0  0
   26.9430   35.5889    2.6276 H   0  0  0  0  0  0  0  0  0  0  0  0
   23.9453   35.3995    3.0078 H   0  0  0  0  0  0  0  0  0  0  0  0
   24.7586   36.4832    1.9046 H   0  0  0  0  0  0  0  0  0  0  0  0
   24.9652   36.6750    3.6290 H   0  0  0  0  0  0  0  0  0  0  0  0
   24.7766   32.9037    3.6366 H   0  0  0  0  0  0  0  0  0  0  0  0
   26.2063   32.8973    6.2149 H   0  0  0  0  0  0  0  0  0  0  0  0
   25.7575   31.4373    5.3664 H   0  0  0  0  0  0  0  0  0  0  0  0
   24.5215   32.4630    6.0543 H   0  0  0  0  0  0  0  0  0  0  0  0
  1  2  1  0  0  0  0
  1 36  1  0  0  0  0
  1 37  1  0  0  0  0
  1 38  1  0  0  0  0
  2  3  2  0  0  0  0
  2  4  1  0  0  0  0
  4  5  1  0  0  0  0
  4 39  1  0  0  0  0
  5  8  1  0  0  0  0
  5  6  1  0  0  0  0
  5 40  1  1  0  0  0
  6  7  2  0  0  0  0
  8  9  1  0  0  0  0
  8 41  1  0  0  0  0
  8 42  1  0  0  0  0
  9 10  1  0  0  0  0
  9 11  1  0  0  0  0
  9 43  1  0  0  0  0
 10 44  1  0  0  0  0
 10 45  1  0  0  0  0
 10 46  1  0  0  0  0
 11 47  1  0  0  0  0
 11 48  1  0  0  0  0
 11 49  1  0  0  0  0
 12 13  1  0  0  0  0
 12  6  1  0  0  0  0
 12 50  1  0  0  0  0
 13 51  1  1  0  0  0
 14 13  1  0  0  0  0
 14 15  2  0  0  0  0
 16 17  1  0  0  0  0
 16 13  1  0  0  0  0
 16 52  1  0  0  0  0
 16 53  1  0  0  0  0
 17 18  1  0  0  0  0
 17 54  1  0  0  0  0
 18 55  1  0  0  0  0
 18 56  1  0  0  0  0
 18 57  1  0  0  0  0
 19 17  1  0  0  0  0
 19 58  1  0  0  0  0
 19 59  1  0  0  0  0
 19 60  1  0  0  0  0
 20 14  1  0  0  0  0
 20 61  1  0  0  0  0
 21 20  1  0  0  0  0
 21 22  1  0  0  0  0
 21 62  1  1  0  0  0
 22 29  1  0  0  0  0
 22 23  2  0  0  0  0
 24 21  1  0  0  0  0
 24 63  1  0  0  0  0
 24 64  1  0  0  0  0
 25 24  1  0  0  0  0
 25 65  1  0  0  0  0
 25 66  1  0  0  0  0
 26 25  1  0  0  0  0
 27 26  1  0  0  0  0
 28 26  2  0  0  0  0
 29 30  1  0  0  0  0
 29 67  1  0  0  0  0
 30 33  1  0  0  0  0
 30 31  1  0  0  0  0
 30 68  1  6  0  0  0
 31 34  1  0  0  0  0
 31 32  2  0  0  0  0
 33 69  1  0  0  0  0
 33 70  1  0  0  0  0
 33 71  1  0  0  0  0
 34 35  1  0  0  0  0
 34 72  1  0  0  0  0
 35 73  1  0  0  0  0
 35 74  1  0  0  0  0
 35 75  1  0  0  0  0
M  CHG  1  27  -1
M  END
>  <MODEL>
       0

$$$$
