selected_4mers/LPAL/525_noH.pdb
 OpenBabel03042518173D

 74 74  0  0  1  0  0  0  0  0999 V2000
  -11.6100  -46.8390  -45.7280 C   0  0  0  0  0  0  0  0  0  0  0  0
  -12.9090  -46.0990  -45.3780 C   0  0  0  0  0  0  0  0  0  0  0  0
  -13.5370  -46.3750  -44.3450 O   0  0  0  0  0  0  0  0  0  0  0  0
  -13.2970  -45.1260  -46.1970 N   0  0  0  0  0  0  0  0  0  0  0  0
  -14.4800  -44.3360  -45.8590 C   0  0  2  0  0  0  0  0  0  0  0  0
  -15.7490  -45.2100  -45.8590 C   0  0  0  0  0  0  0  0  0  0  0  0
  -16.5490  -45.1040  -44.9500 O   0  0  0  0  0  0  0  0  0  0  0  0
  -14.6070  -43.1030  -46.7700 C   0  0  0  0  0  0  0  0  0  0  0  0
  -13.4240  -42.1310  -46.7090 C   0  0  0  0  0  0  0  0  0  0  0  0
  -13.6590  -41.0180  -47.7350 C   0  0  0  0  0  0  0  0  0  0  0  0
  -13.1650  -41.5550  -45.3230 C   0  0  0  0  0  0  0  0  0  0  0  0
  -15.9170  -46.0920  -46.8680 N   0  0  0  0  0  0  0  0  0  0  0  0
  -17.0660  -47.0230  -46.8000 C   0  0  2  0  0  0  0  0  0  0  0  0
  -17.0500  -47.9400  -45.5880 C   0  0  0  0  0  0  0  0  0  0  0  0
  -18.1170  -48.1960  -45.0140 O   0  0  0  0  0  0  0  0  0  0  0  0
  -16.9700  -47.8050  -48.1130 C   0  0  0  0  0  0  0  0  0  0  0  0
  -16.2070  -46.8840  -49.0490 C   0  0  0  0  0  0  0  0  0  0  0  0
  -15.1960  -46.2120  -48.1570 C   0  0  0  0  0  0  0  0  0  0  0  0
  -15.8600  -48.3660  -45.1580 N   0  0  0  0  0  0  0  0  0  0  0  0
  -15.7670  -49.2420  -43.9710 C   0  0  2  0  0  0  0  0  0  0  0  0
  -16.2580  -48.4800  -42.7310 C   0  0  0  0  0  0  0  0  0  0  0  0
  -17.0430  -48.9910  -41.9200 O   0  0  0  0  0  0  0  0  0  0  0  0
  -14.3420  -49.7310  -43.8020 C   0  0  0  0  0  0  0  0  0  0  0  0
  -15.8130  -47.2270  -42.5860 N   0  0  0  0  0  0  0  0  0  0  0  0
  -16.2000  -46.4350  -41.4380 C   0  0  2  0  0  0  0  0  0  0  0  0
  -17.6990  -46.1560  -41.4620 C   0  0  0  0  0  0  0  0  0  0  0  0
  -18.3540  -46.1950  -40.4110 O   0  0  0  0  0  0  0  0  0  0  0  0
  -15.4240  -45.0950  -41.3970 C   0  0  0  0  0  0  0  0  0  0  0  0
  -13.9140  -45.2170  -41.2120 C   0  0  0  0  0  0  0  0  0  0  0  0
  -13.2270  -43.8530  -41.4890 C   0  0  0  0  0  0  0  0  0  0  0  0
  -13.6140  -45.7040  -39.7870 C   0  0  0  0  0  0  0  0  0  0  0  0
  -18.2170  -45.8500  -42.6600 N   0  0  0  0  0  0  0  0  0  0  0  0
  -19.6560  -45.5760  -42.8000 C   0  0  0  0  0  0  0  0  0  0  0  0
  -11.2213  -46.4606  -46.6503 H   0  0  0  0  0  0  0  0  0  0  0  0
  -11.8114  -47.8851  -45.8283 H   0  0  0  0  0  0  0  0  0  0  0  0
  -10.8920  -46.6870  -44.9493 H   0  0  0  0  0  0  0  0  0  0  0  0
  -12.7932  -44.9395  -47.0220 H   0  0  0  0  0  0  0  0  0  0  0  0
  -14.3625  -43.9655  -44.8621 H   0  0  0  0  0  0  0  0  0  0  0  0
  -14.7051  -43.4442  -47.7794 H   0  0  0  0  0  0  0  0  0  0  0  0
  -15.4603  -42.5593  -46.4218 H   0  0  0  0  0  0  0  0  0  0  0  0
  -12.5379  -42.6828  -46.9441 H   0  0  0  0  0  0  0  0  0  0  0  0
  -14.5485  -40.4804  -47.4806 H   0  0  0  0  0  0  0  0  0  0  0  0
  -13.7682  -41.4478  -48.7088 H   0  0  0  0  0  0  0  0  0  0  0  0
  -12.8245  -40.3484  -47.7322 H   0  0  0  0  0  0  0  0  0  0  0  0
  -14.0132  -40.9825  -45.0105 H   0  0  0  0  0  0  0  0  0  0  0  0
  -12.3011  -40.9245  -45.3545 H   0  0  0  0  0  0  0  0  0  0  0  0
  -12.9988  -42.3534  -44.6303 H   0  0  0  0  0  0  0  0  0  0  0  0
  -17.9897  -46.4954  -46.6847 H   0  0  0  0  0  0  0  0  0  0  0  0
  -16.4386  -48.7224  -47.9688 H   0  0  0  0  0  0  0  0  0  0  0  0
  -17.9316  -48.0717  -48.4990 H   0  0  0  0  0  0  0  0  0  0  0  0
  -15.7207  -47.4439  -49.8203 H   0  0  0  0  0  0  0  0  0  0  0  0
  -16.8447  -46.1845  -49.5479 H   0  0  0  0  0  0  0  0  0  0  0  0
  -14.9266  -45.2492  -48.5381 H   0  0  0  0  0  0  0  0  0  0  0  0
  -14.2771  -46.7544  -48.0774 H   0  0  0  0  0  0  0  0  0  0  0  0
  -15.0413  -48.0957  -45.6333 H   0  0  0  0  0  0  0  0  0  0  0  0
  -16.3918  -50.1009  -44.1007 H   0  0  0  0  0  0  0  0  0  0  0  0
  -13.6905  -48.8926  -43.6697 H   0  0  0  0  0  0  0  0  0  0  0  0
  -14.0469  -50.2780  -44.6730 H   0  0  0  0  0  0  0  0  0  0  0  0
  -14.2828  -50.3676  -42.9440 H   0  0  0  0  0  0  0  0  0  0  0  0
  -15.2165  -46.8397  -43.2667 H   0  0  0  0  0  0  0  0  0  0  0  0
  -15.9591  -46.9970  -40.5599 H   0  0  0  0  0  0  0  0  0  0  0  0
  -15.8100  -44.5150  -40.5850 H   0  0  0  0  0  0  0  0  0  0  0  0
  -15.5674  -44.6424  -42.3559 H   0  0  0  0  0  0  0  0  0  0  0  0
  -13.5241  -45.9289  -41.9092 H   0  0  0  0  0  0  0  0  0  0  0  0
  -13.5995  -43.1204  -40.8039 H   0  0  0  0  0  0  0  0  0  0  0  0
  -13.4386  -43.5441  -42.4914 H   0  0  0  0  0  0  0  0  0  0  0  0
  -12.1693  -43.9542  -41.3627 H   0  0  0  0  0  0  0  0  0  0  0  0
  -13.9998  -44.9991  -39.0805 H   0  0  0  0  0  0  0  0  0  0  0  0
  -12.5560  -45.7965  -39.6570 H   0  0  0  0  0  0  0  0  0  0  0  0
  -14.0771  -46.6558  -39.6304 H   0  0  0  0  0  0  0  0  0  0  0  0
  -17.6315  -45.8084  -43.4504 H   0  0  0  0  0  0  0  0  0  0  0  0
  -20.1308  -45.6664  -41.8454 H   0  0  0  0  0  0  0  0  0  0  0  0
  -20.0882  -46.2787  -43.4814 H   0  0  0  0  0  0  0  0  0  0  0  0
  -19.7953  -44.5836  -43.1751 H   0  0  0  0  0  0  0  0  0  0  0  0
  1  2  1  0  0  0  0
  1 34  1  0  0  0  0
  1 35  1  0  0  0  0
  1 36  1  0  0  0  0
  2  3  2  0  0  0  0
  4  5  1  0  0  0  0
  4  2  1  0  0  0  0
  4 37  1  0  0  0  0
  5  6  1  0  0  0  0
  5 38  1  1  0  0  0
  6  7  2  0  0  0  0
  8  9  1  0  0  0  0
  8  5  1  0  0  0  0
  8 39  1  0  0  0  0
  8 40  1  0  0  0  0
  9 11  1  0  0  0  0
  9 41  1  0  0  0  0
 10  9  1  0  0  0  0
 10 42  1  0  0  0  0
 10 43  1  0  0  0  0
 10 44  1  0  0  0  0
 11 45  1  0  0  0  0
 11 46  1  0  0  0  0
 11 47  1  0  0  0  0
 12 13  1  0  0  0  0
 12  6  1  0  0  0  0
 13 14  1  0  0  0  0
 13 48  1  1  0  0  0
 14 19  1  0  0  0  0
 14 15  2  0  0  0  0
 16 13  1  0  0  0  0
 16 49  1  0  0  0  0
 16 50  1  0  0  0  0
 17 18  1  0  0  0  0
 17 16  1  0  0  0  0
 17 51  1  0  0  0  0
 17 52  1  0  0  0  0
 18 12  1  0  0  0  0
 18 53  1  0  0  0  0
 18 54  1  0  0  0  0
 19 20  1  0  0  0  0
 19 55  1  0  0  0  0
 20 23  1  0  0  0  0
 20 21  1  0  0  0  0
 20 56  1  6  0  0  0
 21 24  1  0  0  0  0
 21 22  2  0  0  0  0
 23 57  1  0  0  0  0
 23 58  1  0  0  0  0
 23 59  1  0  0  0  0
 24 25  1  0  0  0  0
 24 60  1  0  0  0  0
 25 28  1  0  0  0  0
 25 61  1  1  0  0  0
 26 25  1  0  0  0  0
 26 27  2  0  0  0  0
 28 29  1  0  0  0  0
 28 62  1  0  0  0  0
 28 63  1  0  0  0  0
 29 31  1  0  0  0  0
 29 64  1  0  0  0  0
 30 29  1  0  0  0  0
 30 65  1  0  0  0  0
 30 66  1  0  0  0  0
 30 67  1  0  0  0  0
 31 68  1  0  0  0  0
 31 69  1  0  0  0  0
 31 70  1  0  0  0  0
 32 26  1  0  0  0  0
 32 71  1  0  0  0  0
 33 32  1  0  0  0  0
 33 72  1  0  0  0  0
 33 73  1  0  0  0  0
 33 74  1  0  0  0  0
M  END
>  <MODEL>
       0

$$$$
selected_4mers/LPAL/526_noH.pdb
 OpenBabel03042518173D

 74 74  0  0  1  0  0  0  0  0999 V2000
   35.1470   90.4310   19.0560 C   0  0  0  0  0  0  0  0  0  0  0  0
   34.8140   89.3590   18.0210 C   0  0  0  0  0  0  0  0  0  0  0  0
   35.2940   89.4150   16.8870 O   0  0  0  0  0  0  0  0  0  0  0  0
   33.9940   88.3870   18.4050 N   0  0  0  0  0  0  0  0  0  0  0  0
   33.6410   87.2970   17.5050 C   0  0  2  0  0  0  0  0  0  0  0  0
   32.4480   87.5920   16.6010 C   0  0  0  0  0  0  0  0  0  0  0  0
   31.6080   88.4250   16.9240 O   0  0  0  0  0  0  0  0  0  0  0  0
   33.3440   86.0340   18.3230 C   0  0  0  0  0  0  0  0  0  0  0  0
   34.5030   85.4830   19.1520 C   0  0  0  0  0  0  0  0  0  0  0  0
   34.0050   84.2750   19.9530 C   0  0  0  0  0  0  0  0  0  0  0  0
   35.6600   85.0880   18.2430 C   0  0  0  0  0  0  0  0  0  0  0  0
   32.3670   86.8970   15.4520 N   0  0  0  0  0  0  0  0  0  0  0  0
   31.2770   87.0620   14.4850 C   0  0  2  0  0  0  0  0  0  0  0  0
   29.9540   86.7400   15.1730 C   0  0  0  0  0  0  0  0  0  0  0  0
   29.9100   85.9170   16.0920 O   0  0  0  0  0  0  0  0  0  0  0  0
   31.6060   86.0340   13.4020 C   0  0  0  0  0  0  0  0  0  0  0  0
   33.0820   85.8720   13.4980 C   0  0  0  0  0  0  0  0  0  0  0  0
   33.3420   85.8980   14.9800 C   0  0  0  0  0  0  0  0  0  0  0  0
   28.8790   87.3840   14.7290 N   0  0  0  0  0  0  0  0  0  0  0  0
   27.5630   87.1620   15.3160 C   0  0  2  0  0  0  0  0  0  0  0  0
   27.1130   85.7110   15.1760 C   0  0  0  0  0  0  0  0  0  0  0  0
   26.2570   85.2510   15.9290 O   0  0  0  0  0  0  0  0  0  0  0  0
   26.5350   88.0940   14.6730 C   0  0  0  0  0  0  0  0  0  0  0  0
   27.6790   84.9880   14.2150 N   0  0  0  0  0  0  0  0  0  0  0  0
   27.3020   83.5900   14.0270 C   0  0  2  0  0  0  0  0  0  0  0  0
   27.6860   82.7610   15.2540 C   0  0  0  0  0  0  0  0  0  0  0  0
   27.0530   81.7340   15.5530 O   0  0  0  0  0  0  0  0  0  0  0  0
   27.9900   83.0100   12.7880 C   0  0  0  0  0  0  0  0  0  0  0  0
   27.6090   81.5770   12.4050 C   0  0  0  0  0  0  0  0  0  0  0  0
   26.1130   81.5050   12.1020 C   0  0  0  0  0  0  0  0  0  0  0  0
   28.4220   81.1380   11.1840 C   0  0  0  0  0  0  0  0  0  0  0  0
   28.7250   83.2000   15.9580 N   0  0  0  0  0  0  0  0  0  0  0  0
   29.1830   82.4860   17.1480 C   0  0  0  0  0  0  0  0  0  0  0  0
   35.8114   91.1498   18.6239 H   0  0  0  0  0  0  0  0  0  0  0  0
   35.6162   89.9755   19.9030 H   0  0  0  0  0  0  0  0  0  0  0  0
   34.2467   90.9189   19.3665 H   0  0  0  0  0  0  0  0  0  0  0  0
   33.6178   88.4035   19.3146 H   0  0  0  0  0  0  0  0  0  0  0  0
   34.4853   87.1611   16.8620 H   0  0  0  0  0  0  0  0  0  0  0  0
   33.0359   85.2683   17.6421 H   0  0  0  0  0  0  0  0  0  0  0  0
   32.5941   86.3194   19.0309 H   0  0  0  0  0  0  0  0  0  0  0  0
   34.8575   86.2342   19.8265 H   0  0  0  0  0  0  0  0  0  0  0  0
   33.6501   83.5226   19.2801 H   0  0  0  0  0  0  0  0  0  0  0  0
   33.2087   84.5795   20.5996 H   0  0  0  0  0  0  0  0  0  0  0  0
   34.8085   83.8795   20.5385 H   0  0  0  0  0  0  0  0  0  0  0  0
   35.3330   84.3357   17.5560 H   0  0  0  0  0  0  0  0  0  0  0  0
   36.4643   84.7046   18.8355 H   0  0  0  0  0  0  0  0  0  0  0  0
   35.9953   85.9463   17.6991 H   0  0  0  0  0  0  0  0  0  0  0  0
   31.1864   88.0506   14.0858 H   0  0  0  0  0  0  0  0  0  0  0  0
   31.1081   85.1065   13.5938 H   0  0  0  0  0  0  0  0  0  0  0  0
   31.2876   86.3441   12.4287 H   0  0  0  0  0  0  0  0  0  0  0  0
   33.5879   86.6767   13.0067 H   0  0  0  0  0  0  0  0  0  0  0  0
   33.4347   84.9776   13.0284 H   0  0  0  0  0  0  0  0  0  0  0  0
   34.3449   86.2048   15.1922 H   0  0  0  0  0  0  0  0  0  0  0  0
   33.2383   84.9424   15.4502 H   0  0  0  0  0  0  0  0  0  0  0  0
   28.9736   88.0248   13.9876 H   0  0  0  0  0  0  0  0  0  0  0  0
   27.6367   87.3784   16.3613 H   0  0  0  0  0  0  0  0  0  0  0  0
   26.4616   87.8772   13.6278 H   0  0  0  0  0  0  0  0  0  0  0  0
   26.8426   89.1102   14.8057 H   0  0  0  0  0  0  0  0  0  0  0  0
   25.5815   87.9467   15.1356 H   0  0  0  0  0  0  0  0  0  0  0  0
   28.3551   85.3967   13.6276 H   0  0  0  0  0  0  0  0  0  0  0  0
   26.2413   83.5493   13.8923 H   0  0  0  0  0  0  0  0  0  0  0  0
   27.7531   83.6426   11.9581 H   0  0  0  0  0  0  0  0  0  0  0  0
   29.0308   82.9713   13.0331 H   0  0  0  0  0  0  0  0  0  0  0  0
   27.8268   80.9190   13.2201 H   0  0  0  0  0  0  0  0  0  0  0  0
   25.8821   82.1595   11.2876 H   0  0  0  0  0  0  0  0  0  0  0  0
   25.5590   81.8034   12.9674 H   0  0  0  0  0  0  0  0  0  0  0  0
   25.8503   80.5017   11.8388 H   0  0  0  0  0  0  0  0  0  0  0  0
   28.2115   81.7900   10.3621 H   0  0  0  0  0  0  0  0  0  0  0  0
   28.1570   80.1353   10.9208 H   0  0  0  0  0  0  0  0  0  0  0  0
   29.4657   81.1819   11.4159 H   0  0  0  0  0  0  0  0  0  0  0  0
   29.1927   84.0182   15.6734 H   0  0  0  0  0  0  0  0  0  0  0  0
   28.5651   81.6273   17.3086 H   0  0  0  0  0  0  0  0  0  0  0  0
   29.1220   83.1333   17.9978 H   0  0  0  0  0  0  0  0  0  0  0  0
   30.1972   82.1746   17.0089 H   0  0  0  0  0  0  0  0  0  0  0  0
  1 34  1  0  0  0  0
  1 35  1  0  0  0  0
  1 36  1  0  0  0  0
  2  4  1  0  0  0  0
  2  1  1  0  0  0  0
  3  2  2  0  0  0  0
  4 37  1  0  0  0  0
  5  8  1  0  0  0  0
  5  4  1  0  0  0  0
  5 38  1  6  0  0  0
  6  7  2  0  0  0  0
  6  5  1  0  0  0  0
  8  9  1  0  0  0  0
  8 39  1  0  0  0  0
  8 40  1  0  0  0  0
  9 10  1  0  0  0  0
  9 41  1  0  0  0  0
 10 42  1  0  0  0  0
 10 43  1  0  0  0  0
 10 44  1  0  0  0  0
 11  9  1  0  0  0  0
 11 45  1  0  0  0  0
 11 46  1  0  0  0  0
 11 47  1  0  0  0  0
 12  6  1  0  0  0  0
 13 14  1  0  0  0  0
 13 12  1  0  0  0  0
 13 48  1  6  0  0  0
 14 15  2  0  0  0  0
 16 17  1  0  0  0  0
 16 13  1  0  0  0  0
 16 49  1  0  0  0  0
 16 50  1  0  0  0  0
 17 18  1  0  0  0  0
 17 51  1  0  0  0  0
 17 52  1  0  0  0  0
 18 12  1  0  0  0  0
 18 53  1  0  0  0  0
 18 54  1  0  0  0  0
 19 14  1  0  0  0  0
 19 20  1  0  0  0  0
 19 55  1  0  0  0  0
 20 56  1  1  0  0  0
 21 20  1  0  0  0  0
 21 22  2  0  0  0  0
 23 20  1  0  0  0  0
 23 57  1  0  0  0  0
 23 58  1  0  0  0  0
 23 59  1  0  0  0  0
 24 21  1  0  0  0  0
 24 60  1  0  0  0  0
 25 24  1  0  0  0  0
 25 26  1  0  0  0  0
 25 61  1  6  0  0  0
 26 27  2  0  0  0  0
 26 32  1  0  0  0  0
 28 25  1  0  0  0  0
 28 62  1  0  0  0  0
 28 63  1  0  0  0  0
 29 28  1  0  0  0  0
 29 64  1  0  0  0  0
 30 29  1  0  0  0  0
 30 65  1  0  0  0  0
 30 66  1  0  0  0  0
 30 67  1  0  0  0  0
 31 29  1  0  0  0  0
 31 68  1  0  0  0  0
 31 69  1  0  0  0  0
 31 70  1  0  0  0  0
 32 33  1  0  0  0  0
 32 71  1  0  0  0  0
 33 72  1  0  0  0  0
 33 73  1  0  0  0  0
 33 74  1  0  0  0  0
M  END
>  <MODEL>
       0

$$$$
selected_4mers/LPAL/527_noH.pdb
 OpenBabel03042518173D

 74 74  0  0  1  0  0  0  0  0999 V2000
   21.5590   38.8990   12.7340 C   0  0  0  0  0  0  0  0  0  0  0  0
   21.6020   40.1910   13.5670 C   0  0  0  0  0  0  0  0  0  0  0  0
   20.7070   41.0190   13.4620 O   0  0  0  0  0  0  0  0  0  0  0  0
   22.6880   40.3790   14.3250 N   0  0  0  0  0  0  0  0  0  0  0  0
   22.7960   41.5270   15.2360 C   0  0  2  0  0  0  0  0  0  0  0  0
   23.7670   42.5480   14.6410 C   0  0  0  0  0  0  0  0  0  0  0  0
   24.5280   42.2210   13.7390 O   0  0  0  0  0  0  0  0  0  0  0  0
   23.3470   41.0740   16.6120 C   0  0  0  0  0  0  0  0  0  0  0  0
   22.6260   39.8660   17.2220 C   0  0  0  0  0  0  0  0  0  0  0  0
   23.3320   39.4310   18.5420 C   0  0  0  0  0  0  0  0  0  0  0  0
   21.1450   40.2040   17.4800 C   0  0  0  0  0  0  0  0  0  0  0  0
   23.7490   43.7710   15.1200 N   0  0  0  0  0  0  0  0  0  0  0  0
   24.8330   44.7000   14.7520 C   0  0  2  0  0  0  0  0  0  0  0  0
   26.1770   44.1130   15.1540 C   0  0  0  0  0  0  0  0  0  0  0  0
   26.2760   43.3460   16.1410 O   0  0  0  0  0  0  0  0  0  0  0  0
   24.5080   45.9740   15.5670 C   0  0  0  0  0  0  0  0  0  0  0  0
   22.9720   45.8720   15.8080 C   0  0  0  0  0  0  0  0  0  0  0  0
   22.7650   44.3880   16.0580 C   0  0  0  0  0  0  0  0  0  0  0  0
   27.2300   44.5090   14.4420 N   0  0  0  0  0  0  0  0  0  0  0  0
   28.5510   44.0160   14.7610 C   0  0  2  0  0  0  0  0  0  0  0  0
   29.0410   44.5110   16.1190 C   0  0  0  0  0  0  0  0  0  0  0  0
   28.6330   45.5740   16.5840 O   0  0  0  0  0  0  0  0  0  0  0  0
   29.5540   44.3870   13.6500 C   0  0  0  0  0  0  0  0  0  0  0  0
   29.8780   43.7090   16.7480 N   0  0  0  0  0  0  0  0  0  0  0  0
   30.3790   43.9840   18.0850 C   0  0  2  0  0  0  0  0  0  0  0  0
   31.7780   44.6310   18.0180 C   0  0  0  0  0  0  0  0  0  0  0  0
   32.7160   44.0370   17.4860 O   0  0  0  0  0  0  0  0  0  0  0  0
   30.4840   42.6790   18.8730 C   0  0  0  0  0  0  0  0  0  0  0  0
   30.7930   42.8050   20.3720 C   0  0  0  0  0  0  0  0  0  0  0  0
   29.5700   43.3540   21.0910 C   0  0  0  0  0  0  0  0  0  0  0  0
   31.1540   41.4520   20.9280 C   0  0  0  0  0  0  0  0  0  0  0  0
   31.8970   45.8330   18.5660 N   0  0  0  0  0  0  0  0  0  0  0  0
   33.1720   46.5460   18.5180 C   0  0  0  0  0  0  0  0  0  0  0  0
   20.6472   38.8652   12.1751 H   0  0  0  0  0  0  0  0  0  0  0  0
   21.6092   38.0523   13.3862 H   0  0  0  0  0  0  0  0  0  0  0  0
   22.3907   38.8806   12.0611 H   0  0  0  0  0  0  0  0  0  0  0  0
   23.4305   39.7348   14.2714 H   0  0  0  0  0  0  0  0  0  0  0  0
   21.8247   41.9570   15.3643 H   0  0  0  0  0  0  0  0  0  0  0  0
   23.2588   41.8943   17.2933 H   0  0  0  0  0  0  0  0  0  0  0  0
   24.3602   40.7715   16.4483 H   0  0  0  0  0  0  0  0  0  0  0  0
   22.6687   39.0500   16.5312 H   0  0  0  0  0  0  0  0  0  0  0  0
   23.2991   40.2360   19.2461 H   0  0  0  0  0  0  0  0  0  0  0  0
   24.3513   39.1795   18.3352 H   0  0  0  0  0  0  0  0  0  0  0  0
   22.8303   38.5789   18.9508 H   0  0  0  0  0  0  0  0  0  0  0  0
   21.0802   41.0194   18.1698 H   0  0  0  0  0  0  0  0  0  0  0  0
   20.6504   39.3489   17.8911 H   0  0  0  0  0  0  0  0  0  0  0  0
   20.6760   40.4785   16.5583 H   0  0  0  0  0  0  0  0  0  0  0  0
   24.8951   44.8943   13.7016 H   0  0  0  0  0  0  0  0  0  0  0  0
   24.7498   46.8555   15.0108 H   0  0  0  0  0  0  0  0  0  0  0  0
   25.0683   46.0405   16.4762 H   0  0  0  0  0  0  0  0  0  0  0  0
   22.4250   46.1974   14.9479 H   0  0  0  0  0  0  0  0  0  0  0  0
   22.6290   46.4878   16.6130 H   0  0  0  0  0  0  0  0  0  0  0  0
   22.9833   44.1313   17.0736 H   0  0  0  0  0  0  0  0  0  0  0  0
   21.7582   44.0618   15.9006 H   0  0  0  0  0  0  0  0  0  0  0  0
   27.1086   45.1396   13.6958 H   0  0  0  0  0  0  0  0  0  0  0  0
   28.4831   42.9499   14.8214 H   0  0  0  0  0  0  0  0  0  0  0  0
   29.6307   45.4519   13.5798 H   0  0  0  0  0  0  0  0  0  0  0  0
   29.2138   43.9915   12.7158 H   0  0  0  0  0  0  0  0  0  0  0  0
   30.5135   43.9749   13.8835 H   0  0  0  0  0  0  0  0  0  0  0  0
   30.1765   42.8888   16.2926 H   0  0  0  0  0  0  0  0  0  0  0  0
   29.6995   44.6558   18.5667 H   0  0  0  0  0  0  0  0  0  0  0  0
   31.2617   42.0932   18.4292 H   0  0  0  0  0  0  0  0  0  0  0  0
   29.5102   42.2386   18.8213 H   0  0  0  0  0  0  0  0  0  0  0  0
   31.6173   43.4717   20.5167 H   0  0  0  0  0  0  0  0  0  0  0  0
   28.7439   42.6892   20.9480 H   0  0  0  0  0  0  0  0  0  0  0  0
   29.3255   44.3172   20.6943 H   0  0  0  0  0  0  0  0  0  0  0  0
   29.7804   43.4417   22.1364 H   0  0  0  0  0  0  0  0  0  0  0  0
   30.3346   40.7784   20.7874 H   0  0  0  0  0  0  0  0  0  0  0  0
   31.3673   41.5410   21.9727 H   0  0  0  0  0  0  0  0  0  0  0  0
   32.0165   41.0757   20.4187 H   0  0  0  0  0  0  0  0  0  0  0  0
   31.1213   46.2477   19.0081 H   0  0  0  0  0  0  0  0  0  0  0  0
   33.8954   45.9488   18.0033 H   0  0  0  0  0  0  0  0  0  0  0  0
   33.5114   46.7373   19.5145 H   0  0  0  0  0  0  0  0  0  0  0  0
   33.0426   47.4738   18.0010 H   0  0  0  0  0  0  0  0  0  0  0  0
  1  2  1  0  0  0  0
  1 34  1  0  0  0  0
  1 35  1  0  0  0  0
  1 36  1  0  0  0  0
  2  4  1  0  0  0  0
  3  2  2  0  0  0  0
  4  5  1  0  0  0  0
  4 37  1  0  0  0  0
  5  8  1  0  0  0  0
  5 38  1  1  0  0  0
  6 12  1  0  0  0  0
  6  5  1  0  0  0  0
  7  6  2  0  0  0  0
  8  9  1  0  0  0  0
  8 39  1  0  0  0  0
  8 40  1  0  0  0  0
  9 11  1  0  0  0  0
  9 10  1  0  0  0  0
  9 41  1  0  0  0  0
 10 42  1  0  0  0  0
 10 43  1  0  0  0  0
 10 44  1  0  0  0  0
 11 45  1  0  0  0  0
 11 46  1  0  0  0  0
 11 47  1  0  0  0  0
 12 18  1  0  0  0  0
 13 12  1  0  0  0  0
 13 14  1  0  0  0  0
 13 16  1  0  0  0  0
 13 48  1  6  0  0  0
 14 15  2  0  0  0  0
 16 17  1  0  0  0  0
 16 49  1  0  0  0  0
 16 50  1  0  0  0  0
 17 18  1  0  0  0  0
 17 51  1  0  0  0  0
 17 52  1  0  0  0  0
 18 53  1  0  0  0  0
 18 54  1  0  0  0  0
 19 20  1  0  0  0  0
 19 14  1  0  0  0  0
 19 55  1  0  0  0  0
 20 21  1  0  0  0  0
 20 56  1  1  0  0  0
 21 22  2  0  0  0  0
 21 24  1  0  0  0  0
 23 20  1  0  0  0  0
 23 57  1  0  0  0  0
 23 58  1  0  0  0  0
 23 59  1  0  0  0  0
 24 25  1  0  0  0  0
 24 60  1  0  0  0  0
 25 28  1  0  0  0  0
 25 61  1  1  0  0  0
 26 25  1  0  0  0  0
 26 32  1  0  0  0  0
 27 26  2  0  0  0  0
 28 29  1  0  0  0  0
 28 62  1  0  0  0  0
 28 63  1  0  0  0  0
 29 31  1  0  0  0  0
 29 30  1  0  0  0  0
 29 64  1  0  0  0  0
 30 65  1  0  0  0  0
 30 66  1  0  0  0  0
 30 67  1  0  0  0  0
 31 68  1  0  0  0  0
 31 69  1  0  0  0  0
 31 70  1  0  0  0  0
 32 71  1  0  0  0  0
 33 32  1  0  0  0  0
 33 72  1  0  0  0  0
 33 73  1  0  0  0  0
 33 74  1  0  0  0  0
M  END
>  <MODEL>
       0

$$$$
selected_4mers/LPAL/528_noH.pdb
 OpenBabel03042518173D

 74 74  0  0  1  0  0  0  0  0999 V2000
   29.4800   61.2360   31.1890 C   0  0  0  0  0  0  0  0  0  0  0  0
   29.9070   59.7800   31.1810 C   0  0  0  0  0  0  0  0  0  0  0  0
   29.7190   59.0700   32.1750 O   0  0  0  0  0  0  0  0  0  0  0  0
   30.4430   59.3380   30.0420 N   0  0  0  0  0  0  0  0  0  0  0  0
   30.9280   57.9630   29.8600 C   0  0  2  0  0  0  0  0  0  0  0  0
   32.3890   57.9890   29.3950 C   0  0  0  0  0  0  0  0  0  0  0  0
   32.6800   57.6430   28.2470 O   0  0  0  0  0  0  0  0  0  0  0  0
   30.0490   57.1980   28.8510 C   0  0  0  0  0  0  0  0  0  0  0  0
   28.5980   56.8840   29.2680 C   0  0  0  0  0  0  0  0  0  0  0  0
   27.6600   58.0180   28.8910 C   0  0  0  0  0  0  0  0  0  0  0  0
   28.1040   55.5970   28.6160 C   0  0  0  0  0  0  0  0  0  0  0  0
   33.3240   58.3710   30.2920 N   0  0  0  0  0  0  0  0  0  0  0  0
   34.7150   58.5680   29.8450 C   0  0  2  0  0  0  0  0  0  0  0  0
   35.4120   57.2860   29.3700 C   0  0  0  0  0  0  0  0  0  0  0  0
   36.3560   57.3700   28.5830 O   0  0  0  0  0  0  0  0  0  0  0  0
   35.4210   59.1360   31.0790 C   0  0  0  0  0  0  0  0  0  0  0  0
   34.5690   58.7820   32.2360 C   0  0  0  0  0  0  0  0  0  0  0  0
   33.1650   58.5710   31.7460 C   0  0  0  0  0  0  0  0  0  0  0  0
   34.9360   56.1260   29.8220 N   0  0  0  0  0  0  0  0  0  0  0  0
   35.5380   54.8520   29.4520 C   0  0  2  0  0  0  0  0  0  0  0  0
   35.0480   54.3220   28.0950 C   0  0  0  0  0  0  0  0  0  0  0  0
   35.6050   53.3560   27.5670 O   0  0  0  0  0  0  0  0  0  0  0  0
   35.2970   53.8070   30.5560 C   0  0  0  0  0  0  0  0  0  0  0  0
   34.0080   54.9500   27.5430 N   0  0  0  0  0  0  0  0  0  0  0  0
   33.4220   54.5190   26.2690 C   0  0  2  0  0  0  0  0  0  0  0  0
   34.0460   55.2930   25.1170 C   0  0  0  0  0  0  0  0  0  0  0  0
   34.0720   56.5180   25.1290 O   0  0  0  0  0  0  0  0  0  0  0  0
   31.9020   54.7150   26.2580 C   0  0  0  0  0  0  0  0  0  0  0  0
   31.1560   54.2960   24.9830 C   0  0  0  0  0  0  0  0  0  0  0  0
   31.1310   52.7830   24.8640 C   0  0  0  0  0  0  0  0  0  0  0  0
   29.7380   54.8310   24.9500 C   0  0  0  0  0  0  0  0  0  0  0  0
   34.5460   54.5520   24.1320 N   0  0  0  0  0  0  0  0  0  0  0  0
   35.1700   55.1090   22.9420 C   0  0  0  0  0  0  0  0  0  0  0  0
   29.7231   61.6841   30.2483 H   0  0  0  0  0  0  0  0  0  0  0  0
   29.9917   61.7535   31.9734 H   0  0  0  0  0  0  0  0  0  0  0  0
   28.4241   61.2971   31.3510 H   0  0  0  0  0  0  0  0  0  0  0  0
   30.5172   59.9642   29.2859 H   0  0  0  0  0  0  0  0  0  0  0  0
   30.8691   57.4501   30.7972 H   0  0  0  0  0  0  0  0  0  0  0  0
   30.0062   57.7820   27.9554 H   0  0  0  0  0  0  0  0  0  0  0  0
   30.5176   56.2413   28.7505 H   0  0  0  0  0  0  0  0  0  0  0  0
   28.5985   56.7647   30.3313 H   0  0  0  0  0  0  0  0  0  0  0  0
   27.6571   58.1400   27.8280 H   0  0  0  0  0  0  0  0  0  0  0  0
   27.9921   58.9241   29.3531 H   0  0  0  0  0  0  0  0  0  0  0  0
   26.6702   57.7885   29.2263 H   0  0  0  0  0  0  0  0  0  0  0  0
   28.1026   55.7138   27.5524 H   0  0  0  0  0  0  0  0  0  0  0  0
   27.1108   55.3850   28.9528 H   0  0  0  0  0  0  0  0  0  0  0  0
   28.7520   54.7892   28.8853 H   0  0  0  0  0  0  0  0  0  0  0  0
   34.7452   59.2085   28.9884 H   0  0  0  0  0  0  0  0  0  0  0  0
   35.5144   60.1988   30.9975 H   0  0  0  0  0  0  0  0  0  0  0  0
   36.4086   58.7376   31.1833 H   0  0  0  0  0  0  0  0  0  0  0  0
   34.5857   59.5760   32.9531 H   0  0  0  0  0  0  0  0  0  0  0  0
   34.9335   57.8898   32.7007 H   0  0  0  0  0  0  0  0  0  0  0  0
   32.7275   57.7084   32.2035 H   0  0  0  0  0  0  0  0  0  0  0  0
   32.5176   59.3896   31.9821 H   0  0  0  0  0  0  0  0  0  0  0  0
   34.1559   56.1302   30.4226 H   0  0  0  0  0  0  0  0  0  0  0  0
   36.5882   55.0284   29.3475 H   0  0  0  0  0  0  0  0  0  0  0  0
   34.2463   53.6323   30.6585 H   0  0  0  0  0  0  0  0  0  0  0  0
   35.6903   54.1698   31.4826 H   0  0  0  0  0  0  0  0  0  0  0  0
   35.7868   52.8923   30.2944 H   0  0  0  0  0  0  0  0  0  0  0  0
   33.6213   55.7281   28.0059 H   0  0  0  0  0  0  0  0  0  0  0  0
   33.6265   53.4752   26.1521 H   0  0  0  0  0  0  0  0  0  0  0  0
   31.4972   54.1481   27.0702 H   0  0  0  0  0  0  0  0  0  0  0  0
   31.7569   55.7726   26.3308 H   0  0  0  0  0  0  0  0  0  0  0  0
   31.6852   54.7172   24.1539 H   0  0  0  0  0  0  0  0  0  0  0  0
   30.6007   52.3685   25.6958 H   0  0  0  0  0  0  0  0  0  0  0  0
   32.1335   52.4091   24.8581 H   0  0  0  0  0  0  0  0  0  0  0  0
   30.6412   52.5048   23.9543 H   0  0  0  0  0  0  0  0  0  0  0  0
   29.1844   54.4248   25.7706 H   0  0  0  0  0  0  0  0  0  0  0  0
   29.2712   54.5477   24.0298 H   0  0  0  0  0  0  0  0  0  0  0  0
   29.7575   55.8981   25.0263 H   0  0  0  0  0  0  0  0  0  0  0  0
   34.4907   53.5724   24.2129 H   0  0  0  0  0  0  0  0  0  0  0  0
   35.1554   56.1774   22.9985 H   0  0  0  0  0  0  0  0  0  0  0  0
   34.6311   54.7903   22.0743 H   0  0  0  0  0  0  0  0  0  0  0  0
   36.1825   54.7690   22.8778 H   0  0  0  0  0  0  0  0  0  0  0  0
  1 34  1  0  0  0  0
  1 35  1  0  0  0  0
  1 36  1  0  0  0  0
  2  1  1  0  0  0  0
  2  3  2  0  0  0  0
  4  2  1  0  0  0  0
  4 37  1  0  0  0  0
  5  4  1  0  0  0  0
  5 38  1  1  0  0  0
  6  5  1  0  0  0  0
  6 12  1  0  0  0  0
  7  6  2  0  0  0  0
  8  9  1  0  0  0  0
  8  5  1  0  0  0  0
  8 39  1  0  0  0  0
  8 40  1  0  0  0  0
  9 41  1  0  0  0  0
 10  9  1  0  0  0  0
 10 42  1  0  0  0  0
 10 43  1  0  0  0  0
 10 44  1  0  0  0  0
 11  9  1  0  0  0  0
 11 45  1  0  0  0  0
 11 46  1  0  0  0  0
 11 47  1  0  0  0  0
 12 18  1  0  0  0  0
 13 12  1  0  0  0  0
 13 16  1  0  0  0  0
 13 48  1  6  0  0  0
 14 19  1  0  0  0  0
 14 13  1  0  0  0  0
 15 14  2  0  0  0  0
 16 17  1  0  0  0  0
 16 49  1  0  0  0  0
 16 50  1  0  0  0  0
 17 51  1  0  0  0  0
 17 52  1  0  0  0  0
 18 17  1  0  0  0  0
 18 53  1  0  0  0  0
 18 54  1  0  0  0  0
 19 55  1  0  0  0  0
 20 19  1  0  0  0  0
 20 23  1  0  0  0  0
 20 56  1  6  0  0  0
 21 20  1  0  0  0  0
 22 21  2  0  0  0  0
 23 57  1  0  0  0  0
 23 58  1  0  0  0  0
 23 59  1  0  0  0  0
 24 21  1  0  0  0  0
 24 60  1  0  0  0  0
 25 24  1  0  0  0  0
 25 61  1  6  0  0  0
 26 27  2  0  0  0  0
 26 25  1  0  0  0  0
 28 25  1  0  0  0  0
 28 62  1  0  0  0  0
 28 63  1  0  0  0  0
 29 28  1  0  0  0  0
 29 64  1  0  0  0  0
 30 29  1  0  0  0  0
 30 65  1  0  0  0  0
 30 66  1  0  0  0  0
 30 67  1  0  0  0  0
 31 29  1  0  0  0  0
 31 68  1  0  0  0  0
 31 69  1  0  0  0  0
 31 70  1  0  0  0  0
 32 26  1  0  0  0  0
 32 71  1  0  0  0  0
 33 32  1  0  0  0  0
 33 72  1  0  0  0  0
 33 73  1  0  0  0  0
 33 74  1  0  0  0  0
M  END
>  <MODEL>
       0

$$$$
selected_4mers/LPAL/529_noH.pdb
 OpenBabel03042518173D

 74 74  0  0  1  0  0  0  0  0999 V2000
   21.5670    7.5370   -8.7830 C   0  0  0  0  0  0  0  0  0  0  0  0
   20.5810    6.4580   -8.3200 C   0  0  0  0  0  0  0  0  0  0  0  0
   20.5090    5.3850   -8.9410 O   0  0  0  0  0  0  0  0  0  0  0  0
   19.8440    6.7100   -7.2400 N   0  0  0  0  0  0  0  0  0  0  0  0
   18.8870    5.7220   -6.7210 C   0  0  2  0  0  0  0  0  0  0  0  0
   17.9120    5.1630   -7.7730 C   0  0  0  0  0  0  0  0  0  0  0  0
   17.6610    3.9640   -7.7950 O   0  0  0  0  0  0  0  0  0  0  0  0
   18.0930    6.2900   -5.5270 C   0  0  0  0  0  0  0  0  0  0  0  0
   17.1170    5.3320   -4.8170 C   0  0  0  0  0  0  0  0  0  0  0  0
   17.7390    3.9360   -4.6160 C   0  0  0  0  0  0  0  0  0  0  0  0
   16.6720    5.9180   -3.5140 C   0  0  0  0  0  0  0  0  0  0  0  0
   17.3420    6.0210   -8.6310 N   0  0  0  0  0  0  0  0  0  0  0  0
   16.4290    5.4540   -9.6620 C   0  0  2  0  0  0  0  0  0  0  0  0
   17.0680    4.3650  -10.5470 C   0  0  0  0  0  0  0  0  0  0  0  0
   16.3860    3.4320  -10.9630 O   0  0  0  0  0  0  0  0  0  0  0  0
   16.0330    6.6700  -10.4930 C   0  0  0  0  0  0  0  0  0  0  0  0
   16.2320    7.8700   -9.5480 C   0  0  0  0  0  0  0  0  0  0  0  0
   17.3210    7.4990   -8.5980 C   0  0  0  0  0  0  0  0  0  0  0  0
   18.3750    4.4610  -10.8030 N   0  0  0  0  0  0  0  0  0  0  0  0
   19.0700    3.4200  -11.5530 C   0  0  2  0  0  0  0  0  0  0  0  0
   18.9250    2.0500  -10.8950 C   0  0  0  0  0  0  0  0  0  0  0  0
   18.7070    1.0430  -11.5710 O   0  0  0  0  0  0  0  0  0  0  0  0
   20.5560    3.7650  -11.7140 C   0  0  0  0  0  0  0  0  0  0  0  0
   19.0920    2.0090   -9.5780 N   0  0  0  0  0  0  0  0  0  0  0  0
   19.0400    0.7480   -8.8310 C   0  0  2  0  0  0  0  0  0  0  0  0
   17.5960    0.2770   -8.6730 C   0  0  0  0  0  0  0  0  0  0  0  0
   17.3550   -0.9180   -8.6320 O   0  0  0  0  0  0  0  0  0  0  0  0
   19.7310    0.9140   -7.4630 C   0  0  0  0  0  0  0  0  0  0  0  0
   21.2380    1.2280   -7.5120 C   0  0  0  0  0  0  0  0  0  0  0  0
   21.8660    1.2660   -6.1240 C   0  0  0  0  0  0  0  0  0  0  0  0
   21.9880    0.2500   -8.3580 C   0  0  0  0  0  0  0  0  0  0  0  0
   16.6310    1.1910   -8.6040 N   0  0  0  0  0  0  0  0  0  0  0  0
   15.2100    0.7860   -8.6920 C   0  0  0  0  0  0  0  0  0  0  0  0
   22.0848    7.1964   -9.6552 H   0  0  0  0  0  0  0  0  0  0  0  0
   22.2728    7.7335   -8.0032 H   0  0  0  0  0  0  0  0  0  0  0  0
   21.0315    8.4342   -9.0137 H   0  0  0  0  0  0  0  0  0  0  0  0
   19.9419    7.5749   -6.7800 H   0  0  0  0  0  0  0  0  0  0  0  0
   19.4915    4.8987   -6.4022 H   0  0  0  0  0  0  0  0  0  0  0  0
   17.5248    7.1233   -5.8843 H   0  0  0  0  0  0  0  0  0  0  0  0
   18.8316    6.5301   -4.7910 H   0  0  0  0  0  0  0  0  0  0  0  0
   16.2590    5.2071   -5.4440 H   0  0  0  0  0  0  0  0  0  0  0  0
   18.6040    4.0175   -3.9915 H   0  0  0  0  0  0  0  0  0  0  0  0
   18.0214    3.5313   -5.5654 H   0  0  0  0  0  0  0  0  0  0  0  0
   17.0234    3.2902   -4.1516 H   0  0  0  0  0  0  0  0  0  0  0  0
   17.5195    6.0496   -2.8742 H   0  0  0  0  0  0  0  0  0  0  0  0
   15.9714    5.2579   -3.0468 H   0  0  0  0  0  0  0  0  0  0  0  0
   16.2069    6.8655   -3.6894 H   0  0  0  0  0  0  0  0  0  0  0  0
   15.6050    4.9477   -9.2042 H   0  0  0  0  0  0  0  0  0  0  0  0
   15.0113    6.5989  -10.8029 H   0  0  0  0  0  0  0  0  0  0  0  0
   16.6151    6.7571  -11.3865 H   0  0  0  0  0  0  0  0  0  0  0  0
   15.3280    8.0694   -9.0114 H   0  0  0  0  0  0  0  0  0  0  0  0
   16.4878    8.7516  -10.0978 H   0  0  0  0  0  0  0  0  0  0  0  0
   17.1022    7.8536   -7.6125 H   0  0  0  0  0  0  0  0  0  0  0  0
   18.2635    7.9287   -8.8663 H   0  0  0  0  0  0  0  0  0  0  0  0
   18.8765    5.2448  -10.4814 H   0  0  0  0  0  0  0  0  0  0  0  0
   18.6128    3.3729  -12.5193 H   0  0  0  0  0  0  0  0  0  0  0  0
   21.0175    3.8132  -10.7498 H   0  0  0  0  0  0  0  0  0  0  0  0
   20.6514    4.7120  -12.2028 H   0  0  0  0  0  0  0  0  0  0  0  0
   21.0357    3.0104  -12.3017 H   0  0  0  0  0  0  0  0  0  0  0  0
   19.2552    2.8482   -9.0898 H   0  0  0  0  0  0  0  0  0  0  0  0
   19.5670   -0.0039   -9.3804 H   0  0  0  0  0  0  0  0  0  0  0  0
   19.6022    0.0031   -6.9165 H   0  0  0  0  0  0  0  0  0  0  0  0
   19.2700    1.7633   -7.0035 H   0  0  0  0  0  0  0  0  0  0  0  0
   21.3135    2.2006   -7.9517 H   0  0  0  0  0  0  0  0  0  0  0  0
   21.7961    0.2976   -5.6743 H   0  0  0  0  0  0  0  0  0  0  0  0
   21.3479    1.9791   -5.5175 H   0  0  0  0  0  0  0  0  0  0  0  0
   22.8950    1.5479   -6.2057 H   0  0  0  0  0  0  0  0  0  0  0  0
   21.9167   -0.7254   -7.9239 H   0  0  0  0  0  0  0  0  0  0  0  0
   23.0161    0.5413   -8.4136 H   0  0  0  0  0  0  0  0  0  0  0  0
   21.5681    0.2340   -9.3420 H   0  0  0  0  0  0  0  0  0  0  0  0
   16.8635    2.1413   -8.4939 H   0  0  0  0  0  0  0  0  0  0  0  0
   15.1483   -0.2758   -8.8089 H   0  0  0  0  0  0  0  0  0  0  0  0
   14.7542    1.2645   -9.5335 H   0  0  0  0  0  0  0  0  0  0  0  0
   14.7003    1.0765   -7.7972 H   0  0  0  0  0  0  0  0  0  0  0  0
  1  2  1  0  0  0  0
  1 34  1  0  0  0  0
  1 35  1  0  0  0  0
  1 36  1  0  0  0  0
  2  4  1  0  0  0  0
  3  2  2  0  0  0  0
  4  5  1  0  0  0  0
  4 37  1  0  0  0  0
  5  8  1  0  0  0  0
  5 38  1  1  0  0  0
  6  5  1  0  0  0  0
  7  6  2  0  0  0  0
  8  9  1  0  0  0  0
  8 39  1  0  0  0  0
  8 40  1  0  0  0  0
  9 10  1  0  0  0  0
  9 11  1  0  0  0  0
  9 41  1  0  0  0  0
 10 42  1  0  0  0  0
 10 43  1  0  0  0  0
 10 44  1  0  0  0  0
 11 45  1  0  0  0  0
 11 46  1  0  0  0  0
 11 47  1  0  0  0  0
 12 18  1  0  0  0  0
 12  6  1  0  0  0  0
 13 12  1  0  0  0  0
 13 48  1  1  0  0  0
 14 13  1  0  0  0  0
 15 14  2  0  0  0  0
 16 13  1  0  0  0  0
 16 17  1  0  0  0  0
 16 49  1  0  0  0  0
 16 50  1  0  0  0  0
 17 18  1  0  0  0  0
 17 51  1  0  0  0  0
 17 52  1  0  0  0  0
 18 53  1  0  0  0  0
 18 54  1  0  0  0  0
 19 14  1  0  0  0  0
 19 55  1  0  0  0  0
 20 21  1  0  0  0  0
 20 19  1  0  0  0  0
 20 56  1  6  0  0  0
 21 24  1  0  0  0  0
 22 21  2  0  0  0  0
 23 20  1  0  0  0  0
 23 57  1  0  0  0  0
 23 58  1  0  0  0  0
 23 59  1  0  0  0  0
 24 25  1  0  0  0  0
 24 60  1  0  0  0  0
 25 26  1  0  0  0  0
 25 28  1  0  0  0  0
 25 61  1  6  0  0  0
 26 27  2  0  0  0  0
 26 32  1  0  0  0  0
 28 62  1  0  0  0  0
 28 63  1  0  0  0  0
 29 28  1  0  0  0  0
 29 30  1  0  0  0  0
 29 64  1  0  0  0  0
 30 65  1  0  0  0  0
 30 66  1  0  0  0  0
 30 67  1  0  0  0  0
 31 29  1  0  0  0  0
 31 68  1  0  0  0  0
 31 69  1  0  0  0  0
 31 70  1  0  0  0  0
 32 71  1  0  0  0  0
 33 32  1  0  0  0  0
 33 72  1  0  0  0  0
 33 73  1  0  0  0  0
 33 74  1  0  0  0  0
M  END
>  <MODEL>
       0

$$$$
