selected_4mers/LPEG/535_noH.pdb
 OpenBabel03042518233D

 67 67  0  0  1  0  0  0  0  0999 V2000
    2.3270  -29.4510    3.7700 C   0  0  0  0  0  0  0  0  0  0  0  0
    1.3070  -29.2630    4.9000 C   0  0  0  0  0  0  0  0  0  0  0  0
    1.6390  -29.4290    6.0740 O   0  0  0  0  0  0  0  0  0  0  0  0
    0.0700  -28.9320    4.5480 N   0  0  0  0  0  0  0  0  0  0  0  0
   -0.9840  -28.7640    5.5480 C   0  0  2  0  0  0  0  0  0  0  0  0
   -1.6980  -30.0760    5.8300 C   0  0  0  0  0  0  0  0  0  0  0  0
   -1.8070  -30.9300    4.9500 O   0  0  0  0  0  0  0  0  0  0  0  0
   -2.0120  -27.7300    5.0790 C   0  0  0  0  0  0  0  0  0  0  0  0
   -1.4910  -26.3040    4.9200 C   0  0  0  0  0  0  0  0  0  0  0  0
   -2.5970  -25.3910    4.4590 C   0  0  0  0  0  0  0  0  0  0  0  0
   -0.9110  -25.8150    6.2240 C   0  0  0  0  0  0  0  0  0  0  0  0
   -2.1980  -30.2380    7.0610 N   0  0  0  0  0  0  0  0  0  0  0  0
   -3.0060  -31.4150    7.3780 C   0  0  2  0  0  0  0  0  0  0  0  0
   -4.1890  -31.4950    6.4320 C   0  0  0  0  0  0  0  0  0  0  0  0
   -4.7550  -30.4620    6.0710 O   0  0  0  0  0  0  0  0  0  0  0  0
   -3.5040  -31.1290    8.7970 C   0  0  0  0  0  0  0  0  0  0  0  0
   -2.4920  -30.2100    9.3750 C   0  0  0  0  0  0  0  0  0  0  0  0
   -2.0210  -29.3560    8.2240 C   0  0  0  0  0  0  0  0  0  0  0  0
   -4.5550  -32.7070    6.0340 N   0  0  0  0  0  0  0  0  0  0  0  0
   -5.7360  -32.9020    5.2090 C   0  0  2  0  0  0  0  0  0  0  0  0
   -6.9290  -32.2250    5.8800 C   0  0  0  0  0  0  0  0  0  0  0  0
   -7.1490  -32.3870    7.0810 O   0  0  0  0  0  0  0  0  0  0  0  0
   -5.9980  -34.3990    5.0070 C   0  0  0  0  0  0  0  0  0  0  0  0
   -7.0950  -34.7190    4.0000 C   0  0  0  0  0  0  0  0  0  0  0  0
   -8.4610  -34.8880    4.6430 C   0  0  0  0  0  0  0  0  0  0  0  0
   -8.5330  -35.4420    5.7600 O   0  0  0  0  0  0  0  0  0  0  0  0
   -9.4650  -34.4770    4.0230 O   0  0  0  0  0  0  0  0  0  0  0  0
   -7.6820  -31.4460    5.1120 N   0  0  0  0  0  0  0  0  0  0  0  0
   -8.8710  -30.8000    5.6370 C   0  0  0  0  0  0  0  0  0  0  0  0
   -8.6740  -29.3810    6.1380 C   0  0  0  0  0  0  0  0  0  0  0  0
   -9.6330  -28.7220    6.5410 O   0  0  0  0  0  0  0  0  0  0  0  0
   -7.4370  -28.8990    6.1260 N   0  0  0  0  0  0  0  0  0  0  0  0
   -7.1810  -27.5240    6.5340 C   0  0  0  0  0  0  0  0  0  0  0  0
    1.8545  -29.2643    2.8283 H   0  0  0  0  0  0  0  0  0  0  0  0
    2.7000  -30.4537    3.7893 H   0  0  0  0  0  0  0  0  0  0  0  0
    3.1381  -28.7661    3.9041 H   0  0  0  0  0  0  0  0  0  0  0  0
   -0.1415  -28.7972    3.5960 H   0  0  0  0  0  0  0  0  0  0  0  0
   -0.5140  -28.4253    6.4476 H   0  0  0  0  0  0  0  0  0  0  0  0
   -2.3905  -28.0494    4.1305 H   0  0  0  0  0  0  0  0  0  0  0  0
   -2.7534  -27.6856    5.8492 H   0  0  0  0  0  0  0  0  0  0  0  0
   -0.7186  -26.2996    4.1795 H   0  0  0  0  0  0  0  0  0  0  0  0
   -3.3799  -25.3826    5.1883 H   0  0  0  0  0  0  0  0  0  0  0  0
   -2.9834  -25.7421    3.5250 H   0  0  0  0  0  0  0  0  0  0  0  0
   -2.2133  -24.3997    4.3362 H   0  0  0  0  0  0  0  0  0  0  0  0
   -1.6730  -25.8140    6.9752 H   0  0  0  0  0  0  0  0  0  0  0  0
   -0.5344  -24.8216    6.0966 H   0  0  0  0  0  0  0  0  0  0  0  0
   -0.1142  -26.4626    6.5251 H   0  0  0  0  0  0  0  0  0  0  0  0
   -2.4649  -32.3342    7.2933 H   0  0  0  0  0  0  0  0  0  0  0  0
   -3.5608  -32.0333    9.3661 H   0  0  0  0  0  0  0  0  0  0  0  0
   -4.4860  -30.7041    8.8028 H   0  0  0  0  0  0  0  0  0  0  0  0
   -2.9315  -29.6012   10.1373 H   0  0  0  0  0  0  0  0  0  0  0  0
   -1.6843  -30.7439    9.8304 H   0  0  0  0  0  0  0  0  0  0  0  0
   -2.6183  -28.4731    8.1311 H   0  0  0  0  0  0  0  0  0  0  0  0
   -1.0152  -29.0100    8.3406 H   0  0  0  0  0  0  0  0  0  0  0  0
   -4.0177  -33.4872    6.3020 H   0  0  0  0  0  0  0  0  0  0  0  0
   -5.5821  -32.4628    4.2455 H   0  0  0  0  0  0  0  0  0  0  0  0
   -5.0907  -34.8542    4.6685 H   0  0  0  0  0  0  0  0  0  0  0  0
   -6.3309  -34.7792    5.9501 H   0  0  0  0  0  0  0  0  0  0  0  0
   -7.1491  -33.9206    3.2897 H   0  0  0  0  0  0  0  0  0  0  0  0
   -6.8422  -35.6498    3.5368 H   0  0  0  0  0  0  0  0  0  0  0  0
   -7.4296  -31.3043    4.1710 H   0  0  0  0  0  0  0  0  0  0  0  0
   -9.2347  -31.3902    6.4520 H   0  0  0  0  0  0  0  0  0  0  0  0
   -9.5550  -30.7307    4.8171 H   0  0  0  0  0  0  0  0  0  0  0  0
   -6.6898  -29.4729    5.8403 H   0  0  0  0  0  0  0  0  0  0  0  0
   -8.1031  -27.0561    6.8092 H   0  0  0  0  0  0  0  0  0  0  0  0
   -6.7374  -26.9875    5.7214 H   0  0  0  0  0  0  0  0  0  0  0  0
   -6.5145  -27.5185    7.3711 H   0  0  0  0  0  0  0  0  0  0  0  0
  1  2  1  0  0  0  0
  1 34  1  0  0  0  0
  1 35  1  0  0  0  0
  1 36  1  0  0  0  0
  2  3  2  0  0  0  0
  4  2  1  0  0  0  0
  4  5  1  0  0  0  0
  4 37  1  0  0  0  0
  5  6  1  0  0  0  0
  5 38  1  1  0  0  0
  6 12  1  0  0  0  0
  7  6  2  0  0  0  0
  8  5  1  0  0  0  0
  8 39  1  0  0  0  0
  8 40  1  0  0  0  0
  9  8  1  0  0  0  0
  9 11  1  0  0  0  0
  9 41  1  0  0  0  0
 10  9  1  0  0  0  0
 10 42  1  0  0  0  0
 10 43  1  0  0  0  0
 10 44  1  0  0  0  0
 11 45  1  0  0  0  0
 11 46  1  0  0  0  0
 11 47  1  0  0  0  0
 12 13  1  0  0  0  0
 12 18  1  0  0  0  0
 13 16  1  0  0  0  0
 13 48  1  6  0  0  0
 14 13  1  0  0  0  0
 15 14  2  0  0  0  0
 16 17  1  0  0  0  0
 16 49  1  0  0  0  0
 16 50  1  0  0  0  0
 17 51  1  0  0  0  0
 17 52  1  0  0  0  0
 18 17  1  0  0  0  0
 18 53  1  0  0  0  0
 18 54  1  0  0  0  0
 19 14  1  0  0  0  0
 19 55  1  0  0  0  0
 20 21  1  0  0  0  0
 20 19  1  0  0  0  0
 20 56  1  6  0  0  0
 21 22  2  0  0  0  0
 23 20  1  0  0  0  0
 23 57  1  0  0  0  0
 23 58  1  0  0  0  0
 24 25  1  0  0  0  0
 24 23  1  0  0  0  0
 24 59  1  0  0  0  0
 24 60  1  0  0  0  0
 25 26  1  0  0  0  0
 27 25  2  0  0  0  0
 28 29  1  0  0  0  0
 28 21  1  0  0  0  0
 28 61  1  0  0  0  0
 29 30  1  0  0  0  0
 29 62  1  0  0  0  0
 29 63  1  0  0  0  0
 30 31  2  0  0  0  0
 32 30  1  0  0  0  0
 32 33  1  0  0  0  0
 32 64  1  0  0  0  0
 33 65  1  0  0  0  0
 33 66  1  0  0  0  0
 33 67  1  0  0  0  0
M  CHG  1  26  -1
M  END
>  <MODEL>
       0

$$$$
selected_4mers/LPEG/536_noH.pdb
 OpenBabel03042518233D

 67 67  0  0  1  0  0  0  0  0999 V2000
   23.9200  -32.0940  -50.2720 C   0  0  0  0  0  0  0  0  0  0  0  0
   23.0580  -30.8440  -50.4060 C   0  0  0  0  0  0  0  0  0  0  0  0
   23.4530  -29.9240  -51.1140 O   0  0  0  0  0  0  0  0  0  0  0  0
   21.8820  -30.8280  -49.7730 N   0  0  0  0  0  0  0  0  0  0  0  0
   21.0490  -29.6160  -49.7580 C   0  0  2  0  0  0  0  0  0  0  0  0
   21.7510  -28.5540  -48.9160 C   0  0  0  0  0  0  0  0  0  0  0  0
   22.5100  -28.8900  -48.0140 O   0  0  0  0  0  0  0  0  0  0  0  0
   19.6490  -29.9190  -49.1980 C   0  0  0  0  0  0  0  0  0  0  0  0
   18.7700  -30.7420  -50.1580 C   0  0  0  0  0  0  0  0  0  0  0  0
   17.5590  -31.2750  -49.4860 C   0  0  0  0  0  0  0  0  0  0  0  0
   18.3510  -29.9630  -51.3750 C   0  0  0  0  0  0  0  0  0  0  0  0
   21.5270  -27.2660  -49.2360 N   0  0  0  0  0  0  0  0  0  0  0  0
   22.0950  -26.2130  -48.4060 C   0  0  2  0  0  0  0  0  0  0  0  0
   21.6940  -26.3960  -46.9340 C   0  0  0  0  0  0  0  0  0  0  0  0
   20.5740  -26.8660  -46.6290 O   0  0  0  0  0  0  0  0  0  0  0  0
   21.4650  -24.9470  -48.9680 C   0  0  0  0  0  0  0  0  0  0  0  0
   21.1560  -25.2750  -50.4350 C   0  0  0  0  0  0  0  0  0  0  0  0
   20.7720  -26.7360  -50.3900 C   0  0  0  0  0  0  0  0  0  0  0  0
   22.5850  -26.0270  -46.0160 N   0  0  0  0  0  0  0  0  0  0  0  0
   22.2940  -26.1390  -44.5670 C   0  0  2  0  0  0  0  0  0  0  0  0
   20.9430  -25.5150  -44.1880 C   0  0  0  0  0  0  0  0  0  0  0  0
   20.1630  -26.0870  -43.4060 O   0  0  0  0  0  0  0  0  0  0  0  0
   23.4170  -25.4760  -43.7610 C   0  0  0  0  0  0  0  0  0  0  0  0
   23.1560  -25.3460  -42.2500 C   0  0  0  0  0  0  0  0  0  0  0  0
   23.1160  -26.6830  -41.5150 C   0  0  0  0  0  0  0  0  0  0  0  0
   22.6540  -26.7230  -40.3410 O   0  0  0  0  0  0  0  0  0  0  0  0
   23.5560  -27.6980  -42.1020 O   0  0  0  0  0  0  0  0  0  0  0  0
   20.6650  -24.3420  -44.7420 N   0  0  0  0  0  0  0  0  0  0  0  0
   19.4140  -23.6380  -44.4320 C   0  0  0  0  0  0  0  0  0  0  0  0
   18.1830  -24.3820  -44.9050 C   0  0  0  0  0  0  0  0  0  0  0  0
   17.1300  -24.3600  -44.2710 O   0  0  0  0  0  0  0  0  0  0  0  0
   18.3040  -25.0400  -46.0570 N   0  0  0  0  0  0  0  0  0  0  0  0
   17.2000  -25.8310  -46.5730 C   0  0  0  0  0  0  0  0  0  0  0  0
   24.8251  -31.9643  -50.8278 H   0  0  0  0  0  0  0  0  0  0  0  0
   23.3852  -32.9386  -50.6534 H   0  0  0  0  0  0  0  0  0  0  0  0
   24.1548  -32.2565  -49.2408 H   0  0  0  0  0  0  0  0  0  0  0  0
   21.5685  -31.6384  -49.3102 H   0  0  0  0  0  0  0  0  0  0  0  0
   20.9209  -29.2569  -50.7578 H   0  0  0  0  0  0  0  0  0  0  0  0
   19.7601  -30.4673  -48.2859 H   0  0  0  0  0  0  0  0  0  0  0  0
   19.1589  -28.9796  -49.0487 H   0  0  0  0  0  0  0  0  0  0  0  0
   19.3866  -31.5579  -50.4727 H   0  0  0  0  0  0  0  0  0  0  0  0
   16.9396  -30.4619  -49.1697 H   0  0  0  0  0  0  0  0  0  0  0  0
   17.8494  -31.8543  -48.6346 H   0  0  0  0  0  0  0  0  0  0  0  0
   17.0149  -31.8931  -50.1692 H   0  0  0  0  0  0  0  0  0  0  0  0
   17.7327  -29.1420  -51.0775 H   0  0  0  0  0  0  0  0  0  0  0  0
   17.8026  -30.6014  -52.0358 H   0  0  0  0  0  0  0  0  0  0  0  0
   19.2197  -29.5916  -51.8773 H   0  0  0  0  0  0  0  0  0  0  0  0
   23.1648  -26.2027  -48.4247 H   0  0  0  0  0  0  0  0  0  0  0  0
   20.5664  -24.7072  -48.4389 H   0  0  0  0  0  0  0  0  0  0  0  0
   22.1117  -24.0998  -48.8730 H   0  0  0  0  0  0  0  0  0  0  0  0
   20.3471  -24.6769  -50.7995 H   0  0  0  0  0  0  0  0  0  0  0  0
   21.9782  -25.0777  -51.0908 H   0  0  0  0  0  0  0  0  0  0  0  0
   21.0586  -27.2330  -51.2932 H   0  0  0  0  0  0  0  0  0  0  0  0
   19.7163  -26.8826  -50.2952 H   0  0  0  0  0  0  0  0  0  0  0  0
   23.4562  -25.6720  -46.3061 H   0  0  0  0  0  0  0  0  0  0  0  0
   22.2380  -27.1816  -44.3332 H   0  0  0  0  0  0  0  0  0  0  0  0
   23.5706  -24.4932  -44.1553 H   0  0  0  0  0  0  0  0  0  0  0  0
   24.2685  -26.1164  -43.8594 H   0  0  0  0  0  0  0  0  0  0  0  0
   22.2149  -24.8563  -42.1110 H   0  0  0  0  0  0  0  0  0  0  0  0
   23.9719  -24.7887  -41.8394 H   0  0  0  0  0  0  0  0  0  0  0  0
   21.3065  -23.9377  -45.3699 H   0  0  0  0  0  0  0  0  0  0  0  0
   19.3486  -23.5101  -43.3717 H   0  0  0  0  0  0  0  0  0  0  0  0
   19.4386  -22.7004  -44.9469 H   0  0  0  0  0  0  0  0  0  0  0  0
   19.1475  -24.9899  -46.5622 H   0  0  0  0  0  0  0  0  0  0  0  0
   16.3717  -25.7702  -45.8983 H   0  0  0  0  0  0  0  0  0  0  0  0
   17.5070  -26.8514  -46.6698 H   0  0  0  0  0  0  0  0  0  0  0  0
   16.9082  -25.4539  -47.5309 H   0  0  0  0  0  0  0  0  0  0  0  0
  1 34  1  0  0  0  0
  1 35  1  0  0  0  0
  1 36  1  0  0  0  0
  2  1  1  0  0  0  0
  2  4  1  0  0  0  0
  3  2  2  0  0  0  0
  4  5  1  0  0  0  0
  4 37  1  0  0  0  0
  5  8  1  0  0  0  0
  5  6  1  0  0  0  0
  5 38  1  6  0  0  0
  6  7  2  0  0  0  0
  8 39  1  0  0  0  0
  8 40  1  0  0  0  0
  9 10  1  0  0  0  0
  9  8  1  0  0  0  0
  9 41  1  0  0  0  0
 10 42  1  0  0  0  0
 10 43  1  0  0  0  0
 10 44  1  0  0  0  0
 11  9  1  0  0  0  0
 11 45  1  0  0  0  0
 11 46  1  0  0  0  0
 11 47  1  0  0  0  0
 12  6  1  0  0  0  0
 12 13  1  0  0  0  0
 13 14  1  0  0  0  0
 13 48  1  6  0  0  0
 14 15  2  0  0  0  0
 14 19  1  0  0  0  0
 16 13  1  0  0  0  0
 16 49  1  0  0  0  0
 16 50  1  0  0  0  0
 17 18  1  0  0  0  0
 17 16  1  0  0  0  0
 17 51  1  0  0  0  0
 17 52  1  0  0  0  0
 18 12  1  0  0  0  0
 18 53  1  0  0  0  0
 18 54  1  0  0  0  0
 19 20  1  0  0  0  0
 19 55  1  0  0  0  0
 20 21  1  0  0  0  0
 20 23  1  0  0  0  0
 20 56  1  1  0  0  0
 21 22  2  0  0  0  0
 23 24  1  0  0  0  0
 23 57  1  0  0  0  0
 23 58  1  0  0  0  0
 24 25  1  0  0  0  0
 24 59  1  0  0  0  0
 24 60  1  0  0  0  0
 25 26  1  0  0  0  0
 27 25  2  0  0  0  0
 28 29  1  0  0  0  0
 28 21  1  0  0  0  0
 28 61  1  0  0  0  0
 29 62  1  0  0  0  0
 29 63  1  0  0  0  0
 30 29  1  0  0  0  0
 30 31  2  0  0  0  0
 32 30  1  0  0  0  0
 32 64  1  0  0  0  0
 33 32  1  0  0  0  0
 33 65  1  0  0  0  0
 33 66  1  0  0  0  0
 33 67  1  0  0  0  0
M  CHG  1  26  -1
M  END
>  <MODEL>
       0

$$$$
selected_4mers/LPEG/537_noH.pdb
 OpenBabel03042518233D

 67 67  0  0  1  0  0  0  0  0999 V2000
    7.3660  -52.1530  -16.4970 C   0  0  0  0  0  0  0  0  0  0  0  0
    5.9930  -51.6290  -16.9050 C   0  0  0  0  0  0  0  0  0  0  0  0
    4.9610  -52.0810  -16.3900 O   0  0  0  0  0  0  0  0  0  0  0  0
    5.9790  -50.6480  -17.7990 N   0  0  0  0  0  0  0  0  0  0  0  0
    4.7360  -50.0110  -18.2100 C   0  0  2  0  0  0  0  0  0  0  0  0
    4.2670  -50.5300  -19.5660 C   0  0  0  0  0  0  0  0  0  0  0  0
    5.0740  -50.6740  -20.4820 O   0  0  0  0  0  0  0  0  0  0  0  0
    4.9250  -48.4900  -18.3260 C   0  0  0  0  0  0  0  0  0  0  0  0
    5.4560  -47.6950  -17.1280 C   0  0  0  0  0  0  0  0  0  0  0  0
    5.8090  -46.2520  -17.5520 C   0  0  0  0  0  0  0  0  0  0  0  0
    4.4730  -47.7060  -15.9550 C   0  0  0  0  0  0  0  0  0  0  0  0
    2.9520  -50.7760  -19.7080 N   0  0  0  0  0  0  0  0  0  0  0  0
    2.3850  -51.1110  -21.0080 C   0  0  2  0  0  0  0  0  0  0  0  0
    2.2490  -49.8360  -21.8460 C   0  0  0  0  0  0  0  0  0  0  0  0
    2.3250  -48.7150  -21.3240 O   0  0  0  0  0  0  0  0  0  0  0  0
    0.9960  -51.6370  -20.6450 C   0  0  0  0  0  0  0  0  0  0  0  0
    0.6330  -50.8410  -19.4310 C   0  0  0  0  0  0  0  0  0  0  0  0
    1.9160  -50.7190  -18.6570 C   0  0  0  0  0  0  0  0  0  0  0  0
    2.0770  -50.0120  -23.1480 N   0  0  0  0  0  0  0  0  0  0  0  0
    1.8290  -48.9270  -24.0750 C   0  0  2  0  0  0  0  0  0  0  0  0
    0.4710  -48.2870  -23.7770 C   0  0  0  0  0  0  0  0  0  0  0  0
   -0.4930  -48.9940  -23.4870 O   0  0  0  0  0  0  0  0  0  0  0  0
    1.8650  -49.4780  -25.5060 C   0  0  0  0  0  0  0  0  0  0  0  0
    1.6900  -48.4190  -26.5970 C   0  0  0  0  0  0  0  0  0  0  0  0
    2.2750  -48.8240  -27.9490 C   0  0  0  0  0  0  0  0  0  0  0  0
    2.6350  -50.0050  -28.1250 O   0  0  0  0  0  0  0  0  0  0  0  0
    2.3640  -47.9520  -28.8320 O   0  0  0  0  0  0  0  0  0  0  0  0
    0.3850  -46.9630  -23.8400 N   0  0  0  0  0  0  0  0  0  0  0  0
   -0.9030  -46.2990  -23.6640 C   0  0  0  0  0  0  0  0  0  0  0  0
   -0.7460  -44.7820  -23.6430 C   0  0  0  0  0  0  0  0  0  0  0  0
    0.3060  -44.2400  -23.9800 O   0  0  0  0  0  0  0  0  0  0  0  0
   -1.8170  -44.1060  -23.2200 N   0  0  0  0  0  0  0  0  0  0  0  0
   -1.8540  -42.6330  -23.1720 C   0  0  0  0  0  0  0  0  0  0  0  0
    8.1231  -51.6393  -17.0518 H   0  0  0  0  0  0  0  0  0  0  0  0
    7.4230  -53.2016  -16.7023 H   0  0  0  0  0  0  0  0  0  0  0  0
    7.5151  -51.9858  -15.4507 H   0  0  0  0  0  0  0  0  0  0  0  0
    6.8285  -50.3442  -18.1931 H   0  0  0  0  0  0  0  0  0  0  0  0
    4.0042  -50.2426  -17.4645 H   0  0  0  0  0  0  0  0  0  0  0  0
    3.9693  -48.0770  -18.5729 H   0  0  0  0  0  0  0  0  0  0  0  0
    5.7032  -48.3914  -19.0538 H   0  0  0  0  0  0  0  0  0  0  0  0
    6.3497  -48.1748  -16.7875 H   0  0  0  0  0  0  0  0  0  0  0  0
    4.9260  -45.7553  -17.8962 H   0  0  0  0  0  0  0  0  0  0  0  0
    6.5331  -46.2786  -18.3393 H   0  0  0  0  0  0  0  0  0  0  0  0
    6.2124  -45.7227  -16.7142 H   0  0  0  0  0  0  0  0  0  0  0  0
    3.5595  -47.2338  -16.2507 H   0  0  0  0  0  0  0  0  0  0  0  0
    4.8977  -47.1752  -15.1287 H   0  0  0  0  0  0  0  0  0  0  0  0
    4.2745  -48.7168  -15.6655 H   0  0  0  0  0  0  0  0  0  0  0  0
    2.9730  -51.8054  -21.5711 H   0  0  0  0  0  0  0  0  0  0  0  0
    1.0285  -52.6830  -20.4219 H   0  0  0  0  0  0  0  0  0  0  0  0
    0.2880  -51.5337  -21.4406 H   0  0  0  0  0  0  0  0  0  0  0  0
   -0.1092  -51.3512  -18.8533 H   0  0  0  0  0  0  0  0  0  0  0  0
    0.2190  -49.8867  -19.6815 H   0  0  0  0  0  0  0  0  0  0  0  0
    1.9576  -49.7902  -18.1274 H   0  0  0  0  0  0  0  0  0  0  0  0
    2.0309  -51.4797  -17.9133 H   0  0  0  0  0  0  0  0  0  0  0  0
    2.1200  -50.9288  -23.5042 H   0  0  0  0  0  0  0  0  0  0  0  0
    2.5831  -48.1755  -23.9680 H   0  0  0  0  0  0  0  0  0  0  0  0
    2.8089  -49.9593  -25.6554 H   0  0  0  0  0  0  0  0  0  0  0  0
    1.0356  -50.1481  -25.5957 H   0  0  0  0  0  0  0  0  0  0  0  0
    0.6436  -48.2349  -26.7237 H   0  0  0  0  0  0  0  0  0  0  0  0
    2.2229  -47.5488  -26.2750 H   0  0  0  0  0  0  0  0  0  0  0  0
    1.1938  -46.4269  -24.0062 H   0  0  0  0  0  0  0  0  0  0  0  0
   -1.3358  -46.6175  -22.7387 H   0  0  0  0  0  0  0  0  0  0  0  0
   -1.5339  -46.5619  -24.4873 H   0  0  0  0  0  0  0  0  0  0  0  0
   -2.6113  -44.6099  -22.9294 H   0  0  0  0  0  0  0  0  0  0  0  0
   -0.9204  -42.2413  -23.5181 H   0  0  0  0  0  0  0  0  0  0  0  0
   -2.0237  -42.3131  -22.1651 H   0  0  0  0  0  0  0  0  0  0  0  0
   -2.6448  -42.2755  -23.7979 H   0  0  0  0  0  0  0  0  0  0  0  0
  1 34  1  0  0  0  0
  1 35  1  0  0  0  0
  1 36  1  0  0  0  0
  2  1  1  0  0  0  0
  2  3  2  0  0  0  0
  4  2  1  0  0  0  0
  4 37  1  0  0  0  0
  5  4  1  0  0  0  0
  5 38  1  1  0  0  0
  6  5  1  0  0  0  0
  7  6  2  0  0  0  0
  8  5  1  0  0  0  0
  8  9  1  0  0  0  0
  8 39  1  0  0  0  0
  8 40  1  0  0  0  0
  9 11  1  0  0  0  0
  9 41  1  0  0  0  0
 10  9  1  0  0  0  0
 10 42  1  0  0  0  0
 10 43  1  0  0  0  0
 10 44  1  0  0  0  0
 11 45  1  0  0  0  0
 11 46  1  0  0  0  0
 11 47  1  0  0  0  0
 12  6  1  0  0  0  0
 12 18  1  0  0  0  0
 13 16  1  0  0  0  0
 13 12  1  0  0  0  0
 13 48  1  6  0  0  0
 14 15  2  0  0  0  0
 14 13  1  0  0  0  0
 16 17  1  0  0  0  0
 16 49  1  0  0  0  0
 16 50  1  0  0  0  0
 17 18  1  0  0  0  0
 17 51  1  0  0  0  0
 17 52  1  0  0  0  0
 18 53  1  0  0  0  0
 18 54  1  0  0  0  0
 19 14  1  0  0  0  0
 19 55  1  0  0  0  0
 20 21  1  0  0  0  0
 20 19  1  0  0  0  0
 20 56  1  1  0  0  0
 21 22  2  0  0  0  0
 23 20  1  0  0  0  0
 23 57  1  0  0  0  0
 23 58  1  0  0  0  0
 24 23  1  0  0  0  0
 24 59  1  0  0  0  0
 24 60  1  0  0  0  0
 25 24  1  0  0  0  0
 26 25  1  0  0  0  0
 27 25  2  0  0  0  0
 28 21  1  0  0  0  0
 28 29  1  0  0  0  0
 28 61  1  0  0  0  0
 29 30  1  0  0  0  0
 29 62  1  0  0  0  0
 29 63  1  0  0  0  0
 30 32  1  0  0  0  0
 31 30  2  0  0  0  0
 32 33  1  0  0  0  0
 32 64  1  0  0  0  0
 33 65  1  0  0  0  0
 33 66  1  0  0  0  0
 33 67  1  0  0  0  0
M  CHG  1  26  -1
M  END
>  <MODEL>
       0

$$$$
selected_4mers/LPEG/538_noH.pdb
 OpenBabel03042518233D

 67 67  0  0  1  0  0  0  0  0999 V2000
   -7.8730   50.3930   25.4200 C   0  0  0  0  0  0  0  0  0  0  0  0
   -8.6990   49.8240   26.5520 C   0  0  0  0  0  0  0  0  0  0  0  0
   -8.1410   49.2650   27.4970 O   0  0  0  0  0  0  0  0  0  0  0  0
  -10.0170   49.9820   26.4280 N   0  0  0  0  0  0  0  0  0  0  0  0
  -10.9680   49.5220   27.4360 C   0  0  2  0  0  0  0  0  0  0  0  0
  -12.1210   48.8390   26.6830 C   0  0  0  0  0  0  0  0  0  0  0  0
  -12.1970   48.9290   25.4540 O   0  0  0  0  0  0  0  0  0  0  0  0
  -11.4760   50.7280   28.2290 C   0  0  0  0  0  0  0  0  0  0  0  0
  -10.4940   51.3680   29.2350 C   0  0  0  0  0  0  0  0  0  0  0  0
  -11.1080   52.5640   29.8850 C   0  0  0  0  0  0  0  0  0  0  0  0
  -10.1170   50.3230   30.3140 C   0  0  0  0  0  0  0  0  0  0  0  0
  -13.0110   48.1470   27.4120 N   0  0  0  0  0  0  0  0  0  0  0  0
  -14.1710   47.5260   26.7800 C   0  0  2  0  0  0  0  0  0  0  0  0
  -15.0090   48.5580   26.0000 C   0  0  0  0  0  0  0  0  0  0  0  0
  -14.8840   49.7780   26.2390 O   0  0  0  0  0  0  0  0  0  0  0  0
  -14.9690   46.9920   27.9630 C   0  0  0  0  0  0  0  0  0  0  0  0
  -13.9120   46.7010   29.0000 C   0  0  0  0  0  0  0  0  0  0  0  0
  -12.9510   47.8490   28.8580 C   0  0  0  0  0  0  0  0  0  0  0  0
  -15.8370   48.0570   25.0710 N   0  0  0  0  0  0  0  0  0  0  0  0
  -16.8400   48.8630   24.3720 C   0  0  2  0  0  0  0  0  0  0  0  0
  -16.2080   49.9860   23.5280 C   0  0  0  0  0  0  0  0  0  0  0  0
  -16.8300   51.0290   23.3200 O   0  0  0  0  0  0  0  0  0  0  0  0
  -17.8690   49.4120   25.3720 C   0  0  0  0  0  0  0  0  0  0  0  0
  -18.4240   48.3550   26.3770 C   0  0  0  0  0  0  0  0  0  0  0  0
  -18.8340   48.9600   27.7380 C   0  0  0  0  0  0  0  0  0  0  0  0
  -18.3520   50.0650   28.1140 O   0  0  0  0  0  0  0  0  0  0  0  0
  -19.6590   48.3240   28.4360 O   0  0  0  0  0  0  0  0  0  0  0  0
  -14.9770   49.7630   23.0610 N   0  0  0  0  0  0  0  0  0  0  0  0
  -14.2700   50.6970   22.1690 C   0  0  0  0  0  0  0  0  0  0  0  0
  -13.6950   51.9320   22.8590 C   0  0  0  0  0  0  0  0  0  0  0  0
  -13.2060   52.8600   22.1840 O   0  0  0  0  0  0  0  0  0  0  0  0
  -13.7290   51.9570   24.2000 N   0  0  0  0  0  0  0  0  0  0  0  0
  -13.3060   53.1190   24.9690 C   0  0  0  0  0  0  0  0  0  0  0  0
   -8.5212   50.8373   24.6938 H   0  0  0  0  0  0  0  0  0  0  0  0
   -7.3081   49.6085   24.9613 H   0  0  0  0  0  0  0  0  0  0  0  0
   -7.2053   51.1357   25.8040 H   0  0  0  0  0  0  0  0  0  0  0  0
  -10.3641   50.4281   25.6219 H   0  0  0  0  0  0  0  0  0  0  0  0
  -10.5199   48.8366   28.1246 H   0  0  0  0  0  0  0  0  0  0  0  0
  -12.3402   50.4140   28.7763 H   0  0  0  0  0  0  0  0  0  0  0  0
  -11.6579   51.4864   27.4965 H   0  0  0  0  0  0  0  0  0  0  0  0
   -9.6164   51.6828   28.7099 H   0  0  0  0  0  0  0  0  0  0  0  0
  -11.9887   52.2686   30.4160 H   0  0  0  0  0  0  0  0  0  0  0  0
  -11.3673   53.2831   29.1363 H   0  0  0  0  0  0  0  0  0  0  0  0
  -10.4079   52.9973   30.5684 H   0  0  0  0  0  0  0  0  0  0  0  0
  -10.9992   50.0134   30.8343 H   0  0  0  0  0  0  0  0  0  0  0  0
   -9.4284   50.7588   31.0074 H   0  0  0  0  0  0  0  0  0  0  0  0
   -9.6629   49.4748   29.8458 H   0  0  0  0  0  0  0  0  0  0  0  0
  -13.8957   46.7744   26.0699 H   0  0  0  0  0  0  0  0  0  0  0  0
  -15.4982   46.1011   27.6962 H   0  0  0  0  0  0  0  0  0  0  0  0
  -15.7125   47.6798   28.3081 H   0  0  0  0  0  0  0  0  0  0  0  0
  -13.4261   45.7691   28.7991 H   0  0  0  0  0  0  0  0  0  0  0  0
  -14.3124   46.6141   29.9884 H   0  0  0  0  0  0  0  0  0  0  0  0
  -13.2668   48.6904   29.4386 H   0  0  0  0  0  0  0  0  0  0  0  0
  -11.9643   47.6215   29.2037 H   0  0  0  0  0  0  0  0  0  0  0  0
  -15.7669   47.1006   24.8483 H   0  0  0  0  0  0  0  0  0  0  0  0
  -17.3474   48.2239   23.6799 H   0  0  0  0  0  0  0  0  0  0  0  0
  -18.6929   49.8112   24.8182 H   0  0  0  0  0  0  0  0  0  0  0  0
  -17.3606   50.1498   25.9569 H   0  0  0  0  0  0  0  0  0  0  0  0
  -17.6668   47.6184   26.5474 H   0  0  0  0  0  0  0  0  0  0  0  0
  -19.3053   47.9347   25.9394 H   0  0  0  0  0  0  0  0  0  0  0  0
  -14.5194   48.9327   23.3264 H   0  0  0  0  0  0  0  0  0  0  0  0
  -13.4629   50.1685   21.7062 H   0  0  0  0  0  0  0  0  0  0  0  0
  -14.9973   51.0542   21.4702 H   0  0  0  0  0  0  0  0  0  0  0  0
  -14.0515   51.1611   24.6814 H   0  0  0  0  0  0  0  0  0  0  0  0
  -12.9864   53.8916   24.3012 H   0  0  0  0  0  0  0  0  0  0  0  0
  -12.4956   52.8455   25.6119 H   0  0  0  0  0  0  0  0  0  0  0  0
  -14.1252   53.4738   25.5589 H   0  0  0  0  0  0  0  0  0  0  0  0
  1  2  1  0  0  0  0
  1 34  1  0  0  0  0
  1 35  1  0  0  0  0
  1 36  1  0  0  0  0
  2  3  2  0  0  0  0
  4  2  1  0  0  0  0
  4  5  1  0  0  0  0
  4 37  1  0  0  0  0
  5  8  1  0  0  0  0
  5 38  1  1  0  0  0
  6 12  1  0  0  0  0
  6  5  1  0  0  0  0
  7  6  2  0  0  0  0
  8  9  1  0  0  0  0
  8 39  1  0  0  0  0
  8 40  1  0  0  0  0
  9 10  1  0  0  0  0
  9 11  1  0  0  0  0
  9 41  1  0  0  0  0
 10 42  1  0  0  0  0
 10 43  1  0  0  0  0
 10 44  1  0  0  0  0
 11 45  1  0  0  0  0
 11 46  1  0  0  0  0
 11 47  1  0  0  0  0
 12 18  1  0  0  0  0
 13 12  1  0  0  0  0
 13 16  1  0  0  0  0
 13 48  1  6  0  0  0
 14 15  2  0  0  0  0
 14 13  1  0  0  0  0
 16 17  1  0  0  0  0
 16 49  1  0  0  0  0
 16 50  1  0  0  0  0
 17 51  1  0  0  0  0
 17 52  1  0  0  0  0
 18 17  1  0  0  0  0
 18 53  1  0  0  0  0
 18 54  1  0  0  0  0
 19 14  1  0  0  0  0
 19 55  1  0  0  0  0
 20 19  1  0  0  0  0
 20 23  1  0  0  0  0
 20 56  1  6  0  0  0
 21 20  1  0  0  0  0
 22 21  2  0  0  0  0
 23 24  1  0  0  0  0
 23 57  1  0  0  0  0
 23 58  1  0  0  0  0
 24 25  1  0  0  0  0
 24 59  1  0  0  0  0
 24 60  1  0  0  0  0
 25 26  2  0  0  0  0
 25 27  1  0  0  0  0
 28 21  1  0  0  0  0
 28 61  1  0  0  0  0
 29 30  1  0  0  0  0
 29 28  1  0  0  0  0
 29 62  1  0  0  0  0
 29 63  1  0  0  0  0
 30 32  1  0  0  0  0
 31 30  2  0  0  0  0
 32 33  1  0  0  0  0
 32 64  1  0  0  0  0
 33 65  1  0  0  0  0
 33 66  1  0  0  0  0
 33 67  1  0  0  0  0
M  CHG  1  27  -1
M  END
>  <MODEL>
       0

$$$$
selected_4mers/LPEG/539_noH.pdb
 OpenBabel03042518233D

 67 67  0  0  1  0  0  0  0  0999 V2000
    0.1830   59.3030   31.3110 C   0  0  0  0  0  0  0  0  0  0  0  0
   -0.5690   58.0940   30.8750 C   0  0  0  0  0  0  0  0  0  0  0  0
   -0.1620   56.9420   31.1600 O   0  0  0  0  0  0  0  0  0  0  0  0
   -1.6990   58.2860   30.2430 N   0  0  0  0  0  0  0  0  0  0  0  0
   -2.6610   57.2540   30.0060 C   0  0  2  0  0  0  0  0  0  0  0  0
   -2.3590   56.2980   28.9060 C   0  0  0  0  0  0  0  0  0  0  0  0
   -1.8840   56.7230   27.8490 O   0  0  0  0  0  0  0  0  0  0  0  0
   -4.0700   57.8580   29.8430 C   0  0  0  0  0  0  0  0  0  0  0  0
   -4.5930   58.5730   31.0940 C   0  0  0  0  0  0  0  0  0  0  0  0
   -5.8220   59.4050   30.6460 C   0  0  0  0  0  0  0  0  0  0  0  0
   -4.9650   57.5920   32.1570 C   0  0  0  0  0  0  0  0  0  0  0  0
   -2.6090   55.0030   29.1100 N   0  0  0  0  0  0  0  0  0  0  0  0
   -2.4200   53.9720   28.0820 C   0  0  2  0  0  0  0  0  0  0  0  0
   -3.6200   53.9170   27.1270 C   0  0  0  0  0  0  0  0  0  0  0  0
   -4.6440   54.5960   27.3680 O   0  0  0  0  0  0  0  0  0  0  0  0
   -2.3320   52.7000   28.9310 C   0  0  0  0  0  0  0  0  0  0  0  0
   -3.3220   52.9720   30.0240 C   0  0  0  0  0  0  0  0  0  0  0  0
   -3.1740   54.4170   30.3610 C   0  0  0  0  0  0  0  0  0  0  0  0
   -3.5260   53.1100   26.1290 N   0  0  0  0  0  0  0  0  0  0  0  0
   -4.6480   52.6920   25.2780 C   0  0  2  0  0  0  0  0  0  0  0  0
   -5.2110   53.8820   24.4720 C   0  0  0  0  0  0  0  0  0  0  0  0
   -6.4340   53.9410   24.2420 O   0  0  0  0  0  0  0  0  0  0  0  0
   -5.7490   52.0010   26.0790 C   0  0  0  0  0  0  0  0  0  0  0  0
   -5.3070   50.6980   26.7740 C   0  0  0  0  0  0  0  0  0  0  0  0
   -5.2000   49.5330   25.8150 C   0  0  0  0  0  0  0  0  0  0  0  0
   -6.0540   49.3900   24.9300 O   0  0  0  0  0  0  0  0  0  0  0  0
   -4.2290   48.7370   25.8910 O   0  0  0  0  0  0  0  0  0  0  0  0
   -4.3550   54.8250   24.1080 N   0  0  0  0  0  0  0  0  0  0  0  0
   -4.7770   55.9490   23.2430 C   0  0  0  0  0  0  0  0  0  0  0  0
   -5.2250   57.1290   24.0590 C   0  0  0  0  0  0  0  0  0  0  0  0
   -4.7890   57.3810   25.2130 O   0  0  0  0  0  0  0  0  0  0  0  0
   -6.1060   57.9400   23.4400 N   0  0  0  0  0  0  0  0  0  0  0  0
   -6.4800   59.2080   24.0500 C   0  0  0  0  0  0  0  0  0  0  0  0
   -0.3250   60.1810   30.9705 H   0  0  0  0  0  0  0  0  0  0  0  0
    1.1692   59.2782   30.8967 H   0  0  0  0  0  0  0  0  0  0  0  0
    0.2451   59.3185   32.3791 H   0  0  0  0  0  0  0  0  0  0  0  0
   -1.8981   59.1916   29.9121 H   0  0  0  0  0  0  0  0  0  0  0  0
   -2.6111   56.6450   30.8844 H   0  0  0  0  0  0  0  0  0  0  0  0
   -4.7485   57.0672   29.5996 H   0  0  0  0  0  0  0  0  0  0  0  0
   -4.0019   58.5962   29.0715 H   0  0  0  0  0  0  0  0  0  0  0  0
   -3.8394   59.2039   31.5171 H   0  0  0  0  0  0  0  0  0  0  0  0
   -6.5603   58.7535   30.2272 H   0  0  0  0  0  0  0  0  0  0  0  0
   -5.5193   60.1207   29.9104 H   0  0  0  0  0  0  0  0  0  0  0  0
   -6.2347   59.9151   31.4912 H   0  0  0  0  0  0  0  0  0  0  0  0
   -5.7206   56.9321   31.7847 H   0  0  0  0  0  0  0  0  0  0  0  0
   -5.3390   58.1165   33.0113 H   0  0  0  0  0  0  0  0  0  0  0  0
   -4.1020   57.0245   32.4365 H   0  0  0  0  0  0  0  0  0  0  0  0
   -1.5703   54.1353   27.4525 H   0  0  0  0  0  0  0  0  0  0  0  0
   -1.3467   52.5659   29.3260 H   0  0  0  0  0  0  0  0  0  0  0  0
   -2.5372   51.8049   28.3819 H   0  0  0  0  0  0  0  0  0  0  0  0
   -3.1070   52.3666   30.8797 H   0  0  0  0  0  0  0  0  0  0  0  0
   -4.3203   52.7414   29.7155 H   0  0  0  0  0  0  0  0  0  0  0  0
   -4.1215   54.8551   30.5960 H   0  0  0  0  0  0  0  0  0  0  0  0
   -2.5580   54.5867   31.2193 H   0  0  0  0  0  0  0  0  0  0  0  0
   -2.6356   52.7455   25.9203 H   0  0  0  0  0  0  0  0  0  0  0  0
   -4.2641   51.9733   24.5845 H   0  0  0  0  0  0  0  0  0  0  0  0
   -6.5528   51.7688   25.4121 H   0  0  0  0  0  0  0  0  0  0  0  0
   -6.0347   52.6799   26.8551 H   0  0  0  0  0  0  0  0  0  0  0  0
   -4.3505   50.8584   27.2260 H   0  0  0  0  0  0  0  0  0  0  0  0
   -6.0516   50.4508   27.5016 H   0  0  0  0  0  0  0  0  0  0  0  0
   -3.4219   54.7773   24.4183 H   0  0  0  0  0  0  0  0  0  0  0  0
   -3.9526   56.2437   22.6278 H   0  0  0  0  0  0  0  0  0  0  0  0
   -5.6001   55.6220   22.6426 H   0  0  0  0  0  0  0  0  0  0  0  0
   -6.4963   57.6750   22.5759 H   0  0  0  0  0  0  0  0  0  0  0  0
   -5.9600   59.3246   24.9778 H   0  0  0  0  0  0  0  0  0  0  0  0
   -7.5350   59.2206   24.2284 H   0  0  0  0  0  0  0  0  0  0  0  0
   -6.2199   60.0108   23.3921 H   0  0  0  0  0  0  0  0  0  0  0  0
  1 34  1  0  0  0  0
  1 35  1  0  0  0  0
  1 36  1  0  0  0  0
  2  3  2  0  0  0  0
  2  1  1  0  0  0  0
  4  2  1  0  0  0  0
  4 37  1  0  0  0  0
  5  4  1  0  0  0  0
  5 38  1  1  0  0  0
  6 12  1  0  0  0  0
  6  5  1  0  0  0  0
  7  6  2  0  0  0  0
  8  5  1  0  0  0  0
  8  9  1  0  0  0  0
  8 39  1  0  0  0  0
  8 40  1  0  0  0  0
  9 11  1  0  0  0  0
  9 41  1  0  0  0  0
 10  9  1  0  0  0  0
 10 42  1  0  0  0  0
 10 43  1  0  0  0  0
 10 44  1  0  0  0  0
 11 45  1  0  0  0  0
 11 46  1  0  0  0  0
 11 47  1  0  0  0  0
 12 18  1  0  0  0  0
 13 16  1  0  0  0  0
 13 12  1  0  0  0  0
 13 48  1  6  0  0  0
 14 15  2  0  0  0  0
 14 13  1  0  0  0  0
 16 17  1  0  0  0  0
 16 49  1  0  0  0  0
 16 50  1  0  0  0  0
 17 18  1  0  0  0  0
 17 51  1  0  0  0  0
 17 52  1  0  0  0  0
 18 53  1  0  0  0  0
 18 54  1  0  0  0  0
 19 14  1  0  0  0  0
 19 55  1  0  0  0  0
 20 23  1  0  0  0  0
 20 19  1  0  0  0  0
 20 56  1  6  0  0  0
 21 20  1  0  0  0  0
 22 21  2  0  0  0  0
 23 24  1  0  0  0  0
 23 57  1  0  0  0  0
 23 58  1  0  0  0  0
 24 59  1  0  0  0  0
 24 60  1  0  0  0  0
 25 27  1  0  0  0  0
 25 24  1  0  0  0  0
 26 25  2  0  0  0  0
 28 21  1  0  0  0  0
 28 61  1  0  0  0  0
 29 30  1  0  0  0  0
 29 28  1  0  0  0  0
 29 62  1  0  0  0  0
 29 63  1  0  0  0  0
 30 31  2  0  0  0  0
 32 33  1  0  0  0  0
 32 30  1  0  0  0  0
 32 64  1  0  0  0  0
 33 65  1  0  0  0  0
 33 66  1  0  0  0  0
 33 67  1  0  0  0  0
M  CHG  1  27  -1
M  END
>  <MODEL>
       0

$$$$
