selected_4mers/LPLL/520_noH.pdb
 OpenBabel03042518173D

 83 83  0  0  1  0  0  0  0  0999 V2000
   46.7130   13.1410   64.9500 C   0  0  0  0  0  0  0  0  0  0  0  0
   47.5290   14.0070   64.0480 C   0  0  0  0  0  0  0  0  0  0  0  0
   47.8080   15.2010   64.3850 O   0  0  0  0  0  0  0  0  0  0  0  0
   47.9410   13.4760   62.8810 N   0  0  0  0  0  0  0  0  0  0  0  0
   48.7300   14.2790   61.9090 C   0  0  2  0  0  0  0  0  0  0  0  0
   48.0430   14.4950   60.5500 C   0  0  0  0  0  0  0  0  0  0  0  0
   48.0980   13.6530   59.6450 O   0  0  0  0  0  0  0  0  0  0  0  0
   50.1310   13.6770   61.6570 C   0  0  0  0  0  0  0  0  0  0  0  0
   50.7940   13.0660   62.8790 C   0  0  0  0  0  0  0  0  0  0  0  0
   51.9640   12.1900   62.3470 C   0  0  0  0  0  0  0  0  0  0  0  0
   51.3650   14.1140   63.8240 C   0  0  0  0  0  0  0  0  0  0  0  0
   47.4060   15.6340   60.3740 N   0  0  0  0  0  0  0  0  0  0  0  0
   46.7640   15.9070   59.0890 C   0  0  2  0  0  0  0  0  0  0  0  0
   47.8520   16.3560   58.0820 C   0  0  0  0  0  0  0  0  0  0  0  0
   48.6440   17.2790   58.3550 O   0  0  0  0  0  0  0  0  0  0  0  0
   45.7600   17.0750   59.4120 C   0  0  0  0  0  0  0  0  0  0  0  0
   46.3830   17.7550   60.6810 C   0  0  0  0  0  0  0  0  0  0  0  0
   47.1550   16.6790   61.4060 C   0  0  0  0  0  0  0  0  0  0  0  0
   47.8910   15.7170   56.9040 N   0  0  0  0  0  0  0  0  0  0  0  0
   48.9200   16.0450   55.9450 C   0  0  2  0  0  0  0  0  0  0  0  0
   48.4670   17.1330   54.9930 C   0  0  0  0  0  0  0  0  0  0  0  0
   48.1870   16.8930   53.8050 O   0  0  0  0  0  0  0  0  0  0  0  0
   49.3100   14.7350   55.2470 C   0  0  0  0  0  0  0  0  0  0  0  0
   49.7920   13.6320   56.1470 C   0  0  0  0  0  0  0  0  0  0  0  0
   50.3180   12.5100   55.2310 C   0  0  0  0  0  0  0  0  0  0  0  0
   50.9530   14.1100   57.1000 C   0  0  0  0  0  0  0  0  0  0  0  0
   48.4250   18.3480   55.5740 N   0  0  0  0  0  0  0  0  0  0  0  0
   48.0160   19.5170   54.8480 C   0  0  2  0  0  0  0  0  0  0  0  0
   48.8550   19.7350   53.5780 C   0  0  0  0  0  0  0  0  0  0  0  0
   48.3720   20.2460   52.6120 O   0  0  0  0  0  0  0  0  0  0  0  0
   48.0210   20.7230   55.7410 C   0  0  0  0  0  0  0  0  0  0  0  0
   47.1810   20.5880   56.9920 C   0  0  0  0  0  0  0  0  0  0  0  0
   47.4160   21.8730   57.8450 C   0  0  0  0  0  0  0  0  0  0  0  0
   45.6790   20.3810   56.6910 C   0  0  0  0  0  0  0  0  0  0  0  0
   50.1290   19.3320   53.6130 N   0  0  0  0  0  0  0  0  0  0  0  0
   51.0210   19.5320   52.4590 C   0  0  0  0  0  0  0  0  0  0  0  0
   46.5838   12.1789   64.4999 H   0  0  0  0  0  0  0  0  0  0  0  0
   45.7558   13.5924   65.1078 H   0  0  0  0  0  0  0  0  0  0  0  0
   47.2146   13.0311   65.8887 H   0  0  0  0  0  0  0  0  0  0  0  0
   47.7164   12.5415   62.6679 H   0  0  0  0  0  0  0  0  0  0  0  0
   48.8155   15.2336   62.3847 H   0  0  0  0  0  0  0  0  0  0  0  0
   50.7659   14.4556   61.2888 H   0  0  0  0  0  0  0  0  0  0  0  0
   49.9929   12.8775   60.9594 H   0  0  0  0  0  0  0  0  0  0  0  0
   50.0665   12.5103   63.4329 H   0  0  0  0  0  0  0  0  0  0  0  0
   52.6520   12.8047   61.8051 H   0  0  0  0  0  0  0  0  0  0  0  0
   51.5760   11.4321   61.6990 H   0  0  0  0  0  0  0  0  0  0  0  0
   52.4689   11.7306   63.1710 H   0  0  0  0  0  0  0  0  0  0  0  0
   52.1006   14.6958   63.3089 H   0  0  0  0  0  0  0  0  0  0  0  0
   51.8178   13.6286   64.6632 H   0  0  0  0  0  0  0  0  0  0  0  0
   50.5780   14.7542   64.1641 H   0  0  0  0  0  0  0  0  0  0  0  0
   46.2630   15.0659   58.6572 H   0  0  0  0  0  0  0  0  0  0  0  0
   44.7836   16.6921   59.6240 H   0  0  0  0  0  0  0  0  0  0  0  0
   45.6350   17.7543   58.5948 H   0  0  0  0  0  0  0  0  0  0  0  0
   45.6094   18.1431   61.3102 H   0  0  0  0  0  0  0  0  0  0  0  0
   47.0182   18.5725   60.4104 H   0  0  0  0  0  0  0  0  0  0  0  0
   48.0783   17.0662   61.7835 H   0  0  0  0  0  0  0  0  0  0  0  0
   46.6201   16.2951   62.2495 H   0  0  0  0  0  0  0  0  0  0  0  0
   47.2210   15.0270   56.6935 H   0  0  0  0  0  0  0  0  0  0  0  0
   49.7835   16.4583   56.4230 H   0  0  0  0  0  0  0  0  0  0  0  0
   50.0913   14.9547   54.5497 H   0  0  0  0  0  0  0  0  0  0  0  0
   48.4123   14.3689   54.7942 H   0  0  0  0  0  0  0  0  0  0  0  0
   48.9879   13.3039   56.7721 H   0  0  0  0  0  0  0  0  0  0  0  0
   51.1178   12.8870   54.6284 H   0  0  0  0  0  0  0  0  0  0  0  0
   49.5267   12.1656   54.5985 H   0  0  0  0  0  0  0  0  0  0  0  0
   50.6748   11.6983   55.8300 H   0  0  0  0  0  0  0  0  0  0  0  0
   51.7807   14.4479   56.5121 H   0  0  0  0  0  0  0  0  0  0  0  0
   51.2645   13.2949   57.7192 H   0  0  0  0  0  0  0  0  0  0  0  0
   50.6019   14.9117   57.7156 H   0  0  0  0  0  0  0  0  0  0  0  0
   48.6813   18.4363   56.5204 H   0  0  0  0  0  0  0  0  0  0  0  0
   47.0109   19.3589   54.5167 H   0  0  0  0  0  0  0  0  0  0  0  0
   47.6506   21.5550   55.1793 H   0  0  0  0  0  0  0  0  0  0  0  0
   49.0315   20.8518   56.0685 H   0  0  0  0  0  0  0  0  0  0  0  0
   47.4803   19.7109   57.5267 H   0  0  0  0  0  0  0  0  0  0  0  0
   47.1087   22.7327   57.2870 H   0  0  0  0  0  0  0  0  0  0  0  0
   48.4553   21.9565   58.0852 H   0  0  0  0  0  0  0  0  0  0  0  0
   46.8452   21.8111   58.7479 H   0  0  0  0  0  0  0  0  0  0  0  0
   45.3035   21.2258   56.1523 H   0  0  0  0  0  0  0  0  0  0  0  0
   45.1420   20.2770   57.6106 H   0  0  0  0  0  0  0  0  0  0  0  0
   45.5519   19.4970   56.1017 H   0  0  0  0  0  0  0  0  0  0  0  0
   50.4764   18.8944   54.4236 H   0  0  0  0  0  0  0  0  0  0  0  0
   50.4828   20.0181   51.6722 H   0  0  0  0  0  0  0  0  0  0  0  0
   51.3768   18.5835   52.1146 H   0  0  0  0  0  0  0  0  0  0  0  0
   51.8517   20.1398   52.7514 H   0  0  0  0  0  0  0  0  0  0  0  0
  1 37  1  0  0  0  0
  1 38  1  0  0  0  0
  1 39  1  0  0  0  0
  2  3  2  0  0  0  0
  2  1  1  0  0  0  0
  4  2  1  0  0  0  0
  4 40  1  0  0  0  0
  5  4  1  0  0  0  0
  5 41  1  1  0  0  0
  6  5  1  0  0  0  0
  7  6  2  0  0  0  0
  8  5  1  0  0  0  0
  8  9  1  0  0  0  0
  8 42  1  0  0  0  0
  8 43  1  0  0  0  0
  9 11  1  0  0  0  0
  9 44  1  0  0  0  0
 10  9  1  0  0  0  0
 10 45  1  0  0  0  0
 10 46  1  0  0  0  0
 10 47  1  0  0  0  0
 11 48  1  0  0  0  0
 11 49  1  0  0  0  0
 11 50  1  0  0  0  0
 12  6  1  0  0  0  0
 12 18  1  0  0  0  0
 13 16  1  0  0  0  0
 13 12  1  0  0  0  0
 13 51  1  6  0  0  0
 14 15  2  0  0  0  0
 14 13  1  0  0  0  0
 16 17  1  0  0  0  0
 16 52  1  0  0  0  0
 16 53  1  0  0  0  0
 17 18  1  0  0  0  0
 17 54  1  0  0  0  0
 17 55  1  0  0  0  0
 18 56  1  0  0  0  0
 18 57  1  0  0  0  0
 19 14  1  0  0  0  0
 19 58  1  0  0  0  0
 20 19  1  0  0  0  0
 20 59  1  1  0  0  0
 21 27  1  0  0  0  0
 21 20  1  0  0  0  0
 22 21  2  0  0  0  0
 23 20  1  0  0  0  0
 23 24  1  0  0  0  0
 23 60  1  0  0  0  0
 23 61  1  0  0  0  0
 24 26  1  0  0  0  0
 24 62  1  0  0  0  0
 25 24  1  0  0  0  0
 25 63  1  0  0  0  0
 25 64  1  0  0  0  0
 25 65  1  0  0  0  0
 26 66  1  0  0  0  0
 26 67  1  0  0  0  0
 26 68  1  0  0  0  0
 27 69  1  0  0  0  0
 28 27  1  0  0  0  0
 28 31  1  0  0  0  0
 28 70  1  6  0  0  0
 29 35  1  0  0  0  0
 29 28  1  0  0  0  0
 30 29  2  0  0  0  0
 31 32  1  0  0  0  0
 31 71  1  0  0  0  0
 31 72  1  0  0  0  0
 32 33  1  0  0  0  0
 32 73  1  0  0  0  0
 33 74  1  0  0  0  0
 33 75  1  0  0  0  0
 33 76  1  0  0  0  0
 34 32  1  0  0  0  0
 34 77  1  0  0  0  0
 34 78  1  0  0  0  0
 34 79  1  0  0  0  0
 35 80  1  0  0  0  0
 36 35  1  0  0  0  0
 36 81  1  0  0  0  0
 36 82  1  0  0  0  0
 36 83  1  0  0  0  0
M  END
>  <MODEL>
       0

$$$$
selected_4mers/LPLL/521_noH.pdb
 OpenBabel03042518173D

 83 83  0  0  1  0  0  0  0  0999 V2000
   39.6130  -36.0070  -45.6700 C   0  0  0  0  0  0  0  0  0  0  0  0
   38.6200  -34.9950  -46.2850 C   0  0  0  0  0  0  0  0  0  0  0  0
   38.8710  -33.7870  -46.2640 O   0  0  0  0  0  0  0  0  0  0  0  0
   37.4860  -35.4860  -46.7960 N   0  0  0  0  0  0  0  0  0  0  0  0
   36.4300  -34.6160  -47.3410 C   0  0  2  0  0  0  0  0  0  0  0  0
   35.6450  -33.9410  -46.2150 C   0  0  0  0  0  0  0  0  0  0  0  0
   35.4960  -34.5270  -45.1440 O   0  0  0  0  0  0  0  0  0  0  0  0
   35.4430  -35.4270  -48.1930 C   0  0  0  0  0  0  0  0  0  0  0  0
   35.8280  -35.9260  -49.5910 C   0  0  0  0  0  0  0  0  0  0  0  0
   36.9220  -36.9540  -49.5090 C   0  0  0  0  0  0  0  0  0  0  0  0
   34.5880  -36.5600  -50.2410 C   0  0  0  0  0  0  0  0  0  0  0  0
   35.1290  -32.7160  -46.4500 N   0  0  0  0  0  0  0  0  0  0  0  0
   34.2410  -32.1260  -45.4380 C   0  0  2  0  0  0  0  0  0  0  0  0
   32.9950  -32.9810  -45.3090 C   0  0  0  0  0  0  0  0  0  0  0  0
   32.5370  -33.5760  -46.3070 O   0  0  0  0  0  0  0  0  0  0  0  0
   33.9140  -30.7320  -45.9830 C   0  0  0  0  0  0  0  0  0  0  0  0
   34.2920  -30.7610  -47.4130 C   0  0  0  0  0  0  0  0  0  0  0  0
   35.2580  -31.8730  -47.6490 C   0  0  0  0  0  0  0  0  0  0  0  0
   32.4990  -33.0890  -44.0790 N   0  0  0  0  0  0  0  0  0  0  0  0
   31.4110  -33.9770  -43.7610 C   0  0  2  0  0  0  0  0  0  0  0  0
   30.2470  -33.1630  -43.2220 C   0  0  0  0  0  0  0  0  0  0  0  0
   30.4290  -32.3100  -42.3460 O   0  0  0  0  0  0  0  0  0  0  0  0
   31.8710  -35.0040  -42.7160 C   0  0  0  0  0  0  0  0  0  0  0  0
   31.1820  -36.3550  -42.5980 C   0  0  0  0  0  0  0  0  0  0  0  0
   31.3060  -37.1410  -43.9120 C   0  0  0  0  0  0  0  0  0  0  0  0
   31.8070  -37.1410  -41.4540 C   0  0  0  0  0  0  0  0  0  0  0  0
   29.0550  -33.4240  -43.7470 N   0  0  0  0  0  0  0  0  0  0  0  0
   27.8460  -32.7380  -43.2820 C   0  0  2  0  0  0  0  0  0  0  0  0
   26.8950  -33.7900  -42.7260 C   0  0  0  0  0  0  0  0  0  0  0  0
   26.6280  -34.8200  -43.3750 O   0  0  0  0  0  0  0  0  0  0  0  0
   27.2090  -31.9360  -44.4320 C   0  0  0  0  0  0  0  0  0  0  0  0
   25.9890  -31.0370  -44.1830 C   0  0  0  0  0  0  0  0  0  0  0  0
   26.0710  -29.7620  -45.0090 C   0  0  0  0  0  0  0  0  0  0  0  0
   24.6600  -31.7590  -44.4410 C   0  0  0  0  0  0  0  0  0  0  0  0
   26.3840  -33.5470  -41.5240 N   0  0  0  0  0  0  0  0  0  0  0  0
   25.4340  -34.4700  -40.9080 C   0  0  0  0  0  0  0  0  0  0  0  0
   39.2268  -36.9986  -45.7819 H   0  0  0  0  0  0  0  0  0  0  0  0
   39.7446  -35.7907  -44.6304 H   0  0  0  0  0  0  0  0  0  0  0  0
   40.5550  -35.9323  -46.1719 H   0  0  0  0  0  0  0  0  0  0  0  0
   37.3526  -36.4613  -46.8083 H   0  0  0  0  0  0  0  0  0  0  0  0
   36.9104  -33.8744  -47.9444 H   0  0  0  0  0  0  0  0  0  0  0  0
   35.1886  -36.2943  -47.6203 H   0  0  0  0  0  0  0  0  0  0  0  0
   34.6732  -34.7139  -48.4024 H   0  0  0  0  0  0  0  0  0  0  0  0
   36.1816  -35.1005  -50.1727 H   0  0  0  0  0  0  0  0  0  0  0  0
   36.5850  -37.7881  -48.9297 H   0  0  0  0  0  0  0  0  0  0  0  0
   37.7835  -36.5218  -49.0443 H   0  0  0  0  0  0  0  0  0  0  0  0
   37.1762  -37.2838  -50.4947 H   0  0  0  0  0  0  0  0  0  0  0  0
   34.2527  -37.3816  -49.6432 H   0  0  0  0  0  0  0  0  0  0  0  0
   34.8385  -36.9104  -51.2205 H   0  0  0  0  0  0  0  0  0  0  0  0
   33.8095  -35.8294  -50.3119 H   0  0  0  0  0  0  0  0  0  0  0  0
   34.6789  -32.0699  -44.4633 H   0  0  0  0  0  0  0  0  0  0  0  0
   32.8693  -30.5261  -45.8776 H   0  0  0  0  0  0  0  0  0  0  0  0
   34.4405  -29.9672  -45.4513 H   0  0  0  0  0  0  0  0  0  0  0  0
   33.4176  -30.9153  -48.0101 H   0  0  0  0  0  0  0  0  0  0  0  0
   34.7468  -29.8303  -47.6809 H   0  0  0  0  0  0  0  0  0  0  0  0
   36.2552  -31.4969  -47.7442 H   0  0  0  0  0  0  0  0  0  0  0  0
   35.0568  -32.4088  -48.5531 H   0  0  0  0  0  0  0  0  0  0  0  0
   32.8902  -32.5418  -43.3601 H   0  0  0  0  0  0  0  0  0  0  0  0
   31.0988  -34.4997  -44.6409 H   0  0  0  0  0  0  0  0  0  0  0  0
   31.7795  -34.5300  -41.7611 H   0  0  0  0  0  0  0  0  0  0  0  0
   32.8516  -35.2656  -43.0549 H   0  0  0  0  0  0  0  0  0  0  0  0
   30.1422  -36.2010  -42.3982 H   0  0  0  0  0  0  0  0  0  0  0  0
   32.3399  -37.3069  -44.1321 H   0  0  0  0  0  0  0  0  0  0  0  0
   30.8576  -36.5813  -44.7061 H   0  0  0  0  0  0  0  0  0  0  0  0
   30.8069  -38.0823  -43.8130 H   0  0  0  0  0  0  0  0  0  0  0  0
   32.8469  -37.2952  -41.6535 H   0  0  0  0  0  0  0  0  0  0  0  0
   31.3172  -38.0879  -41.3624 H   0  0  0  0  0  0  0  0  0  0  0  0
   31.6963  -36.5924  -40.5420 H   0  0  0  0  0  0  0  0  0  0  0  0
   28.9819  -34.0936  -44.4650 H   0  0  0  0  0  0  0  0  0  0  0  0
   28.0811  -32.0344  -42.5109 H   0  0  0  0  0  0  0  0  0  0  0  0
   27.9778  -31.3047  -44.8260 H   0  0  0  0  0  0  0  0  0  0  0  0
   26.8135  -32.7026  -45.0651 H   0  0  0  0  0  0  0  0  0  0  0  0
   26.0103  -30.7780  -43.1450 H   0  0  0  0  0  0  0  0  0  0  0  0
   26.0505  -30.0094  -46.0498 H   0  0  0  0  0  0  0  0  0  0  0  0
   26.9818  -29.2482  -44.7824 H   0  0  0  0  0  0  0  0  0  0  0  0
   25.2384  -29.1317  -44.7757 H   0  0  0  0  0  0  0  0  0  0  0  0
   24.5991  -32.0362  -45.4727 H   0  0  0  0  0  0  0  0  0  0  0  0
   23.8470  -31.1071  -44.1982 H   0  0  0  0  0  0  0  0  0  0  0  0
   24.6071  -32.6372  -43.8320 H   0  0  0  0  0  0  0  0  0  0  0  0
   26.6499  -32.7316  -41.0406 H   0  0  0  0  0  0  0  0  0  0  0  0
   25.2598  -35.2949  -41.5669 H   0  0  0  0  0  0  0  0  0  0  0  0
   24.5114  -33.9609  -40.7222 H   0  0  0  0  0  0  0  0  0  0  0  0
   25.8350  -34.8303  -39.9837 H   0  0  0  0  0  0  0  0  0  0  0  0
  1 37  1  0  0  0  0
  1 38  1  0  0  0  0
  1 39  1  0  0  0  0
  2  3  2  0  0  0  0
  2  1  1  0  0  0  0
  4  2  1  0  0  0  0
  4 40  1  0  0  0  0
  5  4  1  0  0  0  0
  5  6  1  0  0  0  0
  5 41  1  6  0  0  0
  6  7  2  0  0  0  0
  8  5  1  0  0  0  0
  8 42  1  0  0  0  0
  8 43  1  0  0  0  0
  9 10  1  0  0  0  0
  9  8  1  0  0  0  0
  9 44  1  0  0  0  0
 10 45  1  0  0  0  0
 10 46  1  0  0  0  0
 10 47  1  0  0  0  0
 11  9  1  0  0  0  0
 11 48  1  0  0  0  0
 11 49  1  0  0  0  0
 11 50  1  0  0  0  0
 12  6  1  0  0  0  0
 12 13  1  0  0  0  0
 13 14  1  0  0  0  0
 13 51  1  1  0  0  0
 14 19  1  0  0  0  0
 15 14  2  0  0  0  0
 16 13  1  0  0  0  0
 16 52  1  0  0  0  0
 16 53  1  0  0  0  0
 17 16  1  0  0  0  0
 17 54  1  0  0  0  0
 17 55  1  0  0  0  0
 18 17  1  0  0  0  0
 18 12  1  0  0  0  0
 18 56  1  0  0  0  0
 18 57  1  0  0  0  0
 19 20  1  0  0  0  0
 19 58  1  0  0  0  0
 20 21  1  0  0  0  0
 20 23  1  0  0  0  0
 20 59  1  6  0  0  0
 21 22  2  0  0  0  0
 23 24  1  0  0  0  0
 23 60  1  0  0  0  0
 23 61  1  0  0  0  0
 24 26  1  0  0  0  0
 24 62  1  0  0  0  0
 25 24  1  0  0  0  0
 25 63  1  0  0  0  0
 25 64  1  0  0  0  0
 25 65  1  0  0  0  0
 26 66  1  0  0  0  0
 26 67  1  0  0  0  0
 26 68  1  0  0  0  0
 27 28  1  0  0  0  0
 27 21  1  0  0  0  0
 27 69  1  0  0  0  0
 28 29  1  0  0  0  0
 28 70  1  1  0  0  0
 29 35  1  0  0  0  0
 30 29  2  0  0  0  0
 31 32  1  0  0  0  0
 31 28  1  0  0  0  0
 31 71  1  0  0  0  0
 31 72  1  0  0  0  0
 32 73  1  0  0  0  0
 33 32  1  0  0  0  0
 33 74  1  0  0  0  0
 33 75  1  0  0  0  0
 33 76  1  0  0  0  0
 34 32  1  0  0  0  0
 34 77  1  0  0  0  0
 34 78  1  0  0  0  0
 34 79  1  0  0  0  0
 35 36  1  0  0  0  0
 35 80  1  0  0  0  0
 36 81  1  0  0  0  0
 36 82  1  0  0  0  0
 36 83  1  0  0  0  0
M  END
>  <MODEL>
       0

$$$$
selected_4mers/LPLL/522_noH.pdb
 OpenBabel03042518173D

 83 83  0  0  1  0  0  0  0  0999 V2000
   15.4300   36.9310    5.5970 C   0  0  0  0  0  0  0  0  0  0  0  0
   15.5540   36.3770    7.0230 C   0  0  0  0  0  0  0  0  0  0  0  0
   15.4810   37.1110    8.0090 O   0  0  0  0  0  0  0  0  0  0  0  0
   15.7690   35.0750    7.1110 N   0  0  0  0  0  0  0  0  0  0  0  0
   15.8960   34.3930    8.4070 C   0  0  2  0  0  0  0  0  0  0  0  0
   17.2200   33.6510    8.5150 C   0  0  0  0  0  0  0  0  0  0  0  0
   17.8240   33.2710    7.4950 O   0  0  0  0  0  0  0  0  0  0  0  0
   14.7310   33.4100    8.6290 C   0  0  0  0  0  0  0  0  0  0  0  0
   13.3150   33.9930    8.7200 C   0  0  0  0  0  0  0  0  0  0  0  0
   12.3140   32.8620    8.8220 C   0  0  0  0  0  0  0  0  0  0  0  0
   13.1890   34.9390    9.9010 C   0  0  0  0  0  0  0  0  0  0  0  0
   17.6970   33.4570    9.7600 N   0  0  0  0  0  0  0  0  0  0  0  0
   18.9030   32.6720    9.9820 C   0  0  2  0  0  0  0  0  0  0  0  0
   18.6620   31.2190    9.6070 C   0  0  0  0  0  0  0  0  0  0  0  0
   17.5340   30.7040    9.7400 O   0  0  0  0  0  0  0  0  0  0  0  0
   19.1580   32.7920   11.4950 C   0  0  0  0  0  0  0  0  0  0  0  0
   18.2500   33.8470   11.9750 C   0  0  0  0  0  0  0  0  0  0  0  0
   17.1150   33.9360   11.0230 C   0  0  0  0  0  0  0  0  0  0  0  0
   19.7190   30.5950    9.0980 N   0  0  0  0  0  0  0  0  0  0  0  0
   19.6730   29.1960    8.6750 C   0  0  2  0  0  0  0  0  0  0  0  0
   20.7440   28.3830    9.3800 C   0  0  0  0  0  0  0  0  0  0  0  0
   21.9320   28.6730    9.2650 O   0  0  0  0  0  0  0  0  0  0  0  0
   19.9030   29.1130    7.1690 C   0  0  0  0  0  0  0  0  0  0  0  0
   20.0120   27.7300    6.5310 C   0  0  0  0  0  0  0  0  0  0  0  0
   18.6980   26.9600    6.7690 C   0  0  0  0  0  0  0  0  0  0  0  0
   20.3260   27.8820    5.0510 C   0  0  0  0  0  0  0  0  0  0  0  0
   20.3050   27.3540   10.0970 N   0  0  0  0  0  0  0  0  0  0  0  0
   21.2080   26.4010   10.7330 C   0  0  2  0  0  0  0  0  0  0  0  0
   21.0830   25.0570   10.0450 C   0  0  0  0  0  0  0  0  0  0  0  0
   20.0120   24.4710   10.0280 O   0  0  0  0  0  0  0  0  0  0  0  0
   20.8650   26.2850   12.2090 C   0  0  0  0  0  0  0  0  0  0  0  0
   20.6800   27.5950   12.9690 C   0  0  0  0  0  0  0  0  0  0  0  0
   20.2220   27.2510   14.3720 C   0  0  0  0  0  0  0  0  0  0  0  0
   21.9460   28.4170   13.0190 C   0  0  0  0  0  0  0  0  0  0  0  0
   22.1630   24.5770    9.4430 N   0  0  0  0  0  0  0  0  0  0  0  0
   22.1670   23.3550    8.6520 C   0  0  0  0  0  0  0  0  0  0  0  0
   15.5215   36.1297    4.8938 H   0  0  0  0  0  0  0  0  0  0  0  0
   16.2055   37.6476    5.4241 H   0  0  0  0  0  0  0  0  0  0  0  0
   14.4765   37.4019    5.4790 H   0  0  0  0  0  0  0  0  0  0  0  0
   15.8463   34.5468    6.2838 H   0  0  0  0  0  0  0  0  0  0  0  0
   15.8647   35.1466    9.1659 H   0  0  0  0  0  0  0  0  0  0  0  0
   14.9219   32.8894    9.5441 H   0  0  0  0  0  0  0  0  0  0  0  0
   14.7177   32.8023    7.7484 H   0  0  0  0  0  0  0  0  0  0  0  0
   13.1137   34.5605    7.8355 H   0  0  0  0  0  0  0  0  0  0  0  0
   12.5103   32.2906    9.7051 H   0  0  0  0  0  0  0  0  0  0  0  0
   12.4001   32.2308    7.9623 H   0  0  0  0  0  0  0  0  0  0  0  0
   11.3241   33.2652    8.8707 H   0  0  0  0  0  0  0  0  0  0  0  0
   13.3842   34.4055   10.8077 H   0  0  0  0  0  0  0  0  0  0  0  0
   12.1984   35.3424    9.9307 H   0  0  0  0  0  0  0  0  0  0  0  0
   13.8956   35.7357    9.7968 H   0  0  0  0  0  0  0  0  0  0  0  0
   19.7295   33.0131    9.3943 H   0  0  0  0  0  0  0  0  0  0  0  0
   20.1760   33.0644   11.6804 H   0  0  0  0  0  0  0  0  0  0  0  0
   18.9824   31.8639   11.9977 H   0  0  0  0  0  0  0  0  0  0  0  0
   17.8880   33.5994   12.9510 H   0  0  0  0  0  0  0  0  0  0  0  0
   18.7633   34.7840   12.0334 H   0  0  0  0  0  0  0  0  0  0  0  0
   16.3041   33.3106   11.3333 H   0  0  0  0  0  0  0  0  0  0  0  0
   16.7058   34.9219   10.9491 H   0  0  0  0  0  0  0  0  0  0  0  0
   20.5632   31.0923    9.0023 H   0  0  0  0  0  0  0  0  0  0  0  0
   18.7121   28.7989    8.9277 H   0  0  0  0  0  0  0  0  0  0  0  0
   19.0871   29.6176    6.6951 H   0  0  0  0  0  0  0  0  0  0  0  0
   20.8694   29.5489    7.0239 H   0  0  0  0  0  0  0  0  0  0  0  0
   20.8072   27.1689    6.9757 H   0  0  0  0  0  0  0  0  0  0  0  0
   17.8839   27.5006    6.3332 H   0  0  0  0  0  0  0  0  0  0  0  0
   18.5328   26.8531    7.8207 H   0  0  0  0  0  0  0  0  0  0  0  0
   18.7653   25.9919    6.3183 H   0  0  0  0  0  0  0  0  0  0  0  0
   19.5465   28.4407    4.5766 H   0  0  0  0  0  0  0  0  0  0  0  0
   20.3963   26.9142    4.6001 H   0  0  0  0  0  0  0  0  0  0  0  0
   21.2561   28.3980    4.9349 H   0  0  0  0  0  0  0  0  0  0  0  0
   19.3341   27.2301   10.2030 H   0  0  0  0  0  0  0  0  0  0  0  0
   22.2193   26.7393   10.6445 H   0  0  0  0  0  0  0  0  0  0  0  0
   21.6546   25.7417   12.6847 H   0  0  0  0  0  0  0  0  0  0  0  0
   19.9111   25.8013   12.2413 H   0  0  0  0  0  0  0  0  0  0  0  0
   19.9536   28.1932   12.4597 H   0  0  0  0  0  0  0  0  0  0  0  0
   20.9676   26.6539   14.8542 H   0  0  0  0  0  0  0  0  0  0  0  0
   19.3036   26.7041   14.3234 H   0  0  0  0  0  0  0  0  0  0  0  0
   20.0715   28.1521   14.9290 H   0  0  0  0  0  0  0  0  0  0  0  0
   22.7113   27.8630   13.5213 H   0  0  0  0  0  0  0  0  0  0  0  0
   21.7592   29.3279   13.5485 H   0  0  0  0  0  0  0  0  0  0  0  0
   22.2644   28.6425   12.0227 H   0  0  0  0  0  0  0  0  0  0  0  0
   23.0077   25.0741    9.5362 H   0  0  0  0  0  0  0  0  0  0  0  0
   21.1842   22.9321    8.6441 H   0  0  0  0  0  0  0  0  0  0  0  0
   22.8532   22.6548    9.0808 H   0  0  0  0  0  0  0  0  0  0  0  0
   22.4666   23.5799    7.6497 H   0  0  0  0  0  0  0  0  0  0  0  0
  1  2  1  0  0  0  0
  1 37  1  0  0  0  0
  1 38  1  0  0  0  0
  1 39  1  0  0  0  0
  2  4  1  0  0  0  0
  2  3  2  0  0  0  0
  4  5  1  0  0  0  0
  4 40  1  0  0  0  0
  5  6  1  0  0  0  0
  5  8  1  0  0  0  0
  5 41  1  1  0  0  0
  6 12  1  0  0  0  0
  7  6  2  0  0  0  0
  8  9  1  0  0  0  0
  8 42  1  0  0  0  0
  8 43  1  0  0  0  0
  9 10  1  0  0  0  0
  9 11  1  0  0  0  0
  9 44  1  0  0  0  0
 10 45  1  0  0  0  0
 10 46  1  0  0  0  0
 10 47  1  0  0  0  0
 11 48  1  0  0  0  0
 11 49  1  0  0  0  0
 11 50  1  0  0  0  0
 12 13  1  0  0  0  0
 12 18  1  0  0  0  0
 13 16  1  0  0  0  0
 13 51  1  6  0  0  0
 14 15  2  0  0  0  0
 14 13  1  0  0  0  0
 16 17  1  0  0  0  0
 16 52  1  0  0  0  0
 16 53  1  0  0  0  0
 17 54  1  0  0  0  0
 17 55  1  0  0  0  0
 18 17  1  0  0  0  0
 18 56  1  0  0  0  0
 18 57  1  0  0  0  0
 19 14  1  0  0  0  0
 19 58  1  0  0  0  0
 20 19  1  0  0  0  0
 20 21  1  0  0  0  0
 20 59  1  1  0  0  0
 21 27  1  0  0  0  0
 22 21  2  0  0  0  0
 23 20  1  0  0  0  0
 23 60  1  0  0  0  0
 23 61  1  0  0  0  0
 24 25  1  0  0  0  0
 24 23  1  0  0  0  0
 24 62  1  0  0  0  0
 25 63  1  0  0  0  0
 25 64  1  0  0  0  0
 25 65  1  0  0  0  0
 26 24  1  0  0  0  0
 26 66  1  0  0  0  0
 26 67  1  0  0  0  0
 26 68  1  0  0  0  0
 27 28  1  0  0  0  0
 27 69  1  0  0  0  0
 28 31  1  0  0  0  0
 28 70  1  6  0  0  0
 29 28  1  0  0  0  0
 30 29  2  0  0  0  0
 31 32  1  0  0  0  0
 31 71  1  0  0  0  0
 31 72  1  0  0  0  0
 32 34  1  0  0  0  0
 32 33  1  0  0  0  0
 32 73  1  0  0  0  0
 33 74  1  0  0  0  0
 33 75  1  0  0  0  0
 33 76  1  0  0  0  0
 34 77  1  0  0  0  0
 34 78  1  0  0  0  0
 34 79  1  0  0  0  0
 35 29  1  0  0  0  0
 35 80  1  0  0  0  0
 36 35  1  0  0  0  0
 36 81  1  0  0  0  0
 36 82  1  0  0  0  0
 36 83  1  0  0  0  0
M  END
>  <MODEL>
       0

$$$$
selected_4mers/LPLL/523_noH.pdb
 OpenBabel03042518173D

 83 83  0  0  1  0  0  0  0  0999 V2000
    3.5420   57.2010   50.4840 C   0  0  0  0  0  0  0  0  0  0  0  0
    3.3200   55.8810   51.2110 C   0  0  0  0  0  0  0  0  0  0  0  0
    2.5880   55.8370   52.2030 O   0  0  0  0  0  0  0  0  0  0  0  0
    3.9400   54.8080   50.7260 N   0  0  0  0  0  0  0  0  0  0  0  0
    3.8870   53.5270   51.3900 C   0  0  2  0  0  0  0  0  0  0  0  0
    5.0460   53.4010   52.3700 C   0  0  0  0  0  0  0  0  0  0  0  0
    6.0400   54.1120   52.2280 O   0  0  0  0  0  0  0  0  0  0  0  0
    3.9500   52.3950   50.3740 C   0  0  0  0  0  0  0  0  0  0  0  0
    3.0100   52.4470   49.1780 C   0  0  0  0  0  0  0  0  0  0  0  0
    3.3640   51.3560   48.1720 C   0  0  0  0  0  0  0  0  0  0  0  0
    1.6010   52.2620   49.6650 C   0  0  0  0  0  0  0  0  0  0  0  0
    4.9150   52.5260   53.3880 N   0  0  0  0  0  0  0  0  0  0  0  0
    6.0810   52.3030   54.2520 C   0  0  2  0  0  0  0  0  0  0  0  0
    7.2700   51.7190   53.4720 C   0  0  0  0  0  0  0  0  0  0  0  0
    7.1130   51.0220   52.4620 O   0  0  0  0  0  0  0  0  0  0  0  0
    5.5560   51.3500   55.3400 C   0  0  0  0  0  0  0  0  0  0  0  0
    4.3170   50.7260   54.7340 C   0  0  0  0  0  0  0  0  0  0  0  0
    3.7270   51.7710   53.8490 C   0  0  0  0  0  0  0  0  0  0  0  0
    8.4590   52.0630   53.9230 N   0  0  0  0  0  0  0  0  0  0  0  0
    9.6730   51.5240   53.3320 C   0  0  2  0  0  0  0  0  0  0  0  0
    9.9220   50.0870   53.7760 C   0  0  0  0  0  0  0  0  0  0  0  0
    9.4980   49.6590   54.8290 O   0  0  0  0  0  0  0  0  0  0  0  0
   10.8690   52.4010   53.7020 C   0  0  0  0  0  0  0  0  0  0  0  0
   10.7700   53.8820   53.3010 C   0  0  0  0  0  0  0  0  0  0  0  0
   12.0160   54.6070   53.8320 C   0  0  0  0  0  0  0  0  0  0  0  0
   10.6360   54.0540   51.7820 C   0  0  0  0  0  0  0  0  0  0  0  0
   10.6120   49.3280   52.9430 N   0  0  0  0  0  0  0  0  0  0  0  0
   11.0650   48.0380   53.3760 C   0  0  2  0  0  0  0  0  0  0  0  0
   12.3660   48.1230   54.1640 C   0  0  0  0  0  0  0  0  0  0  0  0
   13.0950   49.1120   54.1030 O   0  0  0  0  0  0  0  0  0  0  0  0
   11.2160   47.1120   52.1870 C   0  0  0  0  0  0  0  0  0  0  0  0
   10.0270   46.9760   51.2490 C   0  0  0  0  0  0  0  0  0  0  0  0
   10.5460   46.2660   49.9950 C   0  0  0  0  0  0  0  0  0  0  0  0
    8.8270   46.2140   51.9290 C   0  0  0  0  0  0  0  0  0  0  0  0
   12.6320   47.0600   54.9170 N   0  0  0  0  0  0  0  0  0  0  0  0
   13.8320   46.9640   55.7190 C   0  0  0  0  0  0  0  0  0  0  0  0
    4.2006   57.0453   49.6552 H   0  0  0  0  0  0  0  0  0  0  0  0
    3.9770   57.9101   51.1570 H   0  0  0  0  0  0  0  0  0  0  0  0
    2.6043   57.5749   50.1292 H   0  0  0  0  0  0  0  0  0  0  0  0
    4.4507   54.8902   49.8884 H   0  0  0  0  0  0  0  0  0  0  0  0
    2.9619   53.4598   51.9234 H   0  0  0  0  0  0  0  0  0  0  0  0
    4.9488   52.3679   49.9912 H   0  0  0  0  0  0  0  0  0  0  0  0
    3.6348   51.5310   50.9208 H   0  0  0  0  0  0  0  0  0  0  0  0
    3.1059   53.3939   48.6890 H   0  0  0  0  0  0  0  0  0  0  0  0
    3.2752   50.3975   48.6393 H   0  0  0  0  0  0  0  0  0  0  0  0
    4.3693   51.4958   47.8332 H   0  0  0  0  0  0  0  0  0  0  0  0
    2.6958   51.4095   47.3380 H   0  0  0  0  0  0  0  0  0  0  0  0
    1.5137   51.3135   50.1524 H   0  0  0  0  0  0  0  0  0  0  0  0
    0.9285   52.2990   48.8336 H   0  0  0  0  0  0  0  0  0  0  0  0
    1.3571   53.0418   50.3559 H   0  0  0  0  0  0  0  0  0  0  0  0
    6.4682   53.2096   54.6679 H   0  0  0  0  0  0  0  0  0  0  0  0
    5.3101   51.8911   56.2297 H   0  0  0  0  0  0  0  0  0  0  0  0
    6.2826   50.6175   55.6235 H   0  0  0  0  0  0  0  0  0  0  0  0
    4.5774   49.8587   54.1640 H   0  0  0  0  0  0  0  0  0  0  0  0
    3.6254   50.4120   55.4877 H   0  0  0  0  0  0  0  0  0  0  0  0
    3.2085   51.3286   53.0242 H   0  0  0  0  0  0  0  0  0  0  0  0
    3.0036   52.3842   54.3446 H   0  0  0  0  0  0  0  0  0  0  0  0
    8.5267   52.6964   54.6737 H   0  0  0  0  0  0  0  0  0  0  0  0
    9.5478   51.5219   52.2694 H   0  0  0  0  0  0  0  0  0  0  0  0
   10.9907   52.3571   54.7641 H   0  0  0  0  0  0  0  0  0  0  0  0
   11.6964   52.0077   53.1492 H   0  0  0  0  0  0  0  0  0  0  0  0
    9.8869   54.3069   53.7306 H   0  0  0  0  0  0  0  0  0  0  0  0
   12.8927   54.1749   53.3967 H   0  0  0  0  0  0  0  0  0  0  0  0
   12.0601   54.5073   54.8964 H   0  0  0  0  0  0  0  0  0  0  0  0
   11.9630   55.6438   53.5727 H   0  0  0  0  0  0  0  0  0  0  0  0
   11.4981   53.6435   51.2991 H   0  0  0  0  0  0  0  0  0  0  0  0
   10.5570   55.0948   51.5465 H   0  0  0  0  0  0  0  0  0  0  0  0
    9.7594   53.5437   51.4412 H   0  0  0  0  0  0  0  0  0  0  0  0
   10.8134   49.6453   52.0330 H   0  0  0  0  0  0  0  0  0  0  0  0
   10.3246   47.6388   54.0373 H   0  0  0  0  0  0  0  0  0  0  0  0
   12.0428   47.4663   51.6075 H   0  0  0  0  0  0  0  0  0  0  0  0
   11.3404   46.1384   52.6132 H   0  0  0  0  0  0  0  0  0  0  0  0
    9.6257   47.9341   50.9924 H   0  0  0  0  0  0  0  0  0  0  0  0
   10.9441   45.3103   50.2652 H   0  0  0  0  0  0  0  0  0  0  0  0
   11.3143   46.8574   49.5425 H   0  0  0  0  0  0  0  0  0  0  0  0
    9.7421   46.1343   49.3012 H   0  0  0  0  0  0  0  0  0  0  0  0
    9.1454   45.2348   52.2200 H   0  0  0  0  0  0  0  0  0  0  0  0
    8.0163   46.1340   51.2352 H   0  0  0  0  0  0  0  0  0  0  0  0
    8.5045   46.7558   52.7935 H   0  0  0  0  0  0  0  0  0  0  0  0
   11.9907   46.3131   54.9291 H   0  0  0  0  0  0  0  0  0  0  0  0
   14.4166   47.8514   55.5938 H   0  0  0  0  0  0  0  0  0  0  0  0
   14.4024   46.1142   55.4070 H   0  0  0  0  0  0  0  0  0  0  0  0
   13.5646   46.8554   56.7493 H   0  0  0  0  0  0  0  0  0  0  0  0
  1  2  1  0  0  0  0
  1 37  1  0  0  0  0
  1 38  1  0  0  0  0
  1 39  1  0  0  0  0
  2  3  2  0  0  0  0
  4  2  1  0  0  0  0
  4  5  1  0  0  0  0
  4 40  1  0  0  0  0
  5  6  1  0  0  0  0
  5 41  1  1  0  0  0
  6 12  1  0  0  0  0
  7  6  2  0  0  0  0
  8  5  1  0  0  0  0
  8 42  1  0  0  0  0
  8 43  1  0  0  0  0
  9 11  1  0  0  0  0
  9  8  1  0  0  0  0
  9 44  1  0  0  0  0
 10  9  1  0  0  0  0
 10 45  1  0  0  0  0
 10 46  1  0  0  0  0
 10 47  1  0  0  0  0
 11 48  1  0  0  0  0
 11 49  1  0  0  0  0
 11 50  1  0  0  0  0
 12 18  1  0  0  0  0
 12 13  1  0  0  0  0
 13 16  1  0  0  0  0
 13 51  1  1  0  0  0
 14 19  1  0  0  0  0
 14 13  1  0  0  0  0
 15 14  2  0  0  0  0
 16 52  1  0  0  0  0
 16 53  1  0  0  0  0
 17 16  1  0  0  0  0
 17 54  1  0  0  0  0
 17 55  1  0  0  0  0
 18 17  1  0  0  0  0
 18 56  1  0  0  0  0
 18 57  1  0  0  0  0
 19 58  1  0  0  0  0
 20 23  1  0  0  0  0
 20 21  1  0  0  0  0
 20 19  1  0  0  0  0
 20 59  1  6  0  0  0
 21 22  2  0  0  0  0
 23 60  1  0  0  0  0
 23 61  1  0  0  0  0
 24 23  1  0  0  0  0
 24 25  1  0  0  0  0
 24 62  1  0  0  0  0
 25 63  1  0  0  0  0
 25 64  1  0  0  0  0
 25 65  1  0  0  0  0
 26 24  1  0  0  0  0
 26 66  1  0  0  0  0
 26 67  1  0  0  0  0
 26 68  1  0  0  0  0
 27 28  1  0  0  0  0
 27 21  1  0  0  0  0
 27 69  1  0  0  0  0
 28 29  1  0  0  0  0
 28 70  1  1  0  0  0
 29 35  1  0  0  0  0
 30 29  2  0  0  0  0
 31 28  1  0  0  0  0
 31 71  1  0  0  0  0
 31 72  1  0  0  0  0
 32 34  1  0  0  0  0
 32 31  1  0  0  0  0
 32 73  1  0  0  0  0
 33 32  1  0  0  0  0
 33 74  1  0  0  0  0
 33 75  1  0  0  0  0
 33 76  1  0  0  0  0
 34 77  1  0  0  0  0
 34 78  1  0  0  0  0
 34 79  1  0  0  0  0
 35 36  1  0  0  0  0
 35 80  1  0  0  0  0
 36 81  1  0  0  0  0
 36 82  1  0  0  0  0
 36 83  1  0  0  0  0
M  END
>  <MODEL>
       0

$$$$
selected_4mers/LPLL/524_noH.pdb
 OpenBabel03042518173D

 83 83  0  0  1  0  0  0  0  0999 V2000
  -25.4180   -7.9870  -27.4310 C   0  0  0  0  0  0  0  0  0  0  0  0
  -26.0900   -6.7840  -28.1000 C   0  0  0  0  0  0  0  0  0  0  0  0
  -26.9500   -6.1560  -27.4890 O   0  0  0  0  0  0  0  0  0  0  0  0
  -25.7350   -6.4680  -29.3450 N   0  0  0  0  0  0  0  0  0  0  0  0
  -26.3340   -5.3060  -29.9990 C   0  0  2  0  0  0  0  0  0  0  0  0
  -27.8580   -5.3920  -30.0910 C   0  0  0  0  0  0  0  0  0  0  0  0
  -28.5190   -4.4040  -29.8060 O   0  0  0  0  0  0  0  0  0  0  0  0
  -25.6870   -5.0080  -31.3600 C   0  0  0  0  0  0  0  0  0  0  0  0
  -24.2880   -4.3960  -31.2640 C   0  0  0  0  0  0  0  0  0  0  0  0
  -23.5990   -4.4780  -32.6150 C   0  0  0  0  0  0  0  0  0  0  0  0
  -24.3790   -2.9640  -30.7910 C   0  0  0  0  0  0  0  0  0  0  0  0
  -28.4380   -6.5510  -30.4490 N   0  0  0  0  0  0  0  0  0  0  0  0
  -29.9110   -6.5600  -30.5120 C   0  0  2  0  0  0  0  0  0  0  0  0
  -30.5720   -6.2130  -29.1800 C   0  0  0  0  0  0  0  0  0  0  0  0
  -31.5480   -5.4500  -29.1340 O   0  0  0  0  0  0  0  0  0  0  0  0
  -30.2410   -7.9800  -30.9700 C   0  0  0  0  0  0  0  0  0  0  0  0
  -29.0220   -8.3910  -31.7480 C   0  0  0  0  0  0  0  0  0  0  0  0
  -27.8640   -7.7900  -30.9960 C   0  0  0  0  0  0  0  0  0  0  0  0
  -30.0420   -6.7320  -28.0780 N   0  0  0  0  0  0  0  0  0  0  0  0
  -30.5860   -6.4020  -26.7640 C   0  0  2  0  0  0  0  0  0  0  0  0
  -30.4200   -4.9160  -26.4310 C   0  0  0  0  0  0  0  0  0  0  0  0
  -31.3150   -4.3020  -25.8260 O   0  0  0  0  0  0  0  0  0  0  0  0
  -29.9280   -7.2620  -25.6790 C   0  0  0  0  0  0  0  0  0  0  0  0
  -30.5100   -8.6700  -25.5310 C   0  0  0  0  0  0  0  0  0  0  0  0
  -29.5390   -9.5640  -24.7740 C   0  0  0  0  0  0  0  0  0  0  0  0
  -31.8740   -8.6650  -24.8660 C   0  0  0  0  0  0  0  0  0  0  0  0
  -29.2730   -4.3430  -26.7760 N   0  0  0  0  0  0  0  0  0  0  0  0
  -29.0540   -2.9160  -26.5680 C   0  0  2  0  0  0  0  0  0  0  0  0
  -29.9990   -2.0510  -27.4030 C   0  0  0  0  0  0  0  0  0  0  0  0
  -30.4360   -0.9970  -26.9320 O   0  0  0  0  0  0  0  0  0  0  0  0
  -27.6100   -2.5440  -26.9260 C   0  0  0  0  0  0  0  0  0  0  0  0
  -26.5610   -2.8450  -25.8570 C   0  0  0  0  0  0  0  0  0  0  0  0
  -25.1720   -2.8980  -26.4660 C   0  0  0  0  0  0  0  0  0  0  0  0
  -26.6160   -1.8080  -24.7470 C   0  0  0  0  0  0  0  0  0  0  0  0
  -30.3330   -2.4920  -28.6130 N   0  0  0  0  0  0  0  0  0  0  0  0
  -31.2520   -1.7440  -29.4480 C   0  0  0  0  0  0  0  0  0  0  0  0
  -24.6999   -8.4124  -28.1006 H   0  0  0  0  0  0  0  0  0  0  0  0
  -26.1586   -8.7205  -27.1894 H   0  0  0  0  0  0  0  0  0  0  0  0
  -24.9261   -7.6685  -26.5358 H   0  0  0  0  0  0  0  0  0  0  0  0
  -25.0711   -7.0157  -29.8230 H   0  0  0  0  0  0  0  0  0  0  0  0
  -26.1234   -4.4703  -29.3648 H   0  0  0  0  0  0  0  0  0  0  0  0
  -25.6162   -5.9250  -31.9068 H   0  0  0  0  0  0  0  0  0  0  0  0
  -26.3082   -4.2850  -31.8461 H   0  0  0  0  0  0  0  0  0  0  0  0
  -23.7081   -4.9457  -30.5524 H   0  0  0  0  0  0  0  0  0  0  0  0
  -24.1674   -3.9323  -33.3389 H   0  0  0  0  0  0  0  0  0  0  0  0
  -23.5263   -5.5020  -32.9167 H   0  0  0  0  0  0  0  0  0  0  0  0
  -22.6179   -4.0575  -32.5411 H   0  0  0  0  0  0  0  0  0  0  0  0
  -24.9559   -2.3939  -31.4888 H   0  0  0  0  0  0  0  0  0  0  0  0
  -23.3954   -2.5492  -30.7184 H   0  0  0  0  0  0  0  0  0  0  0  0
  -24.8501   -2.9348  -29.8308 H   0  0  0  0  0  0  0  0  0  0  0  0
  -30.2885   -5.8100  -31.1752 H   0  0  0  0  0  0  0  0  0  0  0  0
  -30.3950   -8.6262  -30.1312 H   0  0  0  0  0  0  0  0  0  0  0  0
  -31.1406   -8.0330  -31.5469 H   0  0  0  0  0  0  0  0  0  0  0  0
  -28.9375   -9.4572  -31.7805 H   0  0  0  0  0  0  0  0  0  0  0  0
  -29.0602   -8.0574  -32.7639 H   0  0  0  0  0  0  0  0  0  0  0  0
  -27.0461   -7.5787  -31.6527 H   0  0  0  0  0  0  0  0  0  0  0  0
  -27.4641   -8.4390  -30.2451 H   0  0  0  0  0  0  0  0  0  0  0  0
  -29.2749   -7.3451  -28.1481 H   0  0  0  0  0  0  0  0  0  0  0  0
  -31.6346   -6.6128  -26.7930 H   0  0  0  0  0  0  0  0  0  0  0  0
  -30.0381   -6.7567  -24.7423 H   0  0  0  0  0  0  0  0  0  0  0  0
  -28.9075   -7.3888  -25.9747 H   0  0  0  0  0  0  0  0  0  0  0  0
  -30.6503   -9.0639  -26.5159 H   0  0  0  0  0  0  0  0  0  0  0  0
  -29.3930   -9.1769  -23.7872 H   0  0  0  0  0  0  0  0  0  0  0  0
  -28.6017   -9.5894  -25.2894 H   0  0  0  0  0  0  0  0  0  0  0  0
  -29.9395  -10.5543  -24.7130 H   0  0  0  0  0  0  0  0  0  0  0  0
  -31.7851   -8.2772  -23.8727 H   0  0  0  0  0  0  0  0  0  0  0  0
  -32.2550   -9.6641  -24.8260 H   0  0  0  0  0  0  0  0  0  0  0  0
  -32.5437   -8.0502  -25.4303 H   0  0  0  0  0  0  0  0  0  0  0  0
  -28.5597   -4.8895  -27.1782 H   0  0  0  0  0  0  0  0  0  0  0  0
  -29.2487   -2.7251  -25.5333 H   0  0  0  0  0  0  0  0  0  0  0  0
  -27.5819   -1.4934  -27.1268 H   0  0  0  0  0  0  0  0  0  0  0  0
  -27.3524   -3.1549  -27.7659 H   0  0  0  0  0  0  0  0  0  0  0  0
  -26.7796   -3.8040  -25.4358 H   0  0  0  0  0  0  0  0  0  0  0  0
  -24.9335   -1.9466  -26.8936 H   0  0  0  0  0  0  0  0  0  0  0  0
  -25.1452   -3.6484  -27.2282 H   0  0  0  0  0  0  0  0  0  0  0  0
  -24.4580   -3.1363  -25.7055 H   0  0  0  0  0  0  0  0  0  0  0  0
  -26.3995   -0.8412  -25.1511 H   0  0  0  0  0  0  0  0  0  0  0  0
  -25.8935   -2.0507  -23.9961 H   0  0  0  0  0  0  0  0  0  0  0  0
  -27.5938   -1.8021  -24.3125 H   0  0  0  0  0  0  0  0  0  0  0  0
  -29.9514   -3.3365  -28.9453 H   0  0  0  0  0  0  0  0  0  0  0  0
  -31.5645   -0.8604  -28.9317 H   0  0  0  0  0  0  0  0  0  0  0  0
  -32.1064   -2.3491  -29.6688 H   0  0  0  0  0  0  0  0  0  0  0  0
  -30.7634   -1.4704  -30.3598 H   0  0  0  0  0  0  0  0  0  0  0  0
  1 37  1  0  0  0  0
  1 38  1  0  0  0  0
  1 39  1  0  0  0  0
  2  3  2  0  0  0  0
  2  1  1  0  0  0  0
  4  2  1  0  0  0  0
  4 40  1  0  0  0  0
  5  4  1  0  0  0  0
  5 41  1  1  0  0  0
  6  5  1  0  0  0  0
  6  7  2  0  0  0  0
  8  9  1  0  0  0  0
  8  5  1  0  0  0  0
  8 42  1  0  0  0  0
  8 43  1  0  0  0  0
  9 11  1  0  0  0  0
  9 44  1  0  0  0  0
 10  9  1  0  0  0  0
 10 45  1  0  0  0  0
 10 46  1  0  0  0  0
 10 47  1  0  0  0  0
 11 48  1  0  0  0  0
 11 49  1  0  0  0  0
 11 50  1  0  0  0  0
 12  6  1  0  0  0  0
 13 12  1  0  0  0  0
 13 14  1  0  0  0  0
 13 51  1  6  0  0  0
 14 15  2  0  0  0  0
 14 19  1  0  0  0  0
 16 13  1  0  0  0  0
 16 52  1  0  0  0  0
 16 53  1  0  0  0  0
 17 18  1  0  0  0  0
 17 16  1  0  0  0  0
 17 54  1  0  0  0  0
 17 55  1  0  0  0  0
 18 12  1  0  0  0  0
 18 56  1  0  0  0  0
 18 57  1  0  0  0  0
 19 20  1  0  0  0  0
 19 58  1  0  0  0  0
 20 21  1  0  0  0  0
 20 23  1  0  0  0  0
 20 59  1  6  0  0  0
 21 22  2  0  0  0  0
 23 24  1  0  0  0  0
 23 60  1  0  0  0  0
 23 61  1  0  0  0  0
 24 26  1  0  0  0  0
 24 25  1  0  0  0  0
 24 62  1  0  0  0  0
 25 63  1  0  0  0  0
 25 64  1  0  0  0  0
 25 65  1  0  0  0  0
 26 66  1  0  0  0  0
 26 67  1  0  0  0  0
 26 68  1  0  0  0  0
 27 28  1  0  0  0  0
 27 21  1  0  0  0  0
 27 69  1  0  0  0  0
 28 70  1  1  0  0  0
 29 30  2  0  0  0  0
 29 28  1  0  0  0  0
 31 28  1  0  0  0  0
 31 32  1  0  0  0  0
 31 71  1  0  0  0  0
 31 72  1  0  0  0  0
 32 34  1  0  0  0  0
 32 73  1  0  0  0  0
 33 32  1  0  0  0  0
 33 74  1  0  0  0  0
 33 75  1  0  0  0  0
 33 76  1  0  0  0  0
 34 77  1  0  0  0  0
 34 78  1  0  0  0  0
 34 79  1  0  0  0  0
 35 29  1  0  0  0  0
 35 80  1  0  0  0  0
 36 35  1  0  0  0  0
 36 81  1  0  0  0  0
 36 82  1  0  0  0  0
 36 83  1  0  0  0  0
M  END
>  <MODEL>
       0

$$$$
