selected_4mers/LPVL/550_noH.pdb
 OpenBabel03042518233D

 80 80  0  0  1  0  0  0  0  0999 V2000
   14.9230   42.1700   79.1590 C   0  0  0  0  0  0  0  0  0  0  0  0
   15.8560   41.2300   78.3960 C   0  0  0  0  0  0  0  0  0  0  0  0
   17.0130   41.0740   78.7690 O   0  0  0  0  0  0  0  0  0  0  0  0
   15.3020   40.6100   77.3490 N   0  0  0  0  0  0  0  0  0  0  0  0
   16.0130   39.7700   76.3740 C   0  0  2  0  0  0  0  0  0  0  0  0
   15.3400   40.0050   75.0230 C   0  0  0  0  0  0  0  0  0  0  0  0
   14.2990   40.6760   74.9700 O   0  0  0  0  0  0  0  0  0  0  0  0
   15.8740   38.2850   76.7360 C   0  0  0  0  0  0  0  0  0  0  0  0
   16.6840   37.7030   77.8990 C   0  0  0  0  0  0  0  0  0  0  0  0
   16.4590   36.2210   77.9850 C   0  0  0  0  0  0  0  0  0  0  0  0
   18.1580   38.0090   77.7580 C   0  0  0  0  0  0  0  0  0  0  0  0
   15.9040   39.4790   73.9330 N   0  0  0  0  0  0  0  0  0  0  0  0
   15.2020   39.4540   72.6520 C   0  0  2  0  0  0  0  0  0  0  0  0
   13.8250   38.7930   72.7410 C   0  0  0  0  0  0  0  0  0  0  0  0
   13.6270   37.8670   73.5240 O   0  0  0  0  0  0  0  0  0  0  0  0
   16.1490   38.6390   71.7560 C   0  0  0  0  0  0  0  0  0  0  0  0
   17.4900   38.9250   72.3150 C   0  0  0  0  0  0  0  0  0  0  0  0
   17.2580   38.8890   73.8150 C   0  0  0  0  0  0  0  0  0  0  0  0
   12.8720   39.3190   71.9680 N   0  0  0  0  0  0  0  0  0  0  0  0
   11.5040   38.7950   71.8850 C   0  0  2  0  0  0  0  0  0  0  0  0
   11.4390   37.2660   71.8630 C   0  0  0  0  0  0  0  0  0  0  0  0
   10.7350   36.6570   72.6680 O   0  0  0  0  0  0  0  0  0  0  0  0
   10.7790   39.3740   70.6440 C   0  0  0  0  0  0  0  0  0  0  0  0
    9.4180   38.7070   70.4250 C   0  0  0  0  0  0  0  0  0  0  0  0
   10.6290   40.8870   70.7930 C   0  0  0  0  0  0  0  0  0  0  0  0
   12.1640   36.6450   70.9430 N   0  0  0  0  0  0  0  0  0  0  0  0
   12.1130   35.1880   70.8390 C   0  0  2  0  0  0  0  0  0  0  0  0
   12.6080   34.4680   72.0950 C   0  0  0  0  0  0  0  0  0  0  0  0
   12.0710   33.4150   72.4440 O   0  0  0  0  0  0  0  0  0  0  0  0
   12.8600   34.7020   69.6030 C   0  0  0  0  0  0  0  0  0  0  0  0
   12.1750   34.9890   68.2690 C   0  0  0  0  0  0  0  0  0  0  0  0
   13.1940   34.8510   67.1480 C   0  0  0  0  0  0  0  0  0  0  0  0
   10.9980   34.0320   68.0170 C   0  0  0  0  0  0  0  0  0  0  0  0
   13.6170   35.0310   72.7570 N   0  0  0  0  0  0  0  0  0  0  0  0
   14.1660   34.4570   73.9990 C   0  0  0  0  0  0  0  0  0  0  0  0
   13.9617   42.1772   78.6891 H   0  0  0  0  0  0  0  0  0  0  0  0
   15.3304   43.1594   79.1528 H   0  0  0  0  0  0  0  0  0  0  0  0
   14.8237   41.8315   80.1692 H   0  0  0  0  0  0  0  0  0  0  0  0
   14.3330   40.7261   77.2195 H   0  0  0  0  0  0  0  0  0  0  0  0
   17.0536   40.0186   76.3591 H   0  0  0  0  0  0  0  0  0  0  0  0
   16.1419   37.7274   75.8629 H   0  0  0  0  0  0  0  0  0  0  0  0
   14.8626   38.2075   77.0765 H   0  0  0  0  0  0  0  0  0  0  0  0
   16.3467   38.1637   78.8039 H   0  0  0  0  0  0  0  0  0  0  0  0
   16.7951   35.7562   77.0817 H   0  0  0  0  0  0  0  0  0  0  0  0
   15.4156   36.0259   78.1197 H   0  0  0  0  0  0  0  0  0  0  0  0
   17.0060   35.8248   78.8149 H   0  0  0  0  0  0  0  0  0  0  0  0
   18.5308   37.5620   76.8602 H   0  0  0  0  0  0  0  0  0  0  0  0
   18.6866   37.6129   78.5997 H   0  0  0  0  0  0  0  0  0  0  0  0
   18.2997   39.0687   77.7143 H   0  0  0  0  0  0  0  0  0  0  0  0
   14.9974   40.4381   72.2852 H   0  0  0  0  0  0  0  0  0  0  0  0
   15.9256   37.5942   71.8147 H   0  0  0  0  0  0  0  0  0  0  0  0
   16.0665   38.8971   70.7209 H   0  0  0  0  0  0  0  0  0  0  0  0
   17.8376   39.8880   72.0039 H   0  0  0  0  0  0  0  0  0  0  0  0
   18.2361   38.2303   71.9899 H   0  0  0  0  0  0  0  0  0  0  0  0
   17.9849   39.4775   74.3348 H   0  0  0  0  0  0  0  0  0  0  0  0
   17.3402   37.9106   74.2403 H   0  0  0  0  0  0  0  0  0  0  0  0
   13.1007   40.1051   71.4212 H   0  0  0  0  0  0  0  0  0  0  0  0
   11.0071   39.1108   72.7784 H   0  0  0  0  0  0  0  0  0  0  0  0
   11.3734   39.1665   69.7788 H   0  0  0  0  0  0  0  0  0  0  0  0
    8.7902   38.8913   71.2716 H   0  0  0  0  0  0  0  0  0  0  0  0
    9.5530   37.6525   70.3038 H   0  0  0  0  0  0  0  0  0  0  0  0
    8.9599   39.1112   69.5465 H   0  0  0  0  0  0  0  0  0  0  0  0
   10.0354   41.1032   71.6566 H   0  0  0  0  0  0  0  0  0  0  0  0
   10.1509   41.2854   69.9226 H   0  0  0  0  0  0  0  0  0  0  0  0
   11.5957   41.3320   70.9041 H   0  0  0  0  0  0  0  0  0  0  0  0
   12.7351   37.1638   70.3316 H   0  0  0  0  0  0  0  0  0  0  0  0
   11.0780   34.9351   70.7403 H   0  0  0  0  0  0  0  0  0  0  0  0
   13.8196   35.1752   69.5899 H   0  0  0  0  0  0  0  0  0  0  0  0
   12.9072   33.6363   69.6870 H   0  0  0  0  0  0  0  0  0  0  0  0
   11.7847   35.9848   68.2989 H   0  0  0  0  0  0  0  0  0  0  0  0
   13.5736   33.8507   67.1322 H   0  0  0  0  0  0  0  0  0  0  0  0
   13.9997   35.5357   67.3121 H   0  0  0  0  0  0  0  0  0  0  0  0
   12.7254   35.0695   66.2112 H   0  0  0  0  0  0  0  0  0  0  0  0
   11.3583   33.0251   67.9818 H   0  0  0  0  0  0  0  0  0  0  0  0
   10.5323   34.2770   67.0853 H   0  0  0  0  0  0  0  0  0  0  0  0
   10.2844   34.1280   68.8085 H   0  0  0  0  0  0  0  0  0  0  0  0
   14.0109   35.8613   72.4039 H   0  0  0  0  0  0  0  0  0  0  0  0
   13.6319   33.5632   74.2454 H   0  0  0  0  0  0  0  0  0  0  0  0
   14.0632   35.1647   74.7949 H   0  0  0  0  0  0  0  0  0  0  0  0
   15.2013   34.2265   73.8582 H   0  0  0  0  0  0  0  0  0  0  0  0
  1 36  1  0  0  0  0
  1 37  1  0  0  0  0
  1 38  1  0  0  0  0
  2  3  2  0  0  0  0
  2  1  1  0  0  0  0
  4  2  1  0  0  0  0
  4 39  1  0  0  0  0
  5  8  1  0  0  0  0
  5  4  1  0  0  0  0
  5 40  1  6  0  0  0
  6  5  1  0  0  0  0
  7  6  2  0  0  0  0
  8  9  1  0  0  0  0
  8 41  1  0  0  0  0
  8 42  1  0  0  0  0
  9 10  1  0  0  0  0
  9 43  1  0  0  0  0
 10 44  1  0  0  0  0
 10 45  1  0  0  0  0
 10 46  1  0  0  0  0
 11  9  1  0  0  0  0
 11 47  1  0  0  0  0
 11 48  1  0  0  0  0
 11 49  1  0  0  0  0
 12  6  1  0  0  0  0
 13 14  1  0  0  0  0
 13 12  1  0  0  0  0
 13 50  1  6  0  0  0
 14 15  2  0  0  0  0
 16 17  1  0  0  0  0
 16 13  1  0  0  0  0
 16 51  1  0  0  0  0
 16 52  1  0  0  0  0
 17 18  1  0  0  0  0
 17 53  1  0  0  0  0
 17 54  1  0  0  0  0
 18 12  1  0  0  0  0
 18 55  1  0  0  0  0
 18 56  1  0  0  0  0
 19 14  1  0  0  0  0
 19 57  1  0  0  0  0
 20 19  1  0  0  0  0
 20 58  1  1  0  0  0
 21 20  1  0  0  0  0
 21 22  2  0  0  0  0
 23 25  1  0  0  0  0
 23 20  1  0  0  0  0
 23 59  1  0  0  0  0
 24 23  1  0  0  0  0
 24 60  1  0  0  0  0
 24 61  1  0  0  0  0
 24 62  1  0  0  0  0
 25 63  1  0  0  0  0
 25 64  1  0  0  0  0
 25 65  1  0  0  0  0
 26 21  1  0  0  0  0
 26 66  1  0  0  0  0
 27 26  1  0  0  0  0
 27 28  1  0  0  0  0
 27 67  1  6  0  0  0
 28 29  2  0  0  0  0
 28 34  1  0  0  0  0
 30 27  1  0  0  0  0
 30 68  1  0  0  0  0
 30 69  1  0  0  0  0
 31 30  1  0  0  0  0
 31 70  1  0  0  0  0
 32 31  1  0  0  0  0
 32 71  1  0  0  0  0
 32 72  1  0  0  0  0
 32 73  1  0  0  0  0
 33 31  1  0  0  0  0
 33 74  1  0  0  0  0
 33 75  1  0  0  0  0
 33 76  1  0  0  0  0
 34 35  1  0  0  0  0
 34 77  1  0  0  0  0
 35 78  1  0  0  0  0
 35 79  1  0  0  0  0
 35 80  1  0  0  0  0
M  END
>  <MODEL>
       0

$$$$
selected_4mers/LPVL/551_noH.pdb
 OpenBabel03042518233D

 80 80  0  0  1  0  0  0  0  0999 V2000
   31.8690   59.8280   34.9370 C   0  0  0  0  0  0  0  0  0  0  0  0
   31.4350   58.8120   35.9510 C   0  0  0  0  0  0  0  0  0  0  0  0
   30.3410   58.2720   35.8530 O   0  0  0  0  0  0  0  0  0  0  0  0
   32.3360   58.4840   36.8840 N   0  0  0  0  0  0  0  0  0  0  0  0
   32.0830   57.4860   37.9050 C   0  0  2  0  0  0  0  0  0  0  0  0
   31.3680   58.1570   39.1070 C   0  0  0  0  0  0  0  0  0  0  0  0
   31.9830   59.0000   39.7560 O   0  0  0  0  0  0  0  0  0  0  0  0
   33.4380   56.8680   38.3110 C   0  0  0  0  0  0  0  0  0  0  0  0
   33.4350   55.8360   39.4360 C   0  0  0  0  0  0  0  0  0  0  0  0
   32.4450   54.7070   39.1820 C   0  0  0  0  0  0  0  0  0  0  0  0
   34.8230   55.2420   39.6080 C   0  0  0  0  0  0  0  0  0  0  0  0
   30.0940   57.7830   39.4150 N   0  0  0  0  0  0  0  0  0  0  0  0
   29.3700   58.4460   40.5160 C   0  0  2  0  0  0  0  0  0  0  0  0
   29.9500   58.1180   41.8790 C   0  0  0  0  0  0  0  0  0  0  0  0
   30.2540   56.9510   42.1670 O   0  0  0  0  0  0  0  0  0  0  0  0
   27.9270   57.9160   40.3940 C   0  0  0  0  0  0  0  0  0  0  0  0
   27.8090   57.4220   38.9750 C   0  0  0  0  0  0  0  0  0  0  0  0
   29.2090   56.8600   38.6780 C   0  0  0  0  0  0  0  0  0  0  0  0
   30.0440   59.1570   42.7240 N   0  0  0  0  0  0  0  0  0  0  0  0
   30.5270   59.0880   44.0990 C   0  0  2  0  0  0  0  0  0  0  0  0
   29.3300   59.4510   44.9780 C   0  0  0  0  0  0  0  0  0  0  0  0
   28.6430   60.4240   44.6580 O   0  0  0  0  0  0  0  0  0  0  0  0
   31.7300   60.0810   44.2780 C   0  0  0  0  0  0  0  0  0  0  0  0
   32.1950   60.1660   45.7390 C   0  0  0  0  0  0  0  0  0  0  0  0
   32.9000   59.6900   43.3700 C   0  0  0  0  0  0  0  0  0  0  0  0
   29.0750   58.6970   46.0550 N   0  0  0  0  0  0  0  0  0  0  0  0
   27.9750   58.9890   47.0000 C   0  0  2  0  0  0  0  0  0  0  0  0
   28.5010   59.2760   48.3710 C   0  0  0  0  0  0  0  0  0  0  0  0
   29.3800   58.5520   48.8270 O   0  0  0  0  0  0  0  0  0  0  0  0
   27.0290   57.7670   47.1490 C   0  0  0  0  0  0  0  0  0  0  0  0
   26.2850   57.1810   45.9630 C   0  0  0  0  0  0  0  0  0  0  0  0
   25.6290   55.8780   46.3640 C   0  0  0  0  0  0  0  0  0  0  0  0
   25.1960   58.1120   45.4600 C   0  0  0  0  0  0  0  0  0  0  0  0
   27.9130   60.2580   49.0760 N   0  0  0  0  0  0  0  0  0  0  0  0
   28.1940   60.5280   50.4870 C   0  0  0  0  0  0  0  0  0  0  0  0
   31.0703   60.0080   34.2480 H   0  0  0  0  0  0  0  0  0  0  0  0
   32.7220   59.4601   34.4060 H   0  0  0  0  0  0  0  0  0  0  0  0
   32.1243   60.7408   35.4334 H   0  0  0  0  0  0  0  0  0  0  0  0
   33.2085   58.9400   36.8770 H   0  0  0  0  0  0  0  0  0  0  0  0
   31.4439   56.7073   37.5443 H   0  0  0  0  0  0  0  0  0  0  0  0
   34.0778   57.6703   38.6141 H   0  0  0  0  0  0  0  0  0  0  0  0
   33.7599   56.3264   37.4461 H   0  0  0  0  0  0  0  0  0  0  0  0
   33.1363   56.3496   40.3259 H   0  0  0  0  0  0  0  0  0  0  0  0
   32.7259   54.1793   38.2946 H   0  0  0  0  0  0  0  0  0  0  0  0
   31.4633   55.1144   39.0591 H   0  0  0  0  0  0  0  0  0  0  0  0
   32.4503   54.0341   40.0139 H   0  0  0  0  0  0  0  0  0  0  0  0
   35.1066   54.7326   38.7108 H   0  0  0  0  0  0  0  0  0  0  0  0
   34.8162   54.5501   40.4241 H   0  0  0  0  0  0  0  0  0  0  0  0
   35.5235   56.0251   39.8102 H   0  0  0  0  0  0  0  0  0  0  0  0
   29.4361   59.5112   40.4391 H   0  0  0  0  0  0  0  0  0  0  0  0
   27.7608   57.1163   41.0852 H   0  0  0  0  0  0  0  0  0  0  0  0
   27.2023   58.6709   40.6173 H   0  0  0  0  0  0  0  0  0  0  0  0
   27.0645   56.6575   38.8960 H   0  0  0  0  0  0  0  0  0  0  0  0
   27.5109   58.1871   38.2889 H   0  0  0  0  0  0  0  0  0  0  0  0
   29.4182   56.8807   37.6288 H   0  0  0  0  0  0  0  0  0  0  0  0
   29.3259   55.8372   38.9696 H   0  0  0  0  0  0  0  0  0  0  0  0
   29.7637   60.0389   42.3879 H   0  0  0  0  0  0  0  0  0  0  0  0
   30.8944   58.1193   44.3667 H   0  0  0  0  0  0  0  0  0  0  0  0
   31.3798   61.0510   43.9929 H   0  0  0  0  0  0  0  0  0  0  0  0
   32.5524   59.2085   46.0558 H   0  0  0  0  0  0  0  0  0  0  0  0
   31.3742   60.4629   46.3578 H   0  0  0  0  0  0  0  0  0  0  0  0
   32.9824   60.8858   45.8214 H   0  0  0  0  0  0  0  0  0  0  0  0
   33.2580   58.7205   43.6471 H   0  0  0  0  0  0  0  0  0  0  0  0
   33.6887   60.4052   43.4765 H   0  0  0  0  0  0  0  0  0  0  0  0
   32.5707   59.6712   42.3521 H   0  0  0  0  0  0  0  0  0  0  0  0
   29.6454   57.9129   46.2255 H   0  0  0  0  0  0  0  0  0  0  0  0
   27.4562   59.8355   46.6012 H   0  0  0  0  0  0  0  0  0  0  0  0
   27.6239   56.9741   47.5518 H   0  0  0  0  0  0  0  0  0  0  0  0
   26.2324   58.1682   47.7401 H   0  0  0  0  0  0  0  0  0  0  0  0
   27.0038   57.0309   45.1847 H   0  0  0  0  0  0  0  0  0  0  0  0
   24.9175   56.0615   47.1418 H   0  0  0  0  0  0  0  0  0  0  0  0
   26.3750   55.1967   46.7164 H   0  0  0  0  0  0  0  0  0  0  0  0
   25.1305   55.4543   45.5173 H   0  0  0  0  0  0  0  0  0  0  0  0
   24.4734   58.2665   46.2338 H   0  0  0  0  0  0  0  0  0  0  0  0
   24.7184   57.6748   44.6081 H   0  0  0  0  0  0  0  0  0  0  0  0
   25.6288   59.0507   45.1836 H   0  0  0  0  0  0  0  0  0  0  0  0
   27.2553   60.8287   48.6167 H   0  0  0  0  0  0  0  0  0  0  0  0
   28.9231   59.8315   50.8451 H   0  0  0  0  0  0  0  0  0  0  0  0
   27.2936   60.4258   51.0559 H   0  0  0  0  0  0  0  0  0  0  0  0
   28.5707   61.5240   50.5914 H   0  0  0  0  0  0  0  0  0  0  0  0
  1  2  1  0  0  0  0
  1 36  1  0  0  0  0
  1 37  1  0  0  0  0
  1 38  1  0  0  0  0
  2  4  1  0  0  0  0
  3  2  2  0  0  0  0
  4  5  1  0  0  0  0
  4 39  1  0  0  0  0
  5  8  1  0  0  0  0
  5  6  1  0  0  0  0
  5 40  1  6  0  0  0
  6 12  1  0  0  0  0
  6  7  2  0  0  0  0
  8  9  1  0  0  0  0
  8 41  1  0  0  0  0
  8 42  1  0  0  0  0
  9 11  1  0  0  0  0
  9 43  1  0  0  0  0
 10  9  1  0  0  0  0
 10 44  1  0  0  0  0
 10 45  1  0  0  0  0
 10 46  1  0  0  0  0
 11 47  1  0  0  0  0
 11 48  1  0  0  0  0
 11 49  1  0  0  0  0
 12 13  1  0  0  0  0
 13 14  1  0  0  0  0
 13 50  1  6  0  0  0
 14 15  2  0  0  0  0
 14 19  1  0  0  0  0
 16 13  1  0  0  0  0
 16 51  1  0  0  0  0
 16 52  1  0  0  0  0
 17 16  1  0  0  0  0
 17 53  1  0  0  0  0
 17 54  1  0  0  0  0
 18 17  1  0  0  0  0
 18 12  1  0  0  0  0
 18 55  1  0  0  0  0
 18 56  1  0  0  0  0
 19 20  1  0  0  0  0
 19 57  1  0  0  0  0
 20 23  1  0  0  0  0
 20 21  1  0  0  0  0
 20 58  1  1  0  0  0
 21 26  1  0  0  0  0
 22 21  2  0  0  0  0
 23 24  1  0  0  0  0
 23 59  1  0  0  0  0
 24 60  1  0  0  0  0
 24 61  1  0  0  0  0
 24 62  1  0  0  0  0
 25 23  1  0  0  0  0
 25 63  1  0  0  0  0
 25 64  1  0  0  0  0
 25 65  1  0  0  0  0
 26 27  1  0  0  0  0
 26 66  1  0  0  0  0
 27 30  1  0  0  0  0
 27 28  1  0  0  0  0
 27 67  1  6  0  0  0
 28 29  2  0  0  0  0
 28 34  1  0  0  0  0
 30 68  1  0  0  0  0
 30 69  1  0  0  0  0
 31 32  1  0  0  0  0
 31 30  1  0  0  0  0
 31 70  1  0  0  0  0
 32 71  1  0  0  0  0
 32 72  1  0  0  0  0
 32 73  1  0  0  0  0
 33 31  1  0  0  0  0
 33 74  1  0  0  0  0
 33 75  1  0  0  0  0
 33 76  1  0  0  0  0
 34 35  1  0  0  0  0
 34 77  1  0  0  0  0
 35 78  1  0  0  0  0
 35 79  1  0  0  0  0
 35 80  1  0  0  0  0
M  END
>  <MODEL>
       0

$$$$
selected_4mers/LPVL/552_noH.pdb
 OpenBabel03042518233D

 80 80  0  0  1  0  0  0  0  0999 V2000
    4.4550   44.6150   37.1440 C   0  0  0  0  0  0  0  0  0  0  0  0
    4.1500   43.4770   38.1020 C   0  0  0  0  0  0  0  0  0  0  0  0
    3.6890   43.7070   39.2240 O   0  0  0  0  0  0  0  0  0  0  0  0
    4.4040   42.2440   37.6640 N   0  0  0  0  0  0  0  0  0  0  0  0
    4.1470   41.0650   38.4930 C   0  0  2  0  0  0  0  0  0  0  0  0
    5.3590   40.6890   39.3380 C   0  0  0  0  0  0  0  0  0  0  0  0
    6.4530   40.4800   38.8170 O   0  0  0  0  0  0  0  0  0  0  0  0
    3.7370   39.8830   37.6140 C   0  0  0  0  0  0  0  0  0  0  0  0
    2.4300   40.0650   36.8470 C   0  0  0  0  0  0  0  0  0  0  0  0
    2.2250   38.9240   35.8540 C   0  0  0  0  0  0  0  0  0  0  0  0
    1.2380   40.1690   37.8050 C   0  0  0  0  0  0  0  0  0  0  0  0
    5.1660   40.6040   40.6580 N   0  0  0  0  0  0  0  0  0  0  0  0
    6.2700   40.1920   41.5300 C   0  0  2  0  0  0  0  0  0  0  0  0
    6.7420   38.7850   41.1890 C   0  0  0  0  0  0  0  0  0  0  0  0
    5.9170   37.8920   40.9790 O   0  0  0  0  0  0  0  0  0  0  0  0
    5.6380   40.2040   42.9240 C   0  0  0  0  0  0  0  0  0  0  0  0
    4.5020   41.1660   42.8160 C   0  0  0  0  0  0  0  0  0  0  0  0
    3.9710   41.0020   41.4210 C   0  0  0  0  0  0  0  0  0  0  0  0
    8.0530   38.5990   41.1320 N   0  0  0  0  0  0  0  0  0  0  0  0
    8.6360   37.2940   40.8080 C   0  0  2  0  0  0  0  0  0  0  0  0
    8.7460   36.4240   42.0640 C   0  0  0  0  0  0  0  0  0  0  0  0
    9.3570   36.8220   43.0570 O   0  0  0  0  0  0  0  0  0  0  0  0
   10.0220   37.4500   40.1470 C   0  0  0  0  0  0  0  0  0  0  0  0
   10.7040   36.0970   39.9680 C   0  0  0  0  0  0  0  0  0  0  0  0
    9.9020   38.1730   38.8000 C   0  0  0  0  0  0  0  0  0  0  0  0
    8.1350   35.2420   42.0240 N   0  0  0  0  0  0  0  0  0  0  0  0
    8.2080   34.2980   43.1380 C   0  0  2  0  0  0  0  0  0  0  0  0
    9.4700   33.4480   43.0510 C   0  0  0  0  0  0  0  0  0  0  0  0
   10.1030   33.1380   44.0570 O   0  0  0  0  0  0  0  0  0  0  0  0
    6.9780   33.3970   43.1410 C   0  0  0  0  0  0  0  0  0  0  0  0
    6.9210   32.3560   44.2590 C   0  0  0  0  0  0  0  0  0  0  0  0
    6.9490   33.0230   45.6370 C   0  0  0  0  0  0  0  0  0  0  0  0
    5.6750   31.4980   44.1040 C   0  0  0  0  0  0  0  0  0  0  0  0
    9.8440   33.0620   41.8380 N   0  0  0  0  0  0  0  0  0  0  0  0
   11.0370   32.2540   41.6650 C   0  0  0  0  0  0  0  0  0  0  0  0
    4.8444   44.2173   36.2302 H   0  0  0  0  0  0  0  0  0  0  0  0
    5.1781   45.2686   37.5853 H   0  0  0  0  0  0  0  0  0  0  0  0
    3.5574   45.1610   36.9414 H   0  0  0  0  0  0  0  0  0  0  0  0
    4.7740   42.1230   36.7597 H   0  0  0  0  0  0  0  0  0  0  0  0
    3.3475   41.3090   39.1610 H   0  0  0  0  0  0  0  0  0  0  0  0
    4.5176   39.7137   36.9020 H   0  0  0  0  0  0  0  0  0  0  0  0
    3.5785   39.0599   38.2790 H   0  0  0  0  0  0  0  0  0  0  0  0
    2.4939   40.9821   36.2995 H   0  0  0  0  0  0  0  0  0  0  0  0
    2.1587   37.9971   36.3845 H   0  0  0  0  0  0  0  0  0  0  0  0
    3.0519   38.8885   35.1758 H   0  0  0  0  0  0  0  0  0  0  0  0
    1.3207   39.0866   35.3056 H   0  0  0  0  0  0  0  0  0  0  0  0
    1.1514   39.2622   38.3663 H   0  0  0  0  0  0  0  0  0  0  0  0
    0.3414   40.3275   37.2429 H   0  0  0  0  0  0  0  0  0  0  0  0
    1.3891   40.9899   38.4745 H   0  0  0  0  0  0  0  0  0  0  0  0
    7.1261   40.8272   41.4380 H   0  0  0  0  0  0  0  0  0  0  0  0
    6.3447   40.5351   43.6560 H   0  0  0  0  0  0  0  0  0  0  0  0
    5.3168   39.2308   43.2315 H   0  0  0  0  0  0  0  0  0  0  0  0
    3.7444   40.9327   43.5347 H   0  0  0  0  0  0  0  0  0  0  0  0
    4.8130   42.1717   43.0074 H   0  0  0  0  0  0  0  0  0  0  0  0
    3.2189   40.2419   41.3824 H   0  0  0  0  0  0  0  0  0  0  0  0
    3.5023   41.8856   41.0410 H   0  0  0  0  0  0  0  0  0  0  0  0
    8.6522   39.3590   41.3124 H   0  0  0  0  0  0  0  0  0  0  0  0
    7.9843   36.8114   40.1099 H   0  0  0  0  0  0  0  0  0  0  0  0
   10.6295   38.0428   40.7984 H   0  0  0  0  0  0  0  0  0  0  0  0
   10.1147   35.4836   39.3188 H   0  0  0  0  0  0  0  0  0  0  0  0
   10.8016   35.6181   40.9198 H   0  0  0  0  0  0  0  0  0  0  0  0
   11.6740   36.2404   39.5398 H   0  0  0  0  0  0  0  0  0  0  0  0
    9.2964   37.5921   38.1361 H   0  0  0  0  0  0  0  0  0  0  0  0
   10.8759   38.3000   38.3754 H   0  0  0  0  0  0  0  0  0  0  0  0
    9.4500   39.1314   38.9486 H   0  0  0  0  0  0  0  0  0  0  0  0
    7.6196   34.9967   41.2219 H   0  0  0  0  0  0  0  0  0  0  0  0
    8.2399   34.8587   44.0488 H   0  0  0  0  0  0  0  0  0  0  0  0
    6.9491   32.8772   42.2062 H   0  0  0  0  0  0  0  0  0  0  0  0
    6.1423   34.0452   43.3034 H   0  0  0  0  0  0  0  0  0  0  0  0
    7.7858   31.7305   44.1835 H   0  0  0  0  0  0  0  0  0  0  0  0
    6.0939   33.6574   45.7436 H   0  0  0  0  0  0  0  0  0  0  0  0
    7.8405   33.6070   45.7325 H   0  0  0  0  0  0  0  0  0  0  0  0
    6.9321   32.2708   46.3978 H   0  0  0  0  0  0  0  0  0  0  0  0
    4.8048   32.1162   44.1783 H   0  0  0  0  0  0  0  0  0  0  0  0
    5.6535   30.7576   44.8761 H   0  0  0  0  0  0  0  0  0  0  0  0
    5.6900   31.0166   43.1485 H   0  0  0  0  0  0  0  0  0  0  0  0
    9.3108   33.3244   41.0531 H   0  0  0  0  0  0  0  0  0  0  0  0
   11.4835   32.0683   42.6195 H   0  0  0  0  0  0  0  0  0  0  0  0
   11.7330   32.7746   41.0409 H   0  0  0  0  0  0  0  0  0  0  0  0
   10.7741   31.3233   41.2071 H   0  0  0  0  0  0  0  0  0  0  0  0
  1  2  1  0  0  0  0
  1 36  1  0  0  0  0
  1 37  1  0  0  0  0
  1 38  1  0  0  0  0
  2  3  2  0  0  0  0
  4  2  1  0  0  0  0
  4  5  1  0  0  0  0
  4 39  1  0  0  0  0
  5  6  1  0  0  0  0
  5 40  1  1  0  0  0
  6 12  1  0  0  0  0
  7  6  2  0  0  0  0
  8  5  1  0  0  0  0
  8 41  1  0  0  0  0
  8 42  1  0  0  0  0
  9  8  1  0  0  0  0
  9 11  1  0  0  0  0
  9 43  1  0  0  0  0
 10  9  1  0  0  0  0
 10 44  1  0  0  0  0
 10 45  1  0  0  0  0
 10 46  1  0  0  0  0
 11 47  1  0  0  0  0
 11 48  1  0  0  0  0
 11 49  1  0  0  0  0
 12 18  1  0  0  0  0
 12 13  1  0  0  0  0
 13 16  1  0  0  0  0
 13 50  1  6  0  0  0
 14 13  1  0  0  0  0
 15 14  2  0  0  0  0
 16 51  1  0  0  0  0
 16 52  1  0  0  0  0
 17 16  1  0  0  0  0
 17 53  1  0  0  0  0
 17 54  1  0  0  0  0
 18 17  1  0  0  0  0
 18 55  1  0  0  0  0
 18 56  1  0  0  0  0
 19 14  1  0  0  0  0
 19 57  1  0  0  0  0
 20 19  1  0  0  0  0
 20 21  1  0  0  0  0
 20 58  1  6  0  0  0
 21 22  2  0  0  0  0
 23 20  1  0  0  0  0
 23 59  1  0  0  0  0
 24 23  1  0  0  0  0
 24 60  1  0  0  0  0
 24 61  1  0  0  0  0
 24 62  1  0  0  0  0
 25 23  1  0  0  0  0
 25 63  1  0  0  0  0
 25 64  1  0  0  0  0
 25 65  1  0  0  0  0
 26 21  1  0  0  0  0
 26 27  1  0  0  0  0
 26 66  1  0  0  0  0
 27 30  1  0  0  0  0
 27 67  1  1  0  0  0
 28 27  1  0  0  0  0
 28 29  2  0  0  0  0
 30 31  1  0  0  0  0
 30 68  1  0  0  0  0
 30 69  1  0  0  0  0
 31 32  1  0  0  0  0
 31 70  1  0  0  0  0
 32 71  1  0  0  0  0
 32 72  1  0  0  0  0
 32 73  1  0  0  0  0
 33 31  1  0  0  0  0
 33 74  1  0  0  0  0
 33 75  1  0  0  0  0
 33 76  1  0  0  0  0
 34 28  1  0  0  0  0
 34 77  1  0  0  0  0
 35 34  1  0  0  0  0
 35 78  1  0  0  0  0
 35 79  1  0  0  0  0
 35 80  1  0  0  0  0
M  END
>  <MODEL>
       0

$$$$
selected_4mers/LPVL/553_noH.pdb
 OpenBabel03042518233D

 80 80  0  0  1  0  0  0  0  0999 V2000
   23.3270   28.5360   68.3880 C   0  0  0  0  0  0  0  0  0  0  0  0
   23.2720   26.9980   68.4920 C   0  0  0  0  0  0  0  0  0  0  0  0
   23.1260   26.4620   69.6010 O   0  0  0  0  0  0  0  0  0  0  0  0
   23.4010   26.2880   67.3650 N   0  0  0  0  0  0  0  0  0  0  0  0
   23.2530   24.8380   67.4030 C   0  0  2  0  0  0  0  0  0  0  0  0
   24.2560   24.1650   68.3490 C   0  0  0  0  0  0  0  0  0  0  0  0
   23.8570   23.2500   69.0700 O   0  0  0  0  0  0  0  0  0  0  0  0
   23.3060   24.1950   66.0050 C   0  0  0  0  0  0  0  0  0  0  0  0
   22.9070   22.7140   65.9630 C   0  0  0  0  0  0  0  0  0  0  0  0
   21.5000   22.4760   66.6140 C   0  0  0  0  0  0  0  0  0  0  0  0
   22.9340   22.1770   64.5290 C   0  0  0  0  0  0  0  0  0  0  0  0
   25.5470   24.6010   68.3610 N   0  0  0  0  0  0  0  0  0  0  0  0
   26.4800   23.9380   69.2890 C   0  0  2  0  0  0  0  0  0  0  0  0
   26.0750   24.1130   70.7620 C   0  0  0  0  0  0  0  0  0  0  0  0
   26.2720   23.2090   71.5640 O   0  0  0  0  0  0  0  0  0  0  0  0
   27.8100   24.6530   69.0220 C   0  0  0  0  0  0  0  0  0  0  0  0
   27.7520   25.0190   67.6040 C   0  0  0  0  0  0  0  0  0  0  0  0
   26.2830   25.4130   67.3690 C   0  0  0  0  0  0  0  0  0  0  0  0
   25.5520   25.2830   71.1140 N   0  0  0  0  0  0  0  0  0  0  0  0
   25.0820   25.5360   72.4740 C   0  0  2  0  0  0  0  0  0  0  0  0
   23.8160   24.7120   72.7460 C   0  0  0  0  0  0  0  0  0  0  0  0
   23.6740   24.1260   73.8140 O   0  0  0  0  0  0  0  0  0  0  0  0
   24.7980   27.0600   72.7280 C   0  0  0  0  0  0  0  0  0  0  0  0
   24.1330   27.2700   74.0560 C   0  0  0  0  0  0  0  0  0  0  0  0
   26.0880   27.8600   72.6970 C   0  0  0  0  0  0  0  0  0  0  0  0
   22.9050   24.6650   71.7820 N   0  0  0  0  0  0  0  0  0  0  0  0
   21.6810   23.8510   71.9180 C   0  0  2  0  0  0  0  0  0  0  0  0
   21.9400   22.3440   72.0050 C   0  0  0  0  0  0  0  0  0  0  0  0
   21.2410   21.6210   72.7050 O   0  0  0  0  0  0  0  0  0  0  0  0
   20.6740   24.1700   70.8020 C   0  0  0  0  0  0  0  0  0  0  0  0
   20.0950   25.5990   70.8040 C   0  0  0  0  0  0  0  0  0  0  0  0
   19.1080   25.7960   69.6200 C   0  0  0  0  0  0  0  0  0  0  0  0
   19.4360   25.9280   72.1430 C   0  0  0  0  0  0  0  0  0  0  0  0
   22.9500   21.8700   71.2920 N   0  0  0  0  0  0  0  0  0  0  0  0
   23.3780   20.4800   71.4450 C   0  0  0  0  0  0  0  0  0  0  0  0
   23.4559   28.8199   67.3644 H   0  0  0  0  0  0  0  0  0  0  0  0
   24.1489   28.9034   68.9663 H   0  0  0  0  0  0  0  0  0  0  0  0
   22.4143   28.9516   68.7612 H   0  0  0  0  0  0  0  0  0  0  0  0
   23.5950   26.7429   66.5137 H   0  0  0  0  0  0  0  0  0  0  0  0
   22.2730   24.6665   67.7969 H   0  0  0  0  0  0  0  0  0  0  0  0
   22.6425   24.7369   65.3639 H   0  0  0  0  0  0  0  0  0  0  0  0
   24.3277   24.2410   65.6906 H   0  0  0  0  0  0  0  0  0  0  0  0
   23.6293   22.1742   66.5390 H   0  0  0  0  0  0  0  0  0  0  0  0
   20.7553   23.0055   66.0573 H   0  0  0  0  0  0  0  0  0  0  0  0
   21.5096   22.8303   67.6236 H   0  0  0  0  0  0  0  0  0  0  0  0
   21.2753   21.4299   66.6052 H   0  0  0  0  0  0  0  0  0  0  0  0
   22.2168   22.7057   63.9366 H   0  0  0  0  0  0  0  0  0  0  0  0
   22.6934   21.1344   64.5340 H   0  0  0  0  0  0  0  0  0  0  0  0
   23.9107   22.3157   64.1145 H   0  0  0  0  0  0  0  0  0  0  0  0
   26.5100   22.8802   69.1308 H   0  0  0  0  0  0  0  0  0  0  0  0
   27.8997   25.5258   69.6345 H   0  0  0  0  0  0  0  0  0  0  0  0
   28.6554   24.0376   69.2490 H   0  0  0  0  0  0  0  0  0  0  0  0
   28.4024   25.8435   67.3991 H   0  0  0  0  0  0  0  0  0  0  0  0
   28.0673   24.2214   66.9641 H   0  0  0  0  0  0  0  0  0  0  0  0
   25.9764   25.1708   66.3729 H   0  0  0  0  0  0  0  0  0  0  0  0
   26.1099   26.4632   67.4781 H   0  0  0  0  0  0  0  0  0  0  0  0
   25.4794   25.9977   70.4409 H   0  0  0  0  0  0  0  0  0  0  0  0
   25.8595   25.2403   73.1470 H   0  0  0  0  0  0  0  0  0  0  0  0
   24.1470   27.3962   71.9482 H   0  0  0  0  0  0  0  0  0  0  0  0
   24.7826   26.9343   74.8372 H   0  0  0  0  0  0  0  0  0  0  0  0
   23.2189   26.7147   74.0889 H   0  0  0  0  0  0  0  0  0  0  0  0
   23.9231   28.3107   74.1892 H   0  0  0  0  0  0  0  0  0  0  0  0
   26.7365   27.5214   73.4778 H   0  0  0  0  0  0  0  0  0  0  0  0
   25.8680   28.8972   72.8408 H   0  0  0  0  0  0  0  0  0  0  0  0
   26.5686   27.7252   71.7506 H   0  0  0  0  0  0  0  0  0  0  0  0
   23.0487   25.1844   70.9581 H   0  0  0  0  0  0  0  0  0  0  0  0
   21.2568   24.1293   72.8601 H   0  0  0  0  0  0  0  0  0  0  0  0
   21.1653   24.0169   69.8639 H   0  0  0  0  0  0  0  0  0  0  0  0
   19.8407   23.5203   70.9703 H   0  0  0  0  0  0  0  0  0  0  0  0
   20.9054   26.2850   70.6715 H   0  0  0  0  0  0  0  0  0  0  0  0
   18.2846   25.1210   69.7260 H   0  0  0  0  0  0  0  0  0  0  0  0
   19.6137   25.5997   68.6977 H   0  0  0  0  0  0  0  0  0  0  0  0
   18.7462   26.8030   69.6211 H   0  0  0  0  0  0  0  0  0  0  0  0
   18.6174   25.2599   72.3113 H   0  0  0  0  0  0  0  0  0  0  0  0
   19.0763   26.9356   72.1255 H   0  0  0  0  0  0  0  0  0  0  0  0
   20.1530   25.8189   72.9297 H   0  0  0  0  0  0  0  0  0  0  0  0
   23.4162   22.4575   70.6543 H   0  0  0  0  0  0  0  0  0  0  0  0
   22.7632   19.9958   72.1747 H   0  0  0  0  0  0  0  0  0  0  0  0
   24.3988   20.4543   71.7649 H   0  0  0  0  0  0  0  0  0  0  0  0
   23.2852   19.9729   70.5074 H   0  0  0  0  0  0  0  0  0  0  0  0
  1  2  1  0  0  0  0
  1 36  1  0  0  0  0
  1 37  1  0  0  0  0
  1 38  1  0  0  0  0
  2  3  2  0  0  0  0
  4  5  1  0  0  0  0
  4  2  1  0  0  0  0
  4 39  1  0  0  0  0
  5  6  1  0  0  0  0
  5 40  1  1  0  0  0
  6 12  1  0  0  0  0
  6  7  2  0  0  0  0
  8  5  1  0  0  0  0
  8 41  1  0  0  0  0
  8 42  1  0  0  0  0
  9  8  1  0  0  0  0
  9 10  1  0  0  0  0
  9 43  1  0  0  0  0
 10 44  1  0  0  0  0
 10 45  1  0  0  0  0
 10 46  1  0  0  0  0
 11  9  1  0  0  0  0
 11 47  1  0  0  0  0
 11 48  1  0  0  0  0
 11 49  1  0  0  0  0
 12 13  1  0  0  0  0
 13 14  1  0  0  0  0
 13 50  1  6  0  0  0
 14 19  1  0  0  0  0
 14 15  2  0  0  0  0
 16 13  1  0  0  0  0
 16 51  1  0  0  0  0
 16 52  1  0  0  0  0
 17 16  1  0  0  0  0
 17 53  1  0  0  0  0
 17 54  1  0  0  0  0
 18 17  1  0  0  0  0
 18 12  1  0  0  0  0
 18 55  1  0  0  0  0
 18 56  1  0  0  0  0
 19 20  1  0  0  0  0
 19 57  1  0  0  0  0
 20 23  1  0  0  0  0
 20 21  1  0  0  0  0
 20 58  1  1  0  0  0
 21 22  2  0  0  0  0
 23 24  1  0  0  0  0
 23 59  1  0  0  0  0
 24 60  1  0  0  0  0
 24 61  1  0  0  0  0
 24 62  1  0  0  0  0
 25 23  1  0  0  0  0
 25 63  1  0  0  0  0
 25 64  1  0  0  0  0
 25 65  1  0  0  0  0
 26 27  1  0  0  0  0
 26 21  1  0  0  0  0
 26 66  1  0  0  0  0
 27 28  1  0  0  0  0
 27 67  1  1  0  0  0
 28 29  2  0  0  0  0
 30 31  1  0  0  0  0
 30 27  1  0  0  0  0
 30 68  1  0  0  0  0
 30 69  1  0  0  0  0
 31 33  1  0  0  0  0
 31 70  1  0  0  0  0
 32 31  1  0  0  0  0
 32 71  1  0  0  0  0
 32 72  1  0  0  0  0
 32 73  1  0  0  0  0
 33 74  1  0  0  0  0
 33 75  1  0  0  0  0
 33 76  1  0  0  0  0
 34 35  1  0  0  0  0
 34 28  1  0  0  0  0
 34 77  1  0  0  0  0
 35 78  1  0  0  0  0
 35 79  1  0  0  0  0
 35 80  1  0  0  0  0
M  END
>  <MODEL>
       0

$$$$
selected_4mers/LPVL/554_noH.pdb
 OpenBabel03042518233D

 80 80  0  0  1  0  0  0  0  0999 V2000
   89.7110   32.5610   30.9820 C   0  0  0  0  0  0  0  0  0  0  0  0
   90.7230   33.7110   30.9960 C   0  0  0  0  0  0  0  0  0  0  0  0
   90.7950   34.5100   30.0600 O   0  0  0  0  0  0  0  0  0  0  0  0
   91.4860   33.7860   32.0830 N   0  0  0  0  0  0  0  0  0  0  0  0
   92.5590   34.7610   32.2400 C   0  0  2  0  0  0  0  0  0  0  0  0
   93.6860   33.8080   32.6320 C   0  0  0  0  0  0  0  0  0  0  0  0
   94.0600   33.7210   33.8080 O   0  0  0  0  0  0  0  0  0  0  0  0
   92.2580   35.7330   33.3820 C   0  0  0  0  0  0  0  0  0  0  0  0
   90.9550   36.5250   33.2370 C   0  0  0  0  0  0  0  0  0  0  0  0
   90.8080   37.4190   34.4450 C   0  0  0  0  0  0  0  0  0  0  0  0
   90.9660   37.3390   31.9550 C   0  0  0  0  0  0  0  0  0  0  0  0
   94.2320   33.0830   31.6400 N   0  0  0  0  0  0  0  0  0  0  0  0
   95.3030   32.0850   31.7300 C   0  0  2  0  0  0  0  0  0  0  0  0
   96.6140   32.4020   32.4470 C   0  0  0  0  0  0  0  0  0  0  0  0
   97.2790   31.4750   32.9230 O   0  0  0  0  0  0  0  0  0  0  0  0
   95.5310   31.6990   30.2730 C   0  0  0  0  0  0  0  0  0  0  0  0
   95.2690   32.9670   29.5570 C   0  0  0  0  0  0  0  0  0  0  0  0
   93.9980   33.4480   30.2300 C   0  0  0  0  0  0  0  0  0  0  0  0
   97.0040   33.6720   32.5230 N   0  0  0  0  0  0  0  0  0  0  0  0
   98.2510   33.9980   33.2020 C   0  0  2  0  0  0  0  0  0  0  0  0
   98.0890   34.9220   34.3960 C   0  0  0  0  0  0  0  0  0  0  0  0
   99.0680   35.4870   34.8860 O   0  0  0  0  0  0  0  0  0  0  0  0
   99.3050   34.6030   32.2200 C   0  0  0  0  0  0  0  0  0  0  0  0
   99.6350   33.5870   31.1460 C   0  0  0  0  0  0  0  0  0  0  0  0
   98.8070   35.9070   31.5890 C   0  0  0  0  0  0  0  0  0  0  0  0
   96.8620   35.0820   34.8810 N   0  0  0  0  0  0  0  0  0  0  0  0
   96.6640   35.9480   36.0380 C   0  0  2  0  0  0  0  0  0  0  0  0
   97.2670   35.2650   37.2670 C   0  0  0  0  0  0  0  0  0  0  0  0
   96.8700   34.1560   37.6180 O   0  0  0  0  0  0  0  0  0  0  0  0
   95.1750   36.2110   36.2850 C   0  0  0  0  0  0  0  0  0  0  0  0
   94.8980   37.2940   37.3300 C   0  0  0  0  0  0  0  0  0  0  0  0
   95.2890   38.6570   36.7600 C   0  0  0  0  0  0  0  0  0  0  0  0
   93.4260   37.2910   37.7160 C   0  0  0  0  0  0  0  0  0  0  0  0
   98.2160   35.9290   37.9180 N   0  0  0  0  0  0  0  0  0  0  0  0
   98.8350   35.3480   39.0940 C   0  0  0  0  0  0  0  0  0  0  0  0
   89.1511   32.5897   30.0706 H   0  0  0  0  0  0  0  0  0  0  0  0
   89.0448   32.6620   31.8132 H   0  0  0  0  0  0  0  0  0  0  0  0
   90.2302   31.6281   31.0524 H   0  0  0  0  0  0  0  0  0  0  0  0
   91.3181   33.1523   32.8175 H   0  0  0  0  0  0  0  0  0  0  0  0
   92.7436   35.3845   31.3902 H   0  0  0  0  0  0  0  0  0  0  0  0
   93.0655   36.4323   33.4432 H   0  0  0  0  0  0  0  0  0  0  0  0
   92.1450   35.1332   34.2608 H   0  0  0  0  0  0  0  0  0  0  0  0
   90.1219   35.8558   33.1817 H   0  0  0  0  0  0  0  0  0  0  0  0
   91.6421   38.0871   34.4979 H   0  0  0  0  0  0  0  0  0  0  0  0
   90.7745   36.8193   35.3305 H   0  0  0  0  0  0  0  0  0  0  0  0
   89.9031   37.9841   34.3625 H   0  0  0  0  0  0  0  0  0  0  0  0
   91.7889   38.0226   31.9736 H   0  0  0  0  0  0  0  0  0  0  0  0
   90.0500   37.8857   31.8717 H   0  0  0  0  0  0  0  0  0  0  0  0
   91.0669   36.6822   31.1163 H   0  0  0  0  0  0  0  0  0  0  0  0
   94.9667   31.3160   32.3936 H   0  0  0  0  0  0  0  0  0  0  0  0
   96.5356   31.3666   30.1144 H   0  0  0  0  0  0  0  0  0  0  0  0
   94.9117   30.8902   29.9456 H   0  0  0  0  0  0  0  0  0  0  0  0
   96.0695   33.6638   29.6934 H   0  0  0  0  0  0  0  0  0  0  0  0
   95.1815   32.8551   28.4965 H   0  0  0  0  0  0  0  0  0  0  0  0
   93.1380   32.9467   29.8375 H   0  0  0  0  0  0  0  0  0  0  0  0
   93.8033   34.4899   30.0836 H   0  0  0  0  0  0  0  0  0  0  0  0
   96.4547   34.3849   32.1239 H   0  0  0  0  0  0  0  0  0  0  0  0
   98.6014   33.0591   33.5769 H   0  0  0  0  0  0  0  0  0  0  0  0
  100.1886   34.8366   32.7765 H   0  0  0  0  0  0  0  0  0  0  0  0
   98.7503   33.3548   30.5907 H   0  0  0  0  0  0  0  0  0  0  0  0
  100.0139   32.6963   31.6020 H   0  0  0  0  0  0  0  0  0  0  0  0
  100.3739   33.9922   30.4866 H   0  0  0  0  0  0  0  0  0  0  0  0
   97.9207   35.7130   31.0218 H   0  0  0  0  0  0  0  0  0  0  0  0
   99.5636   36.3029   30.9442 H   0  0  0  0  0  0  0  0  0  0  0  0
   98.5889   36.6159   32.3602 H   0  0  0  0  0  0  0  0  0  0  0  0
   96.0972   34.6223   34.4651 H   0  0  0  0  0  0  0  0  0  0  0  0
   97.1420   36.8872   35.8527 H   0  0  0  0  0  0  0  0  0  0  0  0
   94.7232   35.2997   36.6173 H   0  0  0  0  0  0  0  0  0  0  0  0
   94.7656   36.5615   35.3607 H   0  0  0  0  0  0  0  0  0  0  0  0
   95.4778   37.0949   38.2069 H   0  0  0  0  0  0  0  0  0  0  0  0
   94.7093   38.8564   35.8830 H   0  0  0  0  0  0  0  0  0  0  0  0
   96.3287   38.6529   36.5070 H   0  0  0  0  0  0  0  0  0  0  0  0
   95.1028   39.4160   37.4909 H   0  0  0  0  0  0  0  0  0  0  0  0
   92.8297   37.4888   36.8498 H   0  0  0  0  0  0  0  0  0  0  0  0
   93.2486   38.0476   38.4515 H   0  0  0  0  0  0  0  0  0  0  0  0
   93.1646   36.3345   38.1180 H   0  0  0  0  0  0  0  0  0  0  0  0
   98.4996   36.8171   37.6015 H   0  0  0  0  0  0  0  0  0  0  0  0
   98.4040   34.3877   39.2863 H   0  0  0  0  0  0  0  0  0  0  0  0
   98.6713   35.9876   39.9360 H   0  0  0  0  0  0  0  0  0  0  0  0
   99.8864   35.2401   38.9272 H   0  0  0  0  0  0  0  0  0  0  0  0
  1  2  1  0  0  0  0
  1 36  1  0  0  0  0
  1 37  1  0  0  0  0
  1 38  1  0  0  0  0
  2  4  1  0  0  0  0
  3  2  2  0  0  0  0
  4  5  1  0  0  0  0
  4 39  1  0  0  0  0
  5  6  1  0  0  0  0
  5  8  1  0  0  0  0
  5 40  1  6  0  0  0
  6  7  2  0  0  0  0
  8 41  1  0  0  0  0
  8 42  1  0  0  0  0
  9  8  1  0  0  0  0
  9 10  1  0  0  0  0
  9 43  1  0  0  0  0
 10 44  1  0  0  0  0
 10 45  1  0  0  0  0
 10 46  1  0  0  0  0
 11  9  1  0  0  0  0
 11 47  1  0  0  0  0
 11 48  1  0  0  0  0
 11 49  1  0  0  0  0
 12 13  1  0  0  0  0
 12  6  1  0  0  0  0
 13 14  1  0  0  0  0
 13 50  1  1  0  0  0
 14 19  1  0  0  0  0
 14 15  2  0  0  0  0
 16 13  1  0  0  0  0
 16 51  1  0  0  0  0
 16 52  1  0  0  0  0
 17 18  1  0  0  0  0
 17 16  1  0  0  0  0
 17 53  1  0  0  0  0
 17 54  1  0  0  0  0
 18 12  1  0  0  0  0
 18 55  1  0  0  0  0
 18 56  1  0  0  0  0
 19 20  1  0  0  0  0
 19 57  1  0  0  0  0
 20 21  1  0  0  0  0
 20 58  1  1  0  0  0
 21 26  1  0  0  0  0
 21 22  2  0  0  0  0
 23 20  1  0  0  0  0
 23 59  1  0  0  0  0
 24 23  1  0  0  0  0
 24 60  1  0  0  0  0
 24 61  1  0  0  0  0
 24 62  1  0  0  0  0
 25 23  1  0  0  0  0
 25 63  1  0  0  0  0
 25 64  1  0  0  0  0
 25 65  1  0  0  0  0
 26 27  1  0  0  0  0
 26 66  1  0  0  0  0
 27 30  1  0  0  0  0
 27 28  1  0  0  0  0
 27 67  1  6  0  0  0
 28 29  2  0  0  0  0
 28 34  1  0  0  0  0
 30 31  1  0  0  0  0
 30 68  1  0  0  0  0
 30 69  1  0  0  0  0
 31 33  1  0  0  0  0
 31 70  1  0  0  0  0
 32 31  1  0  0  0  0
 32 71  1  0  0  0  0
 32 72  1  0  0  0  0
 32 73  1  0  0  0  0
 33 74  1  0  0  0  0
 33 75  1  0  0  0  0
 33 76  1  0  0  0  0
 34 35  1  0  0  0  0
 34 77  1  0  0  0  0
 35 78  1  0  0  0  0
 35 79  1  0  0  0  0
 35 80  1  0  0  0  0
M  END
>  <MODEL>
       0

$$$$
