selected_4mers/LSGG/345_noH.pdb
 OpenBabel03042517593D

 56 55  0  0  1  0  0  0  0  0999 V2000
   25.6730    3.8860    9.3590 C   0  0  0  0  0  0  0  0  0  0  0  0
   26.9040    3.0330    9.6570 C   0  0  0  0  0  0  0  0  0  0  0  0
   27.8520    3.0110    8.8710 O   0  0  0  0  0  0  0  0  0  0  0  0
   26.8900    2.3360   10.7930 N   0  0  0  0  0  0  0  0  0  0  0  0
   27.9880    1.4330   11.1220 C   0  0  2  0  0  0  0  0  0  0  0  0
   27.3970    0.0330   10.9670 C   0  0  0  0  0  0  0  0  0  0  0  0
   26.6240   -0.4200   11.7990 O   0  0  0  0  0  0  0  0  0  0  0  0
   28.4980    1.6370   12.5630 C   0  0  0  0  0  0  0  0  0  0  0  0
   29.6770    0.7260   12.9490 C   0  0  0  0  0  0  0  0  0  0  0  0
   30.8710    0.9680   12.0130 C   0  0  0  0  0  0  0  0  0  0  0  0
   30.0710    0.9970   14.3980 C   0  0  0  0  0  0  0  0  0  0  0  0
   27.7510   -0.6140    9.8630 N   0  0  0  0  0  0  0  0  0  0  0  0
   27.2710   -1.9520    9.5260 C   0  0  2  0  0  0  0  0  0  0  0  0
   27.9080   -3.0450   10.3640 C   0  0  0  0  0  0  0  0  0  0  0  0
   29.1290   -3.0650   10.5320 O   0  0  0  0  0  0  0  0  0  0  0  0
   27.5630   -2.2260    8.0530 C   0  0  0  0  0  0  0  0  0  0  0  0
   27.5100   -3.6110    7.7750 O   0  0  0  0  0  0  0  0  0  0  0  0
   27.0790   -3.9470   10.8860 N   0  0  0  0  0  0  0  0  0  0  0  0
   27.5860   -5.0500   11.6910 C   0  0  0  0  0  0  0  0  0  0  0  0
   28.3540   -5.9860   10.7730 C   0  0  0  0  0  0  0  0  0  0  0  0
   29.3650   -6.5640   11.1590 O   0  0  0  0  0  0  0  0  0  0  0  0
   27.8620   -6.1380    9.5480 N   0  0  0  0  0  0  0  0  0  0  0  0
   28.5370   -6.9920    8.5880 C   0  0  0  0  0  0  0  0  0  0  0  0
   29.8830   -6.3920    8.2210 C   0  0  0  0  0  0  0  0  0  0  0  0
   30.8170   -7.1140    7.8810 O   0  0  0  0  0  0  0  0  0  0  0  0
   29.9670   -5.0590    8.2770 N   0  0  0  0  0  0  0  0  0  0  0  0
   31.2000   -4.3460    7.9740 C   0  0  0  0  0  0  0  0  0  0  0  0
   25.8071    4.3920    8.4258 H   0  0  0  0  0  0  0  0  0  0  0  0
   25.5406    4.6060   10.1393 H   0  0  0  0  0  0  0  0  0  0  0  0
   24.8087    3.2577    9.3030 H   0  0  0  0  0  0  0  0  0  0  0  0
   26.1329    2.4312   11.4150 H   0  0  0  0  0  0  0  0  0  0  0  0
   28.8323    1.6057   10.4878 H   0  0  0  0  0  0  0  0  0  0  0  0
   27.6892    1.4426   13.2360 H   0  0  0  0  0  0  0  0  0  0  0  0
   28.8544    2.6441   12.6237 H   0  0  0  0  0  0  0  0  0  0  0  0
   29.3797   -0.2971   12.8501 H   0  0  0  0  0  0  0  0  0  0  0  0
   31.1872    1.9870   12.0944 H   0  0  0  0  0  0  0  0  0  0  0  0
   30.5800    0.7644   11.0037 H   0  0  0  0  0  0  0  0  0  0  0  0
   31.6774    0.3212   12.2891 H   0  0  0  0  0  0  0  0  0  0  0  0
   30.3691    2.0194   14.5013 H   0  0  0  0  0  0  0  0  0  0  0  0
   30.8850    0.3587   14.6716 H   0  0  0  0  0  0  0  0  0  0  0  0
   29.2351    0.8029   15.0372 H   0  0  0  0  0  0  0  0  0  0  0  0
   28.3690   -0.1690    9.2391 H   0  0  0  0  0  0  0  0  0  0  0  0
   26.2207   -1.9700    9.7295 H   0  0  0  0  0  0  0  0  0  0  0  0
   26.8360   -1.7205    7.4523 H   0  0  0  0  0  0  0  0  0  0  0  0
   28.5471   -1.8708    7.8288 H   0  0  0  0  0  0  0  0  0  0  0  0
   26.6221   -3.9470    7.9740 H   0  0  0  0  0  0  0  0  0  0  0  0
   26.1109   -3.8673   10.7257 H   0  0  0  0  0  0  0  0  0  0  0  0
   28.2362   -4.6745   12.4533 H   0  0  0  0  0  0  0  0  0  0  0  0
   26.7775   -5.5702   12.1607 H   0  0  0  0  0  0  0  0  0  0  0  0
   27.0356   -5.6690    9.2904 H   0  0  0  0  0  0  0  0  0  0  0  0
   28.6854   -7.9608    9.0174 H   0  0  0  0  0  0  0  0  0  0  0  0
   27.9360   -7.0758    7.7067 H   0  0  0  0  0  0  0  0  0  0  0  0
   29.1687   -4.5422    8.5316 H   0  0  0  0  0  0  0  0  0  0  0  0
   31.9648   -5.0491    7.7177 H   0  0  0  0  0  0  0  0  0  0  0  0
   31.5060   -3.7826    8.8307 H   0  0  0  0  0  0  0  0  0  0  0  0
   31.0352   -3.6824    7.1510 H   0  0  0  0  0  0  0  0  0  0  0  0
  1  2  1  0  0  0  0
  1 28  1  0  0  0  0
  1 29  1  0  0  0  0
  1 30  1  0  0  0  0
  2  4  1  0  0  0  0
  3  2  2  0  0  0  0
  4  5  1  0  0  0  0
  4 31  1  0  0  0  0
  5  8  1  0  0  0  0
  5 32  1  6  0  0  0
  6  5  1  0  0  0  0
  6  7  2  0  0  0  0
  8  9  1  0  0  0  0
  8 33  1  0  0  0  0
  8 34  1  0  0  0  0
  9 11  1  0  0  0  0
  9 35  1  0  0  0  0
 10  9  1  0  0  0  0
 10 36  1  0  0  0  0
 10 37  1  0  0  0  0
 10 38  1  0  0  0  0
 11 39  1  0  0  0  0
 11 40  1  0  0  0  0
 11 41  1  0  0  0  0
 12  6  1  0  0  0  0
 12 42  1  0  0  0  0
 13 12  1  0  0  0  0
 13 14  1  0  0  0  0
 13 43  1  1  0  0  0
 14 15  2  0  0  0  0
 14 18  1  0  0  0  0
 16 13  1  0  0  0  0
 16 44  1  0  0  0  0
 16 45  1  0  0  0  0
 17 16  1  0  0  0  0
 17 46  1  0  0  0  0
 18 19  1  0  0  0  0
 18 47  1  0  0  0  0
 19 48  1  0  0  0  0
 19 49  1  0  0  0  0
 20 21  2  0  0  0  0
 20 19  1  0  0  0  0
 22 20  1  0  0  0  0
 22 50  1  0  0  0  0
 23 22  1  0  0  0  0
 23 51  1  0  0  0  0
 23 52  1  0  0  0  0
 24 26  1  0  0  0  0
 24 23  1  0  0  0  0
 25 24  2  0  0  0  0
 26 53  1  0  0  0  0
 27 26  1  0  0  0  0
 27 54  1  0  0  0  0
 27 55  1  0  0  0  0
 27 56  1  0  0  0  0
M  END
>  <MODEL>
       0

$$$$
selected_4mers/LSGG/346_noH.pdb
 OpenBabel03042517593D

 56 55  0  0  1  0  0  0  0  0999 V2000
   53.9850   27.7260   51.2960 C   0  0  0  0  0  0  0  0  0  0  0  0
   52.5180   27.9670   50.9160 C   0  0  0  0  0  0  0  0  0  0  0  0
   51.6100   27.7780   51.7320 O   0  0  0  0  0  0  0  0  0  0  0  0
   52.2950   28.3790   49.6700 N   0  0  0  0  0  0  0  0  0  0  0  0
   50.9410   28.5530   49.1490 C   0  0  2  0  0  0  0  0  0  0  0  0
   50.1950   27.2260   49.2360 C   0  0  0  0  0  0  0  0  0  0  0  0
   50.7790   26.1580   49.0150 O   0  0  0  0  0  0  0  0  0  0  0  0
   50.9820   29.0470   47.7100 C   0  0  0  0  0  0  0  0  0  0  0  0
   51.7520   30.3510   47.5070 C   0  0  0  0  0  0  0  0  0  0  0  0
   51.6690   30.7720   46.0460 C   0  0  0  0  0  0  0  0  0  0  0  0
   51.2140   31.4560   48.4200 C   0  0  0  0  0  0  0  0  0  0  0  0
   48.9060   27.2910   49.5550 N   0  0  0  0  0  0  0  0  0  0  0  0
   48.1880   26.0950   49.9650 C   0  0  2  0  0  0  0  0  0  0  0  0
   46.7070   26.0890   49.5850 C   0  0  0  0  0  0  0  0  0  0  0  0
   46.2350   25.1650   48.9200 O   0  0  0  0  0  0  0  0  0  0  0  0
   48.3520   25.9050   51.4720 C   0  0  0  0  0  0  0  0  0  0  0  0
   47.9880   24.5910   51.8530 O   0  0  0  0  0  0  0  0  0  0  0  0
   45.9700   27.1030   50.0190 N   0  0  0  0  0  0  0  0  0  0  0  0
   44.5480   27.1870   49.7280 C   0  0  0  0  0  0  0  0  0  0  0  0
   44.2860   28.0840   48.5260 C   0  0  0  0  0  0  0  0  0  0  0  0
   44.7790   29.2130   48.4670 O   0  0  0  0  0  0  0  0  0  0  0  0
   43.5040   27.6060   47.5680 N   0  0  0  0  0  0  0  0  0  0  0  0
   43.2740   28.3870   46.3560 C   0  0  0  0  0  0  0  0  0  0  0  0
   43.6340   27.5550   45.1370 C   0  0  0  0  0  0  0  0  0  0  0  0
   43.7950   26.3430   45.2500 O   0  0  0  0  0  0  0  0  0  0  0  0
   43.7580   28.1690   43.9680 N   0  0  0  0  0  0  0  0  0  0  0  0
   43.5650   29.5970   43.7310 C   0  0  0  0  0  0  0  0  0  0  0  0
   54.6115   27.9453   50.4567 H   0  0  0  0  0  0  0  0  0  0  0  0
   54.1161   26.7031   51.5814 H   0  0  0  0  0  0  0  0  0  0  0  0
   54.2504   28.3616   52.1149 H   0  0  0  0  0  0  0  0  0  0  0  0
   53.0625   28.5715   49.0842 H   0  0  0  0  0  0  0  0  0  0  0  0
   50.4287   29.2865   49.7358 H   0  0  0  0  0  0  0  0  0  0  0  0
   51.4432   28.2903   47.1103 H   0  0  0  0  0  0  0  0  0  0  0  0
   49.9690   29.2460   47.4287 H   0  0  0  0  0  0  0  0  0  0  0  0
   52.7772   30.1879   47.7665 H   0  0  0  0  0  0  0  0  0  0  0  0
   50.6458   30.9368   45.7799 H   0  0  0  0  0  0  0  0  0  0  0  0
   52.0782   29.9999   45.4285 H   0  0  0  0  0  0  0  0  0  0  0  0
   52.2247   31.6751   45.9029 H   0  0  0  0  0  0  0  0  0  0  0  0
   50.1871   31.6440   48.1854 H   0  0  0  0  0  0  0  0  0  0  0  0
   51.7832   32.3498   48.2717 H   0  0  0  0  0  0  0  0  0  0  0  0
   51.2957   31.1464   49.4410 H   0  0  0  0  0  0  0  0  0  0  0  0
   48.4347   28.1544   49.5133 H   0  0  0  0  0  0  0  0  0  0  0  0
   48.6209   25.2771   49.4279 H   0  0  0  0  0  0  0  0  0  0  0  0
   47.7262   26.6054   51.9845 H   0  0  0  0  0  0  0  0  0  0  0  0
   49.3780   26.0662   51.7295 H   0  0  0  0  0  0  0  0  0  0  0  0
   47.0587   24.4337   51.6240 H   0  0  0  0  0  0  0  0  0  0  0  0
   46.3954   27.8145   50.5500 H   0  0  0  0  0  0  0  0  0  0  0  0
   44.1755   26.2058   49.5195 H   0  0  0  0  0  0  0  0  0  0  0  0
   44.0514   27.6052   50.5785 H   0  0  0  0  0  0  0  0  0  0  0  0
   43.0785   26.7246   47.6738 H   0  0  0  0  0  0  0  0  0  0  0  0
   42.2428   28.6676   46.3036 H   0  0  0  0  0  0  0  0  0  0  0  0
   43.8839   29.2659   46.3788 H   0  0  0  0  0  0  0  0  0  0  0  0
   44.0014   27.6137   43.1924 H   0  0  0  0  0  0  0  0  0  0  0  0
   43.3060   30.0793   44.6503 H   0  0  0  0  0  0  0  0  0  0  0  0
   42.7775   29.7374   43.0203 H   0  0  0  0  0  0  0  0  0  0  0  0
   44.4701   30.0206   43.3487 H   0  0  0  0  0  0  0  0  0  0  0  0
  1 28  1  0  0  0  0
  1 29  1  0  0  0  0
  1 30  1  0  0  0  0
  2  1  1  0  0  0  0
  2  3  2  0  0  0  0
  4  2  1  0  0  0  0
  4 31  1  0  0  0  0
  5  6  1  0  0  0  0
  5  4  1  0  0  0  0
  5 32  1  1  0  0  0
  6 12  1  0  0  0  0
  7  6  2  0  0  0  0
  8  5  1  0  0  0  0
  8 33  1  0  0  0  0
  8 34  1  0  0  0  0
  9  8  1  0  0  0  0
  9 11  1  0  0  0  0
  9 35  1  0  0  0  0
 10  9  1  0  0  0  0
 10 36  1  0  0  0  0
 10 37  1  0  0  0  0
 10 38  1  0  0  0  0
 11 39  1  0  0  0  0
 11 40  1  0  0  0  0
 11 41  1  0  0  0  0
 12 13  1  0  0  0  0
 12 42  1  0  0  0  0
 13 16  1  0  0  0  0
 13 43  1  6  0  0  0
 14 13  1  0  0  0  0
 14 18  1  0  0  0  0
 15 14  2  0  0  0  0
 16 17  1  0  0  0  0
 16 44  1  0  0  0  0
 16 45  1  0  0  0  0
 17 46  1  0  0  0  0
 18 47  1  0  0  0  0
 19 18  1  0  0  0  0
 19 48  1  0  0  0  0
 19 49  1  0  0  0  0
 20 19  1  0  0  0  0
 21 20  2  0  0  0  0
 22 20  1  0  0  0  0
 22 50  1  0  0  0  0
 23 22  1  0  0  0  0
 23 51  1  0  0  0  0
 23 52  1  0  0  0  0
 24 25  2  0  0  0  0
 24 23  1  0  0  0  0
 26 24  1  0  0  0  0
 26 53  1  0  0  0  0
 27 26  1  0  0  0  0
 27 54  1  0  0  0  0
 27 55  1  0  0  0  0
 27 56  1  0  0  0  0
M  END
>  <MODEL>
       0

$$$$
selected_4mers/LSGG/347_noH.pdb
 OpenBabel03042517593D

 56 55  0  0  1  0  0  0  0  0999 V2000
   18.3390   -0.2970   -0.8220 C   0  0  0  0  0  0  0  0  0  0  0  0
   19.7380   -0.6180   -0.3670 C   0  0  0  0  0  0  0  0  0  0  0  0
   19.9590   -1.5960    0.3420 O   0  0  0  0  0  0  0  0  0  0  0  0
   20.6710    0.2290   -0.7680 N   0  0  0  0  0  0  0  0  0  0  0  0
   22.1050    0.1150   -0.3220 C   0  0  2  0  0  0  0  0  0  0  0  0
   22.1550    0.3430    1.1900 C   0  0  0  0  0  0  0  0  0  0  0  0
   21.5830    1.3160    1.6670 O   0  0  0  0  0  0  0  0  0  0  0  0
   22.9650    1.1860   -0.9950 C   0  0  0  0  0  0  0  0  0  0  0  0
   24.4130    1.2170   -0.4960 C   0  0  0  0  0  0  0  0  0  0  0  0
   25.2140   -0.0070   -0.9560 C   0  0  0  0  0  0  0  0  0  0  0  0
   25.0400    2.4850   -1.0420 C   0  0  0  0  0  0  0  0  0  0  0  0
   22.8550   -0.5130    1.9250 N   0  0  0  0  0  0  0  0  0  0  0  0
   22.9020   -0.3930    3.3740 C   0  0  2  0  0  0  0  0  0  0  0  0
   21.5220   -0.4230    4.0400 C   0  0  0  0  0  0  0  0  0  0  0  0
   21.3280    0.1650    5.0910 O   0  0  0  0  0  0  0  0  0  0  0  0
   23.6170    0.9360    3.7500 C   0  0  0  0  0  0  0  0  0  0  0  0
   24.3230    0.7710    4.9420 O   0  0  0  0  0  0  0  0  0  0  0  0
   20.5700   -1.1360    3.4700 N   0  0  0  0  0  0  0  0  0  0  0  0
   19.1890   -0.9850    3.9390 C   0  0  0  0  0  0  0  0  0  0  0  0
   18.8090   -1.5370    5.3250 C   0  0  0  0  0  0  0  0  0  0  0  0
   17.8300   -1.0180    5.9610 O   0  0  0  0  0  0  0  0  0  0  0  0
   19.5050   -2.5780    5.7920 N   0  0  0  0  0  0  0  0  0  0  0  0
   19.2050   -3.1190    7.0950 C   0  0  0  0  0  0  0  0  0  0  0  0
   17.7660   -3.6840    7.2280 C   0  0  0  0  0  0  0  0  0  0  0  0
   17.1590   -4.0840    6.2230 O   0  0  0  0  0  0  0  0  0  0  0  0
   17.2380   -3.7740    8.4460 N   0  0  0  0  0  0  0  0  0  0  0  0
   15.9230   -4.3280    8.6460 C   0  0  0  0  0  0  0  0  0  0  0  0
   18.3542    0.5860   -1.4261 H   0  0  0  0  0  0  0  0  0  0  0  0
   17.7148   -0.1344    0.0317 H   0  0  0  0  0  0  0  0  0  0  0  0
   17.9539   -1.1145   -1.3949 H   0  0  0  0  0  0  0  0  0  0  0  0
   20.4197    0.9590   -1.3789 H   0  0  0  0  0  0  0  0  0  0  0  0
   22.4786   -0.8524   -0.5857 H   0  0  0  0  0  0  0  0  0  0  0  0
   22.9748    0.9985   -2.0484 H   0  0  0  0  0  0  0  0  0  0  0  0
   22.5306    2.1334   -0.7527 H   0  0  0  0  0  0  0  0  0  0  0  0
   24.4232    1.1977    0.5738 H   0  0  0  0  0  0  0  0  0  0  0  0
   25.2363   -0.0374   -2.0253 H   0  0  0  0  0  0  0  0  0  0  0  0
   24.7510   -0.8968   -0.5835 H   0  0  0  0  0  0  0  0  0  0  0  0
   26.2136    0.0591   -0.5801 H   0  0  0  0  0  0  0  0  0  0  0  0
   25.0104    2.4656   -2.1114 H   0  0  0  0  0  0  0  0  0  0  0  0
   26.0566    2.5499   -0.7144 H   0  0  0  0  0  0  0  0  0  0  0  0
   24.4955    3.3343   -0.6854 H   0  0  0  0  0  0  0  0  0  0  0  0
   23.3498   -1.2401    1.4826 H   0  0  0  0  0  0  0  0  0  0  0  0
   23.4378   -1.2454    3.7362 H   0  0  0  0  0  0  0  0  0  0  0  0
   22.8878    1.7094    3.8730 H   0  0  0  0  0  0  0  0  0  0  0  0
   24.2982    1.2041    2.9697 H   0  0  0  0  0  0  0  0  0  0  0  0
   23.7076    0.5278    5.6513 H   0  0  0  0  0  0  0  0  0  0  0  0
   20.7837   -1.7609    2.7398 H   0  0  0  0  0  0  0  0  0  0  0  0
   18.5595   -1.4720    3.2238 H   0  0  0  0  0  0  0  0  0  0  0  0
   19.0658    0.0730    4.0406 H   0  0  0  0  0  0  0  0  0  0  0  0
   20.2221   -2.9754    5.2469 H   0  0  0  0  0  0  0  0  0  0  0  0
   19.3292   -2.3410    7.8190 H   0  0  0  0  0  0  0  0  0  0  0  0
   19.8749   -3.9385    7.2516 H   0  0  0  0  0  0  0  0  0  0  0  0
   17.7537   -3.4572    9.2225 H   0  0  0  0  0  0  0  0  0  0  0  0
   15.5111   -4.6187    7.7022 H   0  0  0  0  0  0  0  0  0  0  0  0
   15.2915   -3.5929    9.0996 H   0  0  0  0  0  0  0  0  0  0  0  0
   15.9899   -5.1838    9.2848 H   0  0  0  0  0  0  0  0  0  0  0  0
  1  2  1  0  0  0  0
  1 28  1  0  0  0  0
  1 29  1  0  0  0  0
  1 30  1  0  0  0  0
  2  3  2  0  0  0  0
  4  2  1  0  0  0  0
  4  5  1  0  0  0  0
  4 31  1  0  0  0  0
  5  6  1  0  0  0  0
  5 32  1  6  0  0  0
  6  7  2  0  0  0  0
  6 12  1  0  0  0  0
  8  9  1  0  0  0  0
  8  5  1  0  0  0  0
  8 33  1  0  0  0  0
  8 34  1  0  0  0  0
  9 35  1  0  0  0  0
 10  9  1  0  0  0  0
 10 36  1  0  0  0  0
 10 37  1  0  0  0  0
 10 38  1  0  0  0  0
 11  9  1  0  0  0  0
 11 39  1  0  0  0  0
 11 40  1  0  0  0  0
 11 41  1  0  0  0  0
 12 13  1  0  0  0  0
 12 42  1  0  0  0  0
 13 16  1  0  0  0  0
 13 14  1  0  0  0  0
 13 43  1  1  0  0  0
 14 15  2  0  0  0  0
 16 17  1  0  0  0  0
 16 44  1  0  0  0  0
 16 45  1  0  0  0  0
 17 46  1  0  0  0  0
 18 19  1  0  0  0  0
 18 14  1  0  0  0  0
 18 47  1  0  0  0  0
 19 20  1  0  0  0  0
 19 48  1  0  0  0  0
 19 49  1  0  0  0  0
 20 22  1  0  0  0  0
 20 21  2  0  0  0  0
 22 23  1  0  0  0  0
 22 50  1  0  0  0  0
 23 24  1  0  0  0  0
 23 51  1  0  0  0  0
 23 52  1  0  0  0  0
 24 26  1  0  0  0  0
 25 24  2  0  0  0  0
 26 27  1  0  0  0  0
 26 53  1  0  0  0  0
 27 54  1  0  0  0  0
 27 55  1  0  0  0  0
 27 56  1  0  0  0  0
M  END
>  <MODEL>
       0

$$$$
selected_4mers/LSGG/348_noH.pdb
 OpenBabel03042517593D

 56 55  0  0  1  0  0  0  0  0999 V2000
   28.7440   30.3640   33.5930 C   0  0  0  0  0  0  0  0  0  0  0  0
   28.9520   29.0820   32.8140 C   0  0  0  0  0  0  0  0  0  0  0  0
   29.4800   28.1080   33.3390 O   0  0  0  0  0  0  0  0  0  0  0  0
   28.5500   29.0810   31.5540 N   0  0  0  0  0  0  0  0  0  0  0  0
   28.6910   27.9000   30.7190 C   0  0  2  0  0  0  0  0  0  0  0  0
   30.1010   27.7830   30.1730 C   0  0  0  0  0  0  0  0  0  0  0  0
   30.5790   26.6800   29.9230 O   0  0  0  0  0  0  0  0  0  0  0  0
   27.6880   27.9420   29.5630 C   0  0  0  0  0  0  0  0  0  0  0  0
   26.2150   28.0790   29.9540 C   0  0  0  0  0  0  0  0  0  0  0  0
   25.3580   28.1260   28.7010 C   0  0  0  0  0  0  0  0  0  0  0  0
   25.7960   26.9210   30.8500 C   0  0  0  0  0  0  0  0  0  0  0  0
   30.7490   28.9230   29.9630 N   0  0  0  0  0  0  0  0  0  0  0  0
   32.0970   28.9610   29.4140 C   0  0  2  0  0  0  0  0  0  0  0  0
   33.0830   28.2920   30.3620 C   0  0  0  0  0  0  0  0  0  0  0  0
   32.9600   28.3960   31.5800 O   0  0  0  0  0  0  0  0  0  0  0  0
   32.5080   30.4120   29.1700 C   0  0  0  0  0  0  0  0  0  0  0  0
   31.4880   31.1250   28.4900 O   0  0  0  0  0  0  0  0  0  0  0  0
   34.0680   27.6030   29.7990 N   0  0  0  0  0  0  0  0  0  0  0  0
   35.0410   26.9230   30.6360 C   0  0  0  0  0  0  0  0  0  0  0  0
   36.3420   27.6810   30.7250 C   0  0  0  0  0  0  0  0  0  0  0  0
   36.6220   28.5480   29.8950 O   0  0  0  0  0  0  0  0  0  0  0  0
   37.0950   27.4010   31.7760 N   0  0  0  0  0  0  0  0  0  0  0  0
   38.3910   28.0210   31.9550 C   0  0  0  0  0  0  0  0  0  0  0  0
   38.3710   29.3600   32.6540 C   0  0  0  0  0  0  0  0  0  0  0  0
   37.3050   29.9160   32.9330 O   0  0  0  0  0  0  0  0  0  0  0  0
   39.5510   29.8790   32.9810 N   0  0  0  0  0  0  0  0  0  0  0  0
   39.5750   31.1690   33.6250 C   0  0  0  0  0  0  0  0  0  0  0  0
   28.2719   31.0904   32.9650 H   0  0  0  0  0  0  0  0  0  0  0  0
   29.6905   30.7387   33.9225 H   0  0  0  0  0  0  0  0  0  0  0  0
   28.1226   30.1687   34.4419 H   0  0  0  0  0  0  0  0  0  0  0  0
   28.1477   29.8956   31.1747 H   0  0  0  0  0  0  0  0  0  0  0  0
   28.4913   27.0422   31.3267 H   0  0  0  0  0  0  0  0  0  0  0  0
   27.9401   28.7758   28.9416 H   0  0  0  0  0  0  0  0  0  0  0  0
   27.7692   26.9919   29.0776 H   0  0  0  0  0  0  0  0  0  0  0  0
   26.0781   28.9886   30.5007 H   0  0  0  0  0  0  0  0  0  0  0  0
   25.4874   27.2203   28.1462 H   0  0  0  0  0  0  0  0  0  0  0  0
   25.6534   28.9590   28.0979 H   0  0  0  0  0  0  0  0  0  0  0  0
   24.3294   28.2319   28.9762 H   0  0  0  0  0  0  0  0  0  0  0  0
   25.9243   25.9983   30.3237 H   0  0  0  0  0  0  0  0  0  0  0  0
   24.7679   27.0356   31.1235 H   0  0  0  0  0  0  0  0  0  0  0  0
   26.4014   26.9156   31.7323 H   0  0  0  0  0  0  0  0  0  0  0  0
   30.3026   29.7716   30.1862 H   0  0  0  0  0  0  0  0  0  0  0  0
   32.1072   28.4265   28.4871 H   0  0  0  0  0  0  0  0  0  0  0  0
   32.6965   30.8846   30.1113 H   0  0  0  0  0  0  0  0  0  0  0  0
   33.3889   30.4178   28.5626 H   0  0  0  0  0  0  0  0  0  0  0  0
   30.6816   31.1285   29.0290 H   0  0  0  0  0  0  0  0  0  0  0  0
   34.1388   27.5531   28.8183 H   0  0  0  0  0  0  0  0  0  0  0  0
   35.2336   25.9545   30.2239 H   0  0  0  0  0  0  0  0  0  0  0  0
   34.6335   26.8513   31.6228 H   0  0  0  0  0  0  0  0  0  0  0  0
   36.7685   26.7599   32.4481 H   0  0  0  0  0  0  0  0  0  0  0  0
   38.8288   28.1584   30.9884 H   0  0  0  0  0  0  0  0  0  0  0  0
   38.9504   27.3637   32.5873 H   0  0  0  0  0  0  0  0  0  0  0  0
   40.3864   29.3951   32.7884 H   0  0  0  0  0  0  0  0  0  0  0  0
   38.5736   31.5264   33.7450 H   0  0  0  0  0  0  0  0  0  0  0  0
   40.1299   31.8579   33.0230 H   0  0  0  0  0  0  0  0  0  0  0  0
   40.0393   31.0799   34.5849 H   0  0  0  0  0  0  0  0  0  0  0  0
  1 28  1  0  0  0  0
  1 29  1  0  0  0  0
  1 30  1  0  0  0  0
  2  3  2  0  0  0  0
  2  1  1  0  0  0  0
  4  2  1  0  0  0  0
  4 31  1  0  0  0  0
  5  4  1  0  0  0  0
  5 32  1  1  0  0  0
  6  5  1  0  0  0  0
  7  6  2  0  0  0  0
  8  9  1  0  0  0  0
  8  5  1  0  0  0  0
  8 33  1  0  0  0  0
  8 34  1  0  0  0  0
  9 11  1  0  0  0  0
  9 35  1  0  0  0  0
 10  9  1  0  0  0  0
 10 36  1  0  0  0  0
 10 37  1  0  0  0  0
 10 38  1  0  0  0  0
 11 39  1  0  0  0  0
 11 40  1  0  0  0  0
 11 41  1  0  0  0  0
 12  6  1  0  0  0  0
 12 42  1  0  0  0  0
 13 12  1  0  0  0  0
 13 14  1  0  0  0  0
 13 43  1  6  0  0  0
 14 15  2  0  0  0  0
 16 13  1  0  0  0  0
 16 44  1  0  0  0  0
 16 45  1  0  0  0  0
 17 16  1  0  0  0  0
 17 46  1  0  0  0  0
 18 14  1  0  0  0  0
 18 19  1  0  0  0  0
 18 47  1  0  0  0  0
 19 20  1  0  0  0  0
 19 48  1  0  0  0  0
 19 49  1  0  0  0  0
 20 22  1  0  0  0  0
 21 20  2  0  0  0  0
 22 23  1  0  0  0  0
 22 50  1  0  0  0  0
 23 24  1  0  0  0  0
 23 51  1  0  0  0  0
 23 52  1  0  0  0  0
 24 25  2  0  0  0  0
 24 26  1  0  0  0  0
 26 27  1  0  0  0  0
 26 53  1  0  0  0  0
 27 54  1  0  0  0  0
 27 55  1  0  0  0  0
 27 56  1  0  0  0  0
M  END
>  <MODEL>
       0

$$$$
selected_4mers/LSGG/349_noH.pdb
 OpenBabel03042517593D

 56 55  0  0  1  0  0  0  0  0999 V2000
   18.8730   28.0530    8.5600 C   0  0  0  0  0  0  0  0  0  0  0  0
   17.6460   28.9540    8.4470 C   0  0  0  0  0  0  0  0  0  0  0  0
   17.1330   29.4280    9.4710 O   0  0  0  0  0  0  0  0  0  0  0  0
   17.2000   29.2170    7.2190 N   0  0  0  0  0  0  0  0  0  0  0  0
   16.0870   30.1350    6.9830 C   0  0  2  0  0  0  0  0  0  0  0  0
   14.7580   29.4220    6.8360 C   0  0  0  0  0  0  0  0  0  0  0  0
   14.6970   28.2540    6.4330 O   0  0  0  0  0  0  0  0  0  0  0  0
   16.3260   30.9740    5.7240 C   0  0  0  0  0  0  0  0  0  0  0  0
   17.5790   31.8260    5.6810 C   0  0  0  0  0  0  0  0  0  0  0  0
   17.7620   32.4950    4.3200 C   0  0  0  0  0  0  0  0  0  0  0  0
   17.5580   32.8830    6.7800 C   0  0  0  0  0  0  0  0  0  0  0  0
   13.6870   30.1350    7.1640 N   0  0  0  0  0  0  0  0  0  0  0  0
   12.3580   29.6080    6.9090 C   0  0  2  0  0  0  0  0  0  0  0  0
   12.2380   29.4250    5.4140 C   0  0  0  0  0  0  0  0  0  0  0  0
   12.9860   30.0170    4.6380 O   0  0  0  0  0  0  0  0  0  0  0  0
   11.2690   30.5580    7.4110 C   0  0  0  0  0  0  0  0  0  0  0  0
   11.2550   31.7610    6.6450 O   0  0  0  0  0  0  0  0  0  0  0  0
   11.2880   28.6090    4.9900 N   0  0  0  0  0  0  0  0  0  0  0  0
   11.0730   28.4090    3.5670 C   0  0  0  0  0  0  0  0  0  0  0  0
   10.8570   29.7180    2.8360 C   0  0  0  0  0  0  0  0  0  0  0  0
   11.3420   29.9030    1.7200 O   0  0  0  0  0  0  0  0  0  0  0  0
   10.0970   30.6290    3.4400 N   0  0  0  0  0  0  0  0  0  0  0  0
    9.7870   31.8970    2.7970 C   0  0  0  0  0  0  0  0  0  0  0  0
   11.0210   32.7690    2.6840 C   0  0  0  0  0  0  0  0  0  0  0  0
   11.3000   33.3470    1.6370 O   0  0  0  0  0  0  0  0  0  0  0  0
   11.7660   32.8590    3.7810 N   0  0  0  0  0  0  0  0  0  0  0  0
   13.0000   33.6560    3.7820 C   0  0  0  0  0  0  0  0  0  0  0  0
   19.1762   27.7391    7.5830 H   0  0  0  0  0  0  0  0  0  0  0  0
   18.6319   27.1946    9.1516 H   0  0  0  0  0  0  0  0  0  0  0  0
   19.6710   28.5937    9.0245 H   0  0  0  0  0  0  0  0  0  0  0  0
   17.6321   28.7809    6.4493 H   0  0  0  0  0  0  0  0  0  0  0  0
   16.0410   30.7636    7.8477 H   0  0  0  0  0  0  0  0  0  0  0  0
   16.3666   30.3013    4.8929 H   0  0  0  0  0  0  0  0  0  0  0  0
   15.5177   31.6749    5.7047 H   0  0  0  0  0  0  0  0  0  0  0  0
   18.4089   31.1707    5.8445 H   0  0  0  0  0  0  0  0  0  0  0  0
   16.9418   33.1566    4.1346 H   0  0  0  0  0  0  0  0  0  0  0  0
   17.7960   31.7464    3.5563 H   0  0  0  0  0  0  0  0  0  0  0  0
   18.6764   33.0506    4.3158 H   0  0  0  0  0  0  0  0  0  0  0  0
   16.7305   33.5432    6.6241 H   0  0  0  0  0  0  0  0  0  0  0  0
   18.4700   33.4421    6.7546 H   0  0  0  0  0  0  0  0  0  0  0  0
   17.4588   32.4054    7.7323 H   0  0  0  0  0  0  0  0  0  0  0  0
   13.7938   31.0209    7.5800 H   0  0  0  0  0  0  0  0  0  0  0  0
   12.2252   28.6828    7.4299 H   0  0  0  0  0  0  0  0  0  0  0  0
   10.3171   30.0768    7.3261 H   0  0  0  0  0  0  0  0  0  0  0  0
   11.4719   30.8037    8.4324 H   0  0  0  0  0  0  0  0  0  0  0  0
   11.0718   31.5507    5.7160 H   0  0  0  0  0  0  0  0  0  0  0  0
   10.7233   28.1344    5.6420 H   0  0  0  0  0  0  0  0  0  0  0  0
   11.9302   27.9199    3.1536 H   0  0  0  0  0  0  0  0  0  0  0  0
   10.1919   27.8139    3.4464 H   0  0  0  0  0  0  0  0  0  0  0  0
    9.7384   30.4415    4.3375 H   0  0  0  0  0  0  0  0  0  0  0  0
    9.4029   31.7067    1.8166 H   0  0  0  0  0  0  0  0  0  0  0  0
    9.0617   32.4110    3.3926 H   0  0  0  0  0  0  0  0  0  0  0  0
   11.4886   32.3877    4.5996 H   0  0  0  0  0  0  0  0  0  0  0  0
   13.1430   34.0931    2.8159 H   0  0  0  0  0  0  0  0  0  0  0  0
   13.8321   33.0248    4.0146 H   0  0  0  0  0  0  0  0  0  0  0  0
   12.9237   34.4306    4.5162 H   0  0  0  0  0  0  0  0  0  0  0  0
  1 28  1  0  0  0  0
  1 29  1  0  0  0  0
  1 30  1  0  0  0  0
  2  1  1  0  0  0  0
  2  3  2  0  0  0  0
  4  2  1  0  0  0  0
  4 31  1  0  0  0  0
  5  4  1  0  0  0  0
  5 32  1  1  0  0  0
  6  5  1  0  0  0  0
  6 12  1  0  0  0  0
  7  6  2  0  0  0  0
  8  5  1  0  0  0  0
  8 33  1  0  0  0  0
  8 34  1  0  0  0  0
  9  8  1  0  0  0  0
  9 11  1  0  0  0  0
  9 35  1  0  0  0  0
 10  9  1  0  0  0  0
 10 36  1  0  0  0  0
 10 37  1  0  0  0  0
 10 38  1  0  0  0  0
 11 39  1  0  0  0  0
 11 40  1  0  0  0  0
 11 41  1  0  0  0  0
 12 42  1  0  0  0  0
 13 12  1  0  0  0  0
 13 16  1  0  0  0  0
 13 43  1  1  0  0  0
 14 13  1  0  0  0  0
 15 14  2  0  0  0  0
 16 44  1  0  0  0  0
 16 45  1  0  0  0  0
 17 16  1  0  0  0  0
 17 46  1  0  0  0  0
 18 14  1  0  0  0  0
 18 47  1  0  0  0  0
 19 18  1  0  0  0  0
 19 48  1  0  0  0  0
 19 49  1  0  0  0  0
 20 22  1  0  0  0  0
 20 19  1  0  0  0  0
 21 20  2  0  0  0  0
 22 50  1  0  0  0  0
 23 22  1  0  0  0  0
 23 51  1  0  0  0  0
 23 52  1  0  0  0  0
 24 23  1  0  0  0  0
 24 26  1  0  0  0  0
 25 24  2  0  0  0  0
 26 27  1  0  0  0  0
 26 53  1  0  0  0  0
 27 54  1  0  0  0  0
 27 55  1  0  0  0  0
 27 56  1  0  0  0  0
M  END
>  <MODEL>
       0

$$$$
