selected_4mers/LTAA/570_noH.pdb
 OpenBabel03042518233D

 65 64  0  0  1  0  0  0  0  0999 V2000
  186.8630   20.7690  -19.8930 C   0  0  0  0  0  0  0  0  0  0  0  0
  185.3800   20.4520  -20.1190 C   0  0  0  0  0  0  0  0  0  0  0  0
  185.0050   19.3050  -20.2650 O   0  0  0  0  0  0  0  0  0  0  0  0
  184.5380   21.4860  -20.1070 N   0  0  0  0  0  0  0  0  0  0  0  0
  183.1170   21.2770  -20.3630 C   0  0  2  0  0  0  0  0  0  0  0  0
  182.8830   20.8000  -21.7960 C   0  0  0  0  0  0  0  0  0  0  0  0
  182.0740   19.8860  -22.0380 O   0  0  0  0  0  0  0  0  0  0  0  0
  182.3330   22.5720  -20.1070 C   0  0  0  0  0  0  0  0  0  0  0  0
  182.2530   22.9510  -18.6110 C   0  0  0  0  0  0  0  0  0  0  0  0
  181.8630   24.4320  -18.4660 C   0  0  0  0  0  0  0  0  0  0  0  0
  181.3030   22.0440  -17.8400 C   0  0  0  0  0  0  0  0  0  0  0  0
  183.6130   21.4000  -22.7450 N   0  0  0  0  0  0  0  0  0  0  0  0
  183.4970   21.0130  -24.1350 C   0  0  2  0  0  0  0  0  0  0  0  0
  183.8940   19.5490  -24.3280 C   0  0  0  0  0  0  0  0  0  0  0  0
  183.1680   18.7900  -24.9670 O   0  0  0  0  0  0  0  0  0  0  0  0
  184.3600   21.9300  -25.0370 C   0  0  2  0  0  0  0  0  0  0  0  0
  183.8870   23.2800  -24.9370 O   0  0  0  0  0  0  0  0  0  0  0  0
  184.2640   21.5100  -26.5170 C   0  0  0  0  0  0  0  0  0  0  0  0
  185.0110   19.1440  -23.7190 N   0  0  0  0  0  0  0  0  0  0  0  0
  185.4750   17.7550  -23.8690 C   0  0  2  0  0  0  0  0  0  0  0  0
  184.4840   16.7600  -23.2680 C   0  0  0  0  0  0  0  0  0  0  0  0
  184.2710   15.6800  -23.8020 O   0  0  0  0  0  0  0  0  0  0  0  0
  186.8550   17.5620  -23.2510 C   0  0  0  0  0  0  0  0  0  0  0  0
  183.8810   17.1120  -22.1330 N   0  0  0  0  0  0  0  0  0  0  0  0
  182.9020   16.2200  -21.5320 C   0  0  2  0  0  0  0  0  0  0  0  0
  181.7070   16.0240  -22.4890 C   0  0  0  0  0  0  0  0  0  0  0  0
  181.1800   14.9270  -22.6370 O   0  0  0  0  0  0  0  0  0  0  0  0
  182.4480   16.7790  -20.1890 C   0  0  0  0  0  0  0  0  0  0  0  0
  181.2830   17.1110  -23.1310 N   0  0  0  0  0  0  0  0  0  0  0  0
  180.1660   17.0740  -24.0640 C   0  0  0  0  0  0  0  0  0  0  0  0
  187.4305   19.8624  -19.9253 H   0  0  0  0  0  0  0  0  0  0  0  0
  186.9868   21.2334  -18.9370 H   0  0  0  0  0  0  0  0  0  0  0  0
  187.2067   21.4324  -20.6590 H   0  0  0  0  0  0  0  0  0  0  0  0
  184.8761   22.3925  -19.9250 H   0  0  0  0  0  0  0  0  0  0  0  0
  182.7682   20.5186  -19.6936 H   0  0  0  0  0  0  0  0  0  0  0  0
  181.3378   22.4460  -20.4794 H   0  0  0  0  0  0  0  0  0  0  0  0
  182.8530   23.3621  -20.6073 H   0  0  0  0  0  0  0  0  0  0  0  0
  183.2217   22.8079  -18.1797 H   0  0  0  0  0  0  0  0  0  0  0  0
  180.8950   24.5894  -18.8938 H   0  0  0  0  0  0  0  0  0  0  0  0
  182.5809   25.0413  -18.9742 H   0  0  0  0  0  0  0  0  0  0  0  0
  181.8418   24.6954  -17.4291 H   0  0  0  0  0  0  0  0  0  0  0  0
  180.3131   22.1481  -18.2327 H   0  0  0  0  0  0  0  0  0  0  0  0
  181.3073   22.3195  -16.8061 H   0  0  0  0  0  0  0  0  0  0  0  0
  181.6211   21.0273  -17.9395 H   0  0  0  0  0  0  0  0  0  0  0  0
  184.2393   22.1166  -22.4929 H   0  0  0  0  0  0  0  0  0  0  0  0
  182.4725   21.1250  -24.4225 H   0  0  0  0  0  0  0  0  0  0  0  0
  185.3747   21.8477  -24.7077 H   0  0  0  0  0  0  0  0  0  0  0  0
  182.9671   23.3237  -25.2415 H   0  0  0  0  0  0  0  0  0  0  0  0
  183.2492   21.5924  -26.8460 H   0  0  0  0  0  0  0  0  0  0  0  0
  184.5920   20.4970  -26.6223 H   0  0  0  0  0  0  0  0  0  0  0  0
  184.8842   22.1491  -27.1101 H   0  0  0  0  0  0  0  0  0  0  0  0
  185.5261   19.7765  -23.1677 H   0  0  0  0  0  0  0  0  0  0  0  0
  185.5434   17.5620  -24.9192 H   0  0  0  0  0  0  0  0  0  0  0  0
  186.8044   17.7515  -22.1991 H   0  0  0  0  0  0  0  0  0  0  0  0
  187.5465   18.2420  -23.7030 H   0  0  0  0  0  0  0  0  0  0  0  0
  187.1828   16.5571  -23.4170 H   0  0  0  0  0  0  0  0  0  0  0  0
  184.0970   17.9712  -21.7036 H   0  0  0  0  0  0  0  0  0  0  0  0
  183.3495   15.2631  -21.3616 H   0  0  0  0  0  0  0  0  0  0  0  0
  181.9964   17.7378  -20.3361 H   0  0  0  0  0  0  0  0  0  0  0  0
  183.2929   16.8785  -19.5401 H   0  0  0  0  0  0  0  0  0  0  0  0
  181.7359   16.1132  -19.7479 H   0  0  0  0  0  0  0  0  0  0  0  0
  181.7400   17.9679  -22.9693 H   0  0  0  0  0  0  0  0  0  0  0  0
  179.7849   16.0760  -24.1247 H   0  0  0  0  0  0  0  0  0  0  0  0
  180.4986   17.3882  -25.0312 H   0  0  0  0  0  0  0  0  0  0  0  0
  179.3935   17.7306  -23.7218 H   0  0  0  0  0  0  0  0  0  0  0  0
  1 31  1  0  0  0  0
  1 32  1  0  0  0  0
  1 33  1  0  0  0  0
  2  4  1  0  0  0  0
  2  1  1  0  0  0  0
  3  2  2  0  0  0  0
  4 34  1  0  0  0  0
  5  4  1  0  0  0  0
  5  8  1  0  0  0  0
  5 35  1  1  0  0  0
  6  5  1  0  0  0  0
  7  6  2  0  0  0  0
  8  9  1  0  0  0  0
  8 36  1  0  0  0  0
  8 37  1  0  0  0  0
  9 10  1  0  0  0  0
  9 11  1  0  0  0  0
  9 38  1  0  0  0  0
 10 39  1  0  0  0  0
 10 40  1  0  0  0  0
 10 41  1  0  0  0  0
 11 42  1  0  0  0  0
 11 43  1  0  0  0  0
 11 44  1  0  0  0  0
 12  6  1  0  0  0  0
 12 45  1  0  0  0  0
 13 12  1  0  0  0  0
 13 46  1  6  0  0  0
 14 13  1  0  0  0  0
 14 19  1  0  0  0  0
 15 14  2  0  0  0  0
 16 17  1  0  0  0  0
 16 13  1  0  0  0  0
 16 47  1  1  0  0  0
 17 48  1  0  0  0  0
 18 16  1  0  0  0  0
 18 49  1  0  0  0  0
 18 50  1  0  0  0  0
 18 51  1  0  0  0  0
 19 52  1  0  0  0  0
 20 19  1  0  0  0  0
 20 21  1  0  0  0  0
 20 23  1  0  0  0  0
 20 53  1  6  0  0  0
 21 24  1  0  0  0  0
 22 21  2  0  0  0  0
 23 54  1  0  0  0  0
 23 55  1  0  0  0  0
 23 56  1  0  0  0  0
 24 25  1  0  0  0  0
 24 57  1  0  0  0  0
 25 28  1  0  0  0  0
 25 58  1  1  0  0  0
 26 25  1  0  0  0  0
 27 26  2  0  0  0  0
 28 59  1  0  0  0  0
 28 60  1  0  0  0  0
 28 61  1  0  0  0  0
 29 26  1  0  0  0  0
 29 62  1  0  0  0  0
 30 29  1  0  0  0  0
 30 63  1  0  0  0  0
 30 64  1  0  0  0  0
 30 65  1  0  0  0  0
M  END
>  <MODEL>
       0

$$$$
selected_4mers/LTAA/571_noH.pdb
 OpenBabel03042518233D

 65 64  0  0  1  0  0  0  0  0999 V2000
   23.3360   19.9980   17.4360 C   0  0  0  0  0  0  0  0  0  0  0  0
   23.0800   18.5460   17.0950 C   0  0  0  0  0  0  0  0  0  0  0  0
   22.8840   18.2100   15.9270 O   0  0  0  0  0  0  0  0  0  0  0  0
   23.0290   17.6900   18.1250 N   0  0  0  0  0  0  0  0  0  0  0  0
   22.7070   16.2800   17.9500 C   0  0  2  0  0  0  0  0  0  0  0  0
   21.2670   16.0870   18.3200 C   0  0  0  0  0  0  0  0  0  0  0  0
   20.8390   16.5600   19.3590 O   0  0  0  0  0  0  0  0  0  0  0  0
   23.5630   15.3970   18.8810 C   0  0  0  0  0  0  0  0  0  0  0  0
   23.4440   13.8800   18.7080 C   0  0  0  0  0  0  0  0  0  0  0  0
   23.9840   13.4350   17.3500 C   0  0  0  0  0  0  0  0  0  0  0  0
   24.2740   13.2210   19.8180 C   0  0  0  0  0  0  0  0  0  0  0  0
   20.4920   15.3840   17.4690 N   0  0  0  0  0  0  0  0  0  0  0  0
   19.1000   15.1130   17.8090 C   0  0  2  0  0  0  0  0  0  0  0  0
   18.6900   13.7480   17.2480 C   0  0  0  0  0  0  0  0  0  0  0  0
   19.5320   13.0010   16.7670 O   0  0  0  0  0  0  0  0  0  0  0  0
   18.0950   16.2860   17.3920 C   0  0  2  0  0  0  0  0  0  0  0  0
   16.8030   16.0710   17.9570 O   0  0  0  0  0  0  0  0  0  0  0  0
   17.9990   16.4360   15.8670 C   0  0  0  0  0  0  0  0  0  0  0  0
   17.4030   13.4260   17.3870 N   0  0  0  0  0  0  0  0  0  0  0  0
   16.9170   12.1500   16.8580 C   0  0  2  0  0  0  0  0  0  0  0  0
   16.3810   12.4030   15.4540 C   0  0  0  0  0  0  0  0  0  0  0  0
   15.8240   13.4610   15.1900 O   0  0  0  0  0  0  0  0  0  0  0  0
   15.8360   11.6300   17.7190 C   0  0  0  0  0  0  0  0  0  0  0  0
   16.5950   11.4390   14.5580 N   0  0  0  0  0  0  0  0  0  0  0  0
   16.0670   11.5530   13.1820 C   0  0  2  0  0  0  0  0  0  0  0  0
   14.5380   11.5980   13.1490 C   0  0  0  0  0  0  0  0  0  0  0  0
   13.9520   12.2830   12.2910 O   0  0  0  0  0  0  0  0  0  0  0  0
   16.6090   10.4160   12.3240 C   0  0  0  0  0  0  0  0  0  0  0  0
   13.8690   10.9150   14.0790 N   0  0  0  0  0  0  0  0  0  0  0  0
   12.3880   10.9120   14.0570 C   0  0  0  0  0  0  0  0  0  0  0  0
   23.3542   20.5777   16.5368 H   0  0  0  0  0  0  0  0  0  0  0  0
   24.2777   20.0862   17.9363 H   0  0  0  0  0  0  0  0  0  0  0  0
   22.5571   20.3568   18.0760 H   0  0  0  0  0  0  0  0  0  0  0  0
   23.2156   18.0258   19.0315 H   0  0  0  0  0  0  0  0  0  0  0  0
   22.8999   16.0012   16.9351 H   0  0  0  0  0  0  0  0  0  0  0  0
   23.2873   15.6291   19.8885 H   0  0  0  0  0  0  0  0  0  0  0  0
   24.5763   15.6260   18.6249 H   0  0  0  0  0  0  0  0  0  0  0  0
   22.4144   13.5941   18.7638 H   0  0  0  0  0  0  0  0  0  0  0  0
   25.0149   13.7098   17.2687 H   0  0  0  0  0  0  0  0  0  0  0  0
   23.4256   13.9105   16.5709 H   0  0  0  0  0  0  0  0  0  0  0  0
   23.8897   12.3730   17.2593 H   0  0  0  0  0  0  0  0  0  0  0  0
   25.2949   13.5291   19.7306 H   0  0  0  0  0  0  0  0  0  0  0  0
   24.2134   12.1568   19.7247 H   0  0  0  0  0  0  0  0  0  0  0  0
   23.8924   13.5176   20.7726 H   0  0  0  0  0  0  0  0  0  0  0  0
   20.8654   15.0544   16.6198 H   0  0  0  0  0  0  0  0  0  0  0  0
   19.0272   15.0785   18.8760 H   0  0  0  0  0  0  0  0  0  0  0  0
   18.4905   17.2000   17.7833 H   0  0  0  0  0  0  0  0  0  0  0  0
   16.4320   15.2444   17.6105 H   0  0  0  0  0  0  0  0  0  0  0  0
   17.6055   15.5353   15.4441 H   0  0  0  0  0  0  0  0  0  0  0  0
   18.9728   16.6231   15.4650 H   0  0  0  0  0  0  0  0  0  0  0  0
   17.3517   17.2542   15.6291 H   0  0  0  0  0  0  0  0  0  0  0  0
   16.7843   14.0419   17.8420 H   0  0  0  0  0  0  0  0  0  0  0  0
   17.7076   11.4295   16.8337 H   0  0  0  0  0  0  0  0  0  0  0  0
   15.0358   12.3395   17.7545 H   0  0  0  0  0  0  0  0  0  0  0  0
   16.2135   11.4685   18.7071 H   0  0  0  0  0  0  0  0  0  0  0  0
   15.4753   10.7053   17.3194 H   0  0  0  0  0  0  0  0  0  0  0  0
   17.1111   10.6413   14.8161 H   0  0  0  0  0  0  0  0  0  0  0  0
   16.4031   12.4841   12.7758 H   0  0  0  0  0  0  0  0  0  0  0  0
   16.2782    9.4796   12.7223 H   0  0  0  0  0  0  0  0  0  0  0  0
   17.6786   10.4464   12.3258 H   0  0  0  0  0  0  0  0  0  0  0  0
   16.2508   10.5237   11.3215 H   0  0  0  0  0  0  0  0  0  0  0  0
   14.3558   10.4167   14.7747 H   0  0  0  0  0  0  0  0  0  0  0  0
   12.0423   11.5036   13.2352 H   0  0  0  0  0  0  0  0  0  0  0  0
   12.0169   11.3223   14.9728 H   0  0  0  0  0  0  0  0  0  0  0  0
   12.0350    9.9079   13.9471 H   0  0  0  0  0  0  0  0  0  0  0  0
  1 31  1  0  0  0  0
  1 32  1  0  0  0  0
  1 33  1  0  0  0  0
  2  1  1  0  0  0  0
  2  4  1  0  0  0  0
  3  2  2  0  0  0  0
  4 34  1  0  0  0  0
  5  4  1  0  0  0  0
  5  6  1  0  0  0  0
  5  8  1  0  0  0  0
  5 35  1  6  0  0  0
  6  7  2  0  0  0  0
  8 36  1  0  0  0  0
  8 37  1  0  0  0  0
  9  8  1  0  0  0  0
  9 11  1  0  0  0  0
  9 38  1  0  0  0  0
 10  9  1  0  0  0  0
 10 39  1  0  0  0  0
 10 40  1  0  0  0  0
 10 41  1  0  0  0  0
 11 42  1  0  0  0  0
 11 43  1  0  0  0  0
 11 44  1  0  0  0  0
 12 13  1  0  0  0  0
 12  6  1  0  0  0  0
 12 45  1  0  0  0  0
 13 46  1  1  0  0  0
 14 19  1  0  0  0  0
 14 13  1  0  0  0  0
 15 14  2  0  0  0  0
 16 13  1  0  0  0  0
 16 17  1  0  0  0  0
 16 47  1  1  0  0  0
 17 48  1  0  0  0  0
 18 16  1  0  0  0  0
 18 49  1  0  0  0  0
 18 50  1  0  0  0  0
 18 51  1  0  0  0  0
 19 52  1  0  0  0  0
 20 19  1  0  0  0  0
 20 23  1  0  0  0  0
 20 53  1  6  0  0  0
 21 20  1  0  0  0  0
 22 21  2  0  0  0  0
 23 54  1  0  0  0  0
 23 55  1  0  0  0  0
 23 56  1  0  0  0  0
 24 21  1  0  0  0  0
 24 57  1  0  0  0  0
 25 24  1  0  0  0  0
 25 58  1  6  0  0  0
 26 25  1  0  0  0  0
 26 29  1  0  0  0  0
 27 26  2  0  0  0  0
 28 25  1  0  0  0  0
 28 59  1  0  0  0  0
 28 60  1  0  0  0  0
 28 61  1  0  0  0  0
 29 62  1  0  0  0  0
 30 29  1  0  0  0  0
 30 63  1  0  0  0  0
 30 64  1  0  0  0  0
 30 65  1  0  0  0  0
M  END
>  <MODEL>
       0

$$$$
selected_4mers/LTAA/572_noH.pdb
 OpenBabel03042518233D

 65 64  0  0  1  0  0  0  0  0999 V2000
  -49.8180   25.3820   29.4620 C   0  0  0  0  0  0  0  0  0  0  0  0
  -50.4520   25.0020   30.7910 C   0  0  0  0  0  0  0  0  0  0  0  0
  -51.6280   24.6260   30.8440 O   0  0  0  0  0  0  0  0  0  0  0  0
  -49.6700   25.1000   31.8610 N   0  0  0  0  0  0  0  0  0  0  0  0
  -50.0760   24.6000   33.1770 C   0  0  2  0  0  0  0  0  0  0  0  0
  -50.5840   25.7000   34.1010 C   0  0  0  0  0  0  0  0  0  0  0  0
  -50.1540   26.8450   34.0140 O   0  0  0  0  0  0  0  0  0  0  0  0
  -48.8860   23.8970   33.8440 C   0  0  0  0  0  0  0  0  0  0  0  0
  -48.2160   22.8300   32.9760 C   0  0  0  0  0  0  0  0  0  0  0  0
  -46.8930   22.3860   33.5910 C   0  0  0  0  0  0  0  0  0  0  0  0
  -49.1590   21.6580   32.7600 C   0  0  0  0  0  0  0  0  0  0  0  0
  -51.4860   25.3290   35.0040 N   0  0  0  0  0  0  0  0  0  0  0  0
  -52.0090   26.2440   36.0070 C   0  0  2  0  0  0  0  0  0  0  0  0
  -51.0470   26.3210   37.1820 C   0  0  0  0  0  0  0  0  0  0  0  0
  -50.1310   25.5080   37.3070 O   0  0  0  0  0  0  0  0  0  0  0  0
  -53.3650   25.7420   36.5590 C   0  0  2  0  0  0  0  0  0  0  0  0
  -53.1870   24.4390   37.1440 O   0  0  0  0  0  0  0  0  0  0  0  0
  -54.3890   25.6540   35.4470 C   0  0  0  0  0  0  0  0  0  0  0  0
  -51.2660   27.2900   38.0610 N   0  0  0  0  0  0  0  0  0  0  0  0
  -50.4350   27.3890   39.2510 C   0  0  2  0  0  0  0  0  0  0  0  0
  -50.6520   26.1330   40.0840 C   0  0  0  0  0  0  0  0  0  0  0  0
  -49.7120   25.6050   40.6760 O   0  0  0  0  0  0  0  0  0  0  0  0
  -50.7720   28.6370   40.0510 C   0  0  0  0  0  0  0  0  0  0  0  0
  -51.8900   25.6400   40.1150 N   0  0  0  0  0  0  0  0  0  0  0  0
  -52.1840   24.4530   40.9060 C   0  0  2  0  0  0  0  0  0  0  0  0
  -51.4020   23.2540   40.3920 C   0  0  0  0  0  0  0  0  0  0  0  0
  -50.8650   22.4700   41.1710 O   0  0  0  0  0  0  0  0  0  0  0  0
  -53.6680   24.1630   40.9030 C   0  0  0  0  0  0  0  0  0  0  0  0
  -51.3300   23.1130   39.0730 N   0  0  0  0  0  0  0  0  0  0  0  0
  -50.5740   22.0190   38.4810 C   0  0  0  0  0  0  0  0  0  0  0  0
  -50.5363   25.2648   28.6777 H   0  0  0  0  0  0  0  0  0  0  0  0
  -48.9774   24.7474   29.2735 H   0  0  0  0  0  0  0  0  0  0  0  0
  -49.4942   26.4011   29.4997 H   0  0  0  0  0  0  0  0  0  0  0  0
  -48.7864   25.5237   31.7660 H   0  0  0  0  0  0  0  0  0  0  0  0
  -50.8854   23.9189   33.0162 H   0  0  0  0  0  0  0  0  0  0  0  0
  -48.1537   24.6378   34.0888 H   0  0  0  0  0  0  0  0  0  0  0  0
  -49.2722   23.3926   34.7050 H   0  0  0  0  0  0  0  0  0  0  0  0
  -47.9952   23.2521   32.0179 H   0  0  0  0  0  0  0  0  0  0  0  0
  -47.0737   21.9568   34.5543 H   0  0  0  0  0  0  0  0  0  0  0  0
  -46.2455   23.2317   33.6931 H   0  0  0  0  0  0  0  0  0  0  0  0
  -46.4315   21.6580   32.9570 H   0  0  0  0  0  0  0  0  0  0  0  0
  -49.3984   21.2142   33.7037 H   0  0  0  0  0  0  0  0  0  0  0  0
  -48.6863   20.9307   32.1335 H   0  0  0  0  0  0  0  0  0  0  0  0
  -50.0562   22.0039   32.2906 H   0  0  0  0  0  0  0  0  0  0  0  0
  -51.8124   24.4003   34.9938 H   0  0  0  0  0  0  0  0  0  0  0  0
  -52.1318   27.1994   35.5412 H   0  0  0  0  0  0  0  0  0  0  0  0
  -53.7144   26.4321   37.2983 H   0  0  0  0  0  0  0  0  0  0  0  0
  -52.8704   23.8210   36.4667 H   0  0  0  0  0  0  0  0  0  0  0  0
  -54.0483   24.9656   34.7021 H   0  0  0  0  0  0  0  0  0  0  0  0
  -54.5208   26.6201   35.0063 H   0  0  0  0  0  0  0  0  0  0  0  0
  -55.3215   25.3142   35.8469 H   0  0  0  0  0  0  0  0  0  0  0  0
  -51.9890   27.9405   37.9085 H   0  0  0  0  0  0  0  0  0  0  0  0
  -49.4056   27.4682   38.9700 H   0  0  0  0  0  0  0  0  0  0  0  0
  -51.7975   28.6001   40.3543 H   0  0  0  0  0  0  0  0  0  0  0  0
  -50.6103   29.5037   39.4448 H   0  0  0  0  0  0  0  0  0  0  0  0
  -50.1455   28.6855   40.9170 H   0  0  0  0  0  0  0  0  0  0  0  0
  -52.6068   26.0790   39.6024 H   0  0  0  0  0  0  0  0  0  0  0  0
  -51.8808   24.6416   41.9147 H   0  0  0  0  0  0  0  0  0  0  0  0
  -53.9919   23.9713   39.9014 H   0  0  0  0  0  0  0  0  0  0  0  0
  -54.1971   25.0070   41.2936 H   0  0  0  0  0  0  0  0  0  0  0  0
  -53.8651   23.3055   41.5119 H   0  0  0  0  0  0  0  0  0  0  0  0
  -51.7934   23.7560   38.4890 H   0  0  0  0  0  0  0  0  0  0  0  0
  -50.1403   21.4240   39.2574 H   0  0  0  0  0  0  0  0  0  0  0  0
  -49.7981   22.4164   37.8606 H   0  0  0  0  0  0  0  0  0  0  0  0
  -51.2279   21.4125   37.8898 H   0  0  0  0  0  0  0  0  0  0  0  0
  1  2  1  0  0  0  0
  1 31  1  0  0  0  0
  1 32  1  0  0  0  0
  1 33  1  0  0  0  0
  2  3  2  0  0  0  0
  2  4  1  0  0  0  0
  4  5  1  0  0  0  0
  4 34  1  0  0  0  0
  5  8  1  0  0  0  0
  5  6  1  0  0  0  0
  5 35  1  6  0  0  0
  6 12  1  0  0  0  0
  7  6  2  0  0  0  0
  8 36  1  0  0  0  0
  8 37  1  0  0  0  0
  9 10  1  0  0  0  0
  9  8  1  0  0  0  0
  9 38  1  0  0  0  0
 10 39  1  0  0  0  0
 10 40  1  0  0  0  0
 10 41  1  0  0  0  0
 11  9  1  0  0  0  0
 11 42  1  0  0  0  0
 11 43  1  0  0  0  0
 11 44  1  0  0  0  0
 12 13  1  0  0  0  0
 12 45  1  0  0  0  0
 13 16  1  0  0  0  0
 13 14  1  0  0  0  0
 13 46  1  6  0  0  0
 14 15  2  0  0  0  0
 14 19  1  0  0  0  0
 16 17  1  0  0  0  0
 16 47  1  1  0  0  0
 17 48  1  0  0  0  0
 18 16  1  0  0  0  0
 18 49  1  0  0  0  0
 18 50  1  0  0  0  0
 18 51  1  0  0  0  0
 19 20  1  0  0  0  0
 19 52  1  0  0  0  0
 20 23  1  0  0  0  0
 20 21  1  0  0  0  0
 20 53  1  6  0  0  0
 21 24  1  0  0  0  0
 21 22  2  0  0  0  0
 23 54  1  0  0  0  0
 23 55  1  0  0  0  0
 23 56  1  0  0  0  0
 24 25  1  0  0  0  0
 24 57  1  0  0  0  0
 25 58  1  1  0  0  0
 26 25  1  0  0  0  0
 26 27  2  0  0  0  0
 28 25  1  0  0  0  0
 28 59  1  0  0  0  0
 28 60  1  0  0  0  0
 28 61  1  0  0  0  0
 29 26  1  0  0  0  0
 29 62  1  0  0  0  0
 30 29  1  0  0  0  0
 30 63  1  0  0  0  0
 30 64  1  0  0  0  0
 30 65  1  0  0  0  0
M  END
>  <MODEL>
       0

$$$$
selected_4mers/LTAA/573_noH.pdb
 OpenBabel03042518233D

 65 64  0  0  1  0  0  0  0  0999 V2000
   41.8030   46.7950    2.9710 C   0  0  0  0  0  0  0  0  0  0  0  0
   41.9530   45.3040    3.2670 C   0  0  0  0  0  0  0  0  0  0  0  0
   41.1370   44.7130    3.9750 O   0  0  0  0  0  0  0  0  0  0  0  0
   43.0200   44.7090    2.7440 N   0  0  0  0  0  0  0  0  0  0  0  0
   43.2740   43.2980    2.9980 C   0  0  2  0  0  0  0  0  0  0  0  0
   43.3900   43.0300    4.4870 C   0  0  0  0  0  0  0  0  0  0  0  0
   42.7700   42.0950    4.9990 O   0  0  0  0  0  0  0  0  0  0  0  0
   44.5310   42.8130    2.2710 C   0  0  0  0  0  0  0  0  0  0  0  0
   44.8400   41.3070    2.4650 C   0  0  0  0  0  0  0  0  0  0  0  0
   43.6180   40.4310    2.1790 C   0  0  0  0  0  0  0  0  0  0  0  0
   45.9980   40.9100    1.6060 C   0  0  0  0  0  0  0  0  0  0  0  0
   44.1520   43.8670    5.1850 N   0  0  0  0  0  0  0  0  0  0  0  0
   44.3490   43.7110    6.6300 C   0  0  2  0  0  0  0  0  0  0  0  0
   43.0280   43.8610    7.3750 C   0  0  0  0  0  0  0  0  0  0  0  0
   42.7260   43.0900    8.2840 O   0  0  0  0  0  0  0  0  0  0  0  0
   45.3380   44.7460    7.1570 C   0  0  2  0  0  0  0  0  0  0  0  0
   46.6170   44.4460    6.6170 O   0  0  0  0  0  0  0  0  0  0  0  0
   45.4410   44.7050    8.6990 C   0  0  0  0  0  0  0  0  0  0  0  0
   42.2500   44.8690    7.0050 N   0  0  0  0  0  0  0  0  0  0  0  0
   41.0190   45.1170    7.7250 C   0  0  2  0  0  0  0  0  0  0  0  0
   40.0590   43.9520    7.5670 C   0  0  0  0  0  0  0  0  0  0  0  0
   39.4490   43.5190    8.5530 O   0  0  0  0  0  0  0  0  0  0  0  0
   40.3820   46.4170    7.2850 C   0  0  0  0  0  0  0  0  0  0  0  0
   39.9260   43.4390    6.3400 N   0  0  0  0  0  0  0  0  0  0  0  0
   39.0250   42.3030    6.0710 C   0  0  2  0  0  0  0  0  0  0  0  0
   39.4500   41.0100    6.7730 C   0  0  0  0  0  0  0  0  0  0  0  0
   38.6010   40.2690    7.2850 O   0  0  0  0  0  0  0  0  0  0  0  0
   38.8750   42.0580    4.5480 C   0  0  0  0  0  0  0  0  0  0  0  0
   40.7530   40.7390    6.7880 N   0  0  0  0  0  0  0  0  0  0  0  0
   41.2690   39.5120    7.4210 C   0  0  0  0  0  0  0  0  0  0  0  0
   42.6072   47.1166    2.3427 H   0  0  0  0  0  0  0  0  0  0  0  0
   41.8255   47.3448    3.8886 H   0  0  0  0  0  0  0  0  0  0  0  0
   40.8712   46.9680    2.4743 H   0  0  0  0  0  0  0  0  0  0  0  0
   43.6420   45.2250    2.1818 H   0  0  0  0  0  0  0  0  0  0  0  0
   42.4394   42.7489    2.6148 H   0  0  0  0  0  0  0  0  0  0  0  0
   44.4046   42.9969    1.2245 H   0  0  0  0  0  0  0  0  0  0  0  0
   45.3546   43.3510    2.6918 H   0  0  0  0  0  0  0  0  0  0  0  0
   45.0988   41.1518    3.4916 H   0  0  0  0  0  0  0  0  0  0  0  0
   43.3218   40.5543    1.1582 H   0  0  0  0  0  0  0  0  0  0  0  0
   42.8130   40.7210    2.8215 H   0  0  0  0  0  0  0  0  0  0  0  0
   43.8649   39.4053    2.3573 H   0  0  0  0  0  0  0  0  0  0  0  0
   45.7474   41.0622    0.5769 H   0  0  0  0  0  0  0  0  0  0  0  0
   46.2252   39.8772    1.7688 H   0  0  0  0  0  0  0  0  0  0  0  0
   46.8498   41.5066    1.8577 H   0  0  0  0  0  0  0  0  0  0  0  0
   44.5961   44.6119    4.7190 H   0  0  0  0  0  0  0  0  0  0  0  0
   44.7410   42.7296    6.7977 H   0  0  0  0  0  0  0  0  0  0  0  0
   44.9994   45.7191    6.8683 H   0  0  0  0  0  0  0  0  0  0  0  0
   46.8877   43.5587    6.9006 H   0  0  0  0  0  0  0  0  0  0  0  0
   45.7788   43.7380    9.0083 H   0  0  0  0  0  0  0  0  0  0  0  0
   44.4796   44.9004    9.1260 H   0  0  0  0  0  0  0  0  0  0  0  0
   46.1360   45.4482    9.0299 H   0  0  0  0  0  0  0  0  0  0  0  0
   42.5072   45.4433    6.2478 H   0  0  0  0  0  0  0  0  0  0  0  0
   41.2555   45.2098    8.7644 H   0  0  0  0  0  0  0  0  0  0  0  0
   40.1321   46.3581    6.2463 H   0  0  0  0  0  0  0  0  0  0  0  0
   41.0695   47.2219    7.4413 H   0  0  0  0  0  0  0  0  0  0  0  0
   39.4940   46.5904    7.8562 H   0  0  0  0  0  0  0  0  0  0  0  0
   40.4420   43.8290    5.5978 H   0  0  0  0  0  0  0  0  0  0  0  0
   38.0764   42.5810    6.4806 H   0  0  0  0  0  0  0  0  0  0  0  0
   39.8227   41.7798    4.1365 H   0  0  0  0  0  0  0  0  0  0  0  0
   38.5298   42.9535    4.0750 H   0  0  0  0  0  0  0  0  0  0  0  0
   38.1690   41.2715    4.3811 H   0  0  0  0  0  0  0  0  0  0  0  0
   41.3830   41.3690    6.3691 H   0  0  0  0  0  0  0  0  0  0  0  0
   40.4534   38.9477    7.8226 H   0  0  0  0  0  0  0  0  0  0  0  0
   41.9438   39.7739    8.2090 H   0  0  0  0  0  0  0  0  0  0  0  0
   41.7844   38.9236    6.6909 H   0  0  0  0  0  0  0  0  0  0  0  0
  1  2  1  0  0  0  0
  1 31  1  0  0  0  0
  1 32  1  0  0  0  0
  1 33  1  0  0  0  0
  2  3  2  0  0  0  0
  4  5  1  0  0  0  0
  4  2  1  0  0  0  0
  4 34  1  0  0  0  0
  5  6  1  0  0  0  0
  5 35  1  6  0  0  0
  6  7  2  0  0  0  0
  6 12  1  0  0  0  0
  8  9  1  0  0  0  0
  8  5  1  0  0  0  0
  8 36  1  0  0  0  0
  8 37  1  0  0  0  0
  9 38  1  0  0  0  0
 10  9  1  0  0  0  0
 10 39  1  0  0  0  0
 10 40  1  0  0  0  0
 10 41  1  0  0  0  0
 11  9  1  0  0  0  0
 11 42  1  0  0  0  0
 11 43  1  0  0  0  0
 11 44  1  0  0  0  0
 12 13  1  0  0  0  0
 12 45  1  0  0  0  0
 13 16  1  0  0  0  0
 13 14  1  0  0  0  0
 13 46  1  1  0  0  0
 14 15  2  0  0  0  0
 16 18  1  0  0  0  0
 16 47  1  6  0  0  0
 17 16  1  0  0  0  0
 17 48  1  0  0  0  0
 18 49  1  0  0  0  0
 18 50  1  0  0  0  0
 18 51  1  0  0  0  0
 19 14  1  0  0  0  0
 19 20  1  0  0  0  0
 19 52  1  0  0  0  0
 20 53  1  1  0  0  0
 21 20  1  0  0  0  0
 21 22  2  0  0  0  0
 23 20  1  0  0  0  0
 23 54  1  0  0  0  0
 23 55  1  0  0  0  0
 23 56  1  0  0  0  0
 24 21  1  0  0  0  0
 24 57  1  0  0  0  0
 25 24  1  0  0  0  0
 25 26  1  0  0  0  0
 25 58  1  1  0  0  0
 26 29  1  0  0  0  0
 26 27  2  0  0  0  0
 28 25  1  0  0  0  0
 28 59  1  0  0  0  0
 28 60  1  0  0  0  0
 28 61  1  0  0  0  0
 29 30  1  0  0  0  0
 29 62  1  0  0  0  0
 30 63  1  0  0  0  0
 30 64  1  0  0  0  0
 30 65  1  0  0  0  0
M  END
>  <MODEL>
       0

$$$$
selected_4mers/LTAA/574_noH.pdb
 OpenBabel03042518233D

 65 64  0  0  1  0  0  0  0  0999 V2000
   28.1440   29.3200   54.1460 C   0  0  0  0  0  0  0  0  0  0  0  0
   29.4480   28.6960   53.6790 C   0  0  0  0  0  0  0  0  0  0  0  0
   29.6850   27.5050   53.9350 O   0  0  0  0  0  0  0  0  0  0  0  0
   30.2790   29.5120   53.0510 N   0  0  0  0  0  0  0  0  0  0  0  0
   31.5750   29.0290   52.6390 C   0  0  2  0  0  0  0  0  0  0  0  0
   32.4020   28.6350   53.8810 C   0  0  0  0  0  0  0  0  0  0  0  0
   33.0040   27.5640   53.9220 O   0  0  0  0  0  0  0  0  0  0  0  0
   32.2960   30.0760   51.8150 C   0  0  0  0  0  0  0  0  0  0  0  0
   33.7520   29.7150   51.5290 C   0  0  0  0  0  0  0  0  0  0  0  0
   33.9040   28.3740   50.7800 C   0  0  0  0  0  0  0  0  0  0  0  0
   34.3900   30.8620   50.7260 C   0  0  0  0  0  0  0  0  0  0  0  0
   32.3850   29.4750   54.9180 N   0  0  0  0  0  0  0  0  0  0  0  0
   33.0840   29.1480   56.1890 C   0  0  2  0  0  0  0  0  0  0  0  0
   32.6060   27.8180   56.7550 C   0  0  0  0  0  0  0  0  0  0  0  0
   33.4310   26.9520   57.1520 O   0  0  0  0  0  0  0  0  0  0  0  0
   32.8990   30.2900   57.2170 C   0  0  2  0  0  0  0  0  0  0  0  0
   33.4360   31.4900   56.6580 O   0  0  0  0  0  0  0  0  0  0  0  0
   33.6110   30.0030   58.5270 C   0  0  0  0  0  0  0  0  0  0  0  0
   31.2860   27.6550   56.8200 N   0  0  0  0  0  0  0  0  0  0  0  0
   30.7090   26.4410   57.3730 C   0  0  2  0  0  0  0  0  0  0  0  0
   31.1050   25.2450   56.5130 C   0  0  0  0  0  0  0  0  0  0  0  0
   31.4820   24.2010   57.0360 O   0  0  0  0  0  0  0  0  0  0  0  0
   29.1690   26.5970   57.3720 C   0  0  0  0  0  0  0  0  0  0  0  0
   31.0250   25.3920   55.1800 N   0  0  0  0  0  0  0  0  0  0  0  0
   31.3230   24.2760   54.2890 C   0  0  2  0  0  0  0  0  0  0  0  0
   32.7630   23.8270   54.4250 C   0  0  0  0  0  0  0  0  0  0  0  0
   33.0720   22.6600   54.3790 O   0  0  0  0  0  0  0  0  0  0  0  0
   31.0500   24.6840   52.8620 C   0  0  0  0  0  0  0  0  0  0  0  0
   33.6510   24.8010   54.6050 N   0  0  0  0  0  0  0  0  0  0  0  0
   35.0550   24.4480   54.7770 C   0  0  0  0  0  0  0  0  0  0  0  0
   28.1091   30.3446   53.8397 H   0  0  0  0  0  0  0  0  0  0  0  0
   28.0840   29.2645   55.2129 H   0  0  0  0  0  0  0  0  0  0  0  0
   27.3205   28.7904   53.7144 H   0  0  0  0  0  0  0  0  0  0  0  0
   30.0150   30.4422   52.8661 H   0  0  0  0  0  0  0  0  0  0  0  0
   31.4471   28.1624   52.0245 H   0  0  0  0  0  0  0  0  0  0  0  0
   31.7834   30.1878   50.8825 H   0  0  0  0  0  0  0  0  0  0  0  0
   32.2977   30.9831   52.3825 H   0  0  0  0  0  0  0  0  0  0  0  0
   34.2546   29.5860   52.4648 H   0  0  0  0  0  0  0  0  0  0  0  0
   33.4183   28.4397   49.8289 H   0  0  0  0  0  0  0  0  0  0  0  0
   33.4563   27.5911   51.3558 H   0  0  0  0  0  0  0  0  0  0  0  0
   34.9428   28.1616   50.6361 H   0  0  0  0  0  0  0  0  0  0  0  0
   33.8747   30.9754   49.7952 H   0  0  0  0  0  0  0  0  0  0  0  0
   35.4192   30.6369   50.5388 H   0  0  0  0  0  0  0  0  0  0  0  0
   34.3198   31.7713   51.2856 H   0  0  0  0  0  0  0  0  0  0  0  0
   31.9000   30.3282   54.8399 H   0  0  0  0  0  0  0  0  0  0  0  0
   34.1288   29.0506   55.9795 H   0  0  0  0  0  0  0  0  0  0  0  0
   31.8538   30.3842   57.4259 H   0  0  0  0  0  0  0  0  0  0  0  0
   34.3822   31.3694   56.4817 H   0  0  0  0  0  0  0  0  0  0  0  0
   34.6612   29.9036   58.3478 H   0  0  0  0  0  0  0  0  0  0  0  0
   33.2332   29.0941   58.9466 H   0  0  0  0  0  0  0  0  0  0  0  0
   33.4404   30.8090   59.2097 H   0  0  0  0  0  0  0  0  0  0  0  0
   30.6923   28.3671   56.4887 H   0  0  0  0  0  0  0  0  0  0  0  0
   31.0656   26.2808   58.3690 H   0  0  0  0  0  0  0  0  0  0  0  0
   28.8273   26.7564   56.3706 H   0  0  0  0  0  0  0  0  0  0  0  0
   28.8949   27.4339   57.9798 H   0  0  0  0  0  0  0  0  0  0  0  0
   28.7203   25.7086   57.7649 H   0  0  0  0  0  0  0  0  0  0  0  0
   30.7626   26.2617   54.8006 H   0  0  0  0  0  0  0  0  0  0  0  0
   30.6940   23.4544   54.5615 H   0  0  0  0  0  0  0  0  0  0  0  0
   31.6830   25.5055   52.5986 H   0  0  0  0  0  0  0  0  0  0  0  0
   30.0257   24.9775   52.7647 H   0  0  0  0  0  0  0  0  0  0  0  0
   31.2478   23.8583   52.2109 H   0  0  0  0  0  0  0  0  0  0  0  0
   33.3653   25.7430   54.6218 H   0  0  0  0  0  0  0  0  0  0  0  0
   35.1639   23.3847   54.7287 H   0  0  0  0  0  0  0  0  0  0  0  0
   35.3970   24.7987   55.7283 H   0  0  0  0  0  0  0  0  0  0  0  0
   35.6345   24.9015   54.0002 H   0  0  0  0  0  0  0  0  0  0  0  0
  1 31  1  0  0  0  0
  1 32  1  0  0  0  0
  1 33  1  0  0  0  0
  2  3  2  0  0  0  0
  2  1  1  0  0  0  0
  4  2  1  0  0  0  0
  4 34  1  0  0  0  0
  5  4  1  0  0  0  0
  5  6  1  0  0  0  0
  5 35  1  6  0  0  0
  6  7  2  0  0  0  0
  6 12  1  0  0  0  0
  8  5  1  0  0  0  0
  8 36  1  0  0  0  0
  8 37  1  0  0  0  0
  9  8  1  0  0  0  0
  9 38  1  0  0  0  0
 10  9  1  0  0  0  0
 10 39  1  0  0  0  0
 10 40  1  0  0  0  0
 10 41  1  0  0  0  0
 11  9  1  0  0  0  0
 11 42  1  0  0  0  0
 11 43  1  0  0  0  0
 11 44  1  0  0  0  0
 12 13  1  0  0  0  0
 12 45  1  0  0  0  0
 13 14  1  0  0  0  0
 13 16  1  0  0  0  0
 13 46  1  6  0  0  0
 14 19  1  0  0  0  0
 14 15  2  0  0  0  0
 16 18  1  0  0  0  0
 16 47  1  1  0  0  0
 17 16  1  0  0  0  0
 17 48  1  0  0  0  0
 18 49  1  0  0  0  0
 18 50  1  0  0  0  0
 18 51  1  0  0  0  0
 19 20  1  0  0  0  0
 19 52  1  0  0  0  0
 20 53  1  1  0  0  0
 21 22  2  0  0  0  0
 21 20  1  0  0  0  0
 23 20  1  0  0  0  0
 23 54  1  0  0  0  0
 23 55  1  0  0  0  0
 23 56  1  0  0  0  0
 24 21  1  0  0  0  0
 24 57  1  0  0  0  0
 25 26  1  0  0  0  0
 25 24  1  0  0  0  0
 25 58  1  1  0  0  0
 26 29  1  0  0  0  0
 27 26  2  0  0  0  0
 28 25  1  0  0  0  0
 28 59  1  0  0  0  0
 28 60  1  0  0  0  0
 28 61  1  0  0  0  0
 29 30  1  0  0  0  0
 29 62  1  0  0  0  0
 30 63  1  0  0  0  0
 30 64  1  0  0  0  0
 30 65  1  0  0  0  0
M  END
>  <MODEL>
       0

$$$$
