selected_4mers/LTIS/660_noH.pdb
 OpenBabel03042518233D

 75 74  0  0  1  0  0  0  0  0999 V2000
   28.0860  -15.7160   62.5810 C   0  0  0  0  0  0  0  0  0  0  0  0
   26.9490  -14.7450   62.3710 C   0  0  0  0  0  0  0  0  0  0  0  0
   26.2730  -14.7650   61.3470 O   0  0  0  0  0  0  0  0  0  0  0  0
   26.7400  -13.8800   63.3520 N   0  0  0  0  0  0  0  0  0  0  0  0
   25.7590  -12.8200   63.2180 C   0  0  2  0  0  0  0  0  0  0  0  0
   26.3570  -11.6310   62.4410 C   0  0  0  0  0  0  0  0  0  0  0  0
   27.5850  -11.5120   62.3190 O   0  0  0  0  0  0  0  0  0  0  0  0
   25.2440  -12.3820   64.5970 C   0  0  0  0  0  0  0  0  0  0  0  0
   24.5210  -13.4950   65.3760 C   0  0  0  0  0  0  0  0  0  0  0  0
   23.9960  -12.9090   66.6880 C   0  0  0  0  0  0  0  0  0  0  0  0
   23.3800  -14.0920   64.6170 C   0  0  0  0  0  0  0  0  0  0  0  0
   25.4450  -10.9060   61.8120 N   0  0  0  0  0  0  0  0  0  0  0  0
   25.8430   -9.8310   60.8790 C   0  0  2  0  0  0  0  0  0  0  0  0
   24.8930   -8.6770   61.1510 C   0  0  0  0  0  0  0  0  0  0  0  0
   23.8470   -8.8730   61.7710 O   0  0  0  0  0  0  0  0  0  0  0  0
   25.6960  -10.2120   59.4280 C   0  0  2  0  0  0  0  0  0  0  0  0
   24.2930  -10.4950   59.2050 O   0  0  0  0  0  0  0  0  0  0  0  0
   26.5370  -11.4420   59.0250 C   0  0  0  0  0  0  0  0  0  0  0  0
   25.2170   -7.4880   60.6640 N   0  0  0  0  0  0  0  0  0  0  0  0
   24.2980   -6.3730   60.7810 C   0  0  2  0  0  0  0  0  0  0  0  0
   22.9620   -6.6890   60.1440 C   0  0  0  0  0  0  0  0  0  0  0  0
   21.9170   -6.3140   60.7180 O   0  0  0  0  0  0  0  0  0  0  0  0
   24.9010   -5.0700   60.2210 C   0  0  2  0  0  0  0  0  0  0  0  0
   26.1230   -4.6480   61.0300 C   0  0  0  0  0  0  0  0  0  0  0  0
   23.8400   -3.9600   60.2070 C   0  0  0  0  0  0  0  0  0  0  0  0
   25.8820   -4.5420   62.5480 C   0  0  0  0  0  0  0  0  0  0  0  0
   22.9570   -7.3620   58.9950 N   0  0  0  0  0  0  0  0  0  0  0  0
   21.7020   -7.7450   58.3700 C   0  0  2  0  0  0  0  0  0  0  0  0
   20.8530   -8.5820   59.3400 C   0  0  0  0  0  0  0  0  0  0  0  0
   19.6450   -8.3330   59.5200 O   0  0  0  0  0  0  0  0  0  0  0  0
   22.0100   -8.5450   57.1080 C   0  0  0  0  0  0  0  0  0  0  0  0
   20.8280   -9.0370   56.5180 O   0  0  0  0  0  0  0  0  0  0  0  0
   21.4640   -9.5880   59.9690 N   0  0  0  0  0  0  0  0  0  0  0  0
   20.7230  -10.4170   60.9100 C   0  0  0  0  0  0  0  0  0  0  0  0
   28.1636  -16.3632   61.7325 H   0  0  0  0  0  0  0  0  0  0  0  0
   27.8995  -16.2991   63.4585 H   0  0  0  0  0  0  0  0  0  0  0  0
   29.0006  -15.1737   62.7008 H   0  0  0  0  0  0  0  0  0  0  0  0
   27.2586  -13.9577   64.1852 H   0  0  0  0  0  0  0  0  0  0  0  0
   24.9246  -13.1930   62.6616 H   0  0  0  0  0  0  0  0  0  0  0  0
   24.5615  -11.5696   64.4591 H   0  0  0  0  0  0  0  0  0  0  0  0
   26.1011  -12.1055   65.1747 H   0  0  0  0  0  0  0  0  0  0  0  0
   25.2276  -14.2795   65.5495 H   0  0  0  0  0  0  0  0  0  0  0  0
   23.2942  -12.1299   66.4751 H   0  0  0  0  0  0  0  0  0  0  0  0
   24.8126  -12.5091   67.2520 H   0  0  0  0  0  0  0  0  0  0  0  0
   23.5140  -13.6782   67.2546 H   0  0  0  0  0  0  0  0  0  0  0  0
   22.6473  -13.3369   64.4221 H   0  0  0  0  0  0  0  0  0  0  0  0
   22.9385  -14.8765   65.1953 H   0  0  0  0  0  0  0  0  0  0  0  0
   23.7374  -14.4899   63.6902 H   0  0  0  0  0  0  0  0  0  0  0  0
   24.4896  -11.0853   61.9677 H   0  0  0  0  0  0  0  0  0  0  0  0
   26.8760   -9.6014   61.0376 H   0  0  0  0  0  0  0  0  0  0  0  0
   26.0535   -9.4015   58.8278 H   0  0  0  0  0  0  0  0  0  0  0  0
   24.0185  -11.2342   59.7699 H   0  0  0  0  0  0  0  0  0  0  0  0
   26.2234  -12.2910   59.5958 H   0  0  0  0  0  0  0  0  0  0  0  0
   27.5711  -11.2454   59.2169 H   0  0  0  0  0  0  0  0  0  0  0  0
   26.3994  -11.6422   57.9829 H   0  0  0  0  0  0  0  0  0  0  0  0
   26.0866   -7.3611   60.2203 H   0  0  0  0  0  0  0  0  0  0  0  0
   24.1261   -6.2131   61.8249 H   0  0  0  0  0  0  0  0  0  0  0  0
   25.2205   -5.2452   59.2149 H   0  0  0  0  0  0  0  0  0  0  0  0
   26.4437   -3.6908   60.6754 H   0  0  0  0  0  0  0  0  0  0  0  0
   26.8571   -5.4142   60.8923 H   0  0  0  0  0  0  0  0  0  0  0  0
   23.5083   -3.7710   61.2066 H   0  0  0  0  0  0  0  0  0  0  0  0
   23.0090   -4.2685   59.6078 H   0  0  0  0  0  0  0  0  0  0  0  0
   24.2634   -3.0670   59.7969 H   0  0  0  0  0  0  0  0  0  0  0  0
   25.1511   -3.7847   62.7411 H   0  0  0  0  0  0  0  0  0  0  0  0
   26.7984   -4.2863   63.0376 H   0  0  0  0  0  0  0  0  0  0  0  0
   25.5291   -5.4813   62.9196 H   0  0  0  0  0  0  0  0  0  0  0  0
   23.8098   -7.6019   58.5656 H   0  0  0  0  0  0  0  0  0  0  0  0
   21.1437   -6.8684   58.1154 H   0  0  0  0  0  0  0  0  0  0  0  0
   22.5132   -7.9121   56.4072 H   0  0  0  0  0  0  0  0  0  0  0  0
   22.6282   -9.3765   57.3751 H   0  0  0  0  0  0  0  0  0  0  0  0
   20.2566   -8.2934   56.2701 H   0  0  0  0  0  0  0  0  0  0  0  0
   22.4161   -9.7699   59.7969 H   0  0  0  0  0  0  0  0  0  0  0  0
   19.7113  -10.0735   60.9680 H   0  0  0  0  0  0  0  0  0  0  0  0
   21.1774  -10.3528   61.8766 H   0  0  0  0  0  0  0  0  0  0  0  0
   20.7360  -11.4337   60.5767 H   0  0  0  0  0  0  0  0  0  0  0  0
  1 35  1  0  0  0  0
  1 36  1  0  0  0  0
  1 37  1  0  0  0  0
  2  1  1  0  0  0  0
  2  4  1  0  0  0  0
  3  2  2  0  0  0  0
  4 38  1  0  0  0  0
  5  4  1  0  0  0  0
  5  8  1  0  0  0  0
  5 39  1  6  0  0  0
  6  5  1  0  0  0  0
  7  6  2  0  0  0  0
  8  9  1  0  0  0  0
  8 40  1  0  0  0  0
  8 41  1  0  0  0  0
  9 10  1  0  0  0  0
  9 42  1  0  0  0  0
 10 43  1  0  0  0  0
 10 44  1  0  0  0  0
 10 45  1  0  0  0  0
 11  9  1  0  0  0  0
 11 46  1  0  0  0  0
 11 47  1  0  0  0  0
 11 48  1  0  0  0  0
 12  6  1  0  0  0  0
 12 49  1  0  0  0  0
 13 14  1  0  0  0  0
 13 12  1  0  0  0  0
 13 50  1  1  0  0  0
 14 15  2  0  0  0  0
 16 13  1  0  0  0  0
 16 51  1  6  0  0  0
 17 16  1  0  0  0  0
 17 52  1  0  0  0  0
 18 16  1  0  0  0  0
 18 53  1  0  0  0  0
 18 54  1  0  0  0  0
 18 55  1  0  0  0  0
 19 20  1  0  0  0  0
 19 14  1  0  0  0  0
 19 56  1  0  0  0  0
 20 57  1  1  0  0  0
 21 22  2  0  0  0  0
 21 20  1  0  0  0  0
 23 20  1  0  0  0  0
 23 24  1  0  0  0  0
 23 58  1  6  0  0  0
 24 26  1  0  0  0  0
 24 59  1  0  0  0  0
 24 60  1  0  0  0  0
 25 23  1  0  0  0  0
 25 61  1  0  0  0  0
 25 62  1  0  0  0  0
 25 63  1  0  0  0  0
 26 64  1  0  0  0  0
 26 65  1  0  0  0  0
 26 66  1  0  0  0  0
 27 21  1  0  0  0  0
 27 67  1  0  0  0  0
 28 27  1  0  0  0  0
 28 29  1  0  0  0  0
 28 68  1  6  0  0  0
 29 30  2  0  0  0  0
 29 33  1  0  0  0  0
 31 28  1  0  0  0  0
 31 69  1  0  0  0  0
 31 70  1  0  0  0  0
 32 31  1  0  0  0  0
 32 71  1  0  0  0  0
 33 34  1  0  0  0  0
 33 72  1  0  0  0  0
 34 73  1  0  0  0  0
 34 74  1  0  0  0  0
 34 75  1  0  0  0  0
M  END
>  <MODEL>
       0

$$$$
selected_4mers/LTIS/661_noH.pdb
 OpenBabel03042518233D

 75 74  0  0  1  0  0  0  0  0999 V2000
   51.6130   31.2040    3.4210 C   0  0  0  0  0  0  0  0  0  0  0  0
   50.9810   31.5860    4.7430 C   0  0  0  0  0  0  0  0  0  0  0  0
   50.1780   30.8460    5.3060 O   0  0  0  0  0  0  0  0  0  0  0  0
   51.3890   32.7480    5.2290 N   0  0  0  0  0  0  0  0  0  0  0  0
   50.8860   33.3280    6.4600 C   0  0  2  0  0  0  0  0  0  0  0  0
   50.1250   34.5710    6.0370 C   0  0  0  0  0  0  0  0  0  0  0  0
   50.6510   35.4030    5.2860 O   0  0  0  0  0  0  0  0  0  0  0  0
   52.0460   33.7350    7.3690 C   0  0  0  0  0  0  0  0  0  0  0  0
   51.6720   34.5960    8.5890 C   0  0  0  0  0  0  0  0  0  0  0  0
   50.7860   33.8100    9.5400 C   0  0  0  0  0  0  0  0  0  0  0  0
   52.9390   35.0260    9.2910 C   0  0  0  0  0  0  0  0  0  0  0  0
   48.8830   34.6860    6.4880 N   0  0  0  0  0  0  0  0  0  0  0  0
   48.0850   35.8560    6.1720 C   0  0  2  0  0  0  0  0  0  0  0  0
   47.8300   36.6270    7.4520 C   0  0  0  0  0  0  0  0  0  0  0  0
   47.3880   36.0670    8.4510 O   0  0  0  0  0  0  0  0  0  0  0  0
   46.7590   35.4660    5.5260 C   0  0  2  0  0  0  0  0  0  0  0  0
   47.0240   34.9120    4.2340 O   0  0  0  0  0  0  0  0  0  0  0  0
   45.8570   36.6840    5.3750 C   0  0  0  0  0  0  0  0  0  0  0  0
   48.1360   37.9170    7.4330 N   0  0  0  0  0  0  0  0  0  0  0  0
   47.9360   38.7400    8.6210 C   0  0  2  0  0  0  0  0  0  0  0  0
   46.9260   39.8180    8.2520 C   0  0  0  0  0  0  0  0  0  0  0  0
   47.2030   40.6580    7.3820 O   0  0  0  0  0  0  0  0  0  0  0  0
   49.2330   39.4260    9.0360 C   0  0  2  0  0  0  0  0  0  0  0  0
   50.3670   38.4070    9.1450 C   0  0  0  0  0  0  0  0  0  0  0  0
   49.0350   40.1490   10.3540 C   0  0  0  0  0  0  0  0  0  0  0  0
   51.7190   39.0500    9.4130 C   0  0  0  0  0  0  0  0  0  0  0  0
   45.7680   39.8020    8.9080 N   0  0  0  0  0  0  0  0  0  0  0  0
   44.7180   40.7810    8.6260 C   0  0  2  0  0  0  0  0  0  0  0  0
   44.7080   41.9660    9.5820 C   0  0  0  0  0  0  0  0  0  0  0  0
   45.3510   41.9490   10.6310 O   0  0  0  0  0  0  0  0  0  0  0  0
   43.3430   40.1070    8.6490 C   0  0  0  0  0  0  0  0  0  0  0  0
   43.2510   39.1240    7.6360 O   0  0  0  0  0  0  0  0  0  0  0  0
   43.9660   43.0000    9.2000 N   0  0  0  0  0  0  0  0  0  0  0  0
   43.8390   44.2160   10.0000 C   0  0  0  0  0  0  0  0  0  0  0  0
   52.2774   31.9812    3.1055 H   0  0  0  0  0  0  0  0  0  0  0  0
   50.8476   31.0687    2.6856 H   0  0  0  0  0  0  0  0  0  0  0  0
   52.1606   30.2922    3.5377 H   0  0  0  0  0  0  0  0  0  0  0  0
   52.0728   33.2470    4.7263 H   0  0  0  0  0  0  0  0  0  0  0  0
   50.2749   32.6345    6.9990 H   0  0  0  0  0  0  0  0  0  0  0  0
   52.7465   34.2884    6.7792 H   0  0  0  0  0  0  0  0  0  0  0  0
   52.4370   32.8220    7.7670 H   0  0  0  0  0  0  0  0  0  0  0  0
   51.1293   35.4590    8.2642 H   0  0  0  0  0  0  0  0  0  0  0  0
   51.3094   32.9403    9.8785 H   0  0  0  0  0  0  0  0  0  0  0  0
   49.8924   33.5132    9.0318 H   0  0  0  0  0  0  0  0  0  0  0  0
   50.5321   34.4228   10.3796 H   0  0  0  0  0  0  0  0  0  0  0  0
   53.4789   34.1606    9.6143 H   0  0  0  0  0  0  0  0  0  0  0  0
   52.6898   35.6285   10.1394 H   0  0  0  0  0  0  0  0  0  0  0  0
   53.5455   35.5934    8.6164 H   0  0  0  0  0  0  0  0  0  0  0  0
   48.4983   33.9697    7.0432 H   0  0  0  0  0  0  0  0  0  0  0  0
   48.6196   36.4629    5.4714 H   0  0  0  0  0  0  0  0  0  0  0  0
   46.2632   34.7494    6.1470 H   0  0  0  0  0  0  0  0  0  0  0  0
   47.4729   35.5734    3.6845 H   0  0  0  0  0  0  0  0  0  0  0  0
   46.3398   37.4108    4.7556 H   0  0  0  0  0  0  0  0  0  0  0  0
   45.6653   37.1076    6.3387 H   0  0  0  0  0  0  0  0  0  0  0  0
   44.9322   36.3893    4.9246 H   0  0  0  0  0  0  0  0  0  0  0  0
   48.5002   38.3217    6.6127 H   0  0  0  0  0  0  0  0  0  0  0  0
   47.6010   38.1267    9.4312 H   0  0  0  0  0  0  0  0  0  0  0  0
   49.5009   40.1423    8.2876 H   0  0  0  0  0  0  0  0  0  0  0  0
   50.4248   37.8615    8.2263 H   0  0  0  0  0  0  0  0  0  0  0  0
   50.1456   37.7688    9.9748 H   0  0  0  0  0  0  0  0  0  0  0  0
   48.7664   39.4426   11.1115 H   0  0  0  0  0  0  0  0  0  0  0  0
   48.2549   40.8738   10.2495 H   0  0  0  0  0  0  0  0  0  0  0  0
   49.9440   40.6408   10.6311 H   0  0  0  0  0  0  0  0  0  0  0  0
   51.9734   39.6976    8.6001 H   0  0  0  0  0  0  0  0  0  0  0  0
   52.4638   38.2878    9.5084 H   0  0  0  0  0  0  0  0  0  0  0  0
   51.6709   39.6171   10.3191 H   0  0  0  0  0  0  0  0  0  0  0  0
   45.6147   39.1166    9.5979 H   0  0  0  0  0  0  0  0  0  0  0  0
   44.9356   41.1668    7.6520 H   0  0  0  0  0  0  0  0  0  0  0  0
   43.1947   39.6440    9.6022 H   0  0  0  0  0  0  0  0  0  0  0  0
   42.5927   40.8501    8.4764 H   0  0  0  0  0  0  0  0  0  0  0  0
   43.9274   38.4444    7.7826 H   0  0  0  0  0  0  0  0  0  0  0  0
   43.4827   42.9446    8.3441 H   0  0  0  0  0  0  0  0  0  0  0  0
   44.4206   44.1179   10.8928 H   0  0  0  0  0  0  0  0  0  0  0  0
   42.8117   44.3673   10.2583 H   0  0  0  0  0  0  0  0  0  0  0  0
   44.1917   45.0533    9.4347 H   0  0  0  0  0  0  0  0  0  0  0  0
  1  2  1  0  0  0  0
  1 35  1  0  0  0  0
  1 36  1  0  0  0  0
  1 37  1  0  0  0  0
  2  4  1  0  0  0  0
  2  3  2  0  0  0  0
  4  5  1  0  0  0  0
  4 38  1  0  0  0  0
  5  8  1  0  0  0  0
  5 39  1  1  0  0  0
  6  5  1  0  0  0  0
  6 12  1  0  0  0  0
  7  6  2  0  0  0  0
  8  9  1  0  0  0  0
  8 40  1  0  0  0  0
  8 41  1  0  0  0  0
  9 11  1  0  0  0  0
  9 10  1  0  0  0  0
  9 42  1  0  0  0  0
 10 43  1  0  0  0  0
 10 44  1  0  0  0  0
 10 45  1  0  0  0  0
 11 46  1  0  0  0  0
 11 47  1  0  0  0  0
 11 48  1  0  0  0  0
 12 49  1  0  0  0  0
 13 12  1  0  0  0  0
 13 14  1  0  0  0  0
 13 50  1  6  0  0  0
 14 15  2  0  0  0  0
 16 13  1  0  0  0  0
 16 51  1  1  0  0  0
 17 16  1  0  0  0  0
 17 52  1  0  0  0  0
 18 16  1  0  0  0  0
 18 53  1  0  0  0  0
 18 54  1  0  0  0  0
 18 55  1  0  0  0  0
 19 14  1  0  0  0  0
 19 20  1  0  0  0  0
 19 56  1  0  0  0  0
 20 23  1  0  0  0  0
 20 57  1  1  0  0  0
 21 20  1  0  0  0  0
 21 27  1  0  0  0  0
 22 21  2  0  0  0  0
 23 24  1  0  0  0  0
 23 25  1  0  0  0  0
 23 58  1  6  0  0  0
 24 26  1  0  0  0  0
 24 59  1  0  0  0  0
 24 60  1  0  0  0  0
 25 61  1  0  0  0  0
 25 62  1  0  0  0  0
 25 63  1  0  0  0  0
 26 64  1  0  0  0  0
 26 65  1  0  0  0  0
 26 66  1  0  0  0  0
 27 67  1  0  0  0  0
 28 31  1  0  0  0  0
 28 27  1  0  0  0  0
 28 29  1  0  0  0  0
 28 68  1  6  0  0  0
 29 30  2  0  0  0  0
 31 69  1  0  0  0  0
 31 70  1  0  0  0  0
 32 31  1  0  0  0  0
 32 71  1  0  0  0  0
 33 29  1  0  0  0  0
 33 34  1  0  0  0  0
 33 72  1  0  0  0  0
 34 73  1  0  0  0  0
 34 74  1  0  0  0  0
 34 75  1  0  0  0  0
M  END
>  <MODEL>
       0

$$$$
selected_4mers/LTIS/662_noH.pdb
 OpenBabel03042518233D

 75 74  0  0  1  0  0  0  0  0999 V2000
   -8.9470   -6.2190   37.0590 C   0  0  0  0  0  0  0  0  0  0  0  0
   -8.4950   -4.8360   36.6170 C   0  0  0  0  0  0  0  0  0  0  0  0
   -8.6510   -4.4720   35.4580 O   0  0  0  0  0  0  0  0  0  0  0  0
   -7.9600   -4.0680   37.5610 N   0  0  0  0  0  0  0  0  0  0  0  0
   -7.3870   -2.7620   37.2760 C   0  0  2  0  0  0  0  0  0  0  0  0
   -6.2170   -2.5910   38.2330 C   0  0  0  0  0  0  0  0  0  0  0  0
   -6.3830   -2.8290   39.4320 O   0  0  0  0  0  0  0  0  0  0  0  0
   -8.3990   -1.6220   37.4860 C   0  0  0  0  0  0  0  0  0  0  0  0
   -9.6460   -1.5260   36.6000 C   0  0  0  0  0  0  0  0  0  0  0  0
  -10.6590   -0.4720   37.1570 C   0  0  0  0  0  0  0  0  0  0  0  0
   -9.2510   -1.2140   35.1570 C   0  0  0  0  0  0  0  0  0  0  0  0
   -5.0350   -2.2370   37.7040 N   0  0  0  0  0  0  0  0  0  0  0  0
   -3.8620   -1.9690   38.5410 C   0  0  2  0  0  0  0  0  0  0  0  0
   -3.6960   -0.4670   38.5940 C   0  0  0  0  0  0  0  0  0  0  0  0
   -3.6140    0.2230   37.5590 O   0  0  0  0  0  0  0  0  0  0  0  0
   -2.6070   -2.7240   38.1390 C   0  0  2  0  0  0  0  0  0  0  0  0
   -1.6140   -2.4980   39.1510 O   0  0  0  0  0  0  0  0  0  0  0  0
   -2.1060   -2.3230   36.7230 C   0  0  0  0  0  0  0  0  0  0  0  0
   -3.6290    0.0190   39.8310 N   0  0  0  0  0  0  0  0  0  0  0  0
   -3.7470    1.4360   40.1390 C   0  0  2  0  0  0  0  0  0  0  0  0
   -2.6850    1.9390   41.0780 C   0  0  0  0  0  0  0  0  0  0  0  0
   -2.3340    1.2720   42.0470 O   0  0  0  0  0  0  0  0  0  0  0  0
   -5.1270    1.6230   40.8500 C   0  0  2  0  0  0  0  0  0  0  0  0
   -6.2770    1.0320   40.0090 C   0  0  0  0  0  0  0  0  0  0  0  0
   -5.4230    3.0750   41.1580 C   0  0  0  0  0  0  0  0  0  0  0  0
   -7.5740    0.8080   40.7960 C   0  0  0  0  0  0  0  0  0  0  0  0
   -2.1490    3.1150   40.7830 N   0  0  0  0  0  0  0  0  0  0  0  0
   -1.1190    3.6910   41.6280 C   0  0  2  0  0  0  0  0  0  0  0  0
   -1.6300    4.0000   43.0450 C   0  0  0  0  0  0  0  0  0  0  0  0
   -2.8250    4.2180   43.2650 O   0  0  0  0  0  0  0  0  0  0  0  0
   -0.5990    5.0050   41.0180 C   0  0  0  0  0  0  0  0  0  0  0  0
   -1.5980    6.0100   41.0650 O   0  0  0  0  0  0  0  0  0  0  0  0
   -0.7110    4.0440   44.0200 N   0  0  0  0  0  0  0  0  0  0  0  0
   -1.1120    4.4140   45.3630 C   0  0  0  0  0  0  0  0  0  0  0  0
   -9.3584   -6.7441   36.2224 H   0  0  0  0  0  0  0  0  0  0  0  0
   -9.6914   -6.1241   37.8217 H   0  0  0  0  0  0  0  0  0  0  0  0
   -8.1092   -6.7620   37.4439 H   0  0  0  0  0  0  0  0  0  0  0  0
   -7.9513   -4.3961   38.4892 H   0  0  0  0  0  0  0  0  0  0  0  0
   -7.0857   -2.7143   36.2504 H   0  0  0  0  0  0  0  0  0  0  0  0
   -8.7438   -1.6983   38.4960 H   0  0  0  0  0  0  0  0  0  0  0  0
   -7.8418   -0.7486   37.2187 H   0  0  0  0  0  0  0  0  0  0  0  0
  -10.1401   -2.4750   36.6118 H   0  0  0  0  0  0  0  0  0  0  0  0
  -10.2011    0.4950   37.1617 H   0  0  0  0  0  0  0  0  0  0  0  0
  -10.9389   -0.7389   38.1546 H   0  0  0  0  0  0  0  0  0  0  0  0
  -11.5299   -0.4512   36.5357 H   0  0  0  0  0  0  0  0  0  0  0  0
   -8.7539   -0.2672   35.1200 H   0  0  0  0  0  0  0  0  0  0  0  0
  -10.1289   -1.1800   34.5463 H   0  0  0  0  0  0  0  0  0  0  0  0
   -8.5936   -1.9764   34.7944 H   0  0  0  0  0  0  0  0  0  0  0  0
   -4.9538   -2.1551   36.7263 H   0  0  0  0  0  0  0  0  0  0  0  0
   -4.0289   -2.3542   39.5252 H   0  0  0  0  0  0  0  0  0  0  0  0
   -2.8220   -3.7700   38.0717 H   0  0  0  0  0  0  0  0  0  0  0  0
   -1.4217   -1.5490   39.2091 H   0  0  0  0  0  0  0  0  0  0  0  0
   -1.8685   -1.2798   36.7109 H   0  0  0  0  0  0  0  0  0  0  0  0
   -2.8725   -2.5227   36.0037 H   0  0  0  0  0  0  0  0  0  0  0  0
   -1.2321   -2.8906   36.4799 H   0  0  0  0  0  0  0  0  0  0  0  0
   -3.4928   -0.6116   40.5746 H   0  0  0  0  0  0  0  0  0  0  0  0
   -3.6465    1.9838   39.2254 H   0  0  0  0  0  0  0  0  0  0  0  0
   -5.0589    1.0919   41.7764 H   0  0  0  0  0  0  0  0  0  0  0  0
   -6.4844    1.7045   39.2030 H   0  0  0  0  0  0  0  0  0  0  0  0
   -5.9506    0.0710   39.6702 H   0  0  0  0  0  0  0  0  0  0  0  0
   -5.4955    3.6260   40.2436 H   0  0  0  0  0  0  0  0  0  0  0  0
   -4.6346    3.4804   41.7571 H   0  0  0  0  0  0  0  0  0  0  0  0
   -6.3482    3.1451   41.6910 H   0  0  0  0  0  0  0  0  0  0  0  0
   -7.9393    1.7470   41.1562 H   0  0  0  0  0  0  0  0  0  0  0  0
   -7.3809    0.1589   41.6244 H   0  0  0  0  0  0  0  0  0  0  0  0
   -8.3067    0.3619   40.1565 H   0  0  0  0  0  0  0  0  0  0  0  0
   -2.4524    3.6023   39.9832 H   0  0  0  0  0  0  0  0  0  0  0  0
   -0.3385    2.9618   41.6912 H   0  0  0  0  0  0  0  0  0  0  0  0
    0.2564    5.3341   41.5702 H   0  0  0  0  0  0  0  0  0  0  0  0
   -0.3363    4.8291   39.9958 H   0  0  0  0  0  0  0  0  0  0  0  0
   -1.8444    6.1781   41.9880 H   0  0  0  0  0  0  0  0  0  0  0  0
    0.2293    3.8266   43.8254 H   0  0  0  0  0  0  0  0  0  0  0  0
   -2.1633    4.6127   45.3793 H   0  0  0  0  0  0  0  0  0  0  0  0
   -0.5785    5.2907   45.6657 H   0  0  0  0  0  0  0  0  0  0  0  0
   -0.8902    3.6116   46.0353 H   0  0  0  0  0  0  0  0  0  0  0  0
  1 35  1  0  0  0  0
  1 36  1  0  0  0  0
  1 37  1  0  0  0  0
  2  1  1  0  0  0  0
  2  4  1  0  0  0  0
  3  2  2  0  0  0  0
  4 38  1  0  0  0  0
  5  8  1  0  0  0  0
  5  4  1  0  0  0  0
  5  6  1  0  0  0  0
  5 39  1  6  0  0  0
  6  7  2  0  0  0  0
  8 40  1  0  0  0  0
  8 41  1  0  0  0  0
  9 10  1  0  0  0  0
  9  8  1  0  0  0  0
  9 42  1  0  0  0  0
 10 43  1  0  0  0  0
 10 44  1  0  0  0  0
 10 45  1  0  0  0  0
 11  9  1  0  0  0  0
 11 46  1  0  0  0  0
 11 47  1  0  0  0  0
 11 48  1  0  0  0  0
 12  6  1  0  0  0  0
 12 13  1  0  0  0  0
 12 49  1  0  0  0  0
 13 14  1  0  0  0  0
 13 50  1  1  0  0  0
 14 19  1  0  0  0  0
 15 14  2  0  0  0  0
 16 13  1  0  0  0  0
 16 17  1  0  0  0  0
 16 51  1  6  0  0  0
 17 52  1  0  0  0  0
 18 16  1  0  0  0  0
 18 53  1  0  0  0  0
 18 54  1  0  0  0  0
 18 55  1  0  0  0  0
 19 20  1  0  0  0  0
 19 56  1  0  0  0  0
 20 23  1  0  0  0  0
 20 21  1  0  0  0  0
 20 57  1  6  0  0  0
 21 22  2  0  0  0  0
 23 25  1  0  0  0  0
 23 58  1  1  0  0  0
 24 26  1  0  0  0  0
 24 23  1  0  0  0  0
 24 59  1  0  0  0  0
 24 60  1  0  0  0  0
 25 61  1  0  0  0  0
 25 62  1  0  0  0  0
 25 63  1  0  0  0  0
 26 64  1  0  0  0  0
 26 65  1  0  0  0  0
 26 66  1  0  0  0  0
 27 21  1  0  0  0  0
 27 28  1  0  0  0  0
 27 67  1  0  0  0  0
 28 29  1  0  0  0  0
 28 68  1  1  0  0  0
 29 30  2  0  0  0  0
 29 33  1  0  0  0  0
 31 32  1  0  0  0  0
 31 28  1  0  0  0  0
 31 69  1  0  0  0  0
 31 70  1  0  0  0  0
 32 71  1  0  0  0  0
 33 34  1  0  0  0  0
 33 72  1  0  0  0  0
 34 73  1  0  0  0  0
 34 74  1  0  0  0  0
 34 75  1  0  0  0  0
M  END
>  <MODEL>
       0

$$$$
selected_4mers/LTIS/663_noH.pdb
 OpenBabel03042518233D

 75 74  0  0  1  0  0  0  0  0999 V2000
    6.4640   34.3060   51.5750 C   0  0  0  0  0  0  0  0  0  0  0  0
    7.4690   33.1950   51.3530 C   0  0  0  0  0  0  0  0  0  0  0  0
    8.0890   32.6850   52.2990 O   0  0  0  0  0  0  0  0  0  0  0  0
    7.5760   32.8080   50.0900 N   0  0  0  0  0  0  0  0  0  0  0  0
    8.6060   31.9090   49.6160 C   0  0  2  0  0  0  0  0  0  0  0  0
    9.4700   32.7120   48.6500 C   0  0  0  0  0  0  0  0  0  0  0  0
    8.9410   33.3720   47.7590 O   0  0  0  0  0  0  0  0  0  0  0  0
    7.9540   30.7400   48.8910 C   0  0  0  0  0  0  0  0  0  0  0  0
    8.8720   29.7260   48.2290 C   0  0  0  0  0  0  0  0  0  0  0  0
    9.8780   29.2220   49.2330 C   0  0  0  0  0  0  0  0  0  0  0  0
    8.0490   28.5850   47.6520 C   0  0  0  0  0  0  0  0  0  0  0  0
   10.7800   32.6580   48.8220 N   0  0  0  0  0  0  0  0  0  0  0  0
   11.6820   33.4690   48.0100 C   0  0  2  0  0  0  0  0  0  0  0  0
   12.7580   32.5930   47.3720 C   0  0  0  0  0  0  0  0  0  0  0  0
   13.2260   31.6270   47.9840 O   0  0  0  0  0  0  0  0  0  0  0  0
   12.3300   34.5870   48.8590 C   0  0  2  0  0  0  0  0  0  0  0  0
   11.3090   35.4070   49.4540 O   0  0  0  0  0  0  0  0  0  0  0  0
   13.2340   35.4730   48.0040 C   0  0  0  0  0  0  0  0  0  0  0  0
   13.1140   32.9200   46.1290 N   0  0  0  0  0  0  0  0  0  0  0  0
   14.2630   32.3080   45.4490 C   0  0  2  0  0  0  0  0  0  0  0  0
   15.2640   33.4320   45.1900 C   0  0  0  0  0  0  0  0  0  0  0  0
   14.9270   34.4280   44.5630 O   0  0  0  0  0  0  0  0  0  0  0  0
   13.8670   31.6220   44.1150 C   0  0  2  0  0  0  0  0  0  0  0  0
   12.5440   30.8580   44.2700 C   0  0  0  0  0  0  0  0  0  0  0  0
   14.9790   30.6830   43.6550 C   0  0  0  0  0  0  0  0  0  0  0  0
   12.0520   30.1700   43.0100 C   0  0  0  0  0  0  0  0  0  0  0  0
   16.4780   33.3130   45.7210 N   0  0  0  0  0  0  0  0  0  0  0  0
   17.4360   34.4190   45.6350 C   0  0  2  0  0  0  0  0  0  0  0  0
   17.9090   34.6510   44.2050 C   0  0  0  0  0  0  0  0  0  0  0  0
   18.2540   35.7770   43.8330 O   0  0  0  0  0  0  0  0  0  0  0  0
   18.6440   34.1690   46.5420 C   0  0  0  0  0  0  0  0  0  0  0  0
   19.2810   32.9640   46.1780 O   0  0  0  0  0  0  0  0  0  0  0  0
   17.9400   33.5800   43.4190 N   0  0  0  0  0  0  0  0  0  0  0  0
   18.3970   33.6380   42.0400 C   0  0  0  0  0  0  0  0  0  0  0  0
    6.0456   34.6014   50.6356 H   0  0  0  0  0  0  0  0  0  0  0  0
    6.9525   35.1438   52.0271 H   0  0  0  0  0  0  0  0  0  0  0  0
    5.6838   33.9578   52.2192 H   0  0  0  0  0  0  0  0  0  0  0  0
    6.9203   33.1501   49.4402 H   0  0  0  0  0  0  0  0  0  0  0  0
    9.1950   31.5186   50.4195 H   0  0  0  0  0  0  0  0  0  0  0  0
    7.3561   30.2131   49.6050 H   0  0  0  0  0  0  0  0  0  0  0  0
    7.4134   31.1871   48.0831 H   0  0  0  0  0  0  0  0  0  0  0  0
    9.4043   30.1905   47.4254 H   0  0  0  0  0  0  0  0  0  0  0  0
    9.3655   28.7529   50.0467 H   0  0  0  0  0  0  0  0  0  0  0  0
   10.4562   30.0434   49.6017 H   0  0  0  0  0  0  0  0  0  0  0  0
   10.5261   28.5121   48.7630 H   0  0  0  0  0  0  0  0  0  0  0  0
    7.5061   28.1036   48.4384 H   0  0  0  0  0  0  0  0  0  0  0  0
    8.7001   27.8772   47.1829 H   0  0  0  0  0  0  0  0  0  0  0  0
    7.3616   28.9713   46.9287 H   0  0  0  0  0  0  0  0  0  0  0  0
   11.1534   32.0605   49.5096 H   0  0  0  0  0  0  0  0  0  0  0  0
   11.1095   33.9287   47.2317 H   0  0  0  0  0  0  0  0  0  0  0  0
   12.9184   34.1192   49.6205 H   0  0  0  0  0  0  0  0  0  0  0  0
   10.7824   35.8256   48.7551 H   0  0  0  0  0  0  0  0  0  0  0  0
   12.6519   35.9444   47.2398 H   0  0  0  0  0  0  0  0  0  0  0  0
   13.9970   34.8738   47.5527 H   0  0  0  0  0  0  0  0  0  0  0  0
   13.6863   36.2214   48.6206 H   0  0  0  0  0  0  0  0  0  0  0  0
   12.5861   33.5980   45.6486 H   0  0  0  0  0  0  0  0  0  0  0  0
   14.6778   31.5368   46.0639 H   0  0  0  0  0  0  0  0  0  0  0  0
   13.7291   32.3785   43.3710 H   0  0  0  0  0  0  0  0  0  0  0  0
   12.6775   30.1121   45.0255 H   0  0  0  0  0  0  0  0  0  0  0  0
   11.8035   31.5882   44.5218 H   0  0  0  0  0  0  0  0  0  0  0  0
   15.1284   29.9200   44.3901 H   0  0  0  0  0  0  0  0  0  0  0  0
   15.8848   31.2382   43.5280 H   0  0  0  0  0  0  0  0  0  0  0  0
   14.7033   30.2326   42.7244 H   0  0  0  0  0  0  0  0  0  0  0  0
   12.7592   29.4247   42.7112 H   0  0  0  0  0  0  0  0  0  0  0  0
   11.9435   30.8925   42.2283 H   0  0  0  0  0  0  0  0  0  0  0  0
   11.1063   29.7077   43.2021 H   0  0  0  0  0  0  0  0  0  0  0  0
   16.7343   32.4775   46.1742 H   0  0  0  0  0  0  0  0  0  0  0  0
   16.9239   35.2986   45.9651 H   0  0  0  0  0  0  0  0  0  0  0  0
   18.3161   34.1032   47.5584 H   0  0  0  0  0  0  0  0  0  0  0  0
   19.3362   34.9779   46.4350 H   0  0  0  0  0  0  0  0  0  0  0  0
   18.6575   32.2271   46.2732 H   0  0  0  0  0  0  0  0  0  0  0  0
   17.6425   32.7154   43.7839 H   0  0  0  0  0  0  0  0  0  0  0  0
   18.6827   34.6410   41.8008 H   0  0  0  0  0  0  0  0  0  0  0  0
   17.6067   33.3274   41.3890 H   0  0  0  0  0  0  0  0  0  0  0  0
   19.2380   32.9883   41.9153 H   0  0  0  0  0  0  0  0  0  0  0  0
  1 35  1  0  0  0  0
  1 36  1  0  0  0  0
  1 37  1  0  0  0  0
  2  1  1  0  0  0  0
  2  3  2  0  0  0  0
  4  2  1  0  0  0  0
  4 38  1  0  0  0  0
  5  4  1  0  0  0  0
  5 39  1  1  0  0  0
  6 12  1  0  0  0  0
  6  5  1  0  0  0  0
  7  6  2  0  0  0  0
  8  5  1  0  0  0  0
  8 40  1  0  0  0  0
  8 41  1  0  0  0  0
  9  8  1  0  0  0  0
  9 10  1  0  0  0  0
  9 42  1  0  0  0  0
 10 43  1  0  0  0  0
 10 44  1  0  0  0  0
 10 45  1  0  0  0  0
 11  9  1  0  0  0  0
 11 46  1  0  0  0  0
 11 47  1  0  0  0  0
 11 48  1  0  0  0  0
 12 49  1  0  0  0  0
 13 12  1  0  0  0  0
 13 16  1  0  0  0  0
 13 50  1  6  0  0  0
 14 15  2  0  0  0  0
 14 13  1  0  0  0  0
 16 17  1  0  0  0  0
 16 51  1  1  0  0  0
 17 52  1  0  0  0  0
 18 16  1  0  0  0  0
 18 53  1  0  0  0  0
 18 54  1  0  0  0  0
 18 55  1  0  0  0  0
 19 14  1  0  0  0  0
 19 56  1  0  0  0  0
 20 19  1  0  0  0  0
 20 57  1  1  0  0  0
 21 20  1  0  0  0  0
 21 27  1  0  0  0  0
 22 21  2  0  0  0  0
 23 24  1  0  0  0  0
 23 20  1  0  0  0  0
 23 58  1  6  0  0  0
 24 59  1  0  0  0  0
 24 60  1  0  0  0  0
 25 23  1  0  0  0  0
 25 61  1  0  0  0  0
 25 62  1  0  0  0  0
 25 63  1  0  0  0  0
 26 24  1  0  0  0  0
 26 64  1  0  0  0  0
 26 65  1  0  0  0  0
 26 66  1  0  0  0  0
 27 67  1  0  0  0  0
 28 27  1  0  0  0  0
 28 31  1  0  0  0  0
 28 68  1  1  0  0  0
 29 28  1  0  0  0  0
 30 29  2  0  0  0  0
 31 69  1  0  0  0  0
 31 70  1  0  0  0  0
 32 31  1  0  0  0  0
 32 71  1  0  0  0  0
 33 29  1  0  0  0  0
 33 72  1  0  0  0  0
 34 33  1  0  0  0  0
 34 73  1  0  0  0  0
 34 74  1  0  0  0  0
 34 75  1  0  0  0  0
M  END
>  <MODEL>
       0

$$$$
selected_4mers/LTIS/664_noH.pdb
 OpenBabel03042518233D

 75 74  0  0  1  0  0  0  0  0999 V2000
   50.6270   26.5810   12.6350 C   0  0  0  0  0  0  0  0  0  0  0  0
   51.7210   27.4710   13.2370 C   0  0  0  0  0  0  0  0  0  0  0  0
   51.6800   28.6870   13.1250 O   0  0  0  0  0  0  0  0  0  0  0  0
   52.7090   26.8540   13.8720 N   0  0  0  0  0  0  0  0  0  0  0  0
   53.8010   27.6210   14.4560 C   0  0  2  0  0  0  0  0  0  0  0  0
   54.5700   28.3690   13.3580 C   0  0  0  0  0  0  0  0  0  0  0  0
   54.7930   29.5920   13.4640 O   0  0  0  0  0  0  0  0  0  0  0  0
   54.7630   26.7020   15.1950 C   0  0  0  0  0  0  0  0  0  0  0  0
   55.9730   27.3890   15.7970 C   0  0  0  0  0  0  0  0  0  0  0  0
   55.5410   28.4020   16.8910 C   0  0  0  0  0  0  0  0  0  0  0  0
   56.8620   26.3080   16.4460 C   0  0  0  0  0  0  0  0  0  0  0  0
   54.9470   27.6480   12.3050 N   0  0  0  0  0  0  0  0  0  0  0  0
   55.7040   28.2610   11.2120 C   0  0  2  0  0  0  0  0  0  0  0  0
   54.9600   29.4320   10.5790 C   0  0  0  0  0  0  0  0  0  0  0  0
   55.5380   30.5180   10.4110 O   0  0  0  0  0  0  0  0  0  0  0  0
   56.0300   27.2260   10.1350 C   0  0  2  0  0  0  0  0  0  0  0  0
   56.6810   26.1000   10.7730 O   0  0  0  0  0  0  0  0  0  0  0  0
   57.0480   27.8590    9.0850 C   0  0  0  0  0  0  0  0  0  0  0  0
   53.6620   29.2620   10.2690 N   0  0  0  0  0  0  0  0  0  0  0  0
   52.9720   30.3690    9.6430 C   0  0  2  0  0  0  0  0  0  0  0  0
   52.7050   31.5120   10.6260 C   0  0  0  0  0  0  0  0  0  0  0  0
   52.7160   32.6860   10.2310 O   0  0  0  0  0  0  0  0  0  0  0  0
   51.6850   29.8520    8.8990 C   0  0  2  0  0  0  0  0  0  0  0  0
   51.0260   30.9800    8.0700 C   0  0  0  0  0  0  0  0  0  0  0  0
   50.7030   29.2570    9.9110 C   0  0  0  0  0  0  0  0  0  0  0  0
   51.9970   31.5670    6.9470 C   0  0  0  0  0  0  0  0  0  0  0  0
   52.5310   31.2110   11.9220 N   0  0  0  0  0  0  0  0  0  0  0  0
   52.2750   32.2670   12.9230 C   0  0  2  0  0  0  0  0  0  0  0  0
   53.4710   33.2720   12.9060 C   0  0  0  0  0  0  0  0  0  0  0  0
   53.2800   34.5170   12.9570 O   0  0  0  0  0  0  0  0  0  0  0  0
   52.0870   31.6890   14.3460 C   0  0  0  0  0  0  0  0  0  0  0  0
   53.2650   31.1460   14.9260 O   0  0  0  0  0  0  0  0  0  0  0  0
   54.6840   32.7510   12.8200 N   0  0  0  0  0  0  0  0  0  0  0  0
   55.8470   33.6840   12.7860 C   0  0  0  0  0  0  0  0  0  0  0  0
   49.8936   27.1936   12.1537 H   0  0  0  0  0  0  0  0  0  0  0  0
   50.1618   26.0122   13.4128 H   0  0  0  0  0  0  0  0  0  0  0  0
   51.0622   25.9161   11.9185 H   0  0  0  0  0  0  0  0  0  0  0  0
   52.7041   25.8725   13.9489 H   0  0  0  0  0  0  0  0  0  0  0  0
   53.3819   28.3240   15.1453 H   0  0  0  0  0  0  0  0  0  0  0  0
   55.1110   25.9621   14.5048 H   0  0  0  0  0  0  0  0  0  0  0  0
   54.2129   26.2927   16.0164 H   0  0  0  0  0  0  0  0  0  0  0  0
   56.4998   27.9170   15.0298 H   0  0  0  0  0  0  0  0  0  0  0  0
   55.0123   27.8867   17.6655 H   0  0  0  0  0  0  0  0  0  0  0  0
   54.9042   29.1448   16.4578 H   0  0  0  0  0  0  0  0  0  0  0  0
   56.4087   28.8728   17.3038 H   0  0  0  0  0  0  0  0  0  0  0  0
   56.3074   25.7997   17.2068 H   0  0  0  0  0  0  0  0  0  0  0  0
   57.7241   26.7690   16.8809 H   0  0  0  0  0  0  0  0  0  0  0  0
   57.1711   25.6055   15.7004 H   0  0  0  0  0  0  0  0  0  0  0  0
   54.7144   26.6924   12.2605 H   0  0  0  0  0  0  0  0  0  0  0  0
   56.6105   28.6363   11.6390 H   0  0  0  0  0  0  0  0  0  0  0  0
   55.1332   26.9217    9.6369 H   0  0  0  0  0  0  0  0  0  0  0  0
   57.4892   26.4023   11.2161 H   0  0  0  0  0  0  0  0  0  0  0  0
   57.9412   28.1603    9.5913 H   0  0  0  0  0  0  0  0  0  0  0  0
   56.5971   28.7106    8.6199 H   0  0  0  0  0  0  0  0  0  0  0  0
   57.2893   27.1311    8.3388 H   0  0  0  0  0  0  0  0  0  0  0  0
   53.1984   28.4150   10.4611 H   0  0  0  0  0  0  0  0  0  0  0  0
   53.6093   30.7982    8.8983 H   0  0  0  0  0  0  0  0  0  0  0  0
   51.9720   29.0837    8.2118 H   0  0  0  0  0  0  0  0  0  0  0  0
   50.1504   30.5891    7.5952 H   0  0  0  0  0  0  0  0  0  0  0  0
   50.7888   31.7784    8.7417 H   0  0  0  0  0  0  0  0  0  0  0  0
   50.4056   30.0136   10.6067 H   0  0  0  0  0  0  0  0  0  0  0  0
   51.1759   28.4545   10.4375 H   0  0  0  0  0  0  0  0  0  0  0  0
   49.8410   28.8869    9.3964 H   0  0  0  0  0  0  0  0  0  0  0  0
   52.2541   30.7910    6.2566 H   0  0  0  0  0  0  0  0  0  0  0  0
   52.8865   31.9447    7.4065 H   0  0  0  0  0  0  0  0  0  0  0  0
   51.5013   32.3588    6.4252 H   0  0  0  0  0  0  0  0  0  0  0  0
   52.5747   30.2708   12.2106 H   0  0  0  0  0  0  0  0  0  0  0  0
   51.3630   32.7636   12.6650 H   0  0  0  0  0  0  0  0  0  0  0  0
   51.3517   30.9133   14.2963 H   0  0  0  0  0  0  0  0  0  0  0  0
   51.7930   32.5079   14.9687 H   0  0  0  0  0  0  0  0  0  0  0  0
   53.5716   30.3957   14.3931 H   0  0  0  0  0  0  0  0  0  0  0  0
   54.8151   31.7761   12.7796 H   0  0  0  0  0  0  0  0  0  0  0  0
   55.4962   34.6934   12.8399 H   0  0  0  0  0  0  0  0  0  0  0  0
   56.3905   33.5435   11.8751 H   0  0  0  0  0  0  0  0  0  0  0  0
   56.4888   33.4845   13.6186 H   0  0  0  0  0  0  0  0  0  0  0  0
  1  2  1  0  0  0  0
  1 35  1  0  0  0  0
  1 36  1  0  0  0  0
  1 37  1  0  0  0  0
  2  4  1  0  0  0  0
  3  2  2  0  0  0  0
  4  5  1  0  0  0  0
  4 38  1  0  0  0  0
  5  8  1  0  0  0  0
  5 39  1  1  0  0  0
  6  7  2  0  0  0  0
  6  5  1  0  0  0  0
  8  9  1  0  0  0  0
  8 40  1  0  0  0  0
  8 41  1  0  0  0  0
  9 11  1  0  0  0  0
  9 10  1  0  0  0  0
  9 42  1  0  0  0  0
 10 43  1  0  0  0  0
 10 44  1  0  0  0  0
 10 45  1  0  0  0  0
 11 46  1  0  0  0  0
 11 47  1  0  0  0  0
 11 48  1  0  0  0  0
 12  6  1  0  0  0  0
 12 49  1  0  0  0  0
 13 12  1  0  0  0  0
 13 50  1  1  0  0  0
 14 13  1  0  0  0  0
 15 14  2  0  0  0  0
 16 17  1  0  0  0  0
 16 13  1  0  0  0  0
 16 51  1  6  0  0  0
 17 52  1  0  0  0  0
 18 16  1  0  0  0  0
 18 53  1  0  0  0  0
 18 54  1  0  0  0  0
 18 55  1  0  0  0  0
 19 14  1  0  0  0  0
 19 56  1  0  0  0  0
 20 19  1  0  0  0  0
 20 21  1  0  0  0  0
 20 57  1  6  0  0  0
 21 27  1  0  0  0  0
 22 21  2  0  0  0  0
 23 20  1  0  0  0  0
 23 25  1  0  0  0  0
 23 58  1  6  0  0  0
 24 23  1  0  0  0  0
 24 59  1  0  0  0  0
 24 60  1  0  0  0  0
 25 61  1  0  0  0  0
 25 62  1  0  0  0  0
 25 63  1  0  0  0  0
 26 24  1  0  0  0  0
 26 64  1  0  0  0  0
 26 65  1  0  0  0  0
 26 66  1  0  0  0  0
 27 28  1  0  0  0  0
 27 67  1  0  0  0  0
 28 31  1  0  0  0  0
 28 68  1  6  0  0  0
 29 28  1  0  0  0  0
 29 30  2  0  0  0  0
 31 32  1  0  0  0  0
 31 69  1  0  0  0  0
 31 70  1  0  0  0  0
 32 71  1  0  0  0  0
 33 29  1  0  0  0  0
 33 72  1  0  0  0  0
 34 33  1  0  0  0  0
 34 73  1  0  0  0  0
 34 74  1  0  0  0  0
 34 75  1  0  0  0  0
M  END
>  <MODEL>
       0

$$$$
