selected_4mers/LTLT/635_noH.pdb
 OpenBabel03042518233D

 78 77  0  0  1  0  0  0  0  0999 V2000
   28.2410  -23.3430   80.2920 C   0  0  0  0  0  0  0  0  0  0  0  0
   27.8880  -21.8810   80.0710 C   0  0  0  0  0  0  0  0  0  0  0  0
   28.6000  -20.9830   80.5390 O   0  0  0  0  0  0  0  0  0  0  0  0
   26.7770  -21.6310   79.3870 N   0  0  0  0  0  0  0  0  0  0  0  0
   26.2780  -20.2590   79.1950 C   0  0  2  0  0  0  0  0  0  0  0  0
   25.7870  -19.6460   80.4730 C   0  0  0  0  0  0  0  0  0  0  0  0
   25.9710  -18.4610   80.7010 O   0  0  0  0  0  0  0  0  0  0  0  0
   25.1170  -20.2460   78.2040 C   0  0  0  0  0  0  0  0  0  0  0  0
   25.4950  -20.5990   76.7750 C   0  0  0  0  0  0  0  0  0  0  0  0
   24.2290  -20.6410   75.9530 C   0  0  0  0  0  0  0  0  0  0  0  0
   26.4740  -19.6490   76.2060 C   0  0  0  0  0  0  0  0  0  0  0  0
   25.1540  -20.4550   81.3110 N   0  0  0  0  0  0  0  0  0  0  0  0
   24.6130  -19.9640   82.5700 C   0  0  2  0  0  0  0  0  0  0  0  0
   25.7540  -19.6290   83.5390 C   0  0  0  0  0  0  0  0  0  0  0  0
   25.7230  -18.5890   84.1900 O   0  0  0  0  0  0  0  0  0  0  0  0
   23.6470  -20.9910   83.2020 C   0  0  2  0  0  0  0  0  0  0  0  0
   22.5500  -21.2130   82.3140 O   0  0  0  0  0  0  0  0  0  0  0  0
   23.0880  -20.4660   84.5360 C   0  0  0  0  0  0  0  0  0  0  0  0
   26.7580  -20.4950   83.6090 N   0  0  0  0  0  0  0  0  0  0  0  0
   27.8200  -20.3530   84.6190 C   0  0  2  0  0  0  0  0  0  0  0  0
   28.9370  -19.3910   84.2410 C   0  0  0  0  0  0  0  0  0  0  0  0
   29.8540  -19.1770   85.0300 O   0  0  0  0  0  0  0  0  0  0  0  0
   28.4370  -21.7150   84.9360 C   0  0  0  0  0  0  0  0  0  0  0  0
   27.5070  -22.7270   85.6180 C   0  0  0  0  0  0  0  0  0  0  0  0
   28.2410  -24.0240   85.8370 C   0  0  0  0  0  0  0  0  0  0  0  0
   27.0080  -22.1780   86.9300 C   0  0  0  0  0  0  0  0  0  0  0  0
   28.8950  -18.8470   83.0400 N   0  0  0  0  0  0  0  0  0  0  0  0
   29.8550  -17.8220   82.6120 C   0  0  2  0  0  0  0  0  0  0  0  0
   29.2720  -16.4030   82.6190 C   0  0  0  0  0  0  0  0  0  0  0  0
   29.9760  -15.4210   82.3270 O   0  0  0  0  0  0  0  0  0  0  0  0
   30.4310  -18.1600   81.2140 C   0  0  2  0  0  0  0  0  0  0  0  0
   29.3540  -18.3950   80.2820 O   0  0  0  0  0  0  0  0  0  0  0  0
   31.3380  -19.4290   81.3240 C   0  0  0  0  0  0  0  0  0  0  0  0
   27.9940  -16.2780   82.9840 N   0  0  0  0  0  0  0  0  0  0  0  0
   27.4140  -14.9800   83.1970 C   0  0  0  0  0  0  0  0  0  0  0  0
   27.5111  -23.9624   79.8140 H   0  0  0  0  0  0  0  0  0  0  0  0
   28.2541  -23.5521   81.3413 H   0  0  0  0  0  0  0  0  0  0  0  0
   29.2063  -23.5436   79.8763 H   0  0  0  0  0  0  0  0  0  0  0  0
   26.2741  -22.3828   78.9982 H   0  0  0  0  0  0  0  0  0  0  0  0
   27.1060  -19.6901   78.8267 H   0  0  0  0  0  0  0  0  0  0  0  0
   24.3856  -20.9516   78.5388 H   0  0  0  0  0  0  0  0  0  0  0  0
   24.7530  -19.2401   78.1796 H   0  0  0  0  0  0  0  0  0  0  0  0
   25.9745  -21.5554   76.7626 H   0  0  0  0  0  0  0  0  0  0  0  0
   23.7588  -19.6801   75.9729 H   0  0  0  0  0  0  0  0  0  0  0  0
   23.5630  -21.3724   76.3609 H   0  0  0  0  0  0  0  0  0  0  0  0
   24.4681  -20.9003   74.9428 H   0  0  0  0  0  0  0  0  0  0  0  0
   26.0505  -18.6665   76.1912 H   0  0  0  0  0  0  0  0  0  0  0  0
   26.7208  -19.9461   75.2082 H   0  0  0  0  0  0  0  0  0  0  0  0
   27.3594  -19.6467   76.8068 H   0  0  0  0  0  0  0  0  0  0  0  0
   25.0478  -21.4055   81.0775 H   0  0  0  0  0  0  0  0  0  0  0  0
   24.0555  -19.0729   82.3701 H   0  0  0  0  0  0  0  0  0  0  0  0
   24.1867  -21.8983   83.3765 H   0  0  0  0  0  0  0  0  0  0  0  0
   22.0762  -20.3788   82.1705 H   0  0  0  0  0  0  0  0  0  0  0  0
   22.5478  -19.5586   84.3639 H   0  0  0  0  0  0  0  0  0  0  0  0
   23.8959  -20.2774   85.2117 H   0  0  0  0  0  0  0  0  0  0  0  0
   22.4316  -21.1969   84.9600 H   0  0  0  0  0  0  0  0  0  0  0  0
   26.7930  -21.2462   82.9736 H   0  0  0  0  0  0  0  0  0  0  0  0
   27.3304  -19.9351   85.4737 H   0  0  0  0  0  0  0  0  0  0  0  0
   29.2756  -21.5535   85.5807 H   0  0  0  0  0  0  0  0  0  0  0  0
   28.6917  -22.1458   83.9903 H   0  0  0  0  0  0  0  0  0  0  0  0
   26.6630  -22.9072   84.9854 H   0  0  0  0  0  0  0  0  0  0  0  0
   29.0872  -23.8526   86.4691 H   0  0  0  0  0  0  0  0  0  0  0  0
   28.5715  -24.4102   84.8954 H   0  0  0  0  0  0  0  0  0  0  0  0
   27.5857  -24.7305   86.3020 H   0  0  0  0  0  0  0  0  0  0  0  0
   27.8390  -21.9910   87.5775 H   0  0  0  0  0  0  0  0  0  0  0  0
   26.3521  -22.8888   87.3877 H   0  0  0  0  0  0  0  0  0  0  0  0
   26.4786  -21.2645   86.7562 H   0  0  0  0  0  0  0  0  0  0  0  0
   28.1968  -19.1380   82.4098 H   0  0  0  0  0  0  0  0  0  0  0  0
   30.6442  -17.8323   83.3345 H   0  0  0  0  0  0  0  0  0  0  0  0
   31.0159  -17.3376   80.8583 H   0  0  0  0  0  0  0  0  0  0  0  0
   28.8146  -19.1391   80.5922 H   0  0  0  0  0  0  0  0  0  0  0  0
   30.7561  -20.2536   81.6795 H   0  0  0  0  0  0  0  0  0  0  0  0
   32.1389  -19.2369   82.0071 H   0  0  0  0  0  0  0  0  0  0  0  0
   31.7397  -19.6649   80.3607 H   0  0  0  0  0  0  0  0  0  0  0  0
   27.4424  -17.0839   83.1087 H   0  0  0  0  0  0  0  0  0  0  0  0
   28.1517  -14.2260   83.0178 H   0  0  0  0  0  0  0  0  0  0  0  0
   27.0662  -14.9060   84.2062 H   0  0  0  0  0  0  0  0  0  0  0  0
   26.5924  -14.8419   82.5255 H   0  0  0  0  0  0  0  0  0  0  0  0
  1 36  1  0  0  0  0
  1 37  1  0  0  0  0
  1 38  1  0  0  0  0
  2  1  1  0  0  0  0
  2  3  2  0  0  0  0
  4  2  1  0  0  0  0
  4 39  1  0  0  0  0
  5  4  1  0  0  0  0
  5  6  1  0  0  0  0
  5 40  1  6  0  0  0
  6  7  2  0  0  0  0
  6 12  1  0  0  0  0
  8  5  1  0  0  0  0
  8 41  1  0  0  0  0
  8 42  1  0  0  0  0
  9  8  1  0  0  0  0
  9 43  1  0  0  0  0
 10  9  1  0  0  0  0
 10 44  1  0  0  0  0
 10 45  1  0  0  0  0
 10 46  1  0  0  0  0
 11  9  1  0  0  0  0
 11 47  1  0  0  0  0
 11 48  1  0  0  0  0
 11 49  1  0  0  0  0
 12 13  1  0  0  0  0
 12 50  1  0  0  0  0
 13 16  1  0  0  0  0
 13 14  1  0  0  0  0
 13 51  1  6  0  0  0
 14 19  1  0  0  0  0
 14 15  2  0  0  0  0
 16 18  1  0  0  0  0
 16 52  1  1  0  0  0
 17 16  1  0  0  0  0
 17 53  1  0  0  0  0
 18 54  1  0  0  0  0
 18 55  1  0  0  0  0
 18 56  1  0  0  0  0
 19 20  1  0  0  0  0
 19 57  1  0  0  0  0
 20 23  1  0  0  0  0
 20 58  1  1  0  0  0
 21 20  1  0  0  0  0
 21 22  2  0  0  0  0
 23 24  1  0  0  0  0
 23 59  1  0  0  0  0
 23 60  1  0  0  0  0
 24 25  1  0  0  0  0
 24 26  1  0  0  0  0
 24 61  1  0  0  0  0
 25 62  1  0  0  0  0
 25 63  1  0  0  0  0
 25 64  1  0  0  0  0
 26 65  1  0  0  0  0
 26 66  1  0  0  0  0
 26 67  1  0  0  0  0
 27 21  1  0  0  0  0
 27 68  1  0  0  0  0
 28 29  1  0  0  0  0
 28 27  1  0  0  0  0
 28 69  1  1  0  0  0
 29 34  1  0  0  0  0
 30 29  2  0  0  0  0
 31 33  1  0  0  0  0
 31 28  1  0  0  0  0
 31 70  1  6  0  0  0
 32 31  1  0  0  0  0
 32 71  1  0  0  0  0
 33 72  1  0  0  0  0
 33 73  1  0  0  0  0
 33 74  1  0  0  0  0
 34 35  1  0  0  0  0
 34 75  1  0  0  0  0
 35 76  1  0  0  0  0
 35 77  1  0  0  0  0
 35 78  1  0  0  0  0
M  END
>  <MODEL>
       0

$$$$
selected_4mers/LTLT/636_noH.pdb
 OpenBabel03042518233D

 78 77  0  0  1  0  0  0  0  0999 V2000
  -47.6730 -109.0310   21.9850 C   0  0  0  0  0  0  0  0  0  0  0  0
  -47.7980 -109.8630   20.6860 C   0  0  0  0  0  0  0  0  0  0  0  0
  -48.7630 -109.6630   19.9130 O   0  0  0  0  0  0  0  0  0  0  0  0
  -46.8220 -110.7620   20.4760 N   0  0  0  0  0  0  0  0  0  0  0  0
  -46.8060 -111.7610   19.4060 C   0  0  2  0  0  0  0  0  0  0  0  0
  -46.5130 -111.1170   18.0390 C   0  0  0  0  0  0  0  0  0  0  0  0
  -45.5210 -111.5010   17.4290 O   0  0  0  0  0  0  0  0  0  0  0  0
  -48.0770 -112.6480   19.3540 C   0  0  0  0  0  0  0  0  0  0  0  0
  -48.1450 -113.6780   18.1780 C   0  0  0  0  0  0  0  0  0  0  0  0
  -47.5250 -115.0050   18.6010 C   0  0  0  0  0  0  0  0  0  0  0  0
  -49.5960 -113.9530   17.6510 C   0  0  0  0  0  0  0  0  0  0  0  0
  -47.3410 -110.1620   17.5690 N   0  0  0  0  0  0  0  0  0  0  0  0
  -47.1710 -109.6090   16.2390 C   0  0  2  0  0  0  0  0  0  0  0  0
  -46.3680 -108.3430   16.2640 C   0  0  0  0  0  0  0  0  0  0  0  0
  -46.4280 -107.5860   17.2410 O   0  0  0  0  0  0  0  0  0  0  0  0
  -48.4910 -109.2670   15.5120 C   0  0  2  0  0  0  0  0  0  0  0  0
  -49.1470 -108.1310   16.1250 O   0  0  0  0  0  0  0  0  0  0  0  0
  -49.4170 -110.4830   15.4710 C   0  0  0  0  0  0  0  0  0  0  0  0
  -45.6340 -108.1120   15.1740 N   0  0  0  0  0  0  0  0  0  0  0  0
  -44.8730 -106.8870   15.0060 C   0  0  2  0  0  0  0  0  0  0  0  0
  -45.7760 -105.6430   15.1200 C   0  0  0  0  0  0  0  0  0  0  0  0
  -45.3810 -104.6670   15.7790 O   0  0  0  0  0  0  0  0  0  0  0  0
  -44.1210 -106.8950   13.6580 C   0  0  0  0  0  0  0  0  0  0  0  0
  -43.1430 -105.7460   13.3870 C   0  0  0  0  0  0  0  0  0  0  0  0
  -42.3030 -105.4590   14.5530 C   0  0  0  0  0  0  0  0  0  0  0  0
  -42.2180 -106.0570   12.1780 C   0  0  0  0  0  0  0  0  0  0  0  0
  -46.9750 -105.6710   14.5200 N   0  0  0  0  0  0  0  0  0  0  0  0
  -47.8810 -104.5290   14.6150 C   0  0  2  0  0  0  0  0  0  0  0  0
  -48.1850 -104.1020   16.0730 C   0  0  0  0  0  0  0  0  0  0  0  0
  -48.0790 -102.9080   16.4180 O   0  0  0  0  0  0  0  0  0  0  0  0
  -49.1750 -104.8230   13.8860 C   0  0  2  0  0  0  0  0  0  0  0  0
  -48.8670 -105.1540   12.5300 O   0  0  0  0  0  0  0  0  0  0  0  0
  -50.1430 -103.6020   13.9430 C   0  0  0  0  0  0  0  0  0  0  0  0
  -48.5190 -105.0770   16.9170 N   0  0  0  0  0  0  0  0  0  0  0  0
  -48.8030 -104.8550   18.3310 C   0  0  0  0  0  0  0  0  0  0  0  0
  -48.4960 -108.3506   22.0533 H   0  0  0  0  0  0  0  0  0  0  0  0
  -46.7556 -108.4806   21.9691 H   0  0  0  0  0  0  0  0  0  0  0  0
  -47.6810 -109.6866   22.8306 H   0  0  0  0  0  0  0  0  0  0  0  0
  -46.0544 -110.7478   21.0923 H   0  0  0  0  0  0  0  0  0  0  0  0
  -46.0020 -112.4252   19.6455 H   0  0  0  0  0  0  0  0  0  0  0  0
  -48.1328 -113.1947   20.2721 H   0  0  0  0  0  0  0  0  0  0  0  0
  -48.8934 -111.9745   19.1961 H   0  0  0  0  0  0  0  0  0  0  0  0
  -47.5955 -113.2298   17.3767 H   0  0  0  0  0  0  0  0  0  0  0  0
  -48.0962 -115.4264   19.4017 H   0  0  0  0  0  0  0  0  0  0  0  0
  -46.5195 -114.8407   18.9281 H   0  0  0  0  0  0  0  0  0  0  0  0
  -47.5241 -115.6792   17.7701 H   0  0  0  0  0  0  0  0  0  0  0  0
  -50.1783 -114.4030   18.4278 H   0  0  0  0  0  0  0  0  0  0  0  0
  -49.5510 -114.6138   16.8106 H   0  0  0  0  0  0  0  0  0  0  0  0
  -50.0489 -113.0299   17.3550 H   0  0  0  0  0  0  0  0  0  0  0  0
  -48.0739 -109.8343   18.1388 H   0  0  0  0  0  0  0  0  0  0  0  0
  -46.6718 -110.3928   15.7085 H   0  0  0  0  0  0  0  0  0  0  0  0
  -48.2533 -108.9973   14.5042 H   0  0  0  0  0  0  0  0  0  0  0  0
  -49.3755 -108.3461   17.0428 H   0  0  0  0  0  0  0  0  0  0  0  0
  -49.6696 -110.7728   16.4696 H   0  0  0  0  0  0  0  0  0  0  0  0
  -48.9202 -111.2932   14.9794 H   0  0  0  0  0  0  0  0  0  0  0  0
  -50.3092 -110.2340   14.9353 H   0  0  0  0  0  0  0  0  0  0  0  0
  -45.6077 -108.7922   14.4627 H   0  0  0  0  0  0  0  0  0  0  0  0
  -44.1531 -106.8386   15.7962 H   0  0  0  0  0  0  0  0  0  0  0  0
  -43.5653 -107.8079   13.6063 H   0  0  0  0  0  0  0  0  0  0  0  0
  -44.8858 -106.7825   12.9182 H   0  0  0  0  0  0  0  0  0  0  0  0
  -43.7456 -104.8898   13.1663 H   0  0  0  0  0  0  0  0  0  0  0  0
  -41.6989 -106.3135   14.7764 H   0  0  0  0  0  0  0  0  0  0  0  0
  -42.9250 -105.2323   15.3936 H   0  0  0  0  0  0  0  0  0  0  0  0
  -41.6717 -104.6216   14.3404 H   0  0  0  0  0  0  0  0  0  0  0  0
  -41.6162 -106.9133   12.4004 H   0  0  0  0  0  0  0  0  0  0  0  0
  -41.5848 -105.2157   11.9877 H   0  0  0  0  0  0  0  0  0  0  0  0
  -42.8160 -106.2561   11.3133 H   0  0  0  0  0  0  0  0  0  0  0  0
  -47.2471 -106.4685   14.0108 H   0  0  0  0  0  0  0  0  0  0  0  0
  -47.3757 -103.7073   14.1521 H   0  0  0  0  0  0  0  0  0  0  0  0
  -49.6700 -105.6445   14.3604 H   0  0  0  0  0  0  0  0  0  0  0  0
  -48.4189 -104.4044   12.1080 H   0  0  0  0  0  0  0  0  0  0  0  0
  -49.6802 -102.7578   13.4760 H   0  0  0  0  0  0  0  0  0  0  0  0
  -50.3631 -103.3687   14.9638 H   0  0  0  0  0  0  0  0  0  0  0  0
  -51.0500 -103.8415   13.4283 H   0  0  0  0  0  0  0  0  0  0  0  0
  -48.5773 -105.9959   16.5684 H   0  0  0  0  0  0  0  0  0  0  0  0
  -48.6990 -103.8142   18.5566 H   0  0  0  0  0  0  0  0  0  0  0  0
  -48.1154 -105.4193   18.9258 H   0  0  0  0  0  0  0  0  0  0  0  0
  -49.8028 -105.1687   18.5475 H   0  0  0  0  0  0  0  0  0  0  0  0
  1 36  1  0  0  0  0
  1 37  1  0  0  0  0
  1 38  1  0  0  0  0
  2  1  1  0  0  0  0
  3  2  2  0  0  0  0
  4  2  1  0  0  0  0
  4 39  1  0  0  0  0
  5  4  1  0  0  0  0
  5 40  1  1  0  0  0
  6  5  1  0  0  0  0
  7  6  2  0  0  0  0
  8  5  1  0  0  0  0
  8 41  1  0  0  0  0
  8 42  1  0  0  0  0
  9 10  1  0  0  0  0
  9  8  1  0  0  0  0
  9 43  1  0  0  0  0
 10 44  1  0  0  0  0
 10 45  1  0  0  0  0
 10 46  1  0  0  0  0
 11  9  1  0  0  0  0
 11 47  1  0  0  0  0
 11 48  1  0  0  0  0
 11 49  1  0  0  0  0
 12  6  1  0  0  0  0
 12 50  1  0  0  0  0
 13 14  1  0  0  0  0
 13 12  1  0  0  0  0
 13 51  1  6  0  0  0
 14 15  2  0  0  0  0
 16 17  1  0  0  0  0
 16 13  1  0  0  0  0
 16 52  1  6  0  0  0
 17 53  1  0  0  0  0
 18 16  1  0  0  0  0
 18 54  1  0  0  0  0
 18 55  1  0  0  0  0
 18 56  1  0  0  0  0
 19 14  1  0  0  0  0
 19 57  1  0  0  0  0
 20 21  1  0  0  0  0
 20 19  1  0  0  0  0
 20 58  1  1  0  0  0
 21 22  2  0  0  0  0
 23 20  1  0  0  0  0
 23 59  1  0  0  0  0
 23 60  1  0  0  0  0
 24 23  1  0  0  0  0
 24 25  1  0  0  0  0
 24 61  1  0  0  0  0
 25 62  1  0  0  0  0
 25 63  1  0  0  0  0
 25 64  1  0  0  0  0
 26 24  1  0  0  0  0
 26 65  1  0  0  0  0
 26 66  1  0  0  0  0
 26 67  1  0  0  0  0
 27 28  1  0  0  0  0
 27 21  1  0  0  0  0
 27 68  1  0  0  0  0
 28 29  1  0  0  0  0
 28 69  1  6  0  0  0
 29 30  2  0  0  0  0
 29 34  1  0  0  0  0
 31 33  1  0  0  0  0
 31 28  1  0  0  0  0
 31 70  1  1  0  0  0
 32 31  1  0  0  0  0
 32 71  1  0  0  0  0
 33 72  1  0  0  0  0
 33 73  1  0  0  0  0
 33 74  1  0  0  0  0
 34 35  1  0  0  0  0
 34 75  1  0  0  0  0
 35 76  1  0  0  0  0
 35 77  1  0  0  0  0
 35 78  1  0  0  0  0
M  END
>  <MODEL>
       0

$$$$
selected_4mers/LTLT/637_noH.pdb
 OpenBabel03042518233D

 78 77  0  0  1  0  0  0  0  0999 V2000
    3.0960   10.0000   47.2900 C   0  0  0  0  0  0  0  0  0  0  0  0
    2.8490   11.4190   46.7870 C   0  0  0  0  0  0  0  0  0  0  0  0
    3.3770   11.8020   45.7510 O   0  0  0  0  0  0  0  0  0  0  0  0
    2.0980   12.1940   47.5640 N   0  0  0  0  0  0  0  0  0  0  0  0
    1.8020   13.5860   47.2440 C   0  0  2  0  0  0  0  0  0  0  0  0
    2.6630   14.4300   48.1500 C   0  0  0  0  0  0  0  0  0  0  0  0
    2.5320   14.3080   49.3570 O   0  0  0  0  0  0  0  0  0  0  0  0
    0.3270   13.8870   47.5100 C   0  0  0  0  0  0  0  0  0  0  0  0
   -0.0870   15.3650   47.5150 C   0  0  0  0  0  0  0  0  0  0  0  0
    0.0890   15.9790   46.1320 C   0  0  0  0  0  0  0  0  0  0  0  0
   -1.5430   15.4330   47.9200 C   0  0  0  0  0  0  0  0  0  0  0  0
    3.5620   15.2250   47.5970 N   0  0  0  0  0  0  0  0  0  0  0  0
    4.4250   16.0200   48.4650 C   0  0  2  0  0  0  0  0  0  0  0  0
    4.1090   17.4870   48.3410 C   0  0  0  0  0  0  0  0  0  0  0  0
    4.0480   18.0090   47.2400 O   0  0  0  0  0  0  0  0  0  0  0  0
    5.9200   15.7320   48.2400 C   0  0  2  0  0  0  0  0  0  0  0  0
    6.1600   14.3630   48.5960 O   0  0  0  0  0  0  0  0  0  0  0  0
    6.8210   16.6720   49.0840 C   0  0  0  0  0  0  0  0  0  0  0  0
    3.8520   18.1000   49.4850 N   0  0  0  0  0  0  0  0  0  0  0  0
    3.4890   19.5050   49.5780 C   0  0  2  0  0  0  0  0  0  0  0  0
    4.4390   20.1960   50.5420 C   0  0  0  0  0  0  0  0  0  0  0  0
    5.1540   19.5440   51.2940 O   0  0  0  0  0  0  0  0  0  0  0  0
    2.0530   19.6580   50.1040 C   0  0  0  0  0  0  0  0  0  0  0  0
    0.9280   18.8530   49.4740 C   0  0  0  0  0  0  0  0  0  0  0  0
   -0.3710   19.0810   50.2590 C   0  0  0  0  0  0  0  0  0  0  0  0
    0.7760   19.2450   48.0200 C   0  0  0  0  0  0  0  0  0  0  0  0
    4.4250   21.5260   50.5410 N   0  0  0  0  0  0  0  0  0  0  0  0
    5.0690   22.2640   51.6240 C   0  0  2  0  0  0  0  0  0  0  0  0
    4.1880   22.1340   52.8510 C   0  0  0  0  0  0  0  0  0  0  0  0
    2.9900   21.8930   52.7360 O   0  0  0  0  0  0  0  0  0  0  0  0
    5.2320   23.7450   51.3050 C   0  0  2  0  0  0  0  0  0  0  0  0
    3.9440   24.3610   51.2380 O   0  0  0  0  0  0  0  0  0  0  0  0
    5.9940   23.9640   50.0050 C   0  0  0  0  0  0  0  0  0  0  0  0
    4.7770   22.2850   54.0300 N   0  0  0  0  0  0  0  0  0  0  0  0
    3.9930   22.3330   55.2480 C   0  0  0  0  0  0  0  0  0  0  0  0
    3.7083    9.4741   46.5875 H   0  0  0  0  0  0  0  0  0  0  0  0
    2.1605    9.4920   47.3982 H   0  0  0  0  0  0  0  0  0  0  0  0
    3.5925   10.0387   48.2371 H   0  0  0  0  0  0  0  0  0  0  0  0
    1.7256   11.8116   48.3912 H   0  0  0  0  0  0  0  0  0  0  0  0
    2.0002   13.7912   46.2127 H   0  0  0  0  0  0  0  0  0  0  0  0
    0.0807   13.4785   48.4678 H   0  0  0  0  0  0  0  0  0  0  0  0
   -0.2008   13.4509   46.6877 H   0  0  0  0  0  0  0  0  0  0  0  0
    0.5268   15.9126   48.1993 H   0  0  0  0  0  0  0  0  0  0  0  0
   -0.5158   15.4484   45.4266 H   0  0  0  0  0  0  0  0  0  0  0  0
    1.1166   15.9138   45.8410 H   0  0  0  0  0  0  0  0  0  0  0  0
   -0.2101   17.0060   46.1570 H   0  0  0  0  0  0  0  0  0  0  0  0
   -2.1339   14.8787   47.2211 H   0  0  0  0  0  0  0  0  0  0  0  0
   -1.8638   16.4538   47.9277 H   0  0  0  0  0  0  0  0  0  0  0  0
   -1.6612   15.0146   48.8977 H   0  0  0  0  0  0  0  0  0  0  0  0
    3.6481   15.2800   46.6178 H   0  0  0  0  0  0  0  0  0  0  0  0
    4.2168   15.7235   49.4718 H   0  0  0  0  0  0  0  0  0  0  0  0
    6.1645   15.9084   47.2134 H   0  0  0  0  0  0  0  0  0  0  0  0
    5.9318   14.2267   49.5289 H   0  0  0  0  0  0  0  0  0  0  0  0
    6.6102   16.5296   50.1233 H   0  0  0  0  0  0  0  0  0  0  0  0
    6.6247   17.6892   48.8164 H   0  0  0  0  0  0  0  0  0  0  0  0
    7.8494   16.4454   48.8943 H   0  0  0  0  0  0  0  0  0  0  0  0
    3.9096   17.5773   50.3173 H   0  0  0  0  0  0  0  0  0  0  0  0
    3.5525   19.9444   48.6045 H   0  0  0  0  0  0  0  0  0  0  0  0
    2.0743   19.4006   51.1424 H   0  0  0  0  0  0  0  0  0  0  0  0
    1.8042   20.6686   49.8556 H   0  0  0  0  0  0  0  0  0  0  0  0
    1.1583   17.8088   49.5127 H   0  0  0  0  0  0  0  0  0  0  0  0
   -0.6241   20.1204   50.2357 H   0  0  0  0  0  0  0  0  0  0  0  0
   -0.2339   18.7700   51.2736 H   0  0  0  0  0  0  0  0  0  0  0  0
   -1.1607   18.5116   49.8150 H   0  0  0  0  0  0  0  0  0  0  0  0
    0.5448   20.2876   47.9540 H   0  0  0  0  0  0  0  0  0  0  0  0
   -0.0147   18.6756   47.5779 H   0  0  0  0  0  0  0  0  0  0  0  0
    1.6905   19.0488   47.5002 H   0  0  0  0  0  0  0  0  0  0  0  0
    3.9804   22.0130   49.8100 H   0  0  0  0  0  0  0  0  0  0  0  0
    6.0469   21.8570   51.7754 H   0  0  0  0  0  0  0  0  0  0  0  0
    5.8067   24.1946   52.0876 H   0  0  0  0  0  0  0  0  0  0  0  0
    3.4260   23.9510   50.5277 H   0  0  0  0  0  0  0  0  0  0  0  0
    5.4494   23.5268   49.1944 H   0  0  0  0  0  0  0  0  0  0  0  0
    6.9583   23.5056   50.0752 H   0  0  0  0  0  0  0  0  0  0  0  0
    6.1098   25.0135   49.8319 H   0  0  0  0  0  0  0  0  0  0  0  0
    5.7570   22.3653   54.0781 H   0  0  0  0  0  0  0  0  0  0  0  0
    2.9552   22.2311   55.0084 H   0  0  0  0  0  0  0  0  0  0  0  0
    4.1552   23.2693   55.7399 H   0  0  0  0  0  0  0  0  0  0  0  0
    4.2898   21.5341   55.8949 H   0  0  0  0  0  0  0  0  0  0  0  0
  1 36  1  0  0  0  0
  1 37  1  0  0  0  0
  1 38  1  0  0  0  0
  2  1  1  0  0  0  0
  2  4  1  0  0  0  0
  3  2  2  0  0  0  0
  4 39  1  0  0  0  0
  5  8  1  0  0  0  0
  5  4  1  0  0  0  0
  5  6  1  0  0  0  0
  5 40  1  6  0  0  0
  6  7  2  0  0  0  0
  8  9  1  0  0  0  0
  8 41  1  0  0  0  0
  8 42  1  0  0  0  0
  9 11  1  0  0  0  0
  9 43  1  0  0  0  0
 10  9  1  0  0  0  0
 10 44  1  0  0  0  0
 10 45  1  0  0  0  0
 10 46  1  0  0  0  0
 11 47  1  0  0  0  0
 11 48  1  0  0  0  0
 11 49  1  0  0  0  0
 12  6  1  0  0  0  0
 12 13  1  0  0  0  0
 12 50  1  0  0  0  0
 13 51  1  1  0  0  0
 14 13  1  0  0  0  0
 14 19  1  0  0  0  0
 15 14  2  0  0  0  0
 16 13  1  0  0  0  0
 16 17  1  0  0  0  0
 16 18  1  0  0  0  0
 16 52  1  6  0  0  0
 17 53  1  0  0  0  0
 18 54  1  0  0  0  0
 18 55  1  0  0  0  0
 18 56  1  0  0  0  0
 19 20  1  0  0  0  0
 19 57  1  0  0  0  0
 20 23  1  0  0  0  0
 20 21  1  0  0  0  0
 20 58  1  6  0  0  0
 21 22  2  0  0  0  0
 23 59  1  0  0  0  0
 23 60  1  0  0  0  0
 24 23  1  0  0  0  0
 24 25  1  0  0  0  0
 24 61  1  0  0  0  0
 25 62  1  0  0  0  0
 25 63  1  0  0  0  0
 25 64  1  0  0  0  0
 26 24  1  0  0  0  0
 26 65  1  0  0  0  0
 26 66  1  0  0  0  0
 26 67  1  0  0  0  0
 27 21  1  0  0  0  0
 27 28  1  0  0  0  0
 27 68  1  0  0  0  0
 28 29  1  0  0  0  0
 28 69  1  1  0  0  0
 29 34  1  0  0  0  0
 30 29  2  0  0  0  0
 31 28  1  0  0  0  0
 31 70  1  1  0  0  0
 32 31  1  0  0  0  0
 32 71  1  0  0  0  0
 33 31  1  0  0  0  0
 33 72  1  0  0  0  0
 33 73  1  0  0  0  0
 33 74  1  0  0  0  0
 34 35  1  0  0  0  0
 34 75  1  0  0  0  0
 35 76  1  0  0  0  0
 35 77  1  0  0  0  0
 35 78  1  0  0  0  0
M  END
>  <MODEL>
       0

$$$$
selected_4mers/LTLT/638_noH.pdb
 OpenBabel03042518233D

 78 77  0  0  1  0  0  0  0  0999 V2000
  -20.3460  -18.3180    1.7220 C   0  0  0  0  0  0  0  0  0  0  0  0
  -19.8980  -17.4530    2.8860 C   0  0  0  0  0  0  0  0  0  0  0  0
  -20.5800  -16.5120    3.2820 O   0  0  0  0  0  0  0  0  0  0  0  0
  -18.7430  -17.8090    3.4280 N   0  0  0  0  0  0  0  0  0  0  0  0
  -18.1480  -17.1020    4.5550 C   0  0  2  0  0  0  0  0  0  0  0  0
  -16.6930  -16.8440    4.2300 C   0  0  0  0  0  0  0  0  0  0  0  0
  -15.9650  -17.7780    3.8820 O   0  0  0  0  0  0  0  0  0  0  0  0
  -18.2460  -17.9730    5.8050 C   0  0  0  0  0  0  0  0  0  0  0  0
  -17.5350  -17.4860    7.0650 C   0  0  0  0  0  0  0  0  0  0  0  0
  -18.1400  -16.2030    7.6020 C   0  0  0  0  0  0  0  0  0  0  0  0
  -17.6260  -18.5860    8.1160 C   0  0  0  0  0  0  0  0  0  0  0  0
  -16.2770  -15.5770    4.3330 N   0  0  0  0  0  0  0  0  0  0  0  0
  -14.8860  -15.2050    4.1400 C   0  0  2  0  0  0  0  0  0  0  0  0
  -14.3300  -14.7570    5.4830 C   0  0  0  0  0  0  0  0  0  0  0  0
  -14.9200  -13.9220    6.1650 O   0  0  0  0  0  0  0  0  0  0  0  0
  -14.7420  -14.0520    3.1280 C   0  0  2  0  0  0  0  0  0  0  0  0
  -15.3610  -14.4520    1.9000 O   0  0  0  0  0  0  0  0  0  0  0  0
  -13.2790  -13.7560    2.8600 C   0  0  0  0  0  0  0  0  0  0  0  0
  -13.1830  -15.3270    5.8490 N   0  0  0  0  0  0  0  0  0  0  0  0
  -12.5140  -14.9140    7.0950 C   0  0  2  0  0  0  0  0  0  0  0  0
  -11.6480  -13.7060    6.8020 C   0  0  0  0  0  0  0  0  0  0  0  0
  -10.5690  -13.8680    6.2350 O   0  0  0  0  0  0  0  0  0  0  0  0
  -11.6130  -16.0260    7.6070 C   0  0  0  0  0  0  0  0  0  0  0  0
  -12.2540  -17.3890    7.7670 C   0  0  0  0  0  0  0  0  0  0  0  0
  -11.2750  -18.3450    8.4340 C   0  0  0  0  0  0  0  0  0  0  0  0
  -13.5330  -17.3070    8.5700 C   0  0  0  0  0  0  0  0  0  0  0  0
  -12.0850  -12.5110    7.1840 N   0  0  0  0  0  0  0  0  0  0  0  0
  -11.3310  -11.2990    6.8510 C   0  0  2  0  0  0  0  0  0  0  0  0
  -10.1970  -11.0510    7.8470 C   0  0  0  0  0  0  0  0  0  0  0  0
   -9.2230  -10.3740    7.5510 O   0  0  0  0  0  0  0  0  0  0  0  0
  -12.2430  -10.0850    6.7450 C   0  0  2  0  0  0  0  0  0  0  0  0
  -13.0850  -10.0100    7.9010 O   0  0  0  0  0  0  0  0  0  0  0  0
  -13.1240  -10.1780    5.5180 C   0  0  0  0  0  0  0  0  0  0  0  0
  -10.3020  -11.6530    9.0190 N   0  0  0  0  0  0  0  0  0  0  0  0
   -9.2180  -11.5870    9.9950 C   0  0  0  0  0  0  0  0  0  0  0  0
  -21.2826  -17.9583    1.3501 H   0  0  0  0  0  0  0  0  0  0  0  0
  -20.4581  -19.3297    2.0519 H   0  0  0  0  0  0  0  0  0  0  0  0
  -19.6132  -18.2758    0.9435 H   0  0  0  0  0  0  0  0  0  0  0  0
  -18.2660  -18.5845    3.0534 H   0  0  0  0  0  0  0  0  0  0  0  0
  -18.6585  -16.1784    4.7317 H   0  0  0  0  0  0  0  0  0  0  0  0
  -17.8402  -18.9320    5.5592 H   0  0  0  0  0  0  0  0  0  0  0  0
  -19.2851  -17.9653    6.0600 H   0  0  0  0  0  0  0  0  0  0  0  0
  -16.5149  -17.2709    6.8242 H   0  0  0  0  0  0  0  0  0  0  0  0
  -19.1653  -16.3717    7.8573 H   0  0  0  0  0  0  0  0  0  0  0  0
  -18.0795  -15.4399    6.8544 H   0  0  0  0  0  0  0  0  0  0  0  0
  -17.6020  -15.8923    8.4731 H   0  0  0  0  0  0  0  0  0  0  0  0
  -18.6540  -18.7820    8.3390 H   0  0  0  0  0  0  0  0  0  0  0  0
  -17.1216  -18.2717    9.0058 H   0  0  0  0  0  0  0  0  0  0  0  0
  -17.1663  -19.4765    7.7410 H   0  0  0  0  0  0  0  0  0  0  0  0
  -16.9335  -14.8750    4.5461 H   0  0  0  0  0  0  0  0  0  0  0  0
  -14.3516  -16.0484    3.7551 H   0  0  0  0  0  0  0  0  0  0  0  0
  -15.2053  -13.1736    3.5263 H   0  0  0  0  0  0  0  0  0  0  0  0
  -14.9229  -15.2485    1.5615 H   0  0  0  0  0  0  0  0  0  0  0  0
  -12.8058  -14.6288    2.4611 H   0  0  0  0  0  0  0  0  0  0  0  0
  -12.7985  -13.4760    3.7741 H   0  0  0  0  0  0  0  0  0  0  0  0
  -13.2005  -12.9543    2.1557 H   0  0  0  0  0  0  0  0  0  0  0  0
  -12.7810  -16.0266    5.2850 H   0  0  0  0  0  0  0  0  0  0  0  0
  -13.2579  -14.6893    7.8305 H   0  0  0  0  0  0  0  0  0  0  0  0
  -11.2384  -15.7276    8.5638 H   0  0  0  0  0  0  0  0  0  0  0  0
  -10.8600  -16.1511    6.8572 H   0  0  0  0  0  0  0  0  0  0  0  0
  -12.5028  -17.7566    6.7934 H   0  0  0  0  0  0  0  0  0  0  0  0
  -11.0256  -17.9782    9.4077 H   0  0  0  0  0  0  0  0  0  0  0  0
  -10.3868  -18.4167    7.8416 H   0  0  0  0  0  0  0  0  0  0  0  0
  -11.7244  -19.3121    8.5215 H   0  0  0  0  0  0  0  0  0  0  0  0
  -13.3150  -16.9412    9.5516 H   0  0  0  0  0  0  0  0  0  0  0  0
  -13.9723  -18.2800    8.6414 H   0  0  0  0  0  0  0  0  0  0  0  0
  -14.2165  -16.6417    8.0851 H   0  0  0  0  0  0  0  0  0  0  0  0
  -12.9231  -12.4388    7.6955 H   0  0  0  0  0  0  0  0  0  0  0  0
  -10.8886  -11.4569    5.8896 H   0  0  0  0  0  0  0  0  0  0  0  0
  -11.6262   -9.2136    6.6736 H   0  0  0  0  0  0  0  0  0  0  0  0
  -13.6369  -10.8061    7.9512 H   0  0  0  0  0  0  0  0  0  0  0  0
  -13.7416  -11.0490    5.5876 H   0  0  0  0  0  0  0  0  0  0  0  0
  -12.5114  -10.2441    4.6432 H   0  0  0  0  0  0  0  0  0  0  0  0
  -13.7419   -9.3067    5.4557 H   0  0  0  0  0  0  0  0  0  0  0  0
  -11.1219  -12.1525    9.2368 H   0  0  0  0  0  0  0  0  0  0  0  0
   -8.4121  -11.0083    9.5944 H   0  0  0  0  0  0  0  0  0  0  0  0
   -8.8731  -12.5763   10.2124 H   0  0  0  0  0  0  0  0  0  0  0  0
   -9.5745  -11.1281   10.8935 H   0  0  0  0  0  0  0  0  0  0  0  0
  1  2  1  0  0  0  0
  1 36  1  0  0  0  0
  1 37  1  0  0  0  0
  1 38  1  0  0  0  0
  2  3  2  0  0  0  0
  2  4  1  0  0  0  0
  4  5  1  0  0  0  0
  4 39  1  0  0  0  0
  5  8  1  0  0  0  0
  5 40  1  1  0  0  0
  6 12  1  0  0  0  0
  6  5  1  0  0  0  0
  7  6  2  0  0  0  0
  8  9  1  0  0  0  0
  8 41  1  0  0  0  0
  8 42  1  0  0  0  0
  9 10  1  0  0  0  0
  9 11  1  0  0  0  0
  9 43  1  0  0  0  0
 10 44  1  0  0  0  0
 10 45  1  0  0  0  0
 10 46  1  0  0  0  0
 11 47  1  0  0  0  0
 11 48  1  0  0  0  0
 11 49  1  0  0  0  0
 12 50  1  0  0  0  0
 13 12  1  0  0  0  0
 13 14  1  0  0  0  0
 13 51  1  6  0  0  0
 14 19  1  0  0  0  0
 14 15  2  0  0  0  0
 16 13  1  0  0  0  0
 16 52  1  1  0  0  0
 17 16  1  0  0  0  0
 17 53  1  0  0  0  0
 18 16  1  0  0  0  0
 18 54  1  0  0  0  0
 18 55  1  0  0  0  0
 18 56  1  0  0  0  0
 19 20  1  0  0  0  0
 19 57  1  0  0  0  0
 20 23  1  0  0  0  0
 20 58  1  1  0  0  0
 21 20  1  0  0  0  0
 21 27  1  0  0  0  0
 22 21  2  0  0  0  0
 23 24  1  0  0  0  0
 23 59  1  0  0  0  0
 23 60  1  0  0  0  0
 24 25  1  0  0  0  0
 24 26  1  0  0  0  0
 24 61  1  0  0  0  0
 25 62  1  0  0  0  0
 25 63  1  0  0  0  0
 25 64  1  0  0  0  0
 26 65  1  0  0  0  0
 26 66  1  0  0  0  0
 26 67  1  0  0  0  0
 27 68  1  0  0  0  0
 28 27  1  0  0  0  0
 28 29  1  0  0  0  0
 28 69  1  6  0  0  0
 29 34  1  0  0  0  0
 30 29  2  0  0  0  0
 31 28  1  0  0  0  0
 31 32  1  0  0  0  0
 31 70  1  6  0  0  0
 32 71  1  0  0  0  0
 33 31  1  0  0  0  0
 33 72  1  0  0  0  0
 33 73  1  0  0  0  0
 33 74  1  0  0  0  0
 34 35  1  0  0  0  0
 34 75  1  0  0  0  0
 35 76  1  0  0  0  0
 35 77  1  0  0  0  0
 35 78  1  0  0  0  0
M  END
>  <MODEL>
       0

$$$$
selected_4mers/LTLT/639_noH.pdb
 OpenBabel03042518233D

 78 77  0  0  1  0  0  0  0  0999 V2000
   30.7790   21.4770   39.5110 C   0  0  0  0  0  0  0  0  0  0  0  0
   30.3560   22.1870   40.8000 C   0  0  0  0  0  0  0  0  0  0  0  0
   30.5130   23.4010   40.9230 O   0  0  0  0  0  0  0  0  0  0  0  0
   29.8370   21.4220   41.7600 N   0  0  0  0  0  0  0  0  0  0  0  0
   29.3580   21.9840   43.0220 C   0  0  2  0  0  0  0  0  0  0  0  0
   30.1410   21.6130   44.2780 C   0  0  0  0  0  0  0  0  0  0  0  0
   30.8290   20.5920   44.3260 O   0  0  0  0  0  0  0  0  0  0  0  0
   27.8980   21.5830   43.2420 C   0  0  0  0  0  0  0  0  0  0  0  0
   26.8840   22.0140   42.1860 C   0  0  0  0  0  0  0  0  0  0  0  0
   25.5070   21.4900   42.5770 C   0  0  0  0  0  0  0  0  0  0  0  0
   26.8710   23.5300   42.0680 C   0  0  0  0  0  0  0  0  0  0  0  0
   30.0150   22.4690   45.2910 N   0  0  0  0  0  0  0  0  0  0  0  0
   30.6480   22.2740   46.5920 C   0  0  2  0  0  0  0  0  0  0  0  0
   29.6780   22.7810   47.6550 C   0  0  0  0  0  0  0  0  0  0  0  0
   29.1930   23.9140   47.5760 O   0  0  0  0  0  0  0  0  0  0  0  0
   31.9590   23.0650   46.7290 C   0  0  2  0  0  0  0  0  0  0  0  0
   32.8470   22.7200   45.6590 O   0  0  0  0  0  0  0  0  0  0  0  0
   32.6350   22.7430   48.0600 C   0  0  0  0  0  0  0  0  0  0  0  0
   29.3980   21.9440   48.6470 N   0  0  0  0  0  0  0  0  0  0  0  0
   28.4840   22.3070   49.7300 C   0  0  2  0  0  0  0  0  0  0  0  0
   29.0560   23.4350   50.5860 C   0  0  0  0  0  0  0  0  0  0  0  0
   30.2400   23.4230   50.9280 O   0  0  0  0  0  0  0  0  0  0  0  0
   28.2220   21.0860   50.6140 C   0  0  0  0  0  0  0  0  0  0  0  0
   27.2800   21.2600   51.8070 C   0  0  0  0  0  0  0  0  0  0  0  0
   25.8620   21.5320   51.3160 C   0  0  0  0  0  0  0  0  0  0  0  0
   27.3170   19.9950   52.6620 C   0  0  0  0  0  0  0  0  0  0  0  0
   28.2140   24.4050   50.9360 N   0  0  0  0  0  0  0  0  0  0  0  0
   28.6480   25.5230   51.7650 C   0  0  2  0  0  0  0  0  0  0  0  0
   27.8280   25.6840   53.0430 C   0  0  0  0  0  0  0  0  0  0  0  0
   28.3680   26.0640   54.0820 O   0  0  0  0  0  0  0  0  0  0  0  0
   28.5860   26.8750   51.0050 C   0  0  2  0  0  0  0  0  0  0  0  0
   27.2640   27.0850   50.4940 O   0  0  0  0  0  0  0  0  0  0  0  0
   29.5920   26.8970   49.8530 C   0  0  0  0  0  0  0  0  0  0  0  0
   26.5330   25.3840   52.9790 N   0  0  0  0  0  0  0  0  0  0  0  0
   25.6800   25.5630   54.1530 C   0  0  0  0  0  0  0  0  0  0  0  0
   31.1773   22.1935   38.8234 H   0  0  0  0  0  0  0  0  0  0  0  0
   29.9291   20.9966   39.0731 H   0  0  0  0  0  0  0  0  0  0  0  0
   31.5261   20.7448   39.7358 H   0  0  0  0  0  0  0  0  0  0  0  0
   29.7743   20.4502   41.6152 H   0  0  0  0  0  0  0  0  0  0  0  0
   29.4925   23.0384   42.8989 H   0  0  0  0  0  0  0  0  0  0  0  0
   27.8641   20.5152   43.3024 H   0  0  0  0  0  0  0  0  0  0  0  0
   27.6034   22.1003   44.1311 H   0  0  0  0  0  0  0  0  0  0  0  0
   27.1547   21.6085   41.2335 H   0  0  0  0  0  0  0  0  0  0  0  0
   25.2297   21.8917   43.5292 H   0  0  0  0  0  0  0  0  0  0  0  0
   25.5351   20.4219   42.6350 H   0  0  0  0  0  0  0  0  0  0  0  0
   24.7897   21.7885   41.8413 H   0  0  0  0  0  0  0  0  0  0  0  0
   26.6023   23.9588   43.0108 H   0  0  0  0  0  0  0  0  0  0  0  0
   26.1580   23.8239   41.3263 H   0  0  0  0  0  0  0  0  0  0  0  0
   27.8436   23.8740   41.7839 H   0  0  0  0  0  0  0  0  0  0  0  0
   29.4664   23.2751   45.1552 H   0  0  0  0  0  0  0  0  0  0  0  0
   30.8775   21.2349   46.7036 H   0  0  0  0  0  0  0  0  0  0  0  0
   31.7322   24.1100   46.6905 H   0  0  0  0  0  0  0  0  0  0  0  0
   33.0487   21.7721   45.6992 H   0  0  0  0  0  0  0  0  0  0  0  0
   32.8628   21.6983   48.1008 H   0  0  0  0  0  0  0  0  0  0  0  0
   31.9769   22.9963   48.8648 H   0  0  0  0  0  0  0  0  0  0  0  0
   33.5390   23.3088   48.1470 H   0  0  0  0  0  0  0  0  0  0  0  0
   29.8176   21.0534   48.6539 H   0  0  0  0  0  0  0  0  0  0  0  0
   27.5695   22.6467   49.2905 H   0  0  0  0  0  0  0  0  0  0  0  0
   29.1665   20.7607   50.9975 H   0  0  0  0  0  0  0  0  0  0  0  0
   27.7208   20.3910   49.9731 H   0  0  0  0  0  0  0  0  0  0  0  0
   27.5964   22.0936   52.3985 H   0  0  0  0  0  0  0  0  0  0  0  0
   25.5264   20.7083   50.7212 H   0  0  0  0  0  0  0  0  0  0  0  0
   25.8539   22.4246   50.7261 H   0  0  0  0  0  0  0  0  0  0  0  0
   25.2108   21.6539   52.1563 H   0  0  0  0  0  0  0  0  0  0  0  0
   27.0012   19.1582   52.0747 H   0  0  0  0  0  0  0  0  0  0  0  0
   26.6609   20.1110   53.4992 H   0  0  0  0  0  0  0  0  0  0  0  0
   28.3148   19.8295   53.0111 H   0  0  0  0  0  0  0  0  0  0  0  0
   27.2794   24.3666   50.6288 H   0  0  0  0  0  0  0  0  0  0  0  0
   29.6584   25.2809   52.0206 H   0  0  0  0  0  0  0  0  0  0  0  0
   28.8344   27.6589   51.6896 H   0  0  0  0  0  0  0  0  0  0  0  0
   27.0404   26.3736   49.8736 H   0  0  0  0  0  0  0  0  0  0  0  0
   29.3564   26.1176   49.1588 H   0  0  0  0  0  0  0  0  0  0  0  0
   30.5787   26.7454   50.2382 H   0  0  0  0  0  0  0  0  0  0  0  0
   29.5446   27.8435   49.3561 H   0  0  0  0  0  0  0  0  0  0  0  0
   26.1488   25.0410   52.1400 H   0  0  0  0  0  0  0  0  0  0  0  0
   26.2654   25.9411   54.9649 H   0  0  0  0  0  0  0  0  0  0  0  0
   25.2520   24.6222   54.4297 H   0  0  0  0  0  0  0  0  0  0  0  0
   24.8984   26.2567   53.9235 H   0  0  0  0  0  0  0  0  0  0  0  0
  1  2  1  0  0  0  0
  1 36  1  0  0  0  0
  1 37  1  0  0  0  0
  1 38  1  0  0  0  0
  2  3  2  0  0  0  0
  2  4  1  0  0  0  0
  4  5  1  0  0  0  0
  4 39  1  0  0  0  0
  5  8  1  0  0  0  0
  5  6  1  0  0  0  0
  5 40  1  6  0  0  0
  6  7  2  0  0  0  0
  6 12  1  0  0  0  0
  8 41  1  0  0  0  0
  8 42  1  0  0  0  0
  9 10  1  0  0  0  0
  9  8  1  0  0  0  0
  9 43  1  0  0  0  0
 10 44  1  0  0  0  0
 10 45  1  0  0  0  0
 10 46  1  0  0  0  0
 11  9  1  0  0  0  0
 11 47  1  0  0  0  0
 11 48  1  0  0  0  0
 11 49  1  0  0  0  0
 12 13  1  0  0  0  0
 12 50  1  0  0  0  0
 13 16  1  0  0  0  0
 13 14  1  0  0  0  0
 13 51  1  1  0  0  0
 14 19  1  0  0  0  0
 15 14  2  0  0  0  0
 16 18  1  0  0  0  0
 16 52  1  6  0  0  0
 17 16  1  0  0  0  0
 17 53  1  0  0  0  0
 18 54  1  0  0  0  0
 18 55  1  0  0  0  0
 18 56  1  0  0  0  0
 19 20  1  0  0  0  0
 19 57  1  0  0  0  0
 20 21  1  0  0  0  0
 20 23  1  0  0  0  0
 20 58  1  6  0  0  0
 21 22  2  0  0  0  0
 21 27  1  0  0  0  0
 23 24  1  0  0  0  0
 23 59  1  0  0  0  0
 23 60  1  0  0  0  0
 24 26  1  0  0  0  0
 24 61  1  0  0  0  0
 25 24  1  0  0  0  0
 25 62  1  0  0  0  0
 25 63  1  0  0  0  0
 25 64  1  0  0  0  0
 26 65  1  0  0  0  0
 26 66  1  0  0  0  0
 26 67  1  0  0  0  0
 27 28  1  0  0  0  0
 27 68  1  0  0  0  0
 28 29  1  0  0  0  0
 28 69  1  1  0  0  0
 29 30  2  0  0  0  0
 31 28  1  0  0  0  0
 31 70  1  1  0  0  0
 32 31  1  0  0  0  0
 32 71  1  0  0  0  0
 33 31  1  0  0  0  0
 33 72  1  0  0  0  0
 33 73  1  0  0  0  0
 33 74  1  0  0  0  0
 34 29  1  0  0  0  0
 34 35  1  0  0  0  0
 34 75  1  0  0  0  0
 35 76  1  0  0  0  0
 35 77  1  0  0  0  0
 35 78  1  0  0  0  0
M  END
>  <MODEL>
       0

$$$$
