selected_4mers/LTPE/650_noH.pdb
 OpenBabel03042518233D

 74 74  0  0  1  0  0  0  0  0999 V2000
   32.0660  -20.7180   36.9060 C   0  0  0  0  0  0  0  0  0  0  0  0
   33.2170  -19.9830   36.2150 C   0  0  0  0  0  0  0  0  0  0  0  0
   34.3680  -20.4210   36.2610 O   0  0  0  0  0  0  0  0  0  0  0  0
   32.9070  -18.8600   35.5790 N   0  0  0  0  0  0  0  0  0  0  0  0
   33.8990  -18.1080   34.8230 C   0  0  2  0  0  0  0  0  0  0  0  0
   34.6650  -17.0310   35.5580 C   0  0  0  0  0  0  0  0  0  0  0  0
   34.1560  -16.4080   36.4840 O   0  0  0  0  0  0  0  0  0  0  0  0
   33.2060  -17.4370   33.6210 C   0  0  0  0  0  0  0  0  0  0  0  0
   32.3120  -18.3060   32.7320 C   0  0  0  0  0  0  0  0  0  0  0  0
   31.6330  -17.3970   31.6900 C   0  0  0  0  0  0  0  0  0  0  0  0
   33.1210  -19.3790   32.0240 C   0  0  0  0  0  0  0  0  0  0  0  0
   35.9050  -16.7950   35.1240 N   0  0  0  0  0  0  0  0  0  0  0  0
   36.6930  -15.7070   35.6810 C   0  0  2  0  0  0  0  0  0  0  0  0
   36.1830  -14.4640   34.9580 C   0  0  0  0  0  0  0  0  0  0  0  0
   35.4750  -14.5750   33.9480 O   0  0  0  0  0  0  0  0  0  0  0  0
   38.1950  -15.8330   35.3340 C   0  0  2  0  0  0  0  0  0  0  0  0
   38.3640  -15.8010   33.9070 O   0  0  0  0  0  0  0  0  0  0  0  0
   38.7600  -17.1290   35.8710 C   0  0  0  0  0  0  0  0  0  0  0  0
   36.5350  -13.2690   35.4500 N   0  0  0  0  0  0  0  0  0  0  0  0
   36.0740  -12.0500   34.7770 C   0  0  2  0  0  0  0  0  0  0  0  0
   36.5090  -12.0260   33.3040 C   0  0  0  0  0  0  0  0  0  0  0  0
   35.7240  -11.6460   32.4290 O   0  0  0  0  0  0  0  0  0  0  0  0
   36.7400  -10.9370   35.5850 C   0  0  0  0  0  0  0  0  0  0  0  0
   36.8180  -11.5370   36.9780 C   0  0  0  0  0  0  0  0  0  0  0  0
   37.2820  -12.9400   36.6830 C   0  0  0  0  0  0  0  0  0  0  0  0
   37.7540  -12.4170   33.0290 N   0  0  0  0  0  0  0  0  0  0  0  0
   38.2550  -12.4150   31.6550 C   0  0  2  0  0  0  0  0  0  0  0  0
   37.5150  -13.4350   30.7740 C   0  0  0  0  0  0  0  0  0  0  0  0
   37.2300  -13.1700   29.6110 O   0  0  0  0  0  0  0  0  0  0  0  0
   39.7610  -12.7070   31.6530 C   0  0  0  0  0  0  0  0  0  0  0  0
   40.5990  -11.7470   32.5040 C   0  0  0  0  0  0  0  0  0  0  0  0
   40.5040  -11.9760   34.0370 C   0  0  0  0  0  0  0  0  0  0  0  0
   40.0560  -13.0490   34.5010 O   0  0  0  0  0  0  0  0  0  0  0  0
   40.9120  -11.0630   34.7830 O   0  0  0  0  0  0  0  0  0  0  0  0
   37.2410  -14.6130   31.3210 N   0  0  0  0  0  0  0  0  0  0  0  0
   36.5090  -15.6380   30.5770 C   0  0  0  0  0  0  0  0  0  0  0  0
   31.1543  -20.1801   36.7496 H   0  0  0  0  0  0  0  0  0  0  0  0
   32.2647  -20.7855   37.9552 H   0  0  0  0  0  0  0  0  0  0  0  0
   31.9742  -21.7022   36.4963 H   0  0  0  0  0  0  0  0  0  0  0  0
   31.9816  -18.5264   35.6194 H   0  0  0  0  0  0  0  0  0  0  0  0
   34.6283  -18.8454   34.5599 H   0  0  0  0  0  0  0  0  0  0  0  0
   32.5988  -16.6441   34.0052 H   0  0  0  0  0  0  0  0  0  0  0  0
   34.0096  -17.1370   32.9814 H   0  0  0  0  0  0  0  0  0  0  0  0
   31.5801  -18.7947   33.3407 H   0  0  0  0  0  0  0  0  0  0  0  0
   32.3809  -16.9186   31.0927 H   0  0  0  0  0  0  0  0  0  0  0  0
   31.0482  -16.6544   32.1915 H   0  0  0  0  0  0  0  0  0  0  0  0
   30.9983  -17.9866   31.0620 H   0  0  0  0  0  0  0  0  0  0  0  0
   33.8627  -18.9171   31.4064 H   0  0  0  0  0  0  0  0  0  0  0  0
   32.4708  -19.9733   31.4166 H   0  0  0  0  0  0  0  0  0  0  0  0
   33.5994  -20.0024   32.7502 H   0  0  0  0  0  0  0  0  0  0  0  0
   36.2904  -17.3638   34.4189 H   0  0  0  0  0  0  0  0  0  0  0  0
   36.5994  -15.6923   36.7468 H   0  0  0  0  0  0  0  0  0  0  0  0
   38.7168  -15.0141   35.7834 H   0  0  0  0  0  0  0  0  0  0  0  0
   37.8881  -16.5463   33.5083 H   0  0  0  0  0  0  0  0  0  0  0  0
   38.2438  -17.9543   35.4268 H   0  0  0  0  0  0  0  0  0  0  0  0
   38.6345  -17.1598   36.9332 H   0  0  0  0  0  0  0  0  0  0  0  0
   39.8014  -17.1898   35.6330 H   0  0  0  0  0  0  0  0  0  0  0  0
   35.0082  -11.9601   34.7475 H   0  0  0  0  0  0  0  0  0  0  0  0
   36.1448  -10.0478   35.5806 H   0  0  0  0  0  0  0  0  0  0  0  0
   37.6919  -10.6411   35.1961 H   0  0  0  0  0  0  0  0  0  0  0  0
   35.8612  -11.5356   37.4571 H   0  0  0  0  0  0  0  0  0  0  0  0
   37.4584  -11.0000   37.6462 H   0  0  0  0  0  0  0  0  0  0  0  0
   38.3384  -12.9712   36.5155 H   0  0  0  0  0  0  0  0  0  0  0  0
   37.1062  -13.6259   37.4852 H   0  0  0  0  0  0  0  0  0  0  0  0
   38.3436  -12.7109   33.7606 H   0  0  0  0  0  0  0  0  0  0  0  0
   38.0759  -11.4449   31.2407 H   0  0  0  0  0  0  0  0  0  0  0  0
   40.1106  -12.6496   30.6433 H   0  0  0  0  0  0  0  0  0  0  0  0
   39.8817  -13.6785   32.0848 H   0  0  0  0  0  0  0  0  0  0  0  0
   40.2734  -10.7491   32.2966 H   0  0  0  0  0  0  0  0  0  0  0  0
   41.6200  -11.9246   32.2377 H   0  0  0  0  0  0  0  0  0  0  0  0
   37.5350  -14.7998   32.2418 H   0  0  0  0  0  0  0  0  0  0  0  0
   36.2698  -15.2684   29.6018 H   0  0  0  0  0  0  0  0  0  0  0  0
   35.6063  -15.8804   31.0978 H   0  0  0  0  0  0  0  0  0  0  0  0
   37.1154  -16.5150   30.4872 H   0  0  0  0  0  0  0  0  0  0  0  0
  1 37  1  0  0  0  0
  1 38  1  0  0  0  0
  1 39  1  0  0  0  0
  2  3  2  0  0  0  0
  2  1  1  0  0  0  0
  4  2  1  0  0  0  0
  4 40  1  0  0  0  0
  5  6  1  0  0  0  0
  5  4  1  0  0  0  0
  5 41  1  6  0  0  0
  6  7  2  0  0  0  0
  8  5  1  0  0  0  0
  8 42  1  0  0  0  0
  8 43  1  0  0  0  0
  9  8  1  0  0  0  0
  9 44  1  0  0  0  0
 10  9  1  0  0  0  0
 10 45  1  0  0  0  0
 10 46  1  0  0  0  0
 10 47  1  0  0  0  0
 11  9  1  0  0  0  0
 11 48  1  0  0  0  0
 11 49  1  0  0  0  0
 11 50  1  0  0  0  0
 12  6  1  0  0  0  0
 12 13  1  0  0  0  0
 12 51  1  0  0  0  0
 13 52  1  1  0  0  0
 14 19  1  0  0  0  0
 14 13  1  0  0  0  0
 15 14  2  0  0  0  0
 16 13  1  0  0  0  0
 16 18  1  0  0  0  0
 16 53  1  1  0  0  0
 17 16  1  0  0  0  0
 17 54  1  0  0  0  0
 18 55  1  0  0  0  0
 18 56  1  0  0  0  0
 18 57  1  0  0  0  0
 19 25  1  0  0  0  0
 20 19  1  0  0  0  0
 20 23  1  0  0  0  0
 20 58  1  1  0  0  0
 21 20  1  0  0  0  0
 22 21  2  0  0  0  0
 23 24  1  0  0  0  0
 23 59  1  0  0  0  0
 23 60  1  0  0  0  0
 24 61  1  0  0  0  0
 24 62  1  0  0  0  0
 25 24  1  0  0  0  0
 25 63  1  0  0  0  0
 25 64  1  0  0  0  0
 26 21  1  0  0  0  0
 26 65  1  0  0  0  0
 27 26  1  0  0  0  0
 27 66  1  6  0  0  0
 28 35  1  0  0  0  0
 28 27  1  0  0  0  0
 29 28  2  0  0  0  0
 30 27  1  0  0  0  0
 30 31  1  0  0  0  0
 30 67  1  0  0  0  0
 30 68  1  0  0  0  0
 31 32  1  0  0  0  0
 31 69  1  0  0  0  0
 31 70  1  0  0  0  0
 32 33  2  0  0  0  0
 32 34  1  0  0  0  0
 35 71  1  0  0  0  0
 36 35  1  0  0  0  0
 36 72  1  0  0  0  0
 36 73  1  0  0  0  0
 36 74  1  0  0  0  0
M  CHG  1  34  -1
M  END
>  <MODEL>
       0

$$$$
selected_4mers/LTPE/651_noH.pdb
 OpenBabel03042518233D

 74 74  0  0  1  0  0  0  0  0999 V2000
   21.7730   50.2200   54.0030 C   0  0  0  0  0  0  0  0  0  0  0  0
   22.7710   50.6510   55.0610 C   0  0  0  0  0  0  0  0  0  0  0  0
   23.9690   50.3680   54.9320 O   0  0  0  0  0  0  0  0  0  0  0  0
   22.2830   51.3180   56.1050 N   0  0  0  0  0  0  0  0  0  0  0  0
   23.1190   51.8150   57.1850 C   0  0  2  0  0  0  0  0  0  0  0  0
   23.3150   50.8100   58.3300 C   0  0  0  0  0  0  0  0  0  0  0  0
   24.0860   51.0660   59.2500 O   0  0  0  0  0  0  0  0  0  0  0  0
   22.5670   53.1420   57.7500 C   0  0  0  0  0  0  0  0  0  0  0  0
   22.3460   54.3640   56.8330 C   0  0  0  0  0  0  0  0  0  0  0  0
   21.6690   55.5150   57.6020 C   0  0  0  0  0  0  0  0  0  0  0  0
   23.6380   54.8570   56.1780 C   0  0  0  0  0  0  0  0  0  0  0  0
   22.6110   49.6740   58.2700 N   0  0  0  0  0  0  0  0  0  0  0  0
   22.6580   48.6380   59.3060 C   0  0  2  0  0  0  0  0  0  0  0  0
   22.7130   47.2500   58.6260 C   0  0  0  0  0  0  0  0  0  0  0  0
   21.7530   46.4710   58.7020 O   0  0  0  0  0  0  0  0  0  0  0  0
   21.4210   48.7310   60.2690 C   0  0  2  0  0  0  0  0  0  0  0  0
   20.2160   48.5330   59.5210 O   0  0  0  0  0  0  0  0  0  0  0  0
   21.3700   50.0750   60.9670 C   0  0  0  0  0  0  0  0  0  0  0  0
   23.8340   46.9520   57.9200 N   0  0  0  0  0  0  0  0  0  0  0  0
   23.9200   45.7910   57.0200 C   0  0  2  0  0  0  0  0  0  0  0  0
   23.8230   44.3870   57.6400 C   0  0  0  0  0  0  0  0  0  0  0  0
   23.5300   43.4430   56.9180 O   0  0  0  0  0  0  0  0  0  0  0  0
   25.2840   45.9780   56.3270 C   0  0  0  0  0  0  0  0  0  0  0  0
   26.0720   46.8370   57.2570 C   0  0  0  0  0  0  0  0  0  0  0  0
   25.0740   47.7600   57.8970 C   0  0  0  0  0  0  0  0  0  0  0  0
   24.0610   44.2330   58.9350 N   0  0  0  0  0  0  0  0  0  0  0  0
   24.0700   42.8830   59.5300 C   0  0  2  0  0  0  0  0  0  0  0  0
   22.6870   42.2070   59.4940 C   0  0  0  0  0  0  0  0  0  0  0  0
   21.6610   42.8440   59.7710 O   0  0  0  0  0  0  0  0  0  0  0  0
   24.6470   42.9020   60.9430 C   0  0  0  0  0  0  0  0  0  0  0  0
   24.8900   41.4920   61.5260 C   0  0  0  0  0  0  0  0  0  0  0  0
   25.6900   41.4790   62.8320 C   0  0  0  0  0  0  0  0  0  0  0  0
   25.9030   42.5670   63.4420 O   0  0  0  0  0  0  0  0  0  0  0  0
   26.0910   40.3560   63.2550 O   0  0  0  0  0  0  0  0  0  0  0  0
   22.6830   40.9230   59.1350 N   0  0  0  0  0  0  0  0  0  0  0  0
   21.4610   40.1430   58.8940 C   0  0  0  0  0  0  0  0  0  0  0  0
   22.2845   49.6971   53.2221 H   0  0  0  0  0  0  0  0  0  0  0  0
   21.2890   51.0833   53.5965 H   0  0  0  0  0  0  0  0  0  0  0  0
   21.0415   49.5756   54.4441 H   0  0  0  0  0  0  0  0  0  0  0  0
   21.3131   51.4817   56.1472 H   0  0  0  0  0  0  0  0  0  0  0  0
   24.0806   51.9786   56.7452 H   0  0  0  0  0  0  0  0  0  0  0  0
   21.6178   52.9148   58.1886 H   0  0  0  0  0  0  0  0  0  0  0  0
   23.3555   53.4702   58.3946 H   0  0  0  0  0  0  0  0  0  0  0  0
   21.6982   54.0360   56.0471 H   0  0  0  0  0  0  0  0  0  0  0  0
   22.3139   55.8460   58.3891 H   0  0  0  0  0  0  0  0  0  0  0  0
   20.7454   55.1710   58.0185 H   0  0  0  0  0  0  0  0  0  0  0  0
   21.4776   56.3273   56.9324 H   0  0  0  0  0  0  0  0  0  0  0  0
   24.3150   55.1950   56.9345 H   0  0  0  0  0  0  0  0  0  0  0  0
   23.4148   55.6645   55.5124 H   0  0  0  0  0  0  0  0  0  0  0  0
   24.0877   54.0562   55.6290 H   0  0  0  0  0  0  0  0  0  0  0  0
   22.0306   49.5260   57.4887 H   0  0  0  0  0  0  0  0  0  0  0  0
   23.5345   48.7850   59.9019 H   0  0  0  0  0  0  0  0  0  0  0  0
   21.5176   47.9695   61.0144 H   0  0  0  0  0  0  0  0  0  0  0  0
   20.1357   49.2267   58.8478 H   0  0  0  0  0  0  0  0  0  0  0  0
   21.2733   50.8521   60.2379 H   0  0  0  0  0  0  0  0  0  0  0  0
   22.2704   50.2208   61.5264 H   0  0  0  0  0  0  0  0  0  0  0  0
   20.5303   50.1011   61.6296 H   0  0  0  0  0  0  0  0  0  0  0  0
   23.0600   45.7940   56.3834 H   0  0  0  0  0  0  0  0  0  0  0  0
   25.1621   46.4613   55.3802 H   0  0  0  0  0  0  0  0  0  0  0  0
   25.7687   45.0440   56.1329 H   0  0  0  0  0  0  0  0  0  0  0  0
   26.8061   47.3973   56.7165 H   0  0  0  0  0  0  0  0  0  0  0  0
   26.5969   46.2548   57.9852 H   0  0  0  0  0  0  0  0  0  0  0  0
   24.9431   48.6476   57.3140 H   0  0  0  0  0  0  0  0  0  0  0  0
   25.3746   48.0959   58.8674 H   0  0  0  0  0  0  0  0  0  0  0  0
   24.2320   45.0206   59.5005 H   0  0  0  0  0  0  0  0  0  0  0  0
   24.7140   42.2853   58.9193 H   0  0  0  0  0  0  0  0  0  0  0  0
   23.9624   43.4197   61.5819 H   0  0  0  0  0  0  0  0  0  0  0  0
   25.5979   43.3895   60.8892 H   0  0  0  0  0  0  0  0  0  0  0  0
   25.4250   40.9167   60.7996 H   0  0  0  0  0  0  0  0  0  0  0  0
   23.9271   41.0841   61.7525 H   0  0  0  0  0  0  0  0  0  0  0  0
   23.5503   40.4704   59.0248 H   0  0  0  0  0  0  0  0  0  0  0  0
   20.6043   40.7644   59.0516 H   0  0  0  0  0  0  0  0  0  0  0  0
   21.4287   39.3132   59.5687 H   0  0  0  0  0  0  0  0  0  0  0  0
   21.4603   39.7835   57.8862 H   0  0  0  0  0  0  0  0  0  0  0  0
  1  2  1  0  0  0  0
  1 37  1  0  0  0  0
  1 38  1  0  0  0  0
  1 39  1  0  0  0  0
  2  4  1  0  0  0  0
  3  2  2  0  0  0  0
  4  5  1  0  0  0  0
  4 40  1  0  0  0  0
  5  8  1  0  0  0  0
  5  6  1  0  0  0  0
  5 41  1  6  0  0  0
  6  7  2  0  0  0  0
  8 42  1  0  0  0  0
  8 43  1  0  0  0  0
  9 10  1  0  0  0  0
  9  8  1  0  0  0  0
  9 44  1  0  0  0  0
 10 45  1  0  0  0  0
 10 46  1  0  0  0  0
 10 47  1  0  0  0  0
 11  9  1  0  0  0  0
 11 48  1  0  0  0  0
 11 49  1  0  0  0  0
 11 50  1  0  0  0  0
 12  6  1  0  0  0  0
 12 13  1  0  0  0  0
 12 51  1  0  0  0  0
 13 16  1  0  0  0  0
 13 52  1  1  0  0  0
 14 15  2  0  0  0  0
 14 13  1  0  0  0  0
 16 18  1  0  0  0  0
 16 53  1  1  0  0  0
 17 16  1  0  0  0  0
 17 54  1  0  0  0  0
 18 55  1  0  0  0  0
 18 56  1  0  0  0  0
 18 57  1  0  0  0  0
 19 14  1  0  0  0  0
 20 21  1  0  0  0  0
 20 19  1  0  0  0  0
 20 58  1  6  0  0  0
 21 26  1  0  0  0  0
 22 21  2  0  0  0  0
 23 20  1  0  0  0  0
 23 24  1  0  0  0  0
 23 59  1  0  0  0  0
 23 60  1  0  0  0  0
 24 25  1  0  0  0  0
 24 61  1  0  0  0  0
 24 62  1  0  0  0  0
 25 19  1  0  0  0  0
 25 63  1  0  0  0  0
 25 64  1  0  0  0  0
 26 27  1  0  0  0  0
 26 65  1  0  0  0  0
 27 30  1  0  0  0  0
 27 66  1  6  0  0  0
 28 27  1  0  0  0  0
 28 29  2  0  0  0  0
 30 31  1  0  0  0  0
 30 67  1  0  0  0  0
 30 68  1  0  0  0  0
 31 32  1  0  0  0  0
 31 69  1  0  0  0  0
 31 70  1  0  0  0  0
 32 34  2  0  0  0  0
 32 33  1  0  0  0  0
 35 28  1  0  0  0  0
 35 71  1  0  0  0  0
 36 35  1  0  0  0  0
 36 72  1  0  0  0  0
 36 73  1  0  0  0  0
 36 74  1  0  0  0  0
M  CHG  1  33  -1
M  END
>  <MODEL>
       0

$$$$
selected_4mers/LTPE/652_noH.pdb
 OpenBabel03042518233D

 74 74  0  0  1  0  0  0  0  0999 V2000
   18.3700   19.0690   19.1340 C   0  0  0  0  0  0  0  0  0  0  0  0
   17.3500   18.5220   20.1150 C   0  0  0  0  0  0  0  0  0  0  0  0
   16.4750   19.2650   20.5630 O   0  0  0  0  0  0  0  0  0  0  0  0
   17.4290   17.2260   20.4110 N   0  0  0  0  0  0  0  0  0  0  0  0
   16.4780   16.6020   21.3180 C   0  0  2  0  0  0  0  0  0  0  0  0
   16.8580   16.8020   22.7820 C   0  0  0  0  0  0  0  0  0  0  0  0
   18.0390   16.9230   23.1330 O   0  0  0  0  0  0  0  0  0  0  0  0
   16.4100   15.0970   21.0260 C   0  0  0  0  0  0  0  0  0  0  0  0
   15.9610   14.6740   19.6260 C   0  0  0  0  0  0  0  0  0  0  0  0
   15.9310   13.1460   19.6020 C   0  0  0  0  0  0  0  0  0  0  0  0
   14.5900   15.2360   19.2980 C   0  0  0  0  0  0  0  0  0  0  0  0
   15.8560   16.7860   23.6530 N   0  0  0  0  0  0  0  0  0  0  0  0
   16.0960   16.7930   25.0940 C   0  0  2  0  0  0  0  0  0  0  0  0
   16.5870   15.4190   25.5650 C   0  0  0  0  0  0  0  0  0  0  0  0
   16.3980   14.4300   24.8670 O   0  0  0  0  0  0  0  0  0  0  0  0
   14.7940   17.0880   25.8470 C   0  0  2  0  0  0  0  0  0  0  0  0
   13.8960   15.9800   25.6980 O   0  0  0  0  0  0  0  0  0  0  0  0
   14.1210   18.3700   25.3110 C   0  0  0  0  0  0  0  0  0  0  0  0
   17.2040   15.3400   26.7620 N   0  0  0  0  0  0  0  0  0  0  0  0
   17.6070   14.0240   27.2910 C   0  0  2  0  0  0  0  0  0  0  0  0
   16.4240   13.0460   27.3250 C   0  0  0  0  0  0  0  0  0  0  0  0
   16.5760   11.8570   27.0040 O   0  0  0  0  0  0  0  0  0  0  0  0
   18.1190   14.3600   28.7000 C   0  0  0  0  0  0  0  0  0  0  0  0
   18.6550   15.7440   28.5320 C   0  0  0  0  0  0  0  0  0  0  0  0
   17.6640   16.4440   27.6320 C   0  0  0  0  0  0  0  0  0  0  0  0
   15.2390   13.5460   27.6620 N   0  0  0  0  0  0  0  0  0  0  0  0
   14.0280   12.7170   27.7110 C   0  0  2  0  0  0  0  0  0  0  0  0
   13.6860   12.1460   26.3350 C   0  0  0  0  0  0  0  0  0  0  0  0
   13.4060   10.9440   26.2050 O   0  0  0  0  0  0  0  0  0  0  0  0
   12.8350   13.5280   28.2380 C   0  0  0  0  0  0  0  0  0  0  0  0
   12.9390   13.9470   29.7240 C   0  0  0  0  0  0  0  0  0  0  0  0
   13.9750   15.0600   29.9750 C   0  0  0  0  0  0  0  0  0  0  0  0
   14.1850   15.9200   29.0900 O   0  0  0  0  0  0  0  0  0  0  0  0
   14.5780   15.0790   31.0770 O   0  0  0  0  0  0  0  0  0  0  0  0
   13.7190   12.9910   25.3050 N   0  0  0  0  0  0  0  0  0  0  0  0
   13.4290   12.5240   23.9410 C   0  0  0  0  0  0  0  0  0  0  0  0
   19.0478   18.2902   18.8529 H   0  0  0  0  0  0  0  0  0  0  0  0
   18.9146   19.8672   19.5937 H   0  0  0  0  0  0  0  0  0  0  0  0
   17.8669   19.4354   18.2636 H   0  0  0  0  0  0  0  0  0  0  0  0
   18.1434   16.6807   20.0091 H   0  0  0  0  0  0  0  0  0  0  0  0
   15.5282   17.0675   21.1566 H   0  0  0  0  0  0  0  0  0  0  0  0
   17.3883   14.6941   21.1853 H   0  0  0  0  0  0  0  0  0  0  0  0
   15.6519   14.7236   21.6824 H   0  0  0  0  0  0  0  0  0  0  0  0
   16.6388   15.0539   18.8904 H   0  0  0  0  0  0  0  0  0  0  0  0
   15.2476   12.7910   20.3448 H   0  0  0  0  0  0  0  0  0  0  0  0
   16.9101   12.7668   19.8078 H   0  0  0  0  0  0  0  0  0  0  0  0
   15.6143   12.8106   18.6365 H   0  0  0  0  0  0  0  0  0  0  0  0
   13.8780   14.8794   20.0127 H   0  0  0  0  0  0  0  0  0  0  0  0
   14.3002   14.9200   18.3177 H   0  0  0  0  0  0  0  0  0  0  0  0
   14.6251   16.3049   19.3323 H   0  0  0  0  0  0  0  0  0  0  0  0
   14.9297   16.7690   23.3200 H   0  0  0  0  0  0  0  0  0  0  0  0
   16.8314   17.5443   25.2933 H   0  0  0  0  0  0  0  0  0  0  0  0
   15.0273   17.2359   26.8807 H   0  0  0  0  0  0  0  0  0  0  0  0
   13.6908   15.8542   24.7583 H   0  0  0  0  0  0  0  0  0  0  0  0
   13.8800   18.2405   24.2766 H   0  0  0  0  0  0  0  0  0  0  0  0
   14.7911   19.1970   25.4203 H   0  0  0  0  0  0  0  0  0  0  0  0
   13.2255   18.5609   25.8646 H   0  0  0  0  0  0  0  0  0  0  0  0
   18.3431   13.5327   26.6896 H   0  0  0  0  0  0  0  0  0  0  0  0
   18.8893   13.6818   29.0027 H   0  0  0  0  0  0  0  0  0  0  0  0
   17.3649   14.2851   29.4553 H   0  0  0  0  0  0  0  0  0  0  0  0
   18.7183   16.2396   29.4782 H   0  0  0  0  0  0  0  0  0  0  0  0
   19.6417   15.7440   28.1180 H   0  0  0  0  0  0  0  0  0  0  0  0
   16.8538   16.8589   28.1945 H   0  0  0  0  0  0  0  0  0  0  0  0
   18.0789   17.2715   27.0953 H   0  0  0  0  0  0  0  0  0  0  0  0
   15.1713   14.5023   27.8858 H   0  0  0  0  0  0  0  0  0  0  0  0
   14.2267   11.9044   28.3782 H   0  0  0  0  0  0  0  0  0  0  0  0
   11.9520   12.9352   28.1206 H   0  0  0  0  0  0  0  0  0  0  0  0
   12.8140   14.4350   27.6707 H   0  0  0  0  0  0  0  0  0  0  0  0
   13.2168   13.0889   30.2997 H   0  0  0  0  0  0  0  0  0  0  0  0
   11.9836   14.3343   30.0106 H   0  0  0  0  0  0  0  0  0  0  0  0
   13.9399   13.9380   25.4589 H   0  0  0  0  0  0  0  0  0  0  0  0
   13.2115   11.4765   23.9613 H   0  0  0  0  0  0  0  0  0  0  0  0
   14.2792   12.6996   23.3156 H   0  0  0  0  0  0  0  0  0  0  0  0
   12.5853   13.0560   23.5537 H   0  0  0  0  0  0  0  0  0  0  0  0
  1  2  1  0  0  0  0
  1 37  1  0  0  0  0
  1 38  1  0  0  0  0
  1 39  1  0  0  0  0
  2  4  1  0  0  0  0
  2  3  2  0  0  0  0
  4  5  1  0  0  0  0
  4 40  1  0  0  0  0
  5  6  1  0  0  0  0
  5 41  1  6  0  0  0
  6  7  2  0  0  0  0
  6 12  1  0  0  0  0
  8  5  1  0  0  0  0
  8 42  1  0  0  0  0
  8 43  1  0  0  0  0
  9  8  1  0  0  0  0
  9 44  1  0  0  0  0
 10  9  1  0  0  0  0
 10 45  1  0  0  0  0
 10 46  1  0  0  0  0
 10 47  1  0  0  0  0
 11  9  1  0  0  0  0
 11 48  1  0  0  0  0
 11 49  1  0  0  0  0
 11 50  1  0  0  0  0
 12 13  1  0  0  0  0
 12 51  1  0  0  0  0
 13 14  1  0  0  0  0
 13 16  1  0  0  0  0
 13 52  1  1  0  0  0
 14 19  1  0  0  0  0
 15 14  2  0  0  0  0
 16 53  1  1  0  0  0
 17 16  1  0  0  0  0
 17 54  1  0  0  0  0
 18 16  1  0  0  0  0
 18 55  1  0  0  0  0
 18 56  1  0  0  0  0
 18 57  1  0  0  0  0
 19 20  1  0  0  0  0
 19 25  1  0  0  0  0
 20 21  1  0  0  0  0
 20 23  1  0  0  0  0
 20 58  1  6  0  0  0
 21 26  1  0  0  0  0
 22 21  2  0  0  0  0
 23 59  1  0  0  0  0
 23 60  1  0  0  0  0
 24 23  1  0  0  0  0
 24 61  1  0  0  0  0
 24 62  1  0  0  0  0
 25 24  1  0  0  0  0
 25 63  1  0  0  0  0
 25 64  1  0  0  0  0
 26 27  1  0  0  0  0
 26 65  1  0  0  0  0
 27 30  1  0  0  0  0
 27 66  1  1  0  0  0
 28 27  1  0  0  0  0
 29 28  2  0  0  0  0
 30 31  1  0  0  0  0
 30 67  1  0  0  0  0
 30 68  1  0  0  0  0
 31 32  1  0  0  0  0
 31 69  1  0  0  0  0
 31 70  1  0  0  0  0
 32 34  1  0  0  0  0
 33 32  2  0  0  0  0
 35 28  1  0  0  0  0
 35 71  1  0  0  0  0
 36 35  1  0  0  0  0
 36 72  1  0  0  0  0
 36 73  1  0  0  0  0
 36 74  1  0  0  0  0
M  CHG  1  34  -1
M  END
>  <MODEL>
       0

$$$$
selected_4mers/LTPE/653_noH.pdb
 OpenBabel03042518233D

 74 74  0  0  1  0  0  0  0  0999 V2000
   40.0140   41.0160   41.5580 C   0  0  0  0  0  0  0  0  0  0  0  0
   41.3020   41.8190   41.6770 C   0  0  0  0  0  0  0  0  0  0  0  0
   42.0700   41.9410   40.6930 O   0  0  0  0  0  0  0  0  0  0  0  0
   41.5080   42.3950   42.8610 N   0  0  0  0  0  0  0  0  0  0  0  0
   42.7640   43.0460   43.2290 C   0  0  2  0  0  0  0  0  0  0  0  0
   43.2920   42.3490   44.4780 C   0  0  0  0  0  0  0  0  0  0  0  0
   42.5590   42.1400   45.4480 O   0  0  0  0  0  0  0  0  0  0  0  0
   42.5250   44.5290   43.5770 C   0  0  0  0  0  0  0  0  0  0  0  0
   41.9320   45.3750   42.4380 C   0  0  0  0  0  0  0  0  0  0  0  0
   41.5870   46.8220   42.9340 C   0  0  0  0  0  0  0  0  0  0  0  0
   42.8790   45.3610   41.2610 C   0  0  0  0  0  0  0  0  0  0  0  0
   44.5730   42.0460   44.4890 N   0  0  0  0  0  0  0  0  0  0  0  0
   45.1500   41.4260   45.6770 C   0  0  2  0  0  0  0  0  0  0  0  0
   45.4830   42.5270   46.6890 C   0  0  0  0  0  0  0  0  0  0  0  0
   45.5380   43.7060   46.3310 O   0  0  0  0  0  0  0  0  0  0  0  0
   46.4360   40.6610   45.3480 C   0  0  2  0  0  0  0  0  0  0  0  0
   47.4030   41.6100   44.8880 O   0  0  0  0  0  0  0  0  0  0  0  0
   46.1670   39.6200   44.2570 C   0  0  0  0  0  0  0  0  0  0  0  0
   45.6930   42.1570   47.9590 N   0  0  0  0  0  0  0  0  0  0  0  0
   46.0800   43.1880   48.9070 C   0  0  2  0  0  0  0  0  0  0  0  0
   47.3450   43.9660   48.4730 C   0  0  0  0  0  0  0  0  0  0  0  0
   47.4410   45.1730   48.6840 O   0  0  0  0  0  0  0  0  0  0  0  0
   46.2970   42.3980   50.2130 C   0  0  0  0  0  0  0  0  0  0  0  0
   45.3840   41.1970   50.0860 C   0  0  0  0  0  0  0  0  0  0  0  0
   45.4760   40.8400   48.6090 C   0  0  0  0  0  0  0  0  0  0  0  0
   48.2930   43.2720   47.8560 N   0  0  0  0  0  0  0  0  0  0  0  0
   49.5050   43.9000   47.3580 C   0  0  2  0  0  0  0  0  0  0  0  0
   49.2140   44.9220   46.2550 C   0  0  0  0  0  0  0  0  0  0  0  0
   49.7800   46.0120   46.2170 O   0  0  0  0  0  0  0  0  0  0  0  0
   50.4610   42.8360   46.8440 C   0  0  0  0  0  0  0  0  0  0  0  0
   50.9670   41.9040   47.9290 C   0  0  0  0  0  0  0  0  0  0  0  0
   49.9090   40.9400   48.5470 C   0  0  0  0  0  0  0  0  0  0  0  0
   48.9480   40.4590   47.8710 O   0  0  0  0  0  0  0  0  0  0  0  0
   50.0780   40.6570   49.7630 O   0  0  0  0  0  0  0  0  0  0  0  0
   48.3200   44.5620   45.3620 N   0  0  0  0  0  0  0  0  0  0  0  0
   47.9210   45.4800   44.2970 C   0  0  0  0  0  0  0  0  0  0  0  0
   39.9441   40.5975   40.5757 H   0  0  0  0  0  0  0  0  0  0  0  0
   39.1760   41.6580   41.7326 H   0  0  0  0  0  0  0  0  0  0  0  0
   40.0167   40.2281   42.2820 H   0  0  0  0  0  0  0  0  0  0  0  0
   40.7776   42.3814   43.5210 H   0  0  0  0  0  0  0  0  0  0  0  0
   43.4521   42.9849   42.4119 H   0  0  0  0  0  0  0  0  0  0  0  0
   41.8514   44.5710   44.4073 H   0  0  0  0  0  0  0  0  0  0  0  0
   43.4873   44.9456   43.7900 H   0  0  0  0  0  0  0  0  0  0  0  0
   41.0053   44.9501   42.1130 H   0  0  0  0  0  0  0  0  0  0  0  0
   42.4792   47.3043   43.2750 H   0  0  0  0  0  0  0  0  0  0  0  0
   40.8828   46.7652   43.7376 H   0  0  0  0  0  0  0  0  0  0  0  0
   41.1636   47.3839   42.1278 H   0  0  0  0  0  0  0  0  0  0  0  0
   43.8185   45.7810   41.5541 H   0  0  0  0  0  0  0  0  0  0  0  0
   42.4636   45.9390   40.4621 H   0  0  0  0  0  0  0  0  0  0  0  0
   43.0256   44.3531   40.9332 H   0  0  0  0  0  0  0  0  0  0  0  0
   45.1358   42.2358   43.7038 H   0  0  0  0  0  0  0  0  0  0  0  0
   44.4382   40.7325   46.0736 H   0  0  0  0  0  0  0  0  0  0  0  0
   46.7955   40.1491   46.2161 H   0  0  0  0  0  0  0  0  0  0  0  0
   47.0616   42.0643   44.1019 H   0  0  0  0  0  0  0  0  0  0  0  0
   45.8058   40.1105   43.3773 H   0  0  0  0  0  0  0  0  0  0  0  0
   45.4334   38.9221   44.6030 H   0  0  0  0  0  0  0  0  0  0  0  0
   47.0739   39.1002   44.0286 H   0  0  0  0  0  0  0  0  0  0  0  0
   45.3408   43.9562   48.9986 H   0  0  0  0  0  0  0  0  0  0  0  0
   46.0271   42.9901   51.0624 H   0  0  0  0  0  0  0  0  0  0  0  0
   47.3201   42.1181   50.3539 H   0  0  0  0  0  0  0  0  0  0  0  0
   45.7269   40.3887   50.6975 H   0  0  0  0  0  0  0  0  0  0  0  0
   44.3829   41.3970   50.4063 H   0  0  0  0  0  0  0  0  0  0  0  0
   46.2974   40.1798   48.4235 H   0  0  0  0  0  0  0  0  0  0  0  0
   44.6100   40.3279   48.2446 H   0  0  0  0  0  0  0  0  0  0  0  0
   48.1715   42.3029   47.7320 H   0  0  0  0  0  0  0  0  0  0  0  0
   49.9546   44.4290   48.1722 H   0  0  0  0  0  0  0  0  0  0  0  0
   51.3019   43.3235   46.3966 H   0  0  0  0  0  0  0  0  0  0  0  0
   49.9189   42.2376   46.1419 H   0  0  0  0  0  0  0  0  0  0  0  0
   51.3633   42.5061   48.7198 H   0  0  0  0  0  0  0  0  0  0  0  0
   51.6906   41.2741   47.4551 H   0  0  0  0  0  0  0  0  0  0  0  0
   47.9153   43.6659   45.4107 H   0  0  0  0  0  0  0  0  0  0  0  0
   48.4582   46.3997   44.3990 H   0  0  0  0  0  0  0  0  0  0  0  0
   46.8704   45.6711   44.3658 H   0  0  0  0  0  0  0  0  0  0  0  0
   48.1422   45.0413   43.3465 H   0  0  0  0  0  0  0  0  0  0  0  0
  1  2  1  0  0  0  0
  1 37  1  0  0  0  0
  1 38  1  0  0  0  0
  1 39  1  0  0  0  0
  2  4  1  0  0  0  0
  3  2  2  0  0  0  0
  4  5  1  0  0  0  0
  4 40  1  0  0  0  0
  5  8  1  0  0  0  0
  5  6  1  0  0  0  0
  5 41  1  6  0  0  0
  6 12  1  0  0  0  0
  6  7  2  0  0  0  0
  8 42  1  0  0  0  0
  8 43  1  0  0  0  0
  9 10  1  0  0  0  0
  9  8  1  0  0  0  0
  9 44  1  0  0  0  0
 10 45  1  0  0  0  0
 10 46  1  0  0  0  0
 10 47  1  0  0  0  0
 11  9  1  0  0  0  0
 11 48  1  0  0  0  0
 11 49  1  0  0  0  0
 11 50  1  0  0  0  0
 12 13  1  0  0  0  0
 12 51  1  0  0  0  0
 13 14  1  0  0  0  0
 13 52  1  1  0  0  0
 14 19  1  0  0  0  0
 15 14  2  0  0  0  0
 16 13  1  0  0  0  0
 16 53  1  1  0  0  0
 17 16  1  0  0  0  0
 17 54  1  0  0  0  0
 18 16  1  0  0  0  0
 18 55  1  0  0  0  0
 18 56  1  0  0  0  0
 18 57  1  0  0  0  0
 19 25  1  0  0  0  0
 19 20  1  0  0  0  0
 20 23  1  0  0  0  0
 20 58  1  1  0  0  0
 21 22  2  0  0  0  0
 21 20  1  0  0  0  0
 23 59  1  0  0  0  0
 23 60  1  0  0  0  0
 24 23  1  0  0  0  0
 24 61  1  0  0  0  0
 24 62  1  0  0  0  0
 25 24  1  0  0  0  0
 25 63  1  0  0  0  0
 25 64  1  0  0  0  0
 26 21  1  0  0  0  0
 26 65  1  0  0  0  0
 27 26  1  0  0  0  0
 27 66  1  1  0  0  0
 28 27  1  0  0  0  0
 29 28  2  0  0  0  0
 30 27  1  0  0  0  0
 30 31  1  0  0  0  0
 30 67  1  0  0  0  0
 30 68  1  0  0  0  0
 31 32  1  0  0  0  0
 31 69  1  0  0  0  0
 31 70  1  0  0  0  0
 32 34  1  0  0  0  0
 33 32  2  0  0  0  0
 35 28  1  0  0  0  0
 35 71  1  0  0  0  0
 36 35  1  0  0  0  0
 36 72  1  0  0  0  0
 36 73  1  0  0  0  0
 36 74  1  0  0  0  0
M  CHG  1  34  -1
M  END
>  <MODEL>
       0

$$$$
selected_4mers/LTPE/654_noH.pdb
 OpenBabel03042518233D

 74 74  0  0  1  0  0  0  0  0999 V2000
   43.5940   26.0790   22.7630 C   0  0  0  0  0  0  0  0  0  0  0  0
   43.7460   27.5340   23.1140 C   0  0  0  0  0  0  0  0  0  0  0  0
   44.5420   28.2670   22.4960 O   0  0  0  0  0  0  0  0  0  0  0  0
   42.9660   27.9730   24.0930 N   0  0  0  0  0  0  0  0  0  0  0  0
   42.9260   29.3770   24.5040 C   0  0  2  0  0  0  0  0  0  0  0  0
   44.1450   29.6750   25.3540 C   0  0  0  0  0  0  0  0  0  0  0  0
   44.4450   28.9220   26.2890 O   0  0  0  0  0  0  0  0  0  0  0  0
   41.6480   29.6390   25.3040 C   0  0  0  0  0  0  0  0  0  0  0  0
   41.3600   31.1110   25.5980 C   0  0  0  0  0  0  0  0  0  0  0  0
   41.1400   31.8920   24.3010 C   0  0  0  0  0  0  0  0  0  0  0  0
   40.1530   31.2470   26.5100 C   0  0  0  0  0  0  0  0  0  0  0  0
   44.8350   30.7700   25.0350 N   0  0  0  0  0  0  0  0  0  0  0  0
   46.0620   31.1600   25.7490 C   0  0  2  0  0  0  0  0  0  0  0  0
   46.0640   32.6570   26.0370 C   0  0  0  0  0  0  0  0  0  0  0  0
   45.2720   33.3980   25.4570 O   0  0  0  0  0  0  0  0  0  0  0  0
   47.3160   30.8470   24.9110 C   0  0  2  0  0  0  0  0  0  0  0  0
   47.3180   31.6910   23.7500 O   0  0  0  0  0  0  0  0  0  0  0  0
   47.3020   29.4170   24.3590 C   0  0  0  0  0  0  0  0  0  0  0  0
   46.9820   33.1320   26.8840 N   0  0  0  0  0  0  0  0  0  0  0  0
   47.1110   34.5830   27.0810 C   0  0  2  0  0  0  0  0  0  0  0  0
   47.4490   35.3340   25.7830 C   0  0  0  0  0  0  0  0  0  0  0  0
   47.0990   36.5150   25.6720 O   0  0  0  0  0  0  0  0  0  0  0  0
   48.2360   34.6920   28.1160 C   0  0  0  0  0  0  0  0  0  0  0  0
   48.1960   33.3640   28.8340 C   0  0  0  0  0  0  0  0  0  0  0  0
   47.9280   32.3770   27.7290 C   0  0  0  0  0  0  0  0  0  0  0  0
   48.0520   34.6470   24.8120 N   0  0  0  0  0  0  0  0  0  0  0  0
   48.5040   35.2610   23.5560 C   0  0  2  0  0  0  0  0  0  0  0  0
   47.4610   35.2980   22.4390 C   0  0  0  0  0  0  0  0  0  0  0  0
   47.6430   36.0200   21.4540 O   0  0  0  0  0  0  0  0  0  0  0  0
   49.7430   34.5370   23.0360 C   0  0  0  0  0  0  0  0  0  0  0  0
   50.9780   34.7200   23.9090 C   0  0  0  0  0  0  0  0  0  0  0  0
   51.0090   33.7780   25.1050 C   0  0  0  0  0  0  0  0  0  0  0  0
   50.3000   32.7490   25.1010 O   0  0  0  0  0  0  0  0  0  0  0  0
   51.7360   34.0790   26.0580 O   0  0  0  0  0  0  0  0  0  0  0  0
   46.3940   34.5020   22.5530 N   0  0  0  0  0  0  0  0  0  0  0  0
   45.3190   34.5450   21.5560 C   0  0  0  0  0  0  0  0  0  0  0  0
   44.2649   25.8322   21.9669 H   0  0  0  0  0  0  0  0  0  0  0  0
   42.5875   25.8902   22.4527 H   0  0  0  0  0  0  0  0  0  0  0  0
   43.8214   25.4798   23.6198 H   0  0  0  0  0  0  0  0  0  0  0  0
   42.3900   27.3274   24.5627 H   0  0  0  0  0  0  0  0  0  0  0  0
   42.9298   30.0118   23.6426 H   0  0  0  0  0  0  0  0  0  0  0  0
   41.7298   29.1238   26.2382 H   0  0  0  0  0  0  0  0  0  0  0  0
   40.8386   29.2916   24.6965 H   0  0  0  0  0  0  0  0  0  0  0  0
   42.2118   31.5233   26.0974 H   0  0  0  0  0  0  0  0  0  0  0  0
   40.2909   31.4948   23.7851 H   0  0  0  0  0  0  0  0  0  0  0  0
   42.0073   31.8046   23.6805 H   0  0  0  0  0  0  0  0  0  0  0  0
   40.9679   32.9229   24.5302 H   0  0  0  0  0  0  0  0  0  0  0  0
   39.2913   30.8387   26.0245 H   0  0  0  0  0  0  0  0  0  0  0  0
   39.9840   32.2812   26.7261 H   0  0  0  0  0  0  0  0  0  0  0  0
   40.3334   30.7169   27.4218 H   0  0  0  0  0  0  0  0  0  0  0  0
   44.5133   31.3369   24.2972 H   0  0  0  0  0  0  0  0  0  0  0  0
   46.0816   30.6017   26.6616 H   0  0  0  0  0  0  0  0  0  0  0  0
   48.1598   30.9925   25.5526 H   0  0  0  0  0  0  0  0  0  0  0  0
   46.5295   31.5077   23.2157 H   0  0  0  0  0  0  0  0  0  0  0  0
   46.4529   29.2895   23.7205 H   0  0  0  0  0  0  0  0  0  0  0  0
   47.2456   28.7219   25.1706 H   0  0  0  0  0  0  0  0  0  0  0  0
   48.1977   29.2414   23.8007 H   0  0  0  0  0  0  0  0  0  0  0  0
   46.1955   35.0348   27.4013 H   0  0  0  0  0  0  0  0  0  0  0  0
   48.0521   35.4981   28.7952 H   0  0  0  0  0  0  0  0  0  0  0  0
   49.1884   34.8934   27.6718 H   0  0  0  0  0  0  0  0  0  0  0  0
   49.1311   33.1589   29.3119 H   0  0  0  0  0  0  0  0  0  0  0  0
   47.4605   33.3312   29.6105 H   0  0  0  0  0  0  0  0  0  0  0  0
   48.8231   32.1359   27.1945 H   0  0  0  0  0  0  0  0  0  0  0  0
   47.5537   31.4336   28.0677 H   0  0  0  0  0  0  0  0  0  0  0  0
   48.2014   33.6827   24.9429 H   0  0  0  0  0  0  0  0  0  0  0  0
   48.7130   36.2792   23.8100 H   0  0  0  0  0  0  0  0  0  0  0  0
   49.9643   34.9088   22.0574 H   0  0  0  0  0  0  0  0  0  0  0  0
   49.5146   33.4917   23.0370 H   0  0  0  0  0  0  0  0  0  0  0  0
   50.9945   35.7276   24.2686 H   0  0  0  0  0  0  0  0  0  0  0  0
   51.8320   34.4963   23.3045 H   0  0  0  0  0  0  0  0  0  0  0  0
   46.3287   33.8805   23.3137 H   0  0  0  0  0  0  0  0  0  0  0  0
   45.5559   35.2716   20.8071 H   0  0  0  0  0  0  0  0  0  0  0  0
   44.3997   34.8121   22.0340 H   0  0  0  0  0  0  0  0  0  0  0  0
   45.2171   33.5826   21.0996 H   0  0  0  0  0  0  0  0  0  0  0  0
  1  2  1  0  0  0  0
  1 37  1  0  0  0  0
  1 38  1  0  0  0  0
  1 39  1  0  0  0  0
  2  4  1  0  0  0  0
  3  2  2  0  0  0  0
  4  5  1  0  0  0  0
  4 40  1  0  0  0  0
  5  8  1  0  0  0  0
  5  6  1  0  0  0  0
  5 41  1  6  0  0  0
  6  7  2  0  0  0  0
  8  9  1  0  0  0  0
  8 42  1  0  0  0  0
  8 43  1  0  0  0  0
  9 11  1  0  0  0  0
  9 44  1  0  0  0  0
 10  9  1  0  0  0  0
 10 45  1  0  0  0  0
 10 46  1  0  0  0  0
 10 47  1  0  0  0  0
 11 48  1  0  0  0  0
 11 49  1  0  0  0  0
 11 50  1  0  0  0  0
 12  6  1  0  0  0  0
 12 13  1  0  0  0  0
 12 51  1  0  0  0  0
 13 14  1  0  0  0  0
 13 52  1  1  0  0  0
 14 19  1  0  0  0  0
 15 14  2  0  0  0  0
 16 13  1  0  0  0  0
 16 53  1  1  0  0  0
 17 16  1  0  0  0  0
 17 54  1  0  0  0  0
 18 16  1  0  0  0  0
 18 55  1  0  0  0  0
 18 56  1  0  0  0  0
 18 57  1  0  0  0  0
 19 20  1  0  0  0  0
 19 25  1  0  0  0  0
 20 23  1  0  0  0  0
 20 58  1  1  0  0  0
 21 20  1  0  0  0  0
 22 21  2  0  0  0  0
 23 24  1  0  0  0  0
 23 59  1  0  0  0  0
 23 60  1  0  0  0  0
 24 61  1  0  0  0  0
 24 62  1  0  0  0  0
 25 24  1  0  0  0  0
 25 63  1  0  0  0  0
 25 64  1  0  0  0  0
 26 21  1  0  0  0  0
 26 65  1  0  0  0  0
 27 26  1  0  0  0  0
 27 66  1  1  0  0  0
 28 35  1  0  0  0  0
 28 27  1  0  0  0  0
 29 28  2  0  0  0  0
 30 27  1  0  0  0  0
 30 31  1  0  0  0  0
 30 67  1  0  0  0  0
 30 68  1  0  0  0  0
 31 32  1  0  0  0  0
 31 69  1  0  0  0  0
 31 70  1  0  0  0  0
 32 34  1  0  0  0  0
 33 32  2  0  0  0  0
 35 71  1  0  0  0  0
 36 35  1  0  0  0  0
 36 72  1  0  0  0  0
 36 73  1  0  0  0  0
 36 74  1  0  0  0  0
M  CHG  1  34  -1
M  END
>  <MODEL>
       0

$$$$
