selected_4mers/LVAA/580_noH.pdb
 OpenBabel03042518233D

 67 66  0  0  1  0  0  0  0  0999 V2000
   20.8870  -34.5490   42.6590 C   0  0  0  0  0  0  0  0  0  0  0  0
   21.5330  -33.5590   41.6880 C   0  0  0  0  0  0  0  0  0  0  0  0
   22.6150  -33.0390   41.9540 O   0  0  0  0  0  0  0  0  0  0  0  0
   20.8770  -33.3060   40.5590 N   0  0  0  0  0  0  0  0  0  0  0  0
   21.4030  -32.3530   39.5830 C   0  0  2  0  0  0  0  0  0  0  0  0
   21.4140  -30.9520   40.1980 C   0  0  0  0  0  0  0  0  0  0  0  0
   22.4040  -30.2230   40.0940 O   0  0  0  0  0  0  0  0  0  0  0  0
   20.5390  -32.3480   38.3180 C   0  0  0  0  0  0  0  0  0  0  0  0
   20.8690  -31.2700   37.2780 C   0  0  0  0  0  0  0  0  0  0  0  0
   22.2480  -31.5360   36.6850 C   0  0  0  0  0  0  0  0  0  0  0  0
   19.8140  -31.2770   36.1890 C   0  0  0  0  0  0  0  0  0  0  0  0
   20.3130  -30.5750   40.8410 N   0  0  0  0  0  0  0  0  0  0  0  0
   20.2330  -29.2620   41.4680 C   0  0  2  0  0  0  0  0  0  0  0  0
   21.2980  -29.1410   42.5600 C   0  0  0  0  0  0  0  0  0  0  0  0
   21.9460  -28.1020   42.6940 O   0  0  0  0  0  0  0  0  0  0  0  0
   18.8350  -29.0160   42.0760 C   0  0  0  0  0  0  0  0  0  0  0  0
   18.8410  -27.7410   42.9010 C   0  0  0  0  0  0  0  0  0  0  0  0
   17.7990  -28.9120   40.9580 C   0  0  0  0  0  0  0  0  0  0  0  0
   21.4890  -30.2080   43.3300 N   0  0  0  0  0  0  0  0  0  0  0  0
   22.4900  -30.2010   44.3950 C   0  0  2  0  0  0  0  0  0  0  0  0
   23.8960  -30.0350   43.8230 C   0  0  0  0  0  0  0  0  0  0  0  0
   24.7180  -29.3040   44.3760 O   0  0  0  0  0  0  0  0  0  0  0  0
   22.4120  -31.4990   45.2040 C   0  0  0  0  0  0  0  0  0  0  0  0
   24.1720  -30.7220   42.7180 N   0  0  0  0  0  0  0  0  0  0  0  0
   25.4900  -30.6520   42.0870 C   0  0  2  0  0  0  0  0  0  0  0  0
   25.7390  -29.2590   41.5190 C   0  0  0  0  0  0  0  0  0  0  0  0
   26.8430  -28.7200   41.6300 O   0  0  0  0  0  0  0  0  0  0  0  0
   25.6000  -31.7040   40.9760 C   0  0  0  0  0  0  0  0  0  0  0  0
   24.7090  -28.6810   40.9110 N   0  0  0  0  0  0  0  0  0  0  0  0
   24.8150  -27.3420   40.3400 C   0  0  0  0  0  0  0  0  0  0  0  0
   19.9570  -34.8901   42.2544 H   0  0  0  0  0  0  0  0  0  0  0  0
   20.7118  -34.0655   43.5973 H   0  0  0  0  0  0  0  0  0  0  0  0
   21.5403  -35.3838   42.8044 H   0  0  0  0  0  0  0  0  0  0  0  0
   20.0259  -33.7666   40.3781 H   0  0  0  0  0  0  0  0  0  0  0  0
   22.3984  -32.6430   39.3183 H   0  0  0  0  0  0  0  0  0  0  0  0
   20.6466  -33.3018   37.8452 H   0  0  0  0  0  0  0  0  0  0  0  0
   19.5453  -32.1313   38.6503 H   0  0  0  0  0  0  0  0  0  0  0  0
   20.8760  -30.3079   37.7462 H   0  0  0  0  0  0  0  0  0  0  0  0
   22.2542  -32.4964   36.2133 H   0  0  0  0  0  0  0  0  0  0  0  0
   22.9811  -31.5166   37.4642 H   0  0  0  0  0  0  0  0  0  0  0  0
   22.4766  -30.7817   35.9614 H   0  0  0  0  0  0  0  0  0  0  0  0
   19.7984  -32.2355   35.7137 H   0  0  0  0  0  0  0  0  0  0  0  0
   20.0438  -30.5235   35.4649 H   0  0  0  0  0  0  0  0  0  0  0  0
   18.8553  -31.0769   36.6199 H   0  0  0  0  0  0  0  0  0  0  0  0
   19.5448  -31.1885   40.8940 H   0  0  0  0  0  0  0  0  0  0  0  0
   20.4051  -28.5234   40.7132 H   0  0  0  0  0  0  0  0  0  0  0  0
   18.5816  -29.8364   42.7144 H   0  0  0  0  0  0  0  0  0  0  0  0
   19.0933  -26.9116   42.2739 H   0  0  0  0  0  0  0  0  0  0  0  0
   19.5632  -27.8274   43.6858 H   0  0  0  0  0  0  0  0  0  0  0  0
   17.8708  -27.5857   43.3246 H   0  0  0  0  0  0  0  0  0  0  0  0
   18.0478  -28.0927   40.3163 H   0  0  0  0  0  0  0  0  0  0  0  0
   16.8304  -28.7507   41.3831 H   0  0  0  0  0  0  0  0  0  0  0  0
   17.7932  -29.8197   40.3915 H   0  0  0  0  0  0  0  0  0  0  0  0
   20.9472  -31.0162   43.1803 H   0  0  0  0  0  0  0  0  0  0  0  0
   22.2834  -29.3705   45.0372 H   0  0  0  0  0  0  0  0  0  0  0  0
   22.6183  -32.3312   44.5638 H   0  0  0  0  0  0  0  0  0  0  0  0
   21.4310  -31.6025   45.6186 H   0  0  0  0  0  0  0  0  0  0  0  0
   23.1322  -31.4702   45.9948 H   0  0  0  0  0  0  0  0  0  0  0  0
   23.4748  -31.2894   42.3164 H   0  0  0  0  0  0  0  0  0  0  0  0
   26.2334  -30.8528   42.8299 H   0  0  0  0  0  0  0  0  0  0  0  0
   24.8598  -31.5112   40.2277 H   0  0  0  0  0  0  0  0  0  0  0  0
   25.4432  -32.6780   41.3903 H   0  0  0  0  0  0  0  0  0  0  0  0
   26.5737  -31.6566   40.5350 H   0  0  0  0  0  0  0  0  0  0  0  0
   23.8552  -29.1666   40.8441 H   0  0  0  0  0  0  0  0  0  0  0  0
   25.8027  -26.9631   40.5003 H   0  0  0  0  0  0  0  0  0  0  0  0
   24.1043  -26.6959   40.8115 H   0  0  0  0  0  0  0  0  0  0  0  0
   24.6157  -27.3854   39.2896 H   0  0  0  0  0  0  0  0  0  0  0  0
  1 31  1  0  0  0  0
  1 32  1  0  0  0  0
  1 33  1  0  0  0  0
  2  3  2  0  0  0  0
  2  1  1  0  0  0  0
  4  2  1  0  0  0  0
  4 34  1  0  0  0  0
  5  6  1  0  0  0  0
  5  4  1  0  0  0  0
  5 35  1  6  0  0  0
  6 12  1  0  0  0  0
  7  6  2  0  0  0  0
  8  5  1  0  0  0  0
  8 36  1  0  0  0  0
  8 37  1  0  0  0  0
  9  8  1  0  0  0  0
  9 38  1  0  0  0  0
 10  9  1  0  0  0  0
 10 39  1  0  0  0  0
 10 40  1  0  0  0  0
 10 41  1  0  0  0  0
 11  9  1  0  0  0  0
 11 42  1  0  0  0  0
 11 43  1  0  0  0  0
 11 44  1  0  0  0  0
 12 13  1  0  0  0  0
 12 45  1  0  0  0  0
 13 16  1  0  0  0  0
 13 14  1  0  0  0  0
 13 46  1  6  0  0  0
 14 15  2  0  0  0  0
 14 19  1  0  0  0  0
 16 17  1  0  0  0  0
 16 47  1  0  0  0  0
 17 48  1  0  0  0  0
 17 49  1  0  0  0  0
 17 50  1  0  0  0  0
 18 16  1  0  0  0  0
 18 51  1  0  0  0  0
 18 52  1  0  0  0  0
 18 53  1  0  0  0  0
 19 20  1  0  0  0  0
 19 54  1  0  0  0  0
 20 23  1  0  0  0  0
 20 55  1  1  0  0  0
 21 22  2  0  0  0  0
 21 20  1  0  0  0  0
 23 56  1  0  0  0  0
 23 57  1  0  0  0  0
 23 58  1  0  0  0  0
 24 21  1  0  0  0  0
 24 59  1  0  0  0  0
 25 24  1  0  0  0  0
 25 60  1  1  0  0  0
 26 27  2  0  0  0  0
 26 25  1  0  0  0  0
 28 25  1  0  0  0  0
 28 61  1  0  0  0  0
 28 62  1  0  0  0  0
 28 63  1  0  0  0  0
 29 26  1  0  0  0  0
 29 64  1  0  0  0  0
 30 29  1  0  0  0  0
 30 65  1  0  0  0  0
 30 66  1  0  0  0  0
 30 67  1  0  0  0  0
M  END
>  <MODEL>
       0

$$$$
selected_4mers/LVAA/581_noH.pdb
 OpenBabel03042518233D

 67 66  0  0  1  0  0  0  0  0999 V2000
   46.7920   73.5540   15.8430 C   0  0  0  0  0  0  0  0  0  0  0  0
   45.6360   72.6150   15.5190 C   0  0  0  0  0  0  0  0  0  0  0  0
   45.4250   72.2480   14.3600 O   0  0  0  0  0  0  0  0  0  0  0  0
   44.8990   72.2030   16.5450 N   0  0  0  0  0  0  0  0  0  0  0  0
   43.8110   71.2640   16.3340 C   0  0  2  0  0  0  0  0  0  0  0  0
   42.7540   71.8320   15.4920 C   0  0  0  0  0  0  0  0  0  0  0  0
   42.1670   71.1190   14.6830 O   0  0  0  0  0  0  0  0  0  0  0  0
   43.0950   70.9520   17.5990 C   0  0  0  0  0  0  0  0  0  0  0  0
   43.3270   69.6780   18.2900 C   0  0  0  0  0  0  0  0  0  0  0  0
   42.4580   69.5060   19.5550 C   0  0  0  0  0  0  0  0  0  0  0  0
   43.2170   68.4070   17.4330 C   0  0  0  0  0  0  0  0  0  0  0  0
   42.4400   73.0980   15.7440 N   0  0  0  0  0  0  0  0  0  0  0  0
   41.3780   73.7540   15.0010 C   0  0  2  0  0  0  0  0  0  0  0  0
   41.8330   74.0790   13.5850 C   0  0  0  0  0  0  0  0  0  0  0  0
   41.0030   73.9650   12.6360 O   0  0  0  0  0  0  0  0  0  0  0  0
   40.8990   74.9820   15.8040 C   0  0  0  0  0  0  0  0  0  0  0  0
   39.8740   75.7570   14.9960 C   0  0  0  0  0  0  0  0  0  0  0  0
   40.2960   74.4860   17.1290 C   0  0  0  0  0  0  0  0  0  0  0  0
   43.0980   74.4690   13.3830 N   0  0  0  0  0  0  0  0  0  0  0  0
   43.6340   74.7900   12.0640 C   0  0  2  0  0  0  0  0  0  0  0  0
   43.8000   73.6070   11.1170 C   0  0  0  0  0  0  0  0  0  0  0  0
   43.7420   73.7340    9.8950 O   0  0  0  0  0  0  0  0  0  0  0  0
   44.9200   75.4710   12.1560 C   0  0  0  0  0  0  0  0  0  0  0  0
   44.1180   72.4340   11.6510 N   0  0  0  0  0  0  0  0  0  0  0  0
   44.3190   71.2430   10.8600 C   0  0  2  0  0  0  0  0  0  0  0  0
   43.1080   70.9220    9.9940 C   0  0  0  0  0  0  0  0  0  0  0  0
   41.9570   71.0690   10.4330 O   0  0  0  0  0  0  0  0  0  0  0  0
   44.5900   70.0950   11.8350 C   0  0  0  0  0  0  0  0  0  0  0  0
   43.3610   70.3800    8.8150 N   0  0  0  0  0  0  0  0  0  0  0  0
   42.2810   69.8690    7.9610 C   0  0  0  0  0  0  0  0  0  0  0  0
   47.3053   73.8125   14.9404 H   0  0  0  0  0  0  0  0  0  0  0  0
   47.4703   73.0670   16.5121 H   0  0  0  0  0  0  0  0  0  0  0  0
   46.4120   74.4417   16.3039 H   0  0  0  0  0  0  0  0  0  0  0  0
   45.0911   72.5354   17.4516 H   0  0  0  0  0  0  0  0  0  0  0  0
   44.2819   70.4087   15.8962 H   0  0  0  0  0  0  0  0  0  0  0  0
   42.0489   70.9952   17.3782 H   0  0  0  0  0  0  0  0  0  0  0  0
   43.4896   71.6733   18.2838 H   0  0  0  0  0  0  0  0  0  0  0  0
   44.3577   69.7696   18.5622 H   0  0  0  0  0  0  0  0  0  0  0  0
   41.4301   69.4154   19.2720 H   0  0  0  0  0  0  0  0  0  0  0  0
   42.5793   70.3588   20.1897 H   0  0  0  0  0  0  0  0  0  0  0  0
   42.7625   68.6246   20.0797 H   0  0  0  0  0  0  0  0  0  0  0  0
   42.1999   68.2669   17.1317 H   0  0  0  0  0  0  0  0  0  0  0  0
   43.5391   67.5621   18.0051 H   0  0  0  0  0  0  0  0  0  0  0  0
   43.8354   68.5071   16.5655 H   0  0  0  0  0  0  0  0  0  0  0  0
   42.9301   73.5947   16.4386 H   0  0  0  0  0  0  0  0  0  0  0  0
   40.5374   73.1027   14.8823 H   0  0  0  0  0  0  0  0  0  0  0  0
   41.7178   75.6391   16.0106 H   0  0  0  0  0  0  0  0  0  0  0  0
   39.0412   75.1228   14.7741 H   0  0  0  0  0  0  0  0  0  0  0  0
   40.3196   76.0931   14.0831 H   0  0  0  0  0  0  0  0  0  0  0  0
   39.5387   76.6014   15.5612 H   0  0  0  0  0  0  0  0  0  0  0  0
   39.4770   73.8286   16.9242 H   0  0  0  0  0  0  0  0  0  0  0  0
   39.9481   75.3228   17.6979 H   0  0  0  0  0  0  0  0  0  0  0  0
   41.0434   73.9615   17.6868 H   0  0  0  0  0  0  0  0  0  0  0  0
   43.6955   74.5428   14.1620 H   0  0  0  0  0  0  0  0  0  0  0  0
   42.8824   75.4275   11.6474 H   0  0  0  0  0  0  0  0  0  0  0  0
   45.6462   74.8065   12.5755 H   0  0  0  0  0  0  0  0  0  0  0  0
   44.8228   76.3338   12.7813 H   0  0  0  0  0  0  0  0  0  0  0  0
   45.2347   75.7724   11.1787 H   0  0  0  0  0  0  0  0  0  0  0  0
   44.2212   72.3736   12.6282 H   0  0  0  0  0  0  0  0  0  0  0  0
   45.1409   71.3906   10.1910 H   0  0  0  0  0  0  0  0  0  0  0  0
   43.7503   69.9753   12.4873 H   0  0  0  0  0  0  0  0  0  0  0  0
   45.4623   70.3168   12.4136 H   0  0  0  0  0  0  0  0  0  0  0  0
   44.7468   69.1902   11.2858 H   0  0  0  0  0  0  0  0  0  0  0  0
   44.2927   70.3176    8.5031 H   0  0  0  0  0  0  0  0  0  0  0  0
   41.3404   70.0153    8.4496 H   0  0  0  0  0  0  0  0  0  0  0  0
   42.4314   68.8248    7.7822 H   0  0  0  0  0  0  0  0  0  0  0  0
   42.2843   70.3946    7.0290 H   0  0  0  0  0  0  0  0  0  0  0  0
  1 31  1  0  0  0  0
  1 32  1  0  0  0  0
  1 33  1  0  0  0  0
  2  1  1  0  0  0  0
  2  4  1  0  0  0  0
  3  2  2  0  0  0  0
  4 34  1  0  0  0  0
  5  4  1  0  0  0  0
  5  8  1  0  0  0  0
  5 35  1  6  0  0  0
  6 12  1  0  0  0  0
  6  5  1  0  0  0  0
  7  6  2  0  0  0  0
  8  9  1  0  0  0  0
  8 36  1  0  0  0  0
  8 37  1  0  0  0  0
  9 10  1  0  0  0  0
  9 38  1  0  0  0  0
 10 39  1  0  0  0  0
 10 40  1  0  0  0  0
 10 41  1  0  0  0  0
 11  9  1  0  0  0  0
 11 42  1  0  0  0  0
 11 43  1  0  0  0  0
 11 44  1  0  0  0  0
 12 45  1  0  0  0  0
 13 12  1  0  0  0  0
 13 16  1  0  0  0  0
 13 46  1  6  0  0  0
 14 13  1  0  0  0  0
 15 14  2  0  0  0  0
 16 18  1  0  0  0  0
 16 47  1  0  0  0  0
 17 16  1  0  0  0  0
 17 48  1  0  0  0  0
 17 49  1  0  0  0  0
 17 50  1  0  0  0  0
 18 51  1  0  0  0  0
 18 52  1  0  0  0  0
 18 53  1  0  0  0  0
 19 14  1  0  0  0  0
 19 54  1  0  0  0  0
 20 23  1  0  0  0  0
 20 19  1  0  0  0  0
 20 55  1  6  0  0  0
 21 24  1  0  0  0  0
 21 20  1  0  0  0  0
 22 21  2  0  0  0  0
 23 56  1  0  0  0  0
 23 57  1  0  0  0  0
 23 58  1  0  0  0  0
 24 59  1  0  0  0  0
 25 24  1  0  0  0  0
 25 28  1  0  0  0  0
 25 60  1  6  0  0  0
 26 27  2  0  0  0  0
 26 25  1  0  0  0  0
 28 61  1  0  0  0  0
 28 62  1  0  0  0  0
 28 63  1  0  0  0  0
 29 26  1  0  0  0  0
 29 64  1  0  0  0  0
 30 29  1  0  0  0  0
 30 65  1  0  0  0  0
 30 66  1  0  0  0  0
 30 67  1  0  0  0  0
M  END
>  <MODEL>
       0

$$$$
selected_4mers/LVAA/582_noH.pdb
 OpenBabel03042518233D

 67 66  0  0  1  0  0  0  0  0999 V2000
  -17.7660   -0.8330  -14.8940 C   0  0  0  0  0  0  0  0  0  0  0  0
  -16.5190   -1.3680  -15.5820 C   0  0  0  0  0  0  0  0  0  0  0  0
  -16.3720   -1.2360  -16.7900 O   0  0  0  0  0  0  0  0  0  0  0  0
  -15.6250   -1.9580  -14.7960 N   0  0  0  0  0  0  0  0  0  0  0  0
  -14.3760   -2.5070  -15.3020 C   0  0  2  0  0  0  0  0  0  0  0  0
  -14.5650   -3.9860  -15.5680 C   0  0  0  0  0  0  0  0  0  0  0  0
  -15.0230   -4.7180  -14.6890 O   0  0  0  0  0  0  0  0  0  0  0  0
  -13.2540   -2.3340  -14.2680 C   0  0  0  0  0  0  0  0  0  0  0  0
  -11.8670   -2.8020  -14.7220 C   0  0  0  0  0  0  0  0  0  0  0  0
  -11.3450   -1.8960  -15.8360 C   0  0  0  0  0  0  0  0  0  0  0  0
  -10.8710   -2.8670  -13.5640 C   0  0  0  0  0  0  0  0  0  0  0  0
  -14.1960   -4.4210  -16.7740 N   0  0  0  0  0  0  0  0  0  0  0  0
  -14.2860   -5.8250  -17.1540 C   0  0  2  0  0  0  0  0  0  0  0  0
  -12.8860   -6.4220  -17.3350 C   0  0  0  0  0  0  0  0  0  0  0  0
  -11.9490   -5.7270  -17.7250 O   0  0  0  0  0  0  0  0  0  0  0  0
  -15.1340   -6.0140  -18.4510 C   0  0  0  0  0  0  0  0  0  0  0  0
  -14.4550   -5.3340  -19.6480 C   0  0  0  0  0  0  0  0  0  0  0  0
  -15.3700   -7.4960  -18.7440 C   0  0  0  0  0  0  0  0  0  0  0  0
  -12.7480   -7.7110  -17.0350 N   0  0  0  0  0  0  0  0  0  0  0  0
  -11.4920   -8.4250  -17.2550 C   0  0  2  0  0  0  0  0  0  0  0  0
  -11.7580   -9.7000  -18.0400 C   0  0  0  0  0  0  0  0  0  0  0  0
  -12.6490  -10.4710  -17.6960 O   0  0  0  0  0  0  0  0  0  0  0  0
  -10.8390   -8.7610  -15.9370 C   0  0  0  0  0  0  0  0  0  0  0  0
  -10.9870   -9.8980  -19.1010 N   0  0  0  0  0  0  0  0  0  0  0  0
  -11.0480  -11.1180  -19.8970 C   0  0  2  0  0  0  0  0  0  0  0  0
   -9.7300  -11.8540  -19.7300 C   0  0  0  0  0  0  0  0  0  0  0  0
   -8.6530  -11.2870  -19.9610 O   0  0  0  0  0  0  0  0  0  0  0  0
  -11.3050  -10.7750  -21.3520 C   0  0  0  0  0  0  0  0  0  0  0  0
   -9.8100  -13.1160  -19.3190 N   0  0  0  0  0  0  0  0  0  0  0  0
   -8.6170  -13.8650  -18.9240 C   0  0  0  0  0  0  0  0  0  0  0  0
  -18.4090   -0.3826  -15.6210 H   0  0  0  0  0  0  0  0  0  0  0  0
  -17.4852   -0.1022  -14.1646 H   0  0  0  0  0  0  0  0  0  0  0  0
  -18.2808   -1.6380  -14.4125 H   0  0  0  0  0  0  0  0  0  0  0  0
  -15.8152   -2.0265  -13.8325 H   0  0  0  0  0  0  0  0  0  0  0  0
  -14.1079   -1.9903  -16.1998 H   0  0  0  0  0  0  0  0  0  0  0  0
  -13.5211   -2.8907  -13.3941 H   0  0  0  0  0  0  0  0  0  0  0  0
  -13.1695   -1.2812  -14.0964 H   0  0  0  0  0  0  0  0  0  0  0  0
  -11.9696   -3.7979  -15.0997 H   0  0  0  0  0  0  0  0  0  0  0  0
  -11.2402   -0.8981  -15.4644 H   0  0  0  0  0  0  0  0  0  0  0  0
  -12.0356   -1.9016  -16.6533 H   0  0  0  0  0  0  0  0  0  0  0  0
  -10.3937   -2.2538  -16.1704 H   0  0  0  0  0  0  0  0  0  0  0  0
  -10.7369   -1.8880  -13.1535 H   0  0  0  0  0  0  0  0  0  0  0  0
   -9.9322   -3.2356  -13.9213 H   0  0  0  0  0  0  0  0  0  0  0  0
  -11.2468   -3.5229  -12.8067 H   0  0  0  0  0  0  0  0  0  0  0  0
  -13.8514   -3.7719  -17.4291 H   0  0  0  0  0  0  0  0  0  0  0  0
  -14.7829   -6.3459  -16.3624 H   0  0  0  0  0  0  0  0  0  0  0  0
  -16.0849   -5.5505  -18.2902 H   0  0  0  0  0  0  0  0  0  0  0  0
  -13.5014   -5.7871  -19.8219 H   0  0  0  0  0  0  0  0  0  0  0  0
  -14.3224   -4.2931  -19.4388 H   0  0  0  0  0  0  0  0  0  0  0  0
  -15.0679   -5.4478  -20.5177 H   0  0  0  0  0  0  0  0  0  0  0  0
  -14.4306   -7.9810  -18.9086 H   0  0  0  0  0  0  0  0  0  0  0  0
  -15.9799   -7.5941  -19.6176 H   0  0  0  0  0  0  0  0  0  0  0  0
  -15.8647   -7.9499  -17.9108 H   0  0  0  0  0  0  0  0  0  0  0  0
  -13.5142   -8.1978  -16.6538 H   0  0  0  0  0  0  0  0  0  0  0  0
  -10.8308   -7.7957  -17.8133 H   0  0  0  0  0  0  0  0  0  0  0  0
  -11.4896   -9.3908  -15.3669 H   0  0  0  0  0  0  0  0  0  0  0  0
  -10.6487   -7.8594  -15.3931 H   0  0  0  0  0  0  0  0  0  0  0  0
   -9.9156   -9.2711  -16.1162 H   0  0  0  0  0  0  0  0  0  0  0  0
  -10.3493   -9.1944  -19.3609 H   0  0  0  0  0  0  0  0  0  0  0  0
  -11.8504  -11.7449  -19.5682 H   0  0  0  0  0  0  0  0  0  0  0  0
  -10.5186  -10.1465  -21.7146 H   0  0  0  0  0  0  0  0  0  0  0  0
  -12.2399  -10.2617  -21.4377 H   0  0  0  0  0  0  0  0  0  0  0  0
  -11.3378  -11.6748  -21.9301 H   0  0  0  0  0  0  0  0  0  0  0  0
  -10.6901  -13.5554  -19.2797 H   0  0  0  0  0  0  0  0  0  0  0  0
   -7.7538  -13.2411  -19.0269 H   0  0  0  0  0  0  0  0  0  0  0  0
   -8.5120  -14.7254  -19.5514 H   0  0  0  0  0  0  0  0  0  0  0  0
   -8.7126  -14.1764  -17.9048 H   0  0  0  0  0  0  0  0  0  0  0  0
  1 31  1  0  0  0  0
  1 32  1  0  0  0  0
  1 33  1  0  0  0  0
  2  1  1  0  0  0  0
  2  4  1  0  0  0  0
  3  2  2  0  0  0  0
  4 34  1  0  0  0  0
  5  4  1  0  0  0  0
  5  8  1  0  0  0  0
  5 35  1  6  0  0  0
  6  5  1  0  0  0  0
  6  7  2  0  0  0  0
  8 36  1  0  0  0  0
  8 37  1  0  0  0  0
  9  8  1  0  0  0  0
  9 11  1  0  0  0  0
  9 38  1  0  0  0  0
 10  9  1  0  0  0  0
 10 39  1  0  0  0  0
 10 40  1  0  0  0  0
 10 41  1  0  0  0  0
 11 42  1  0  0  0  0
 11 43  1  0  0  0  0
 11 44  1  0  0  0  0
 12  6  1  0  0  0  0
 12 45  1  0  0  0  0
 13 12  1  0  0  0  0
 13 46  1  1  0  0  0
 14 13  1  0  0  0  0
 14 19  1  0  0  0  0
 15 14  2  0  0  0  0
 16 13  1  0  0  0  0
 16 47  1  0  0  0  0
 17 16  1  0  0  0  0
 17 48  1  0  0  0  0
 17 49  1  0  0  0  0
 17 50  1  0  0  0  0
 18 16  1  0  0  0  0
 18 51  1  0  0  0  0
 18 52  1  0  0  0  0
 18 53  1  0  0  0  0
 19 54  1  0  0  0  0
 20 19  1  0  0  0  0
 20 23  1  0  0  0  0
 20 55  1  6  0  0  0
 21 22  2  0  0  0  0
 21 20  1  0  0  0  0
 23 56  1  0  0  0  0
 23 57  1  0  0  0  0
 23 58  1  0  0  0  0
 24 21  1  0  0  0  0
 24 59  1  0  0  0  0
 25 26  1  0  0  0  0
 25 24  1  0  0  0  0
 25 60  1  1  0  0  0
 26 29  1  0  0  0  0
 27 26  2  0  0  0  0
 28 25  1  0  0  0  0
 28 61  1  0  0  0  0
 28 62  1  0  0  0  0
 28 63  1  0  0  0  0
 29 30  1  0  0  0  0
 29 64  1  0  0  0  0
 30 65  1  0  0  0  0
 30 66  1  0  0  0  0
 30 67  1  0  0  0  0
M  END
>  <MODEL>
       0

$$$$
selected_4mers/LVAA/583_noH.pdb
 OpenBabel03042518233D

 67 66  0  0  1  0  0  0  0  0999 V2000
   37.8390   33.6800   56.3120 C   0  0  0  0  0  0  0  0  0  0  0  0
   38.7440   33.4900   55.0890 C   0  0  0  0  0  0  0  0  0  0  0  0
   38.6170   34.2390   54.0910 O   0  0  0  0  0  0  0  0  0  0  0  0
   39.6840   32.5440   55.1730 N   0  0  0  0  0  0  0  0  0  0  0  0
   40.5180   32.2320   54.0160 C   0  0  2  0  0  0  0  0  0  0  0  0
   39.6390   31.6630   52.9130 C   0  0  0  0  0  0  0  0  0  0  0  0
   38.8670   30.7440   53.1490 O   0  0  0  0  0  0  0  0  0  0  0  0
   41.6000   31.1970   54.3120 C   0  0  0  0  0  0  0  0  0  0  0  0
   42.8070   31.5200   55.1660 C   0  0  0  0  0  0  0  0  0  0  0  0
   43.6990   30.2560   55.2010 C   0  0  0  0  0  0  0  0  0  0  0  0
   43.5500   32.7330   54.5960 C   0  0  0  0  0  0  0  0  0  0  0  0
   39.7070   32.2670   51.7300 N   0  0  0  0  0  0  0  0  0  0  0  0
   38.9790   31.7730   50.5460 C   0  0  2  0  0  0  0  0  0  0  0  0
   40.0690   31.4280   49.5390 C   0  0  0  0  0  0  0  0  0  0  0  0
   40.8370   32.3250   49.1070 O   0  0  0  0  0  0  0  0  0  0  0  0
   37.9930   32.7800   49.9980 C   0  0  0  0  0  0  0  0  0  0  0  0
   37.3080   32.1900   48.7530 C   0  0  0  0  0  0  0  0  0  0  0  0
   36.9550   33.1450   51.0960 C   0  0  0  0  0  0  0  0  0  0  0  0
   40.1350   30.1380   49.1770 N   0  0  0  0  0  0  0  0  0  0  0  0
   41.1940   29.5990   48.3280 C   0  0  2  0  0  0  0  0  0  0  0  0
   40.5440   28.9580   47.1210 C   0  0  0  0  0  0  0  0  0  0  0  0
   39.7200   28.0780   47.2750 O   0  0  0  0  0  0  0  0  0  0  0  0
   42.0440   28.6090   49.0930 C   0  0  0  0  0  0  0  0  0  0  0  0
   40.8570   29.4600   45.9320 N   0  0  0  0  0  0  0  0  0  0  0  0
   40.2620   28.9570   44.6890 C   0  0  2  0  0  0  0  0  0  0  0  0
   41.3620   28.5850   43.6950 C   0  0  0  0  0  0  0  0  0  0  0  0
   42.3310   29.3040   43.5330 O   0  0  0  0  0  0  0  0  0  0  0  0
   39.3330   30.0250   44.1060 C   0  0  0  0  0  0  0  0  0  0  0  0
   41.1790   27.4870   42.9800 N   0  0  0  0  0  0  0  0  0  0  0  0
   42.1710   27.0310   42.0060 C   0  0  0  0  0  0  0  0  0  0  0  0
   37.1350   34.4617   56.1167 H   0  0  0  0  0  0  0  0  0  0  0  0
   38.4362   33.9416   57.1604 H   0  0  0  0  0  0  0  0  0  0  0  0
   37.3143   32.7693   56.5124 H   0  0  0  0  0  0  0  0  0  0  0  0
   39.8146   32.0558   56.0179 H   0  0  0  0  0  0  0  0  0  0  0  0
   40.9975   33.1453   53.7316 H   0  0  0  0  0  0  0  0  0  0  0  0
   41.9804   30.8817   53.3629 H   0  0  0  0  0  0  0  0  0  0  0  0
   41.0753   30.4919   54.9223 H   0  0  0  0  0  0  0  0  0  0  0  0
   42.5191   31.7805   56.1631 H   0  0  0  0  0  0  0  0  0  0  0  0
   43.9871   29.9951   54.2041 H   0  0  0  0  0  0  0  0  0  0  0  0
   43.1530   29.4462   55.6380 H   0  0  0  0  0  0  0  0  0  0  0  0
   44.5736   30.4528   55.7851 H   0  0  0  0  0  0  0  0  0  0  0  0
   43.8609   32.5223   53.5941 H   0  0  0  0  0  0  0  0  0  0  0  0
   44.4086   32.9413   55.1996 H   0  0  0  0  0  0  0  0  0  0  0  0
   42.8992   33.5824   54.5963 H   0  0  0  0  0  0  0  0  0  0  0  0
   40.2640   33.0739   51.6412 H   0  0  0  0  0  0  0  0  0  0  0  0
   38.3704   30.9267   50.7872 H   0  0  0  0  0  0  0  0  0  0  0  0
   38.5008   33.6774   49.7120 H   0  0  0  0  0  0  0  0  0  0  0  0
   36.7944   31.2904   49.0211 H   0  0  0  0  0  0  0  0  0  0  0  0
   38.0460   31.9714   48.0097 H   0  0  0  0  0  0  0  0  0  0  0  0
   36.6072   32.8979   48.3623 H   0  0  0  0  0  0  0  0  0  0  0  0
   36.4322   32.2623   51.4001 H   0  0  0  0  0  0  0  0  0  0  0  0
   36.2574   33.8559   50.7051 H   0  0  0  0  0  0  0  0  0  0  0  0
   37.4609   33.5680   51.9386 H   0  0  0  0  0  0  0  0  0  0  0  0
   39.4355   29.5248   49.4993 H   0  0  0  0  0  0  0  0  0  0  0  0
   41.8489   30.3824   48.0081 H   0  0  0  0  0  0  0  0  0  0  0  0
   41.4305   27.8021   49.4356 H   0  0  0  0  0  0  0  0  0  0  0  0
   42.4922   29.0978   49.9327 H   0  0  0  0  0  0  0  0  0  0  0  0
   42.8106   28.2268   48.4518 H   0  0  0  0  0  0  0  0  0  0  0  0
   41.5105   30.1947   45.8831 H   0  0  0  0  0  0  0  0  0  0  0  0
   39.6893   28.0763   44.8921 H   0  0  0  0  0  0  0  0  0  0  0  0
   39.8948   30.9117   43.8985 H   0  0  0  0  0  0  0  0  0  0  0  0
   38.5604   30.2493   44.8114 H   0  0  0  0  0  0  0  0  0  0  0  0
   38.8945   29.6605   43.2006 H   0  0  0  0  0  0  0  0  0  0  0  0
   40.3547   26.9637   43.1065 H   0  0  0  0  0  0  0  0  0  0  0  0
   42.9983   27.7095   41.9951 H   0  0  0  0  0  0  0  0  0  0  0  0
   41.7260   26.9955   41.0336 H   0  0  0  0  0  0  0  0  0  0  0  0
   42.5142   26.0545   42.2770 H   0  0  0  0  0  0  0  0  0  0  0  0
  1 31  1  0  0  0  0
  1 32  1  0  0  0  0
  1 33  1  0  0  0  0
  2  4  1  0  0  0  0
  2  1  1  0  0  0  0
  3  2  2  0  0  0  0
  4 34  1  0  0  0  0
  5  8  1  0  0  0  0
  5  4  1  0  0  0  0
  5 35  1  6  0  0  0
  6  7  2  0  0  0  0
  6  5  1  0  0  0  0
  8  9  1  0  0  0  0
  8 36  1  0  0  0  0
  8 37  1  0  0  0  0
  9 10  1  0  0  0  0
  9 38  1  0  0  0  0
 10 39  1  0  0  0  0
 10 40  1  0  0  0  0
 10 41  1  0  0  0  0
 11  9  1  0  0  0  0
 11 42  1  0  0  0  0
 11 43  1  0  0  0  0
 11 44  1  0  0  0  0
 12  6  1  0  0  0  0
 12 45  1  0  0  0  0
 13 12  1  0  0  0  0
 13 46  1  1  0  0  0
 14 13  1  0  0  0  0
 15 14  2  0  0  0  0
 16 13  1  0  0  0  0
 16 18  1  0  0  0  0
 16 47  1  0  0  0  0
 17 16  1  0  0  0  0
 17 48  1  0  0  0  0
 17 49  1  0  0  0  0
 17 50  1  0  0  0  0
 18 51  1  0  0  0  0
 18 52  1  0  0  0  0
 18 53  1  0  0  0  0
 19 14  1  0  0  0  0
 19 54  1  0  0  0  0
 20 23  1  0  0  0  0
 20 19  1  0  0  0  0
 20 55  1  6  0  0  0
 21 22  2  0  0  0  0
 21 20  1  0  0  0  0
 23 56  1  0  0  0  0
 23 57  1  0  0  0  0
 23 58  1  0  0  0  0
 24 21  1  0  0  0  0
 24 59  1  0  0  0  0
 25 24  1  0  0  0  0
 25 60  1  1  0  0  0
 26 25  1  0  0  0  0
 27 26  2  0  0  0  0
 28 25  1  0  0  0  0
 28 61  1  0  0  0  0
 28 62  1  0  0  0  0
 28 63  1  0  0  0  0
 29 26  1  0  0  0  0
 29 64  1  0  0  0  0
 30 29  1  0  0  0  0
 30 65  1  0  0  0  0
 30 66  1  0  0  0  0
 30 67  1  0  0  0  0
M  END
>  <MODEL>
       0

$$$$
selected_4mers/LVAA/584_noH.pdb
 OpenBabel03042518233D

 67 66  0  0  1  0  0  0  0  0999 V2000
   92.2780   13.3950   35.6920 C   0  0  0  0  0  0  0  0  0  0  0  0
   92.6550   11.9600   35.2860 C   0  0  0  0  0  0  0  0  0  0  0  0
   93.4950   11.7740   34.4220 O   0  0  0  0  0  0  0  0  0  0  0  0
   92.0490   10.9600   35.9260 N   0  0  0  0  0  0  0  0  0  0  0  0
   92.4480    9.5770   35.7050 C   0  0  2  0  0  0  0  0  0  0  0  0
   91.5330    8.9600   34.6570 C   0  0  0  0  0  0  0  0  0  0  0  0
   90.3260    9.1080   34.7530 O   0  0  0  0  0  0  0  0  0  0  0  0
   92.4270    8.7710   37.0190 C   0  0  0  0  0  0  0  0  0  0  0  0
   92.2370    7.2380   36.9970 C   0  0  0  0  0  0  0  0  0  0  0  0
   93.4540    6.3650   36.4040 C   0  0  0  0  0  0  0  0  0  0  0  0
   91.8250    6.7650   38.4190 C   0  0  0  0  0  0  0  0  0  0  0  0
   92.1100    8.2750   33.6660 N   0  0  0  0  0  0  0  0  0  0  0  0
   91.3420    7.4520   32.7390 C   0  0  2  0  0  0  0  0  0  0  0  0
   91.6440    5.9780   33.0240 C   0  0  0  0  0  0  0  0  0  0  0  0
   92.7910    5.5850   32.9610 O   0  0  0  0  0  0  0  0  0  0  0  0
   91.7330    7.7560   31.2890 C   0  0  0  0  0  0  0  0  0  0  0  0
   90.9380    6.8580   30.3390 C   0  0  0  0  0  0  0  0  0  0  0  0
   91.5190    9.2400   30.9670 C   0  0  0  0  0  0  0  0  0  0  0  0
   90.6260    5.1860   33.3570 N   0  0  0  0  0  0  0  0  0  0  0  0
   90.7760    3.7660   33.6460 C   0  0  2  0  0  0  0  0  0  0  0  0
   90.7560    2.9480   32.3570 C   0  0  0  0  0  0  0  0  0  0  0  0
   90.0590    3.2830   31.3990 O   0  0  0  0  0  0  0  0  0  0  0  0
   89.6730    3.3080   34.5830 C   0  0  0  0  0  0  0  0  0  0  0  0
   91.5410    1.8770   32.3380 N   0  0  0  0  0  0  0  0  0  0  0  0
   91.6530    0.9840   31.2080 C   0  0  2  0  0  0  0  0  0  0  0  0
   90.2940    0.4570   30.7880 C   0  0  0  0  0  0  0  0  0  0  0  0
   90.0010    0.3470   29.6100 O   0  0  0  0  0  0  0  0  0  0  0  0
   92.5830   -0.1930   31.5750 C   0  0  0  0  0  0  0  0  0  0  0  0
   89.4500    0.1670   31.7650 N   0  0  0  0  0  0  0  0  0  0  0  0
   88.1040   -0.3620   31.5210 C   0  0  0  0  0  0  0  0  0  0  0  0
   92.8363   14.0911   35.1015 H   0  0  0  0  0  0  0  0  0  0  0  0
   92.5039   13.5438   36.7272 H   0  0  0  0  0  0  0  0  0  0  0  0
   91.2316   13.5483   35.5297 H   0  0  0  0  0  0  0  0  0  0  0  0
   91.3207   11.1594   36.5577 H   0  0  0  0  0  0  0  0  0  0  0  0
   93.4561    9.5527   35.3472 H   0  0  0  0  0  0  0  0  0  0  0  0
   91.6295    9.1700   37.6104 H   0  0  0  0  0  0  0  0  0  0  0  0
   93.4258    8.8839   37.3858 H   0  0  0  0  0  0  0  0  0  0  0  0
   91.4594    7.0529   36.2857 H   0  0  0  0  0  0  0  0  0  0  0  0
   94.3093    6.4680   37.0387 H   0  0  0  0  0  0  0  0  0  0  0  0
   93.6956    6.7115   35.4209 H   0  0  0  0  0  0  0  0  0  0  0  0
   93.1655    5.3356   36.3585 H   0  0  0  0  0  0  0  0  0  0  0  0
   92.6214    6.9633   39.1055 H   0  0  0  0  0  0  0  0  0  0  0  0
   91.6231    5.7144   38.4009 H   0  0  0  0  0  0  0  0  0  0  0  0
   90.9469    7.2917   38.7296 H   0  0  0  0  0  0  0  0  0  0  0  0
   93.0871    8.3276   33.5577 H   0  0  0  0  0  0  0  0  0  0  0  0
   90.3016    7.6643   32.8713 H   0  0  0  0  0  0  0  0  0  0  0  0
   92.7744    7.5483   31.1575 H   0  0  0  0  0  0  0  0  0  0  0  0
   89.8923    7.0519   30.4564 H   0  0  0  0  0  0  0  0  0  0  0  0
   91.1383    5.8319   30.5669 H   0  0  0  0  0  0  0  0  0  0  0  0
   91.2274    7.0622   29.3293 H   0  0  0  0  0  0  0  0  0  0  0  0
   90.4846    9.4857   31.0881 H   0  0  0  0  0  0  0  0  0  0  0  0
   91.8154    9.4322   29.9570 H   0  0  0  0  0  0  0  0  0  0  0  0
   92.1076    9.8376   31.6313 H   0  0  0  0  0  0  0  0  0  0  0  0
   89.7257    5.5807   33.4106 H   0  0  0  0  0  0  0  0  0  0  0  0
   91.7213    3.6121   34.1232 H   0  0  0  0  0  0  0  0  0  0  0  0
   88.7225    3.4577   34.1151 H   0  0  0  0  0  0  0  0  0  0  0  0
   89.7173    3.8743   35.4898 H   0  0  0  0  0  0  0  0  0  0  0  0
   89.8018    2.2692   34.8046 H   0  0  0  0  0  0  0  0  0  0  0  0
   92.0773    1.6804   33.1399 H   0  0  0  0  0  0  0  0  0  0  0  0
   92.0646    1.5288   30.3842 H   0  0  0  0  0  0  0  0  0  0  0  0
   92.1660   -0.7335   32.3989 H   0  0  0  0  0  0  0  0  0  0  0  0
   93.5463    0.1850   31.8473 H   0  0  0  0  0  0  0  0  0  0  0  0
   92.6811   -0.8460   30.7331 H   0  0  0  0  0  0  0  0  0  0  0  0
   89.7378    0.3125   32.6952 H   0  0  0  0  0  0  0  0  0  0  0  0
   87.9457   -0.4621   30.4675 H   0  0  0  0  0  0  0  0  0  0  0  0
   87.3775    0.3095   31.9287 H   0  0  0  0  0  0  0  0  0  0  0  0
   88.0068   -1.3194   31.9888 H   0  0  0  0  0  0  0  0  0  0  0  0
  1 31  1  0  0  0  0
  1 32  1  0  0  0  0
  1 33  1  0  0  0  0
  2  1  1  0  0  0  0
  2  4  1  0  0  0  0
  3  2  2  0  0  0  0
  4 34  1  0  0  0  0
  5  4  1  0  0  0  0
  5  8  1  0  0  0  0
  5 35  1  6  0  0  0
  6  7  2  0  0  0  0
  6  5  1  0  0  0  0
  8 36  1  0  0  0  0
  8 37  1  0  0  0  0
  9  8  1  0  0  0  0
  9 11  1  0  0  0  0
  9 38  1  0  0  0  0
 10  9  1  0  0  0  0
 10 39  1  0  0  0  0
 10 40  1  0  0  0  0
 10 41  1  0  0  0  0
 11 42  1  0  0  0  0
 11 43  1  0  0  0  0
 11 44  1  0  0  0  0
 12  6  1  0  0  0  0
 12 45  1  0  0  0  0
 13 14  1  0  0  0  0
 13 12  1  0  0  0  0
 13 46  1  1  0  0  0
 14 19  1  0  0  0  0
 15 14  2  0  0  0  0
 16 13  1  0  0  0  0
 16 47  1  0  0  0  0
 17 16  1  0  0  0  0
 17 48  1  0  0  0  0
 17 49  1  0  0  0  0
 17 50  1  0  0  0  0
 18 16  1  0  0  0  0
 18 51  1  0  0  0  0
 18 52  1  0  0  0  0
 18 53  1  0  0  0  0
 19 20  1  0  0  0  0
 19 54  1  0  0  0  0
 20 23  1  0  0  0  0
 20 55  1  1  0  0  0
 21 20  1  0  0  0  0
 22 21  2  0  0  0  0
 23 56  1  0  0  0  0
 23 57  1  0  0  0  0
 23 58  1  0  0  0  0
 24 21  1  0  0  0  0
 24 59  1  0  0  0  0
 25 28  1  0  0  0  0
 25 24  1  0  0  0  0
 25 60  1  6  0  0  0
 26 25  1  0  0  0  0
 26 29  1  0  0  0  0
 27 26  2  0  0  0  0
 28 61  1  0  0  0  0
 28 62  1  0  0  0  0
 28 63  1  0  0  0  0
 29 64  1  0  0  0  0
 30 29  1  0  0  0  0
 30 65  1  0  0  0  0
 30 66  1  0  0  0  0
 30 67  1  0  0  0  0
M  END
>  <MODEL>
       0

$$$$
