selected_4mers/LVTG/670_noH.pdb
 OpenBabel03042518233D

 68 67  0  0  1  0  0  0  0  0999 V2000
   -3.6430   46.8500   25.3550 C   0  0  0  0  0  0  0  0  0  0  0  0
   -4.5140   46.4270   26.5260 C   0  0  0  0  0  0  0  0  0  0  0  0
   -4.9730   47.2670   27.3160 O   0  0  0  0  0  0  0  0  0  0  0  0
   -4.7070   45.1110   26.6580 N   0  0  0  0  0  0  0  0  0  0  0  0
   -5.1750   44.5200   27.8990 C   0  0  2  0  0  0  0  0  0  0  0  0
   -4.0260   43.7480   28.5010 C   0  0  0  0  0  0  0  0  0  0  0  0
   -3.4240   42.8960   27.8280 O   0  0  0  0  0  0  0  0  0  0  0  0
   -6.3300   43.5630   27.6300 C   0  0  0  0  0  0  0  0  0  0  0  0
   -6.7810   42.6410   28.7880 C   0  0  0  0  0  0  0  0  0  0  0  0
   -7.3210   43.4690   29.9820 C   0  0  0  0  0  0  0  0  0  0  0  0
   -7.8300   41.6850   28.2800 C   0  0  0  0  0  0  0  0  0  0  0  0
   -3.7490   44.0140   29.7800 N   0  0  0  0  0  0  0  0  0  0  0  0
   -2.6830   43.3140   30.5100 C   0  0  2  0  0  0  0  0  0  0  0  0
   -3.2960   42.6610   31.7430 C   0  0  0  0  0  0  0  0  0  0  0  0
   -3.8010   43.3710   32.6470 O   0  0  0  0  0  0  0  0  0  0  0  0
   -1.5510   44.2790   30.9290 C   0  0  0  0  0  0  0  0  0  0  0  0
   -0.4320   43.5370   31.6620 C   0  0  0  0  0  0  0  0  0  0  0  0
   -1.0230   45.0480   29.7140 C   0  0  0  0  0  0  0  0  0  0  0  0
   -3.2870   41.3350   31.7900 N   0  0  0  0  0  0  0  0  0  0  0  0
   -3.6920   40.6600   33.0300 C   0  0  2  0  0  0  0  0  0  0  0  0
   -2.4860   40.6130   33.9790 C   0  0  0  0  0  0  0  0  0  0  0  0
   -1.3340   40.6180   33.5270 O   0  0  0  0  0  0  0  0  0  0  0  0
   -4.2820   39.2810   32.8110 C   0  0  2  0  0  0  0  0  0  0  0  0
   -3.2680   38.4250   32.2840 O   0  0  0  0  0  0  0  0  0  0  0  0
   -5.4940   39.3160   31.8440 C   0  0  0  0  0  0  0  0  0  0  0  0
   -2.7430   40.6480   35.2910 N   0  0  0  0  0  0  0  0  0  0  0  0
   -1.6830   40.8340   36.2490 C   0  0  0  0  0  0  0  0  0  0  0  0
   -1.0340   42.1990   36.0920 C   0  0  0  0  0  0  0  0  0  0  0  0
    0.1450   42.3740   36.4420 O   0  0  0  0  0  0  0  0  0  0  0  0
   -1.7780   43.2030   35.6390 N   0  0  0  0  0  0  0  0  0  0  0  0
   -1.1560   44.4900   35.3550 C   0  0  0  0  0  0  0  0  0  0  0  0
   -3.3502   45.9849   24.7975 H   0  0  0  0  0  0  0  0  0  0  0  0
   -2.7710   47.3501   25.7215 H   0  0  0  0  0  0  0  0  0  0  0  0
   -4.1945   47.5128   24.7214 H   0  0  0  0  0  0  0  0  0  0  0  0
   -4.5260   44.5235   25.8890 H   0  0  0  0  0  0  0  0  0  0  0  0
   -5.5162   45.2876   28.5618 H   0  0  0  0  0  0  0  0  0  0  0  0
   -6.0412   42.9341   26.8140 H   0  0  0  0  0  0  0  0  0  0  0  0
   -7.1712   44.1977   27.4447 H   0  0  0  0  0  0  0  0  0  0  0  0
   -5.9375   42.0854   29.1411 H   0  0  0  0  0  0  0  0  0  0  0  0
   -8.1687   44.0401   29.6656 H   0  0  0  0  0  0  0  0  0  0  0  0
   -6.5562   44.1302   30.3324 H   0  0  0  0  0  0  0  0  0  0  0  0
   -7.6109   42.8083   30.7721 H   0  0  0  0  0  0  0  0  0  0  0  0
   -8.6750   42.2378   27.9262 H   0  0  0  0  0  0  0  0  0  0  0  0
   -8.1355   41.0359   29.0739 H   0  0  0  0  0  0  0  0  0  0  0  0
   -7.4241   41.1027   27.4794 H   0  0  0  0  0  0  0  0  0  0  0  0
   -4.2758   44.7010   30.2488 H   0  0  0  0  0  0  0  0  0  0  0  0
   -2.2488   42.5754   29.8690 H   0  0  0  0  0  0  0  0  0  0  0  0
   -1.9548   44.9927   31.6164 H   0  0  0  0  0  0  0  0  0  0  0  0
    0.0018   42.8098   31.0079 H   0  0  0  0  0  0  0  0  0  0  0  0
   -0.8341   43.0467   32.5239 H   0  0  0  0  0  0  0  0  0  0  0  0
    0.3190   44.2355   31.9670 H   0  0  0  0  0  0  0  0  0  0  0  0
   -0.6116   44.3585   29.0067 H   0  0  0  0  0  0  0  0  0  0  0  0
   -0.2631   45.7328   30.0280 H   0  0  0  0  0  0  0  0  0  0  0  0
   -1.8254   45.5899   29.2586 H   0  0  0  0  0  0  0  0  0  0  0  0
   -3.0123   40.8102   31.0036 H   0  0  0  0  0  0  0  0  0  0  0  0
   -4.4860   41.2281   33.4679 H   0  0  0  0  0  0  0  0  0  0  0  0
   -4.6345   38.9120   33.7515 H   0  0  0  0  0  0  0  0  0  0  0  0
   -2.9605   38.7740   31.4328 H   0  0  0  0  0  0  0  0  0  0  0  0
   -5.1781   39.6814   30.8893 H   0  0  0  0  0  0  0  0  0  0  0  0
   -6.2487   39.9621   32.2413 H   0  0  0  0  0  0  0  0  0  0  0  0
   -5.8914   38.3286   31.7343 H   0  0  0  0  0  0  0  0  0  0  0  0
   -3.6698   40.5452   35.6068 H   0  0  0  0  0  0  0  0  0  0  0  0
   -0.9422   40.0762   36.1014 H   0  0  0  0  0  0  0  0  0  0  0  0
   -2.0995   40.7678   37.2324 H   0  0  0  0  0  0  0  0  0  0  0  0
   -2.7440   43.0779   35.4961 H   0  0  0  0  0  0  0  0  0  0  0  0
   -0.1091   44.4352   35.5692 H   0  0  0  0  0  0  0  0  0  0  0  0
   -1.6057   45.2457   35.9646 H   0  0  0  0  0  0  0  0  0  0  0  0
   -1.2965   44.7340   34.3227 H   0  0  0  0  0  0  0  0  0  0  0  0
  1  2  1  0  0  0  0
  1 32  1  0  0  0  0
  1 33  1  0  0  0  0
  1 34  1  0  0  0  0
  2  4  1  0  0  0  0
  2  3  2  0  0  0  0
  4  5  1  0  0  0  0
  4 35  1  0  0  0  0
  5  6  1  0  0  0  0
  5 36  1  1  0  0  0
  6 12  1  0  0  0  0
  7  6  2  0  0  0  0
  8  5  1  0  0  0  0
  8  9  1  0  0  0  0
  8 37  1  0  0  0  0
  8 38  1  0  0  0  0
  9 10  1  0  0  0  0
  9 39  1  0  0  0  0
 10 40  1  0  0  0  0
 10 41  1  0  0  0  0
 10 42  1  0  0  0  0
 11  9  1  0  0  0  0
 11 43  1  0  0  0  0
 11 44  1  0  0  0  0
 11 45  1  0  0  0  0
 12 13  1  0  0  0  0
 12 46  1  0  0  0  0
 13 16  1  0  0  0  0
 13 14  1  0  0  0  0
 13 47  1  6  0  0  0
 14 19  1  0  0  0  0
 14 15  2  0  0  0  0
 16 17  1  0  0  0  0
 16 48  1  0  0  0  0
 17 49  1  0  0  0  0
 17 50  1  0  0  0  0
 17 51  1  0  0  0  0
 18 16  1  0  0  0  0
 18 52  1  0  0  0  0
 18 53  1  0  0  0  0
 18 54  1  0  0  0  0
 19 20  1  0  0  0  0
 19 55  1  0  0  0  0
 20 21  1  0  0  0  0
 20 56  1  1  0  0  0
 21 26  1  0  0  0  0
 22 21  2  0  0  0  0
 23 20  1  0  0  0  0
 23 57  1  1  0  0  0
 24 23  1  0  0  0  0
 24 58  1  0  0  0  0
 25 23  1  0  0  0  0
 25 59  1  0  0  0  0
 25 60  1  0  0  0  0
 25 61  1  0  0  0  0
 26 27  1  0  0  0  0
 26 62  1  0  0  0  0
 27 63  1  0  0  0  0
 27 64  1  0  0  0  0
 28 27  1  0  0  0  0
 28 29  2  0  0  0  0
 30 28  1  0  0  0  0
 30 65  1  0  0  0  0
 31 30  1  0  0  0  0
 31 66  1  0  0  0  0
 31 67  1  0  0  0  0
 31 68  1  0  0  0  0
M  END
>  <MODEL>
       0

$$$$
selected_4mers/LVTG/671_noH.pdb
 OpenBabel03042518233D

 68 67  0  0  1  0  0  0  0  0999 V2000
    1.6230   31.2010   27.7490 C   0  0  0  0  0  0  0  0  0  0  0  0
    0.9910   29.8250   27.8320 C   0  0  0  0  0  0  0  0  0  0  0  0
    1.5690   28.9150   28.4210 O   0  0  0  0  0  0  0  0  0  0  0  0
   -0.1880   29.6630   27.2350 N   0  0  0  0  0  0  0  0  0  0  0  0
   -0.8870   28.3800   27.2790 C   0  0  2  0  0  0  0  0  0  0  0  0
   -0.8720   27.5830   25.9760 C   0  0  0  0  0  0  0  0  0  0  0  0
   -1.4380   26.4930   25.9080 O   0  0  0  0  0  0  0  0  0  0  0  0
   -2.3300   28.5950   27.7440 C   0  0  0  0  0  0  0  0  0  0  0  0
   -2.4460   29.0640   29.1970 C   0  0  0  0  0  0  0  0  0  0  0  0
   -3.8970   29.3530   29.5460 C   0  0  0  0  0  0  0  0  0  0  0  0
   -1.8650   27.9910   30.1090 C   0  0  0  0  0  0  0  0  0  0  0  0
   -0.2470   28.1290   24.9390 N   0  0  0  0  0  0  0  0  0  0  0  0
   -0.1510   27.4230   23.6630 C   0  0  2  0  0  0  0  0  0  0  0  0
    1.2580   26.8660   23.7230 C   0  0  0  0  0  0  0  0  0  0  0  0
    2.2240   27.5160   23.3290 O   0  0  0  0  0  0  0  0  0  0  0  0
   -0.3100   28.3780   22.4670 C   0  0  0  0  0  0  0  0  0  0  0  0
   -0.2860   27.5820   21.1610 C   0  0  0  0  0  0  0  0  0  0  0  0
   -1.6220   29.1450   22.5960 C   0  0  0  0  0  0  0  0  0  0  0  0
    1.3620   25.6480   24.2390 N   0  0  0  0  0  0  0  0  0  0  0  0
    2.6510   25.0150   24.4490 C   0  0  2  0  0  0  0  0  0  0  0  0
    3.0720   23.9330   23.4770 C   0  0  0  0  0  0  0  0  0  0  0  0
    2.2570   23.3860   22.7320 O   0  0  0  0  0  0  0  0  0  0  0  0
    2.6890   24.4040   25.8430 C   0  0  2  0  0  0  0  0  0  0  0  0
    1.6250   23.4480   25.9530 O   0  0  0  0  0  0  0  0  0  0  0  0
    2.5100   25.4860   26.9040 C   0  0  0  0  0  0  0  0  0  0  0  0
    4.3710   23.6380   23.5150 N   0  0  0  0  0  0  0  0  0  0  0  0
    4.9600   22.5970   22.6910 C   0  0  0  0  0  0  0  0  0  0  0  0
    4.9700   22.8080   21.1920 C   0  0  0  0  0  0  0  0  0  0  0  0
    5.2170   21.8600   20.4420 O   0  0  0  0  0  0  0  0  0  0  0  0
    4.7270   24.0350   20.7390 N   0  0  0  0  0  0  0  0  0  0  0  0
    4.6950   24.2980   19.3030 C   0  0  0  0  0  0  0  0  0  0  0  0
    0.9785   31.8571   27.2022 H   0  0  0  0  0  0  0  0  0  0  0  0
    2.5668   31.1305   27.2499 H   0  0  0  0  0  0  0  0  0  0  0  0
    1.7696   31.5863   28.7364 H   0  0  0  0  0  0  0  0  0  0  0  0
   -0.5959   30.4201   26.7558 H   0  0  0  0  0  0  0  0  0  0  0  0
   -0.3395   27.7819   27.9772 H   0  0  0  0  0  0  0  0  0  0  0  0
   -2.8582   27.6698   27.6447 H   0  0  0  0  0  0  0  0  0  0  0  0
   -2.7433   29.3693   27.1320 H   0  0  0  0  0  0  0  0  0  0  0  0
   -1.8957   29.9719   29.3305 H   0  0  0  0  0  0  0  0  0  0  0  0
   -4.4776   28.4627   29.4228 H   0  0  0  0  0  0  0  0  0  0  0  0
   -4.2741   30.1171   28.8989 H   0  0  0  0  0  0  0  0  0  0  0  0
   -3.9606   29.6826   30.5620 H   0  0  0  0  0  0  0  0  0  0  0  0
   -2.4110   27.0798   29.9805 H   0  0  0  0  0  0  0  0  0  0  0  0
   -1.9388   28.3104   31.1275 H   0  0  0  0  0  0  0  0  0  0  0  0
   -0.8372   27.8291   29.8595 H   0  0  0  0  0  0  0  0  0  0  0  0
    0.1573   29.0219   25.0312 H   0  0  0  0  0  0  0  0  0  0  0  0
   -0.9133   26.6846   23.5272 H   0  0  0  0  0  0  0  0  0  0  0  0
    0.5008   29.0761   22.4582 H   0  0  0  0  0  0  0  0  0  0  0  0
   -1.0928   26.8792   21.1568 H   0  0  0  0  0  0  0  0  0  0  0  0
    0.6435   27.0584   21.0795 H   0  0  0  0  0  0  0  0  0  0  0  0
   -0.3919   28.2516   20.3332 H   0  0  0  0  0  0  0  0  0  0  0  0
   -2.4393   28.4545   22.6057 H   0  0  0  0  0  0  0  0  0  0  0  0
   -1.7283   29.8119   21.7661 H   0  0  0  0  0  0  0  0  0  0  0  0
   -1.6188   29.7066   23.5068 H   0  0  0  0  0  0  0  0  0  0  0  0
    0.5430   25.1607   24.4860 H   0  0  0  0  0  0  0  0  0  0  0  0
    3.3420   25.8177   24.2967 H   0  0  0  0  0  0  0  0  0  0  0  0
    3.6352   23.9287   25.9967 H   0  0  0  0  0  0  0  0  0  0  0  0
    0.7747   23.8929   25.8115 H   0  0  0  0  0  0  0  0  0  0  0  0
    1.5667   25.9711   26.7631 H   0  0  0  0  0  0  0  0  0  0  0  0
    3.2975   26.2051   26.8165 H   0  0  0  0  0  0  0  0  0  0  0  0
    2.5403   25.0405   27.8764 H   0  0  0  0  0  0  0  0  0  0  0  0
    4.9539   24.1452   24.1251 H   0  0  0  0  0  0  0  0  0  0  0  0
    5.9763   22.4784   23.0039 H   0  0  0  0  0  0  0  0  0  0  0  0
    4.3302   21.7450   22.8402 H   0  0  0  0  0  0  0  0  0  0  0  0
    4.5679   24.7694   21.3751 H   0  0  0  0  0  0  0  0  0  0  0  0
    4.8877   23.3905   18.7698 H   0  0  0  0  0  0  0  0  0  0  0  0
    5.4429   25.0224   19.0563 H   0  0  0  0  0  0  0  0  0  0  0  0
    3.7309   24.6738   19.0306 H   0  0  0  0  0  0  0  0  0  0  0  0
  1  2  1  0  0  0  0
  1 32  1  0  0  0  0
  1 33  1  0  0  0  0
  1 34  1  0  0  0  0
  2  3  2  0  0  0  0
  4  5  1  0  0  0  0
  4  2  1  0  0  0  0
  4 35  1  0  0  0  0
  5  8  1  0  0  0  0
  5 36  1  1  0  0  0
  6  5  1  0  0  0  0
  7  6  2  0  0  0  0
  8  9  1  0  0  0  0
  8 37  1  0  0  0  0
  8 38  1  0  0  0  0
  9 10  1  0  0  0  0
  9 11  1  0  0  0  0
  9 39  1  0  0  0  0
 10 40  1  0  0  0  0
 10 41  1  0  0  0  0
 10 42  1  0  0  0  0
 11 43  1  0  0  0  0
 11 44  1  0  0  0  0
 11 45  1  0  0  0  0
 12  6  1  0  0  0  0
 12 46  1  0  0  0  0
 13 14  1  0  0  0  0
 13 12  1  0  0  0  0
 13 47  1  6  0  0  0
 14 19  1  0  0  0  0
 15 14  2  0  0  0  0
 16 18  1  0  0  0  0
 16 13  1  0  0  0  0
 16 48  1  0  0  0  0
 17 16  1  0  0  0  0
 17 49  1  0  0  0  0
 17 50  1  0  0  0  0
 17 51  1  0  0  0  0
 18 52  1  0  0  0  0
 18 53  1  0  0  0  0
 18 54  1  0  0  0  0
 19 20  1  0  0  0  0
 19 55  1  0  0  0  0
 20 23  1  0  0  0  0
 20 56  1  6  0  0  0
 21 26  1  0  0  0  0
 21 20  1  0  0  0  0
 22 21  2  0  0  0  0
 23 24  1  0  0  0  0
 23 25  1  0  0  0  0
 23 57  1  1  0  0  0
 24 58  1  0  0  0  0
 25 59  1  0  0  0  0
 25 60  1  0  0  0  0
 25 61  1  0  0  0  0
 26 62  1  0  0  0  0
 27 26  1  0  0  0  0
 27 63  1  0  0  0  0
 27 64  1  0  0  0  0
 28 27  1  0  0  0  0
 29 28  2  0  0  0  0
 30 28  1  0  0  0  0
 30 65  1  0  0  0  0
 31 30  1  0  0  0  0
 31 66  1  0  0  0  0
 31 67  1  0  0  0  0
 31 68  1  0  0  0  0
M  END
>  <MODEL>
       0

$$$$
selected_4mers/LVTG/672_noH.pdb
 OpenBabel03042518233D

 68 67  0  0  1  0  0  0  0  0999 V2000
   15.0900   12.0520  -33.3560 C   0  0  0  0  0  0  0  0  0  0  0  0
   16.3910   11.6930  -34.0200 C   0  0  0  0  0  0  0  0  0  0  0  0
   16.4140   11.1440  -35.1170 O   0  0  0  0  0  0  0  0  0  0  0  0
   17.4770   12.0660  -33.3630 N   0  0  0  0  0  0  0  0  0  0  0  0
   18.7920   11.5950  -33.7510 C   0  0  2  0  0  0  0  0  0  0  0  0
   19.0710   10.3180  -32.9600 C   0  0  0  0  0  0  0  0  0  0  0  0
   19.0730   10.3660  -31.7390 O   0  0  0  0  0  0  0  0  0  0  0  0
   19.8520   12.6430  -33.4270 C   0  0  0  0  0  0  0  0  0  0  0  0
   21.2970   12.2370  -33.7480 C   0  0  0  0  0  0  0  0  0  0  0  0
   21.4760   12.1140  -35.2640 C   0  0  0  0  0  0  0  0  0  0  0  0
   22.3080   13.2050  -33.1770 C   0  0  0  0  0  0  0  0  0  0  0  0
   19.2930    9.2020  -33.6540 N   0  0  0  0  0  0  0  0  0  0  0  0
   19.5910    7.9330  -33.0180 C   0  0  2  0  0  0  0  0  0  0  0  0
   21.0320    7.5990  -33.4130 C   0  0  0  0  0  0  0  0  0  0  0  0
   21.3790    7.5290  -34.5900 O   0  0  0  0  0  0  0  0  0  0  0  0
   18.6360    6.8030  -33.4530 C   0  0  0  0  0  0  0  0  0  0  0  0
   19.0190    5.4890  -32.7600 C   0  0  0  0  0  0  0  0  0  0  0  0
   17.1710    7.1710  -33.1560 C   0  0  0  0  0  0  0  0  0  0  0  0
   21.8660    7.3440  -32.4070 N   0  0  0  0  0  0  0  0  0  0  0  0
   23.2610    7.0650  -32.6430 C   0  0  2  0  0  0  0  0  0  0  0  0
   23.6230    5.6500  -32.2330 C   0  0  0  0  0  0  0  0  0  0  0  0
   23.0040    5.0620  -31.3410 O   0  0  0  0  0  0  0  0  0  0  0  0
   24.1960    8.0670  -31.9030 C   0  0  2  0  0  0  0  0  0  0  0  0
   24.0900    7.9060  -30.4840 O   0  0  0  0  0  0  0  0  0  0  0  0
   23.8500    9.5000  -32.2400 C   0  0  0  0  0  0  0  0  0  0  0  0
   24.6310    5.0950  -32.9030 N   0  0  0  0  0  0  0  0  0  0  0  0
   25.2520    3.8420  -32.4870 C   0  0  0  0  0  0  0  0  0  0  0  0
   26.7530    4.0420  -32.5060 C   0  0  0  0  0  0  0  0  0  0  0  0
   27.2450    4.9760  -33.1540 O   0  0  0  0  0  0  0  0  0  0  0  0
   27.4870    3.1560  -31.8470 N   0  0  0  0  0  0  0  0  0  0  0  0
   28.9230    3.2420  -31.7430 C   0  0  0  0  0  0  0  0  0  0  0  0
   14.2753   11.7106  -33.9598 H   0  0  0  0  0  0  0  0  0  0  0  0
   15.0289   13.1142  -33.2421 H   0  0  0  0  0  0  0  0  0  0  0  0
   15.0403   11.5866  -32.3938 H   0  0  0  0  0  0  0  0  0  0  0  0
   17.3904   12.6758  -32.5950 H   0  0  0  0  0  0  0  0  0  0  0  0
   18.8232   11.4091  -34.8043 H   0  0  0  0  0  0  0  0  0  0  0  0
   19.7942   12.8588  -32.3806 H   0  0  0  0  0  0  0  0  0  0  0  0
   19.6359   13.4846  -34.0515 H   0  0  0  0  0  0  0  0  0  0  0  0
   21.4760   11.2892  -33.2847 H   0  0  0  0  0  0  0  0  0  0  0  0
   21.2960   13.0638  -35.7226 H   0  0  0  0  0  0  0  0  0  0  0  0
   20.7824   11.3954  -35.6479 H   0  0  0  0  0  0  0  0  0  0  0  0
   22.4747   11.7968  -35.4807 H   0  0  0  0  0  0  0  0  0  0  0  0
   22.1643   14.1705  -33.6151 H   0  0  0  0  0  0  0  0  0  0  0  0
   23.2965   12.8581  -33.3948 H   0  0  0  0  0  0  0  0  0  0  0  0
   22.1789   13.2716  -32.1169 H   0  0  0  0  0  0  0  0  0  0  0  0
   19.2531    9.2405  -34.6369 H   0  0  0  0  0  0  0  0  0  0  0  0
   19.4649    8.0152  -31.9586 H   0  0  0  0  0  0  0  0  0  0  0  0
   18.7304    6.6714  -34.5107 H   0  0  0  0  0  0  0  0  0  0  0  0
   18.9293    5.6054  -31.7001 H   0  0  0  0  0  0  0  0  0  0  0  0
   20.0291    5.2368  -33.0069 H   0  0  0  0  0  0  0  0  0  0  0  0
   18.3657    4.7083  -33.0896 H   0  0  0  0  0  0  0  0  0  0  0  0
   17.0446    7.3095  -32.1026 H   0  0  0  0  0  0  0  0  0  0  0  0
   16.5301    6.3826  -33.4915 H   0  0  0  0  0  0  0  0  0  0  0  0
   16.9200    8.0767  -33.6675 H   0  0  0  0  0  0  0  0  0  0  0  0
   21.5236    7.3460  -31.4839 H   0  0  0  0  0  0  0  0  0  0  0  0
   23.4099    7.1762  -33.6967 H   0  0  0  0  0  0  0  0  0  0  0  0
   25.1936    7.8551  -32.2266 H   0  0  0  0  0  0  0  0  0  0  0  0
   23.1821    8.1007  -30.2034 H   0  0  0  0  0  0  0  0  0  0  0  0
   22.8523    9.7116  -31.9163 H   0  0  0  0  0  0  0  0  0  0  0  0
   23.9199    9.6445  -33.2979 H   0  0  0  0  0  0  0  0  0  0  0  0
   24.5329   10.1579  -31.7443 H   0  0  0  0  0  0  0  0  0  0  0  0
   24.9699    5.5470  -33.7092 H   0  0  0  0  0  0  0  0  0  0  0  0
   24.9804    3.0587  -33.1634 H   0  0  0  0  0  0  0  0  0  0  0  0
   24.9232    3.5690  -31.5061 H   0  0  0  0  0  0  0  0  0  0  0  0
   27.0297    2.4031  -31.4074 H   0  0  0  0  0  0  0  0  0  0  0  0
   29.2675    4.1079  -32.2687 H   0  0  0  0  0  0  0  0  0  0  0  0
   29.3646    2.3661  -32.1704 H   0  0  0  0  0  0  0  0  0  0  0  0
   29.2022    3.3158  -30.7127 H   0  0  0  0  0  0  0  0  0  0  0  0
  1 32  1  0  0  0  0
  1 33  1  0  0  0  0
  1 34  1  0  0  0  0
  2  4  1  0  0  0  0
  2  1  1  0  0  0  0
  3  2  2  0  0  0  0
  4 35  1  0  0  0  0
  5  8  1  0  0  0  0
  5  4  1  0  0  0  0
  5  6  1  0  0  0  0
  5 36  1  6  0  0  0
  6  7  2  0  0  0  0
  8 37  1  0  0  0  0
  8 38  1  0  0  0  0
  9  8  1  0  0  0  0
  9 11  1  0  0  0  0
  9 39  1  0  0  0  0
 10  9  1  0  0  0  0
 10 40  1  0  0  0  0
 10 41  1  0  0  0  0
 10 42  1  0  0  0  0
 11 43  1  0  0  0  0
 11 44  1  0  0  0  0
 11 45  1  0  0  0  0
 12 13  1  0  0  0  0
 12  6  1  0  0  0  0
 12 46  1  0  0  0  0
 13 47  1  1  0  0  0
 14 13  1  0  0  0  0
 14 19  1  0  0  0  0
 15 14  2  0  0  0  0
 16 18  1  0  0  0  0
 16 13  1  0  0  0  0
 16 17  1  0  0  0  0
 16 48  1  0  0  0  0
 17 49  1  0  0  0  0
 17 50  1  0  0  0  0
 17 51  1  0  0  0  0
 18 52  1  0  0  0  0
 18 53  1  0  0  0  0
 18 54  1  0  0  0  0
 19 55  1  0  0  0  0
 20 19  1  0  0  0  0
 20 21  1  0  0  0  0
 20 23  1  0  0  0  0
 20 56  1  6  0  0  0
 21 22  2  0  0  0  0
 23 24  1  0  0  0  0
 23 57  1  6  0  0  0
 24 58  1  0  0  0  0
 25 23  1  0  0  0  0
 25 59  1  0  0  0  0
 25 60  1  0  0  0  0
 25 61  1  0  0  0  0
 26 27  1  0  0  0  0
 26 21  1  0  0  0  0
 26 62  1  0  0  0  0
 27 63  1  0  0  0  0
 27 64  1  0  0  0  0
 28 27  1  0  0  0  0
 28 30  1  0  0  0  0
 29 28  2  0  0  0  0
 30 31  1  0  0  0  0
 30 65  1  0  0  0  0
 31 66  1  0  0  0  0
 31 67  1  0  0  0  0
 31 68  1  0  0  0  0
M  END
>  <MODEL>
       0

$$$$
selected_4mers/LVTG/673_noH.pdb
 OpenBabel03042518233D

 68 67  0  0  1  0  0  0  0  0999 V2000
   18.9050   35.7960   12.8200 C   0  0  0  0  0  0  0  0  0  0  0  0
   17.6110   35.1320   12.4190 C   0  0  0  0  0  0  0  0  0  0  0  0
   17.1510   34.2170   13.1250 O   0  0  0  0  0  0  0  0  0  0  0  0
   17.0010   35.5970   11.3230 N   0  0  0  0  0  0  0  0  0  0  0  0
   15.7450   35.0110   10.8600 C   0  0  2  0  0  0  0  0  0  0  0  0
   15.9600   33.5570   10.5420 C   0  0  0  0  0  0  0  0  0  0  0  0
   15.1200   32.7270   10.8590 O   0  0  0  0  0  0  0  0  0  0  0  0
   15.2170   35.6820    9.5670 C   0  0  0  0  0  0  0  0  0  0  0  0
   14.5120   37.0350    9.5470 C   0  0  0  0  0  0  0  0  0  0  0  0
   14.3900   37.5490    8.1220 C   0  0  0  0  0  0  0  0  0  0  0  0
   13.1410   36.9470   10.1400 C   0  0  0  0  0  0  0  0  0  0  0  0
   17.0730   33.2510    9.8730 N   0  0  0  0  0  0  0  0  0  0  0  0
   17.3530   31.8760    9.4810 C   0  0  2  0  0  0  0  0  0  0  0  0
   17.6220   31.0460   10.7520 C   0  0  0  0  0  0  0  0  0  0  0  0
   17.2040   29.8940   10.8600 O   0  0  0  0  0  0  0  0  0  0  0  0
   18.5690   31.7770    8.5280 C   0  0  0  0  0  0  0  0  0  0  0  0
   18.9340   30.3040    8.3210 C   0  0  0  0  0  0  0  0  0  0  0  0
   18.2150   32.4160    7.1490 C   0  0  0  0  0  0  0  0  0  0  0  0
   18.3010   31.6600   11.7140 N   0  0  0  0  0  0  0  0  0  0  0  0
   18.6120   30.9770   12.9810 C   0  0  2  0  0  0  0  0  0  0  0  0
   17.2890   30.6380   13.6860 C   0  0  0  0  0  0  0  0  0  0  0  0
   17.1280   29.5360   14.1940 O   0  0  0  0  0  0  0  0  0  0  0  0
   19.5370   31.8250   13.8830 C   0  0  2  0  0  0  0  0  0  0  0  0
   20.7840   32.0200   13.2070 O   0  0  0  0  0  0  0  0  0  0  0  0
   19.7920   31.1590   15.2720 C   0  0  0  0  0  0  0  0  0  0  0  0
   16.3420   31.5750   13.6990 N   0  0  0  0  0  0  0  0  0  0  0  0
   15.0280   31.3230   14.3190 C   0  0  0  0  0  0  0  0  0  0  0  0
   14.2850   30.1770   13.6680 C   0  0  0  0  0  0  0  0  0  0  0  0
   13.6860   29.3380   14.3580 O   0  0  0  0  0  0  0  0  0  0  0  0
   14.2790   30.1290   12.3340 N   0  0  0  0  0  0  0  0  0  0  0  0
   13.6470   28.9980   11.6250 C   0  0  0  0  0  0  0  0  0  0  0  0
   19.1524   36.5547   12.1072 H   0  0  0  0  0  0  0  0  0  0  0  0
   19.6865   35.0657   12.8494 H   0  0  0  0  0  0  0  0  0  0  0  0
   18.7938   36.2386   13.7878 H   0  0  0  0  0  0  0  0  0  0  0  0
   17.4032   36.3431   10.8222 H   0  0  0  0  0  0  0  0  0  0  0  0
   15.0323   35.1540   11.6452 H   0  0  0  0  0  0  0  0  0  0  0  0
   16.0658   35.7852    8.9237 H   0  0  0  0  0  0  0  0  0  0  0  0
   14.4145   35.0250    9.3040 H   0  0  0  0  0  0  0  0  0  0  0  0
   15.1039   37.7076   10.1320 H   0  0  0  0  0  0  0  0  0  0  0  0
   13.7967   36.8690    7.5471 H   0  0  0  0  0  0  0  0  0  0  0  0
   15.3643   37.6281    7.6867 H   0  0  0  0  0  0  0  0  0  0  0  0
   13.9232   38.5118    8.1288 H   0  0  0  0  0  0  0  0  0  0  0  0
   12.5437   36.2755    9.5593 H   0  0  0  0  0  0  0  0  0  0  0  0
   12.6894   37.9171   10.1400 H   0  0  0  0  0  0  0  0  0  0  0  0
   13.2095   36.5855   11.1448 H   0  0  0  0  0  0  0  0  0  0  0  0
   17.7126   33.9627    9.6415 H   0  0  0  0  0  0  0  0  0  0  0  0
   16.5032   31.4981    8.9520 H   0  0  0  0  0  0  0  0  0  0  0  0
   19.3971   32.2995    8.9594 H   0  0  0  0  0  0  0  0  0  0  0  0
   18.1021   29.7876    7.8896 H   0  0  0  0  0  0  0  0  0  0  0  0
   19.1786   29.8612    9.2639 H   0  0  0  0  0  0  0  0  0  0  0  0
   19.7764   30.2341    7.6649 H   0  0  0  0  0  0  0  0  0  0  0  0
   17.3869   31.8945    6.7163 H   0  0  0  0  0  0  0  0  0  0  0  0
   19.0602   32.3471    6.4965 H   0  0  0  0  0  0  0  0  0  0  0  0
   17.9551   33.4445    7.2887 H   0  0  0  0  0  0  0  0  0  0  0  0
   18.6016   32.5876   11.5778 H   0  0  0  0  0  0  0  0  0  0  0  0
   19.1507   30.0759   12.7740 H   0  0  0  0  0  0  0  0  0  0  0  0
   19.0513   32.7603   14.0683 H   0  0  0  0  0  0  0  0  0  0  0  0
   21.2048   31.1602   13.0503 H   0  0  0  0  0  0  0  0  0  0  0  0
   20.2787   30.2165   15.1317 H   0  0  0  0  0  0  0  0  0  0  0  0
   18.8581   31.0073   15.7716 H   0  0  0  0  0  0  0  0  0  0  0  0
   20.4140   31.7968   15.8646 H   0  0  0  0  0  0  0  0  0  0  0  0
   16.5226   32.4509   13.2875 H   0  0  0  0  0  0  0  0  0  0  0  0
   15.1762   31.0913   15.3530 H   0  0  0  0  0  0  0  0  0  0  0  0
   14.4363   32.2054   14.1919 H   0  0  0  0  0  0  0  0  0  0  0  0
   14.6998   30.8542   11.8180 H   0  0  0  0  0  0  0  0  0  0  0  0
   13.2442   28.3100   12.3386 H   0  0  0  0  0  0  0  0  0  0  0  0
   14.3788   28.5004   11.0235 H   0  0  0  0  0  0  0  0  0  0  0  0
   12.8601   29.3642   10.9992 H   0  0  0  0  0  0  0  0  0  0  0  0
  1 32  1  0  0  0  0
  1 33  1  0  0  0  0
  1 34  1  0  0  0  0
  2  1  1  0  0  0  0
  2  3  2  0  0  0  0
  4  2  1  0  0  0  0
  4 35  1  0  0  0  0
  5  4  1  0  0  0  0
  5 36  1  1  0  0  0
  6  7  2  0  0  0  0
  6  5  1  0  0  0  0
  8  5  1  0  0  0  0
  8 37  1  0  0  0  0
  8 38  1  0  0  0  0
  9  8  1  0  0  0  0
  9 11  1  0  0  0  0
  9 39  1  0  0  0  0
 10  9  1  0  0  0  0
 10 40  1  0  0  0  0
 10 41  1  0  0  0  0
 10 42  1  0  0  0  0
 11 43  1  0  0  0  0
 11 44  1  0  0  0  0
 11 45  1  0  0  0  0
 12  6  1  0  0  0  0
 12 46  1  0  0  0  0
 13 12  1  0  0  0  0
 13 14  1  0  0  0  0
 13 47  1  6  0  0  0
 14 15  2  0  0  0  0
 14 19  1  0  0  0  0
 16 13  1  0  0  0  0
 16 48  1  0  0  0  0
 17 16  1  0  0  0  0
 17 49  1  0  0  0  0
 17 50  1  0  0  0  0
 17 51  1  0  0  0  0
 18 16  1  0  0  0  0
 18 52  1  0  0  0  0
 18 53  1  0  0  0  0
 18 54  1  0  0  0  0
 19 20  1  0  0  0  0
 19 55  1  0  0  0  0
 20 21  1  0  0  0  0
 20 23  1  0  0  0  0
 20 56  1  6  0  0  0
 21 26  1  0  0  0  0
 21 22  2  0  0  0  0
 23 25  1  0  0  0  0
 23 57  1  1  0  0  0
 24 23  1  0  0  0  0
 24 58  1  0  0  0  0
 25 59  1  0  0  0  0
 25 60  1  0  0  0  0
 25 61  1  0  0  0  0
 26 27  1  0  0  0  0
 26 62  1  0  0  0  0
 27 63  1  0  0  0  0
 27 64  1  0  0  0  0
 28 27  1  0  0  0  0
 28 29  2  0  0  0  0
 30 28  1  0  0  0  0
 30 65  1  0  0  0  0
 31 30  1  0  0  0  0
 31 66  1  0  0  0  0
 31 67  1  0  0  0  0
 31 68  1  0  0  0  0
M  END
>  <MODEL>
       0

$$$$
selected_4mers/LVTG/674_noH.pdb
 OpenBabel03042518233D

 68 67  0  0  1  0  0  0  0  0999 V2000
  -13.1310  -14.1270    6.5980 C   0  0  0  0  0  0  0  0  0  0  0  0
  -12.1340  -13.0930    6.1220 C   0  0  0  0  0  0  0  0  0  0  0  0
  -11.9960  -12.8260    4.9240 O   0  0  0  0  0  0  0  0  0  0  0  0
  -11.4890  -12.4780    7.0960 N   0  0  0  0  0  0  0  0  0  0  0  0
  -10.3610  -11.5970    6.8510 C   0  0  2  0  0  0  0  0  0  0  0  0
   -9.1090  -12.2390    7.4130 C   0  0  0  0  0  0  0  0  0  0  0  0
   -9.1040  -12.7300    8.5370 O   0  0  0  0  0  0  0  0  0  0  0  0
  -10.5840  -10.2360    7.5130 C   0  0  0  0  0  0  0  0  0  0  0  0
  -11.7820   -9.4490    6.9950 C   0  0  0  0  0  0  0  0  0  0  0  0
  -11.9060   -8.1260    7.7340 C   0  0  0  0  0  0  0  0  0  0  0  0
  -11.6650   -9.2430    5.4730 C   0  0  0  0  0  0  0  0  0  0  0  0
   -8.0450  -12.2250    6.6290 N   0  0  0  0  0  0  0  0  0  0  0  0
   -6.7560  -12.7450    7.0990 C   0  0  2  0  0  0  0  0  0  0  0  0
   -6.2990  -11.8600    8.2660 C   0  0  0  0  0  0  0  0  0  0  0  0
   -6.2280  -10.6340    8.1540 O   0  0  0  0  0  0  0  0  0  0  0  0
   -5.6810  -12.8090    5.9800 C   0  0  0  0  0  0  0  0  0  0  0  0
   -4.3740  -13.3580    6.5260 C   0  0  0  0  0  0  0  0  0  0  0  0
   -6.1660  -13.6690    4.7960 C   0  0  0  0  0  0  0  0  0  0  0  0
   -6.0040  -12.5240    9.3760 N   0  0  0  0  0  0  0  0  0  0  0  0
   -5.6350  -11.9090   10.6760 C   0  0  2  0  0  0  0  0  0  0  0  0
   -6.8660  -11.4120   11.4140 C   0  0  0  0  0  0  0  0  0  0  0  0
   -6.7730  -10.8530   12.5090 O   0  0  0  0  0  0  0  0  0  0  0  0
   -4.5760  -10.7470   10.6030 C   0  0  2  0  0  0  0  0  0  0  0  0
   -5.2010   -9.5150   10.2010 O   0  0  0  0  0  0  0  0  0  0  0  0
   -3.4060  -11.0860    9.6820 C   0  0  0  0  0  0  0  0  0  0  0  0
   -8.0130  -11.6160   10.7890 N   0  0  0  0  0  0  0  0  0  0  0  0
   -9.3110  -11.3430   11.3950 C   0  0  0  0  0  0  0  0  0  0  0  0
   -9.7310   -9.8940   11.3130 C   0  0  0  0  0  0  0  0  0  0  0  0
  -10.7680   -9.4890   11.8280 O   0  0  0  0  0  0  0  0  0  0  0  0
   -8.9110   -9.1160   10.6370 N   0  0  0  0  0  0  0  0  0  0  0  0
   -9.1580   -7.6780   10.4950 C   0  0  0  0  0  0  0  0  0  0  0  0
  -13.6087  -14.5773    5.7531 H   0  0  0  0  0  0  0  0  0  0  0  0
  -13.8673  -13.6552    7.2145 H   0  0  0  0  0  0  0  0  0  0  0  0
  -12.6220  -14.8797    7.1630 H   0  0  0  0  0  0  0  0  0  0  0  0
  -11.7841  -12.6222    8.0241 H   0  0  0  0  0  0  0  0  0  0  0  0
  -10.2567  -11.4444    5.7971 H   0  0  0  0  0  0  0  0  0  0  0  0
   -9.7066   -9.6441    7.3559 H   0  0  0  0  0  0  0  0  0  0  0  0
  -10.7857  -10.4378    8.5443 H   0  0  0  0  0  0  0  0  0  0  0  0
  -12.6757  -10.0073    7.1807 H   0  0  0  0  0  0  0  0  0  0  0  0
  -11.0253   -7.5412    7.5686 H   0  0  0  0  0  0  0  0  0  0  0  0
  -12.0192   -8.3119    8.7816 H   0  0  0  0  0  0  0  0  0  0  0  0
  -12.7607   -7.5939    7.3718 H   0  0  0  0  0  0  0  0  0  0  0  0
  -10.7777   -8.6859    5.2557 H   0  0  0  0  0  0  0  0  0  0  0  0
  -12.5196   -8.7051    5.1192 H   0  0  0  0  0  0  0  0  0  0  0  0
  -11.6164  -10.1950    4.9869 H   0  0  0  0  0  0  0  0  0  0  0  0
   -8.1184  -11.8607    5.7173 H   0  0  0  0  0  0  0  0  0  0  0  0
   -6.8830  -13.7584    7.4181 H   0  0  0  0  0  0  0  0  0  0  0  0
   -5.5149  -11.8130    5.6261 H   0  0  0  0  0  0  0  0  0  0  0  0
   -4.5274  -14.3548    6.8834 H   0  0  0  0  0  0  0  0  0  0  0  0
   -4.0354  -12.7389    7.3304 H   0  0  0  0  0  0  0  0  0  0  0  0
   -3.6386  -13.3670    5.7489 H   0  0  0  0  0  0  0  0  0  0  0  0
   -6.3382  -14.6709    5.1299 H   0  0  0  0  0  0  0  0  0  0  0  0
   -5.4206  -13.6720    4.0284 H   0  0  0  0  0  0  0  0  0  0  0  0
   -7.0759  -13.2610    4.4080 H   0  0  0  0  0  0  0  0  0  0  0  0
   -6.0321  -13.5072    9.3342 H   0  0  0  0  0  0  0  0  0  0  0  0
   -5.1622  -12.7066   11.2100 H   0  0  0  0  0  0  0  0  0  0  0  0
   -4.1745  -10.6246   11.5872 H   0  0  0  0  0  0  0  0  0  0  0  0
   -5.5688   -9.6150    9.3090 H   0  0  0  0  0  0  0  0  0  0  0  0
   -3.7652  -11.2174    8.6827 H   0  0  0  0  0  0  0  0  0  0  0  0
   -2.9400  -11.9897   10.0152 H   0  0  0  0  0  0  0  0  0  0  0  0
   -2.6930  -10.2884    9.7028 H   0  0  0  0  0  0  0  0  0  0  0  0
   -7.9897  -11.9692    9.8703 H   0  0  0  0  0  0  0  0  0  0  0  0
   -9.2671  -11.6234   12.4267 H   0  0  0  0  0  0  0  0  0  0  0  0
  -10.0354  -11.9084   10.8468 H   0  0  0  0  0  0  0  0  0  0  0  0
   -8.1126   -9.5098   10.2167 H   0  0  0  0  0  0  0  0  0  0  0  0
  -10.0603   -7.4187   11.0083 H   0  0  0  0  0  0  0  0  0  0  0  0
   -9.2548   -7.4334    9.4578 H   0  0  0  0  0  0  0  0  0  0  0  0
   -8.3392   -7.1323   10.9152 H   0  0  0  0  0  0  0  0  0  0  0  0
  1 32  1  0  0  0  0
  1 33  1  0  0  0  0
  1 34  1  0  0  0  0
  2  1  1  0  0  0  0
  2  4  1  0  0  0  0
  3  2  2  0  0  0  0
  4 35  1  0  0  0  0
  5  4  1  0  0  0  0
  5  6  1  0  0  0  0
  5  8  1  0  0  0  0
  5 36  1  6  0  0  0
  6  7  2  0  0  0  0
  8 37  1  0  0  0  0
  8 38  1  0  0  0  0
  9  8  1  0  0  0  0
  9 10  1  0  0  0  0
  9 39  1  0  0  0  0
 10 40  1  0  0  0  0
 10 41  1  0  0  0  0
 10 42  1  0  0  0  0
 11  9  1  0  0  0  0
 11 43  1  0  0  0  0
 11 44  1  0  0  0  0
 11 45  1  0  0  0  0
 12 13  1  0  0  0  0
 12  6  1  0  0  0  0
 12 46  1  0  0  0  0
 13 14  1  0  0  0  0
 13 47  1  1  0  0  0
 14 19  1  0  0  0  0
 15 14  2  0  0  0  0
 16 17  1  0  0  0  0
 16 13  1  0  0  0  0
 16 48  1  0  0  0  0
 17 49  1  0  0  0  0
 17 50  1  0  0  0  0
 17 51  1  0  0  0  0
 18 16  1  0  0  0  0
 18 52  1  0  0  0  0
 18 53  1  0  0  0  0
 18 54  1  0  0  0  0
 19 20  1  0  0  0  0
 19 55  1  0  0  0  0
 20 21  1  0  0  0  0
 20 56  1  1  0  0  0
 21 22  2  0  0  0  0
 23 20  1  0  0  0  0
 23 57  1  1  0  0  0
 24 23  1  0  0  0  0
 24 58  1  0  0  0  0
 25 23  1  0  0  0  0
 25 59  1  0  0  0  0
 25 60  1  0  0  0  0
 25 61  1  0  0  0  0
 26 27  1  0  0  0  0
 26 21  1  0  0  0  0
 26 62  1  0  0  0  0
 27 63  1  0  0  0  0
 27 64  1  0  0  0  0
 28 27  1  0  0  0  0
 28 29  2  0  0  0  0
 30 28  1  0  0  0  0
 30 65  1  0  0  0  0
 31 30  1  0  0  0  0
 31 66  1  0  0  0  0
 31 67  1  0  0  0  0
 31 68  1  0  0  0  0
M  END
>  <MODEL>
       0

$$$$
