selected_4mers/PAVL/790_noH.pdb
 OpenBabel03042518353D

 71 71  0  0  1  0  0  0  0  0999 V2000
   -5.6030    2.5320    8.3130 C   0  0  0  0  0  0  0  0  0  0  0  0
   -4.3630    2.9450    7.5220 C   0  0  0  0  0  0  0  0  0  0  0  0
   -3.8110    4.0330    7.7330 O   0  0  0  0  0  0  0  0  0  0  0  0
   -3.9060    2.0850    6.6040 N   0  0  0  0  0  0  0  0  0  0  0  0
   -2.7230    2.4610    5.8280 C   0  0  2  0  0  0  0  0  0  0  0  0
   -2.8870    3.8040    5.1170 C   0  0  0  0  0  0  0  0  0  0  0  0
   -1.9650    4.6070    5.1090 O   0  0  0  0  0  0  0  0  0  0  0  0
   -2.5620    1.2920    4.8620 C   0  0  0  0  0  0  0  0  0  0  0  0
   -3.0020    0.1310    5.7070 C   0  0  0  0  0  0  0  0  0  0  0  0
   -4.2520    0.6690    6.3770 C   0  0  0  0  0  0  0  0  0  0  0  0
   -4.0620    4.0600    4.5400 N   0  0  0  0  0  0  0  0  0  0  0  0
   -4.2930    5.3260    3.8360 C   0  0  2  0  0  0  0  0  0  0  0  0
   -4.2380    6.5320    4.7780 C   0  0  0  0  0  0  0  0  0  0  0  0
   -3.6820    7.5730    4.4300 O   0  0  0  0  0  0  0  0  0  0  0  0
   -5.6390    5.2920    3.1090 C   0  0  0  0  0  0  0  0  0  0  0  0
   -4.8230    6.3930    5.9640 N   0  0  0  0  0  0  0  0  0  0  0  0
   -4.8110    7.4720    6.9440 C   0  0  2  0  0  0  0  0  0  0  0  0
   -3.3840    7.7840    7.3930 C   0  0  0  0  0  0  0  0  0  0  0  0
   -3.0220    8.9520    7.5580 O   0  0  0  0  0  0  0  0  0  0  0  0
   -5.6670    7.1220    8.1770 C   0  0  0  0  0  0  0  0  0  0  0  0
   -5.4150    8.1280    9.3020 C   0  0  0  0  0  0  0  0  0  0  0  0
   -7.1370    7.1350    7.7960 C   0  0  0  0  0  0  0  0  0  0  0  0
   -2.5740    6.7500    7.5930 N   0  0  0  0  0  0  0  0  0  0  0  0
   -1.1910    6.9680    8.0040 C   0  0  2  0  0  0  0  0  0  0  0  0
   -0.3810    7.6330    6.8980 C   0  0  0  0  0  0  0  0  0  0  0  0
    0.4560    8.4930    7.1720 O   0  0  0  0  0  0  0  0  0  0  0  0
   -0.5220    5.6490    8.4130 C   0  0  0  0  0  0  0  0  0  0  0  0
   -1.0060    5.0430    9.7350 C   0  0  0  0  0  0  0  0  0  0  0  0
   -0.1770    3.8100   10.0550 C   0  0  0  0  0  0  0  0  0  0  0  0
   -0.8850    6.0610   10.8570 C   0  0  0  0  0  0  0  0  0  0  0  0
   -0.6210    7.2420    5.6500 N   0  0  0  0  0  0  0  0  0  0  0  0
    0.1040    7.8520    4.5400 C   0  0  0  0  0  0  0  0  0  0  0  0
   -5.9288    1.5664    7.9870 H   0  0  0  0  0  0  0  0  0  0  0  0
   -6.3837    3.2454    8.1505 H   0  0  0  0  0  0  0  0  0  0  0  0
   -5.3650    2.4949    9.3555 H   0  0  0  0  0  0  0  0  0  0  0  0
   -1.8565    2.6158    6.4363 H   0  0  0  0  0  0  0  0  0  0  0  0
   -3.1888    1.4078    4.0026 H   0  0  0  0  0  0  0  0  0  0  0  0
   -1.5728    1.1898    4.4672 H   0  0  0  0  0  0  0  0  0  0  0  0
   -2.2560   -0.1262    6.4296 H   0  0  0  0  0  0  0  0  0  0  0  0
   -3.1698   -0.7652    5.1471 H   0  0  0  0  0  0  0  0  0  0  0  0
   -4.4435    0.1645    7.3010 H   0  0  0  0  0  0  0  0  0  0  0  0
   -5.1402    0.5340    5.7957 H   0  0  0  0  0  0  0  0  0  0  0  0
   -4.7829    3.3912    4.5872 H   0  0  0  0  0  0  0  0  0  0  0  0
   -3.5034    5.4384    3.1227 H   0  0  0  0  0  0  0  0  0  0  0  0
   -6.4275    5.1796    3.8235 H   0  0  0  0  0  0  0  0  0  0  0  0
   -5.6553    4.4676    2.4271 H   0  0  0  0  0  0  0  0  0  0  0  0
   -5.7754    6.2051    2.5681 H   0  0  0  0  0  0  0  0  0  0  0  0
   -5.2727    5.5454    6.1844 H   0  0  0  0  0  0  0  0  0  0  0  0
   -5.2292    8.3341    6.4678 H   0  0  0  0  0  0  0  0  0  0  0  0
   -5.3961    6.1460    8.5219 H   0  0  0  0  0  0  0  0  0  0  0  0
   -5.6823    9.1093    8.9695 H   0  0  0  0  0  0  0  0  0  0  0  0
   -4.3791    8.1119    9.5695 H   0  0  0  0  0  0  0  0  0  0  0  0
   -6.0074    7.8664   10.1538 H   0  0  0  0  0  0  0  0  0  0  0  0
   -7.4075    8.1111    7.4512 H   0  0  0  0  0  0  0  0  0  0  0  0
   -7.7292    6.8818    8.6505 H   0  0  0  0  0  0  0  0  0  0  0  0
   -7.3101    6.4212    7.0179 H   0  0  0  0  0  0  0  0  0  0  0  0
   -2.9082    5.8331    7.4634 H   0  0  0  0  0  0  0  0  0  0  0  0
   -1.2136    7.6221    8.8505 H   0  0  0  0  0  0  0  0  0  0  0  0
    0.5299    5.8258    8.4975 H   0  0  0  0  0  0  0  0  0  0  0  0
   -0.7822    4.9412    7.6539 H   0  0  0  0  0  0  0  0  0  0  0  0
   -2.0350    4.7653    9.6407 H   0  0  0  0  0  0  0  0  0  0  0  0
    0.8522    4.0869   10.1495 H   0  0  0  0  0  0  0  0  0  0  0  0
   -0.2829    3.0945    9.2665 H   0  0  0  0  0  0  0  0  0  0  0  0
   -0.5167    3.3805   10.9743 H   0  0  0  0  0  0  0  0  0  0  0  0
    0.1391    6.3512   10.9664 H   0  0  0  0  0  0  0  0  0  0  0  0
   -1.2324    5.6271   11.7713 H   0  0  0  0  0  0  0  0  0  0  0  0
   -1.4765    6.9215   10.6232 H   0  0  0  0  0  0  0  0  0  0  0  0
   -1.2887    6.5401    5.4745 H   0  0  0  0  0  0  0  0  0  0  0  0
    0.7820    8.5882    4.9185 H   0  0  0  0  0  0  0  0  0  0  0  0
   -0.5911    8.3169    3.8725 H   0  0  0  0  0  0  0  0  0  0  0  0
    0.6527    7.0981    4.0152 H   0  0  0  0  0  0  0  0  0  0  0  0
  1 33  1  0  0  0  0
  1 34  1  0  0  0  0
  1 35  1  0  0  0  0
  2  3  2  0  0  0  0
  2  1  1  0  0  0  0
  4  2  1  0  0  0  0
  5  4  1  0  0  0  0
  5 36  1  1  0  0  0
  6  5  1  0  0  0  0
  7  6  2  0  0  0  0
  8  9  1  0  0  0  0
  8  5  1  0  0  0  0
  8 37  1  0  0  0  0
  8 38  1  0  0  0  0
  9 10  1  0  0  0  0
  9 39  1  0  0  0  0
  9 40  1  0  0  0  0
 10  4  1  0  0  0  0
 10 41  1  0  0  0  0
 10 42  1  0  0  0  0
 11  6  1  0  0  0  0
 11 43  1  0  0  0  0
 12 11  1  0  0  0  0
 12 13  1  0  0  0  0
 12 44  1  6  0  0  0
 13 16  1  0  0  0  0
 14 13  2  0  0  0  0
 15 12  1  0  0  0  0
 15 45  1  0  0  0  0
 15 46  1  0  0  0  0
 15 47  1  0  0  0  0
 16 17  1  0  0  0  0
 16 48  1  0  0  0  0
 17 18  1  0  0  0  0
 17 20  1  0  0  0  0
 17 49  1  6  0  0  0
 18 19  2  0  0  0  0
 18 23  1  0  0  0  0
 20 21  1  0  0  0  0
 20 50  1  0  0  0  0
 21 51  1  0  0  0  0
 21 52  1  0  0  0  0
 21 53  1  0  0  0  0
 22 20  1  0  0  0  0
 22 54  1  0  0  0  0
 22 55  1  0  0  0  0
 22 56  1  0  0  0  0
 23 24  1  0  0  0  0
 23 57  1  0  0  0  0
 24 27  1  0  0  0  0
 24 58  1  1  0  0  0
 25 26  2  0  0  0  0
 25 24  1  0  0  0  0
 27 28  1  0  0  0  0
 27 59  1  0  0  0  0
 27 60  1  0  0  0  0
 28 29  1  0  0  0  0
 28 30  1  0  0  0  0
 28 61  1  0  0  0  0
 29 62  1  0  0  0  0
 29 63  1  0  0  0  0
 29 64  1  0  0  0  0
 30 65  1  0  0  0  0
 30 66  1  0  0  0  0
 30 67  1  0  0  0  0
 31 25  1  0  0  0  0
 31 68  1  0  0  0  0
 32 31  1  0  0  0  0
 32 69  1  0  0  0  0
 32 70  1  0  0  0  0
 32 71  1  0  0  0  0
M  END
>  <MODEL>
       0

$$$$
selected_4mers/PAVL/791_noH.pdb
 OpenBabel03042518353D

 71 71  0  0  1  0  0  0  0  0999 V2000
   53.0750   49.7250   43.4730 C   0  0  0  0  0  0  0  0  0  0  0  0
   53.2100   50.1380   44.9130 C   0  0  0  0  0  0  0  0  0  0  0  0
   52.4010   50.9290   45.4310 O   0  0  0  0  0  0  0  0  0  0  0  0
   54.2450   49.6060   45.5860 N   0  0  0  0  0  0  0  0  0  0  0  0
   54.4530   49.9640   46.9870 C   0  0  2  0  0  0  0  0  0  0  0  0
   54.6830   51.4620   47.0600 C   0  0  0  0  0  0  0  0  0  0  0  0
   55.3360   52.0460   46.1920 O   0  0  0  0  0  0  0  0  0  0  0  0
   55.7130   49.1910   47.3710 C   0  0  0  0  0  0  0  0  0  0  0  0
   55.6490   47.9660   46.4880 C   0  0  0  0  0  0  0  0  0  0  0  0
   55.2030   48.5630   45.1570 C   0  0  0  0  0  0  0  0  0  0  0  0
   54.1450   52.0780   48.1030 N   0  0  0  0  0  0  0  0  0  0  0  0
   54.3010   53.5070   48.3000 C   0  0  2  0  0  0  0  0  0  0  0  0
   55.7490   53.8700   48.6210 C   0  0  0  0  0  0  0  0  0  0  0  0
   56.4670   53.0910   49.2530 O   0  0  0  0  0  0  0  0  0  0  0  0
   53.3810   53.9670   49.4530 C   0  0  0  0  0  0  0  0  0  0  0  0
   56.1710   55.0480   48.1820 N   0  0  0  0  0  0  0  0  0  0  0  0
   57.5170   55.5150   48.4660 C   0  0  2  0  0  0  0  0  0  0  0  0
   57.3730   56.7750   49.3010 C   0  0  0  0  0  0  0  0  0  0  0  0
   56.4850   57.5870   49.0700 O   0  0  0  0  0  0  0  0  0  0  0  0
   58.3120   55.8610   47.1800 C   0  0  0  0  0  0  0  0  0  0  0  0
   59.7130   56.3500   47.5550 C   0  0  0  0  0  0  0  0  0  0  0  0
   58.4250   54.6380   46.2810 C   0  0  0  0  0  0  0  0  0  0  0  0
   58.2580   56.9180   50.2780 N   0  0  0  0  0  0  0  0  0  0  0  0
   58.2650   58.0680   51.1730 C   0  0  2  0  0  0  0  0  0  0  0  0
   59.2250   59.1130   50.6430 C   0  0  0  0  0  0  0  0  0  0  0  0
   60.3990   58.8280   50.4060 O   0  0  0  0  0  0  0  0  0  0  0  0
   58.7010   57.6130   52.5640 C   0  0  0  0  0  0  0  0  0  0  0  0
   58.5630   58.5360   53.7670 C   0  0  0  0  0  0  0  0  0  0  0  0
   57.1110   59.0310   53.8800 C   0  0  0  0  0  0  0  0  0  0  0  0
   58.9910   57.7550   55.0090 C   0  0  0  0  0  0  0  0  0  0  0  0
   58.7180   60.3250   50.4670 N   0  0  0  0  0  0  0  0  0  0  0  0
   59.4910   61.4430   49.9540 C   0  0  0  0  0  0  0  0  0  0  0  0
   52.2225   50.2072   43.0421 H   0  0  0  0  0  0  0  0  0  0  0  0
   52.9510   48.6637   43.4165 H   0  0  0  0  0  0  0  0  0  0  0  0
   53.9555   50.0103   42.9361 H   0  0  0  0  0  0  0  0  0  0  0  0
   53.6336   49.7321   47.6348 H   0  0  0  0  0  0  0  0  0  0  0  0
   56.5925   49.7653   47.1673 H   0  0  0  0  0  0  0  0  0  0  0  0
   55.7591   48.9549   48.4136 H   0  0  0  0  0  0  0  0  0  0  0  0
   56.6068   47.4967   46.4029 H   0  0  0  0  0  0  0  0  0  0  0  0
   55.0008   47.1991   46.8576 H   0  0  0  0  0  0  0  0  0  0  0  0
   56.0290   48.9895   44.6272 H   0  0  0  0  0  0  0  0  0  0  0  0
   54.7826   47.8450   44.4842 H   0  0  0  0  0  0  0  0  0  0  0  0
   53.6286   51.5549   48.7579 H   0  0  0  0  0  0  0  0  0  0  0  0
   54.0296   54.0042   47.3922 H   0  0  0  0  0  0  0  0  0  0  0  0
   53.6610   53.4641   50.3550 H   0  0  0  0  0  0  0  0  0  0  0  0
   52.3649   53.7317   49.2141 H   0  0  0  0  0  0  0  0  0  0  0  0
   53.4800   55.0238   49.5883 H   0  0  0  0  0  0  0  0  0  0  0  0
   55.5625   55.6151   47.6553 H   0  0  0  0  0  0  0  0  0  0  0  0
   58.0562   54.7398   48.9691 H   0  0  0  0  0  0  0  0  0  0  0  0
   57.7914   56.6327   46.6523 H   0  0  0  0  0  0  0  0  0  0  0  0
   60.2314   55.5767   48.0824 H   0  0  0  0  0  0  0  0  0  0  0  0
   59.6335   57.2157   48.1788 H   0  0  0  0  0  0  0  0  0  0  0  0
   60.2536   56.5995   46.6659 H   0  0  0  0  0  0  0  0  0  0  0  0
   58.9447   53.8602   46.8005 H   0  0  0  0  0  0  0  0  0  0  0  0
   58.9643   54.8962   45.3936 H   0  0  0  0  0  0  0  0  0  0  0  0
   57.4455   54.2978   46.0168 H   0  0  0  0  0  0  0  0  0  0  0  0
   58.9388   56.2180   50.4040 H   0  0  0  0  0  0  0  0  0  0  0  0
   57.2850   58.4937   51.2300 H   0  0  0  0  0  0  0  0  0  0  0  0
   59.7382   57.3606   52.4909 H   0  0  0  0  0  0  0  0  0  0  0  0
   58.0060   56.8301   52.7855 H   0  0  0  0  0  0  0  0  0  0  0  0
   59.1856   59.3999   53.6627 H   0  0  0  0  0  0  0  0  0  0  0  0
   56.4554   58.1920   53.9861 H   0  0  0  0  0  0  0  0  0  0  0  0
   56.8508   59.5776   52.9977 H   0  0  0  0  0  0  0  0  0  0  0  0
   57.0167   59.6677   54.7348 H   0  0  0  0  0  0  0  0  0  0  0  0
   58.3709   56.8898   55.1175 H   0  0  0  0  0  0  0  0  0  0  0  0
   58.8899   58.3769   55.8738 H   0  0  0  0  0  0  0  0  0  0  0  0
   60.0118   57.4515   54.9053 H   0  0  0  0  0  0  0  0  0  0  0  0
   57.7720   60.4748   50.6949 H   0  0  0  0  0  0  0  0  0  0  0  0
   60.4925   61.1229   49.7553 H   0  0  0  0  0  0  0  0  0  0  0  0
   59.5053   62.2295   50.6794 H   0  0  0  0  0  0  0  0  0  0  0  0
   59.0446   61.8001   49.0495 H   0  0  0  0  0  0  0  0  0  0  0  0
  1  2  1  0  0  0  0
  1 33  1  0  0  0  0
  1 34  1  0  0  0  0
  1 35  1  0  0  0  0
  2  3  2  0  0  0  0
  2  4  1  0  0  0  0
  4  5  1  0  0  0  0
  5  6  1  0  0  0  0
  5  8  1  0  0  0  0
  5 36  1  1  0  0  0
  6 11  1  0  0  0  0
  7  6  2  0  0  0  0
  8 37  1  0  0  0  0
  8 38  1  0  0  0  0
  9  8  1  0  0  0  0
  9 39  1  0  0  0  0
  9 40  1  0  0  0  0
 10  4  1  0  0  0  0
 10  9  1  0  0  0  0
 10 41  1  0  0  0  0
 10 42  1  0  0  0  0
 11 12  1  0  0  0  0
 11 43  1  0  0  0  0
 12 13  1  0  0  0  0
 12 15  1  0  0  0  0
 12 44  1  6  0  0  0
 13 14  2  0  0  0  0
 15 45  1  0  0  0  0
 15 46  1  0  0  0  0
 15 47  1  0  0  0  0
 16 17  1  0  0  0  0
 16 13  1  0  0  0  0
 16 48  1  0  0  0  0
 17 18  1  0  0  0  0
 17 49  1  1  0  0  0
 18 23  1  0  0  0  0
 19 18  2  0  0  0  0
 20 21  1  0  0  0  0
 20 17  1  0  0  0  0
 20 50  1  0  0  0  0
 21 51  1  0  0  0  0
 21 52  1  0  0  0  0
 21 53  1  0  0  0  0
 22 20  1  0  0  0  0
 22 54  1  0  0  0  0
 22 55  1  0  0  0  0
 22 56  1  0  0  0  0
 23 24  1  0  0  0  0
 23 57  1  0  0  0  0
 24 27  1  0  0  0  0
 24 58  1  1  0  0  0
 25 24  1  0  0  0  0
 26 25  2  0  0  0  0
 27 28  1  0  0  0  0
 27 59  1  0  0  0  0
 27 60  1  0  0  0  0
 28 29  1  0  0  0  0
 28 30  1  0  0  0  0
 28 61  1  0  0  0  0
 29 62  1  0  0  0  0
 29 63  1  0  0  0  0
 29 64  1  0  0  0  0
 30 65  1  0  0  0  0
 30 66  1  0  0  0  0
 30 67  1  0  0  0  0
 31 25  1  0  0  0  0
 31 68  1  0  0  0  0
 32 31  1  0  0  0  0
 32 69  1  0  0  0  0
 32 70  1  0  0  0  0
 32 71  1  0  0  0  0
M  END
>  <MODEL>
       0

$$$$
selected_4mers/PAVL/792_noH.pdb
 OpenBabel03042518353D

 71 71  0  0  1  0  0  0  0  0999 V2000
   24.1000    8.3510   13.6230 C   0  0  0  0  0  0  0  0  0  0  0  0
   23.7360    7.9650   15.0460 C   0  0  0  0  0  0  0  0  0  0  0  0
   22.5790    8.0920   15.4920 O   0  0  0  0  0  0  0  0  0  0  0  0
   24.7190    7.5720   15.8490 N   0  0  0  0  0  0  0  0  0  0  0  0
   24.4600    7.2250   17.2370 C   0  0  2  0  0  0  0  0  0  0  0  0
   24.4510    8.4240   18.1630 C   0  0  0  0  0  0  0  0  0  0  0  0
   25.2050    9.3750   17.9300 O   0  0  0  0  0  0  0  0  0  0  0  0
   25.7030    6.3800   17.5790 C   0  0  0  0  0  0  0  0  0  0  0  0
   26.8080    6.9720   16.7580 C   0  0  0  0  0  0  0  0  0  0  0  0
   26.1420    7.4330   15.4650 C   0  0  0  0  0  0  0  0  0  0  0  0
   23.7480    8.2870   19.3020 N   0  0  0  0  0  0  0  0  0  0  0  0
   23.8120    9.3620   20.2870 C   0  0  2  0  0  0  0  0  0  0  0  0
   24.6090    8.9460   21.5150 C   0  0  0  0  0  0  0  0  0  0  0  0
   25.1790    9.8150   22.1840 O   0  0  0  0  0  0  0  0  0  0  0  0
   22.3900    9.7890   20.6360 C   0  0  0  0  0  0  0  0  0  0  0  0
   24.6530    7.6550   21.8450 N   0  0  0  0  0  0  0  0  0  0  0  0
   25.4310    7.1900   23.0160 C   0  0  2  0  0  0  0  0  0  0  0  0
   26.8990    7.0820   22.6120 C   0  0  0  0  0  0  0  0  0  0  0  0
   27.1730    6.5560   21.5110 O   0  0  0  0  0  0  0  0  0  0  0  0
   24.8830    5.8380   23.5010 C   0  0  0  0  0  0  0  0  0  0  0  0
   25.7850    5.1650   24.5240 C   0  0  0  0  0  0  0  0  0  0  0  0
   23.4950    6.0530   24.1380 C   0  0  0  0  0  0  0  0  0  0  0  0
   27.8160    7.6550   23.3570 N   0  0  0  0  0  0  0  0  0  0  0  0
   29.2300    7.6710   23.0540 C   0  0  2  0  0  0  0  0  0  0  0  0
   29.4640    8.2620   21.6840 C   0  0  0  0  0  0  0  0  0  0  0  0
   30.2920    7.7980   20.8830 O   0  0  0  0  0  0  0  0  0  0  0  0
   29.8260    6.2620   23.2190 C   0  0  0  0  0  0  0  0  0  0  0  0
   31.3640    6.1510   23.3180 C   0  0  0  0  0  0  0  0  0  0  0  0
   31.8280    7.0540   24.4490 C   0  0  0  0  0  0  0  0  0  0  0  0
   31.8270    4.7140   23.5000 C   0  0  0  0  0  0  0  0  0  0  0  0
   28.7520    9.3500   21.3090 N   0  0  0  0  0  0  0  0  0  0  0  0
   28.8440    9.9230   19.9710 C   0  0  0  0  0  0  0  0  0  0  0  0
   23.2162    8.6442   13.0958 H   0  0  0  0  0  0  0  0  0  0  0  0
   24.5483    7.5138   13.1299 H   0  0  0  0  0  0  0  0  0  0  0  0
   24.7920    9.1670   13.6407 H   0  0  0  0  0  0  0  0  0  0  0  0
   23.5060    6.7552   17.3555 H   0  0  0  0  0  0  0  0  0  0  0  0
   25.9302    6.4494   18.6223 H   0  0  0  0  0  0  0  0  0  0  0  0
   25.5553    5.3416   17.3675 H   0  0  0  0  0  0  0  0  0  0  0  0
   27.2516    7.8014   17.2681 H   0  0  0  0  0  0  0  0  0  0  0  0
   27.5922    6.2674   16.5750 H   0  0  0  0  0  0  0  0  0  0  0  0
   26.5446    8.3691   15.1385 H   0  0  0  0  0  0  0  0  0  0  0  0
   26.2928    6.7557   14.6505 H   0  0  0  0  0  0  0  0  0  0  0  0
   23.2047    7.4827   19.4666 H   0  0  0  0  0  0  0  0  0  0  0  0
   24.3318   10.2005   19.8726 H   0  0  0  0  0  0  0  0  0  0  0  0
   21.8599    8.9577   21.0518 H   0  0  0  0  0  0  0  0  0  0  0  0
   21.8907   10.1238   19.7508 H   0  0  0  0  0  0  0  0  0  0  0  0
   22.4218   10.5851   21.3503 H   0  0  0  0  0  0  0  0  0  0  0  0
   24.1597    6.9995   21.3007 H   0  0  0  0  0  0  0  0  0  0  0  0
   25.3437    7.8852   23.8247 H   0  0  0  0  0  0  0  0  0  0  0  0
   24.8280    5.1978   22.6454 H   0  0  0  0  0  0  0  0  0  0  0  0
   25.8604    5.7829   25.3943 H   0  0  0  0  0  0  0  0  0  0  0  0
   26.7581    5.0224   24.1025 H   0  0  0  0  0  0  0  0  0  0  0  0
   25.3712    4.2162   24.7950 H   0  0  0  0  0  0  0  0  0  0  0  0
   23.5884    6.6962   24.9880 H   0  0  0  0  0  0  0  0  0  0  0  0
   23.0942    5.1101   24.4465 H   0  0  0  0  0  0  0  0  0  0  0  0
   22.8394    6.5019   23.4214 H   0  0  0  0  0  0  0  0  0  0  0  0
   27.5198    8.1059   24.1806 H   0  0  0  0  0  0  0  0  0  0  0  0
   29.7430    8.3018   23.7495 H   0  0  0  0  0  0  0  0  0  0  0  0
   29.5153    5.6807   22.3761 H   0  0  0  0  0  0  0  0  0  0  0  0
   29.4641    5.9195   24.1659 H   0  0  0  0  0  0  0  0  0  0  0  0
   31.8073    6.4718   22.3985 H   0  0  0  0  0  0  0  0  0  0  0  0
   31.3838    6.7319   25.3676 H   0  0  0  0  0  0  0  0  0  0  0  0
   31.5332    8.0620   24.2444 H   0  0  0  0  0  0  0  0  0  0  0  0
   32.8937    7.0038   24.5312 H   0  0  0  0  0  0  0  0  0  0  0  0
   31.4201    4.3204   24.4080 H   0  0  0  0  0  0  0  0  0  0  0  0
   32.8956    4.6868   23.5469 H   0  0  0  0  0  0  0  0  0  0  0  0
   31.4911    4.1236   22.6732 H   0  0  0  0  0  0  0  0  0  0  0  0
   28.1492    9.7705   21.9640 H   0  0  0  0  0  0  0  0  0  0  0  0
   29.5361    9.3540   19.3861 H   0  0  0  0  0  0  0  0  0  0  0  0
   29.1828   10.9357   20.0392 H   0  0  0  0  0  0  0  0  0  0  0  0
   27.8806    9.8997   19.5060 H   0  0  0  0  0  0  0  0  0  0  0  0
  1  2  1  0  0  0  0
  1 33  1  0  0  0  0
  1 34  1  0  0  0  0
  1 35  1  0  0  0  0
  2  3  2  0  0  0  0
  2  4  1  0  0  0  0
  4  5  1  0  0  0  0
  5  8  1  0  0  0  0
  5  6  1  0  0  0  0
  5 36  1  1  0  0  0
  6 11  1  0  0  0  0
  7  6  2  0  0  0  0
  8 37  1  0  0  0  0
  8 38  1  0  0  0  0
  9  8  1  0  0  0  0
  9 39  1  0  0  0  0
  9 40  1  0  0  0  0
 10  4  1  0  0  0  0
 10  9  1  0  0  0  0
 10 41  1  0  0  0  0
 10 42  1  0  0  0  0
 11 12  1  0  0  0  0
 11 43  1  0  0  0  0
 12 15  1  0  0  0  0
 12 13  1  0  0  0  0
 12 44  1  6  0  0  0
 13 16  1  0  0  0  0
 13 14  2  0  0  0  0
 15 45  1  0  0  0  0
 15 46  1  0  0  0  0
 15 47  1  0  0  0  0
 16 17  1  0  0  0  0
 16 48  1  0  0  0  0
 17 20  1  0  0  0  0
 17 49  1  1  0  0  0
 18 17  1  0  0  0  0
 18 23  1  0  0  0  0
 19 18  2  0  0  0  0
 20 22  1  0  0  0  0
 20 21  1  0  0  0  0
 20 50  1  0  0  0  0
 21 51  1  0  0  0  0
 21 52  1  0  0  0  0
 21 53  1  0  0  0  0
 22 54  1  0  0  0  0
 22 55  1  0  0  0  0
 22 56  1  0  0  0  0
 23 57  1  0  0  0  0
 24 27  1  0  0  0  0
 24 23  1  0  0  0  0
 24 58  1  1  0  0  0
 25 24  1  0  0  0  0
 26 25  2  0  0  0  0
 27 28  1  0  0  0  0
 27 59  1  0  0  0  0
 27 60  1  0  0  0  0
 28 30  1  0  0  0  0
 28 29  1  0  0  0  0
 28 61  1  0  0  0  0
 29 62  1  0  0  0  0
 29 63  1  0  0  0  0
 29 64  1  0  0  0  0
 30 65  1  0  0  0  0
 30 66  1  0  0  0  0
 30 67  1  0  0  0  0
 31 25  1  0  0  0  0
 31 68  1  0  0  0  0
 32 31  1  0  0  0  0
 32 69  1  0  0  0  0
 32 70  1  0  0  0  0
 32 71  1  0  0  0  0
M  END
>  <MODEL>
       0

$$$$
selected_4mers/PAVL/793_noH.pdb
 OpenBabel03042518353D

 71 71  0  0  1  0  0  0  0  0999 V2000
   40.6640  -23.1180   28.8230 C   0  0  0  0  0  0  0  0  0  0  0  0
   41.4310  -23.1400   27.4990 C   0  0  0  0  0  0  0  0  0  0  0  0
   40.8790  -22.8780   26.4340 O   0  0  0  0  0  0  0  0  0  0  0  0
   42.7550  -23.4660   27.5740 N   0  0  0  0  0  0  0  0  0  0  0  0
   43.5080  -23.5550   26.3170 C   0  0  2  0  0  0  0  0  0  0  0  0
   42.9470  -24.5460   25.2750 C   0  0  0  0  0  0  0  0  0  0  0  0
   43.0810  -24.3150   24.0750 O   0  0  0  0  0  0  0  0  0  0  0  0
   44.9150  -23.9560   26.7760 C   0  0  0  0  0  0  0  0  0  0  0  0
   44.9900  -23.5340   28.1580 C   0  0  0  0  0  0  0  0  0  0  0  0
   43.6280  -23.6510   28.7360 C   0  0  0  0  0  0  0  0  0  0  0  0
   42.2940  -25.6160   25.7330 N   0  0  0  0  0  0  0  0  0  0  0  0
   41.7150  -26.5940   24.8150 C   0  0  2  0  0  0  0  0  0  0  0  0
   40.5600  -25.9990   24.0400 C   0  0  0  0  0  0  0  0  0  0  0  0
   40.3600  -26.3520   22.8770 O   0  0  0  0  0  0  0  0  0  0  0  0
   41.2700  -27.8270   25.5590 C   0  0  0  0  0  0  0  0  0  0  0  0
   39.8390  -25.0820   24.6690 N   0  0  0  0  0  0  0  0  0  0  0  0
   38.7430  -24.3840   24.0090 C   0  0  2  0  0  0  0  0  0  0  0  0
   39.2480  -23.4770   22.8970 C   0  0  0  0  0  0  0  0  0  0  0  0
   38.7140  -23.4570   21.7840 O   0  0  0  0  0  0  0  0  0  0  0  0
   37.8680  -23.6120   25.0580 C   0  0  0  0  0  0  0  0  0  0  0  0
   36.9100  -22.6440   24.3960 C   0  0  0  0  0  0  0  0  0  0  0  0
   37.1570  -24.5750   25.9930 C   0  0  0  0  0  0  0  0  0  0  0  0
   40.3080  -22.7260   23.1970 N   0  0  0  0  0  0  0  0  0  0  0  0
   40.9350  -21.8600   22.2090 C   0  0  2  0  0  0  0  0  0  0  0  0
   41.5300  -22.6620   21.0750 C   0  0  0  0  0  0  0  0  0  0  0  0
   41.3910  -22.3000   19.9170 O   0  0  0  0  0  0  0  0  0  0  0  0
   42.0090  -20.9880   22.8680 C   0  0  0  0  0  0  0  0  0  0  0  0
   41.4250  -20.1160   24.0010 C   0  0  0  0  0  0  0  0  0  0  0  0
   42.4880  -19.4940   24.8960 C   0  0  0  0  0  0  0  0  0  0  0  0
   40.4930  -19.0490   23.4530 C   0  0  0  0  0  0  0  0  0  0  0  0
   42.1460  -23.7800   21.4010 N   0  0  0  0  0  0  0  0  0  0  0  0
   42.7250  -24.6580   20.3840 C   0  0  0  0  0  0  0  0  0  0  0  0
   39.6440  -22.8516   28.6399 H   0  0  0  0  0  0  0  0  0  0  0  0
   41.1078  -22.3998   29.4804 H   0  0  0  0  0  0  0  0  0  0  0  0
   40.7039  -24.0873   29.2745 H   0  0  0  0  0  0  0  0  0  0  0  0
   43.4626  -22.6263   25.7875 H   0  0  0  0  0  0  0  0  0  0  0  0
   45.6586  -23.4581   26.1894 H   0  0  0  0  0  0  0  0  0  0  0  0
   45.0911  -25.0056   26.6651 H   0  0  0  0  0  0  0  0  0  0  0  0
   45.3236  -22.5188   28.2122 H   0  0  0  0  0  0  0  0  0  0  0  0
   45.6826  -24.1430   28.7004 H   0  0  0  0  0  0  0  0  0  0  0  0
   43.4800  -24.6142   29.1778 H   0  0  0  0  0  0  0  0  0  0  0  0
   43.4416  -22.9448   29.5179 H   0  0  0  0  0  0  0  0  0  0  0  0
   42.2011  -25.7483   26.7041 H   0  0  0  0  0  0  0  0  0  0  0  0
   42.4747  -26.8746   24.1157 H   0  0  0  0  0  0  0  0  0  0  0  0
   40.5091  -27.5633   26.2635 H   0  0  0  0  0  0  0  0  0  0  0  0
   42.1044  -28.2514   26.0773 H   0  0  0  0  0  0  0  0  0  0  0  0
   40.8807  -28.5417   24.8643 H   0  0  0  0  0  0  0  0  0  0  0  0
   40.0492  -24.8667   25.6064 H   0  0  0  0  0  0  0  0  0  0  0  0
   38.1136  -25.1126   23.5421 H   0  0  0  0  0  0  0  0  0  0  0  0
   38.5293  -23.0193   25.6549 H   0  0  0  0  0  0  0  0  0  0  0  0
   36.2214  -23.1869   23.7828 H   0  0  0  0  0  0  0  0  0  0  0  0
   37.4608  -21.9553   23.7901 H   0  0  0  0  0  0  0  0  0  0  0  0
   36.3708  -22.1058   25.1474 H   0  0  0  0  0  0  0  0  0  0  0  0
   36.4840  -25.1873   25.4300 H   0  0  0  0  0  0  0  0  0  0  0  0
   36.6075  -24.0210   26.7251 H   0  0  0  0  0  0  0  0  0  0  0  0
   37.8786  -25.1950   26.4826 H   0  0  0  0  0  0  0  0  0  0  0  0
   40.6759  -22.7579   24.1096 H   0  0  0  0  0  0  0  0  0  0  0  0
   40.1772  -21.2248   21.8001 H   0  0  0  0  0  0  0  0  0  0  0  0
   42.4393  -20.3486   22.1258 H   0  0  0  0  0  0  0  0  0  0  0  0
   42.7474  -21.6350   23.2936 H   0  0  0  0  0  0  0  0  0  0  0  0
   40.8604  -20.7825   24.6189 H   0  0  0  0  0  0  0  0  0  0  0  0
   43.0839  -18.8148   24.3229 H   0  0  0  0  0  0  0  0  0  0  0  0
   43.1121  -20.2650   25.2972 H   0  0  0  0  0  0  0  0  0  0  0  0
   42.0150  -18.9651   25.6969 H   0  0  0  0  0  0  0  0  0  0  0  0
   41.0471  -18.3758   22.8328 H   0  0  0  0  0  0  0  0  0  0  0  0
   40.0547  -18.5071   24.2649 H   0  0  0  0  0  0  0  0  0  0  0  0
   39.7207  -19.5125   22.8753 H   0  0  0  0  0  0  0  0  0  0  0  0
   42.2183  -24.0303   22.3504 H   0  0  0  0  0  0  0  0  0  0  0  0
   42.5576  -24.2390   19.4138 H   0  0  0  0  0  0  0  0  0  0  0  0
   42.2640  -25.6219   20.4406 H   0  0  0  0  0  0  0  0  0  0  0  0
   43.7770  -24.7553   20.5538 H   0  0  0  0  0  0  0  0  0  0  0  0
  1 33  1  0  0  0  0
  1 34  1  0  0  0  0
  1 35  1  0  0  0  0
  2  4  1  0  0  0  0
  2  1  1  0  0  0  0
  3  2  2  0  0  0  0
  4 10  1  0  0  0  0
  5  8  1  0  0  0  0
  5  4  1  0  0  0  0
  5 36  1  6  0  0  0
  6 11  1  0  0  0  0
  6  5  1  0  0  0  0
  7  6  2  0  0  0  0
  8  9  1  0  0  0  0
  8 37  1  0  0  0  0
  8 38  1  0  0  0  0
  9 10  1  0  0  0  0
  9 39  1  0  0  0  0
  9 40  1  0  0  0  0
 10 41  1  0  0  0  0
 10 42  1  0  0  0  0
 11 43  1  0  0  0  0
 12 15  1  0  0  0  0
 12 11  1  0  0  0  0
 12 44  1  6  0  0  0
 13 16  1  0  0  0  0
 13 12  1  0  0  0  0
 14 13  2  0  0  0  0
 15 45  1  0  0  0  0
 15 46  1  0  0  0  0
 15 47  1  0  0  0  0
 16 48  1  0  0  0  0
 17 16  1  0  0  0  0
 17 20  1  0  0  0  0
 17 49  1  6  0  0  0
 18 23  1  0  0  0  0
 18 17  1  0  0  0  0
 19 18  2  0  0  0  0
 20 22  1  0  0  0  0
 20 50  1  0  0  0  0
 21 20  1  0  0  0  0
 21 51  1  0  0  0  0
 21 52  1  0  0  0  0
 21 53  1  0  0  0  0
 22 54  1  0  0  0  0
 22 55  1  0  0  0  0
 22 56  1  0  0  0  0
 23 57  1  0  0  0  0
 24 27  1  0  0  0  0
 24 23  1  0  0  0  0
 24 58  1  6  0  0  0
 25 31  1  0  0  0  0
 25 24  1  0  0  0  0
 26 25  2  0  0  0  0
 27 28  1  0  0  0  0
 27 59  1  0  0  0  0
 27 60  1  0  0  0  0
 28 29  1  0  0  0  0
 28 61  1  0  0  0  0
 29 62  1  0  0  0  0
 29 63  1  0  0  0  0
 29 64  1  0  0  0  0
 30 28  1  0  0  0  0
 30 65  1  0  0  0  0
 30 66  1  0  0  0  0
 30 67  1  0  0  0  0
 31 68  1  0  0  0  0
 32 31  1  0  0  0  0
 32 69  1  0  0  0  0
 32 70  1  0  0  0  0
 32 71  1  0  0  0  0
M  END
>  <MODEL>
       0

$$$$
selected_4mers/PAVL/794_noH.pdb
 OpenBabel03042518353D

 71 71  0  0  1  0  0  0  0  0999 V2000
   26.8570   17.0310   37.6680 C   0  0  0  0  0  0  0  0  0  0  0  0
   27.1000   17.1280   36.1640 C   0  0  0  0  0  0  0  0  0  0  0  0
   27.0600   16.0910   35.4790 O   0  0  0  0  0  0  0  0  0  0  0  0
   27.4080   18.3350   35.6430 N   0  0  0  0  0  0  0  0  0  0  0  0
   27.8050   18.4530   34.2450 C   0  0  2  0  0  0  0  0  0  0  0  0
   29.2370   17.9000   34.0580 C   0  0  0  0  0  0  0  0  0  0  0  0
   30.0760   18.1460   34.9080 O   0  0  0  0  0  0  0  0  0  0  0  0
   27.7910   19.9960   33.9860 C   0  0  0  0  0  0  0  0  0  0  0  0
   27.1700   20.5930   35.1610 C   0  0  0  0  0  0  0  0  0  0  0  0
   27.4470   19.6590   36.3090 C   0  0  0  0  0  0  0  0  0  0  0  0
   29.5130   17.2430   32.9410 N   0  0  0  0  0  0  0  0  0  0  0  0
   30.8140   16.5970   32.7200 C   0  0  2  0  0  0  0  0  0  0  0  0
   31.0640   16.4380   31.2420 C   0  0  0  0  0  0  0  0  0  0  0  0
   30.1780   16.0580   30.4910 O   0  0  0  0  0  0  0  0  0  0  0  0
   30.8460   15.2660   33.3850 C   0  0  0  0  0  0  0  0  0  0  0  0
   32.2840   16.7440   30.8230 N   0  0  0  0  0  0  0  0  0  0  0  0
   32.7330   16.4340   29.4970 C   0  0  2  0  0  0  0  0  0  0  0  0
   33.3740   15.0460   29.5670 C   0  0  0  0  0  0  0  0  0  0  0  0
   34.2970   14.8160   30.3660 O   0  0  0  0  0  0  0  0  0  0  0  0
   33.7850   17.4650   29.0440 C   0  0  0  0  0  0  0  0  0  0  0  0
   34.3210   17.1130   27.6970 C   0  0  0  0  0  0  0  0  0  0  0  0
   33.1970   18.8740   29.0390 C   0  0  0  0  0  0  0  0  0  0  0  0
   32.8800   14.1380   28.7420 N   0  0  0  0  0  0  0  0  0  0  0  0
   33.3950   12.7880   28.5960 C   0  0  2  0  0  0  0  0  0  0  0  0
   34.3720   12.7470   27.4340 C   0  0  0  0  0  0  0  0  0  0  0  0
   34.2550   13.5330   26.4970 O   0  0  0  0  0  0  0  0  0  0  0  0
   32.2580   11.8160   28.2680 C   0  0  0  0  0  0  0  0  0  0  0  0
   31.3720   11.3470   29.4210 C   0  0  0  0  0  0  0  0  0  0  0  0
   30.6150   12.5020   29.9940 C   0  0  0  0  0  0  0  0  0  0  0  0
   30.4500   10.2380   28.9560 C   0  0  0  0  0  0  0  0  0  0  0  0
   35.3220   11.8180   27.5050 N   0  0  0  0  0  0  0  0  0  0  0  0
   36.1760   11.4890   26.3740 C   0  0  0  0  0  0  0  0  0  0  0  0
   26.6253   16.0191   37.9273 H   0  0  0  0  0  0  0  0  0  0  0  0
   26.0386   17.6649   37.9387 H   0  0  0  0  0  0  0  0  0  0  0  0
   27.7368   17.3410   38.1922 H   0  0  0  0  0  0  0  0  0  0  0  0
   27.1665   17.9107   33.5792 H   0  0  0  0  0  0  0  0  0  0  0  0
   27.2208   20.2209   33.1090 H   0  0  0  0  0  0  0  0  0  0  0  0
   28.7784   20.3765   33.8277 H   0  0  0  0  0  0  0  0  0  0  0  0
   26.1152   20.6931   35.0116 H   0  0  0  0  0  0  0  0  0  0  0  0
   27.5618   21.5701   35.3526 H   0  0  0  0  0  0  0  0  0  0  0  0
   26.6933   19.7369   37.0645 H   0  0  0  0  0  0  0  0  0  0  0  0
   28.3668   19.8601   36.8174 H   0  0  0  0  0  0  0  0  0  0  0  0
   28.8259   17.1860   32.2382 H   0  0  0  0  0  0  0  0  0  0  0  0
   31.5812   17.2126   33.1412 H   0  0  0  0  0  0  0  0  0  0  0  0
   30.0819   14.6419   32.9708 H   0  0  0  0  0  0  0  0  0  0  0  0
   30.6772   15.3875   34.4346 H   0  0  0  0  0  0  0  0  0  0  0  0
   31.8019   14.8116   33.2277 H   0  0  0  0  0  0  0  0  0  0  0  0
   32.9008   17.1982   31.4415 H   0  0  0  0  0  0  0  0  0  0  0  0
   31.9212   16.4563   28.8003 H   0  0  0  0  0  0  0  0  0  0  0  0
   34.5945   17.4446   29.7435 H   0  0  0  0  0  0  0  0  0  0  0  0
   33.5255   17.1278   26.9816 H   0  0  0  0  0  0  0  0  0  0  0  0
   34.7532   16.1347   27.7296 H   0  0  0  0  0  0  0  0  0  0  0  0
   35.0688   17.8240   27.4137 H   0  0  0  0  0  0  0  0  0  0  0  0
   32.3838   18.9187   28.3450 H   0  0  0  0  0  0  0  0  0  0  0  0
   33.9521   19.5746   28.7492 H   0  0  0  0  0  0  0  0  0  0  0  0
   32.8430   19.1162   30.0193 H   0  0  0  0  0  0  0  0  0  0  0  0
   32.1084   14.3956   28.1875 H   0  0  0  0  0  0  0  0  0  0  0  0
   33.8689   12.5083   29.5137 H   0  0  0  0  0  0  0  0  0  0  0  0
   32.6982   10.9455   27.8283 H   0  0  0  0  0  0  0  0  0  0  0  0
   31.6021   12.3712   27.6305 H   0  0  0  0  0  0  0  0  0  0  0  0
   31.9867   10.9475   30.2004 H   0  0  0  0  0  0  0  0  0  0  0  0
   29.9876   12.9272   29.2387 H   0  0  0  0  0  0  0  0  0  0  0  0
   31.3043   13.2421   30.3434 H   0  0  0  0  0  0  0  0  0  0  0  0
   30.0114   12.1633   30.8100 H   0  0  0  0  0  0  0  0  0  0  0  0
   29.8185   10.6038   28.1735 H   0  0  0  0  0  0  0  0  0  0  0  0
   29.8471    9.9080   29.7761 H   0  0  0  0  0  0  0  0  0  0  0  0
   31.0334    9.4191   28.5900 H   0  0  0  0  0  0  0  0  0  0  0  0
   35.4517   11.3359   28.3535 H   0  0  0  0  0  0  0  0  0  0  0  0
   35.9080   12.0977   25.5358 H   0  0  0  0  0  0  0  0  0  0  0  0
   36.0501   10.4572   26.1203 H   0  0  0  0  0  0  0  0  0  0  0  0
   37.1980   11.6702   26.6341 H   0  0  0  0  0  0  0  0  0  0  0  0
  1 33  1  0  0  0  0
  1 34  1  0  0  0  0
  1 35  1  0  0  0  0
  2  1  1  0  0  0  0
  3  2  2  0  0  0  0
  4  2  1  0  0  0  0
  4 10  1  0  0  0  0
  5  4  1  0  0  0  0
  5 36  1  6  0  0  0
  6  5  1  0  0  0  0
  6  7  2  0  0  0  0
  8  5  1  0  0  0  0
  8  9  1  0  0  0  0
  8 37  1  0  0  0  0
  8 38  1  0  0  0  0
  9 10  1  0  0  0  0
  9 39  1  0  0  0  0
  9 40  1  0  0  0  0
 10 41  1  0  0  0  0
 10 42  1  0  0  0  0
 11  6  1  0  0  0  0
 11 43  1  0  0  0  0
 12 11  1  0  0  0  0
 12 15  1  0  0  0  0
 12 44  1  1  0  0  0
 13 12  1  0  0  0  0
 14 13  2  0  0  0  0
 15 45  1  0  0  0  0
 15 46  1  0  0  0  0
 15 47  1  0  0  0  0
 16 13  1  0  0  0  0
 16 48  1  0  0  0  0
 17 18  1  0  0  0  0
 17 16  1  0  0  0  0
 17 49  1  6  0  0  0
 18 19  2  0  0  0  0
 20 17  1  0  0  0  0
 20 50  1  0  0  0  0
 21 20  1  0  0  0  0
 21 51  1  0  0  0  0
 21 52  1  0  0  0  0
 21 53  1  0  0  0  0
 22 20  1  0  0  0  0
 22 54  1  0  0  0  0
 22 55  1  0  0  0  0
 22 56  1  0  0  0  0
 23 18  1  0  0  0  0
 23 57  1  0  0  0  0
 24 23  1  0  0  0  0
 24 58  1  1  0  0  0
 25 31  1  0  0  0  0
 25 24  1  0  0  0  0
 26 25  2  0  0  0  0
 27 24  1  0  0  0  0
 27 28  1  0  0  0  0
 27 59  1  0  0  0  0
 27 60  1  0  0  0  0
 28 29  1  0  0  0  0
 28 61  1  0  0  0  0
 29 62  1  0  0  0  0
 29 63  1  0  0  0  0
 29 64  1  0  0  0  0
 30 28  1  0  0  0  0
 30 65  1  0  0  0  0
 30 66  1  0  0  0  0
 30 67  1  0  0  0  0
 31 68  1  0  0  0  0
 32 31  1  0  0  0  0
 32 69  1  0  0  0  0
 32 70  1  0  0  0  0
 32 71  1  0  0  0  0
M  END
>  <MODEL>
       0

$$$$
