selected_4mers/PDGS/785_noH.pdb
 OpenBabel03042518353D

 56 56  0  0  1  0  0  0  0  0999 V2000
    0.5400   15.8990   18.6270 C   0  0  0  0  0  0  0  0  0  0  0  0
    1.2640   16.9350   19.4540 C   0  0  0  0  0  0  0  0  0  0  0  0
    0.6530   17.6480   20.2420 O   0  0  0  0  0  0  0  0  0  0  0  0
    2.5920   17.0770   19.2250 N   0  0  0  0  0  0  0  0  0  0  0  0
    3.3660   18.0720   19.9420 C   0  0  2  0  0  0  0  0  0  0  0  0
    2.8420   19.5090   19.8670 C   0  0  0  0  0  0  0  0  0  0  0  0
    2.9750   20.2480   20.8510 O   0  0  0  0  0  0  0  0  0  0  0  0
    4.7440   17.9650   19.2800 C   0  0  0  0  0  0  0  0  0  0  0  0
    4.8460   16.5560   18.9050 C   0  0  0  0  0  0  0  0  0  0  0  0
    3.4380   16.2070   18.4110 C   0  0  0  0  0  0  0  0  0  0  0  0
    2.2060   19.8940   18.7580 N   0  0  0  0  0  0  0  0  0  0  0  0
    1.6080   21.2510   18.6760 C   0  0  2  0  0  0  0  0  0  0  0  0
    0.2330   21.4050   19.3450 C   0  0  0  0  0  0  0  0  0  0  0  0
   -0.3640   22.4760   19.2850 O   0  0  0  0  0  0  0  0  0  0  0  0
    1.5570   21.7690   17.2290 C   0  0  0  0  0  0  0  0  0  0  0  0
    0.4810   21.0950   16.3720 C   0  0  0  0  0  0  0  0  0  0  0  0
   -0.2540   20.2130   16.8760 O   0  0  0  0  0  0  0  0  0  0  0  0
    0.3850   21.4360   15.1510 O   0  0  0  0  0  0  0  0  0  0  0  0
   -0.2630   20.3390   19.9540 N   0  0  0  0  0  0  0  0  0  0  0  0
   -1.5210   20.3420   20.7270 C   0  0  0  0  0  0  0  0  0  0  0  0
   -2.7480   19.9780   19.9330 C   0  0  0  0  0  0  0  0  0  0  0  0
   -3.8170   19.7540   20.5050 O   0  0  0  0  0  0  0  0  0  0  0  0
   -2.6060   19.8840   18.6170 N   0  0  0  0  0  0  0  0  0  0  0  0
   -3.7520   19.5040   17.7760 C   0  0  2  0  0  0  0  0  0  0  0  0
   -3.9070   17.9770   17.8220 C   0  0  0  0  0  0  0  0  0  0  0  0
   -3.0230   17.2780   18.3200 O   0  0  0  0  0  0  0  0  0  0  0  0
   -3.5460   19.9890   16.3470 C   0  0  0  0  0  0  0  0  0  0  0  0
   -2.5420   19.2590   15.7000 O   0  0  0  0  0  0  0  0  0  0  0  0
   -5.0520   17.4760   17.3790 N   0  0  0  0  0  0  0  0  0  0  0  0
   -5.3540   16.0550   17.3990 C   0  0  0  0  0  0  0  0  0  0  0  0
    1.2426   15.3837   18.0060 H   0  0  0  0  0  0  0  0  0  0  0  0
   -0.1923   16.3807   18.0133 H   0  0  0  0  0  0  0  0  0  0  0  0
    0.0568   15.1987   19.2759 H   0  0  0  0  0  0  0  0  0  0  0  0
    3.3409   17.8753   20.9935 H   0  0  0  0  0  0  0  0  0  0  0  0
    4.8011   18.5938   18.4162 H   0  0  0  0  0  0  0  0  0  0  0  0
    5.5373   18.2783   19.9260 H   0  0  0  0  0  0  0  0  0  0  0  0
    5.5677   16.4198   18.1269 H   0  0  0  0  0  0  0  0  0  0  0  0
    5.1667   15.9342   19.7146 H   0  0  0  0  0  0  0  0  0  0  0  0
    3.2120   15.1756   18.5845 H   0  0  0  0  0  0  0  0  0  0  0  0
    3.3080   16.3492   17.3585 H   0  0  0  0  0  0  0  0  0  0  0  0
    2.1333   19.2777   17.9937 H   0  0  0  0  0  0  0  0  0  0  0  0
    2.2769   21.8580   19.2497 H   0  0  0  0  0  0  0  0  0  0  0  0
    1.3602   22.8205   17.2532 H   0  0  0  0  0  0  0  0  0  0  0  0
    2.5018   21.5411   16.7815 H   0  0  0  0  0  0  0  0  0  0  0  0
    0.2371   19.4936   19.8874 H   0  0  0  0  0  0  0  0  0  0  0  0
   -1.4217   19.6395   21.5280 H   0  0  0  0  0  0  0  0  0  0  0  0
   -1.6662   21.3470   21.0643 H   0  0  0  0  0  0  0  0  0  0  0  0
   -1.7323   20.0688   18.2026 H   0  0  0  0  0  0  0  0  0  0  0  0
   -4.6451   19.9628   18.1458 H   0  0  0  0  0  0  0  0  0  0  0  0
   -4.4621   19.8766   15.8057 H   0  0  0  0  0  0  0  0  0  0  0  0
   -3.2480   21.0161   16.3795 H   0  0  0  0  0  0  0  0  0  0  0  0
   -2.7961   18.3237   15.6615 H   0  0  0  0  0  0  0  0  0  0  0  0
   -5.7282   18.0951   17.0202 H   0  0  0  0  0  0  0  0  0  0  0  0
   -4.5257   15.5202   17.8147 H   0  0  0  0  0  0  0  0  0  0  0  0
   -5.5336   15.7144   16.4007 H   0  0  0  0  0  0  0  0  0  0  0  0
   -6.2251   15.8839   17.9963 H   0  0  0  0  0  0  0  0  0  0  0  0
  1  2  1  0  0  0  0
  1 31  1  0  0  0  0
  1 32  1  0  0  0  0
  1 33  1  0  0  0  0
  2  3  2  0  0  0  0
  4  2  1  0  0  0  0
  4  5  1  0  0  0  0
  5 34  1  1  0  0  0
  6  5  1  0  0  0  0
  6  7  2  0  0  0  0
  8  5  1  0  0  0  0
  8 35  1  0  0  0  0
  8 36  1  0  0  0  0
  9  8  1  0  0  0  0
  9 37  1  0  0  0  0
  9 38  1  0  0  0  0
 10  9  1  0  0  0  0
 10  4  1  0  0  0  0
 10 39  1  0  0  0  0
 10 40  1  0  0  0  0
 11  6  1  0  0  0  0
 11 41  1  0  0  0  0
 12 11  1  0  0  0  0
 12 13  1  0  0  0  0
 12 42  1  1  0  0  0
 13 19  1  0  0  0  0
 14 13  2  0  0  0  0
 15 12  1  0  0  0  0
 15 43  1  0  0  0  0
 15 44  1  0  0  0  0
 16 17  1  0  0  0  0
 16 15  1  0  0  0  0
 18 16  2  0  0  0  0
 19 20  1  0  0  0  0
 19 45  1  0  0  0  0
 20 46  1  0  0  0  0
 20 47  1  0  0  0  0
 21 22  2  0  0  0  0
 21 20  1  0  0  0  0
 23 21  1  0  0  0  0
 23 48  1  0  0  0  0
 24 25  1  0  0  0  0
 24 23  1  0  0  0  0
 24 49  1  1  0  0  0
 25 26  2  0  0  0  0
 27 24  1  0  0  0  0
 27 50  1  0  0  0  0
 27 51  1  0  0  0  0
 28 27  1  0  0  0  0
 28 52  1  0  0  0  0
 29 30  1  0  0  0  0
 29 25  1  0  0  0  0
 29 53  1  0  0  0  0
 30 54  1  0  0  0  0
 30 55  1  0  0  0  0
 30 56  1  0  0  0  0
M  CHG  1  17  -1
M  END
>  <MODEL>
       0

$$$$
selected_4mers/PDGS/786_noH.pdb
 OpenBabel03042518353D

 56 56  0  0  1  0  0  0  0  0999 V2000
   29.1040   43.4880    7.1290 C   0  0  0  0  0  0  0  0  0  0  0  0
   30.2050   43.0580    6.1520 C   0  0  0  0  0  0  0  0  0  0  0  0
   31.3210   42.7380    6.5610 O   0  0  0  0  0  0  0  0  0  0  0  0
   29.9020   43.0490    4.8430 N   0  0  0  0  0  0  0  0  0  0  0  0
   30.8660   42.6540    3.8100 C   0  0  2  0  0  0  0  0  0  0  0  0
   32.2590   43.2770    3.9090 C   0  0  0  0  0  0  0  0  0  0  0  0
   33.2600   42.5990    3.6640 O   0  0  0  0  0  0  0  0  0  0  0  0
   30.1550   43.0400    2.5170 C   0  0  0  0  0  0  0  0  0  0  0  0
   28.7260   42.7860    2.8450 C   0  0  0  0  0  0  0  0  0  0  0  0
   28.5960   43.3720    4.2390 C   0  0  0  0  0  0  0  0  0  0  0  0
   32.3240   44.5570    4.2690 N   0  0  0  0  0  0  0  0  0  0  0  0
   33.6070   45.2530    4.3670 C   0  0  2  0  0  0  0  0  0  0  0  0
   34.3470   45.0660    5.6870 C   0  0  0  0  0  0  0  0  0  0  0  0
   35.3690   45.7110    5.9280 O   0  0  0  0  0  0  0  0  0  0  0  0
   33.4310   46.7530    4.0880 C   0  0  0  0  0  0  0  0  0  0  0  0
   32.4420   47.4230    5.0300 C   0  0  0  0  0  0  0  0  0  0  0  0
   32.0400   46.7950    6.0340 O   0  0  0  0  0  0  0  0  0  0  0  0
   32.0730   48.5920    4.7670 O   0  0  0  0  0  0  0  0  0  0  0  0
   33.8340   44.1920    6.5450 N   0  0  0  0  0  0  0  0  0  0  0  0
   34.4980   43.9450    7.8110 C   0  0  0  0  0  0  0  0  0  0  0  0
   34.0180   44.7940    8.9720 C   0  0  0  0  0  0  0  0  0  0  0  0
   34.4120   44.5540   10.1140 O   0  0  0  0  0  0  0  0  0  0  0  0
   33.1850   45.7910    8.6910 N   0  0  0  0  0  0  0  0  0  0  0  0
   32.6650   46.6370    9.7550 C   0  0  2  0  0  0  0  0  0  0  0  0
   31.5330   45.8970   10.4670 C   0  0  0  0  0  0  0  0  0  0  0  0
   30.9410   44.9670    9.9100 O   0  0  0  0  0  0  0  0  0  0  0  0
   32.1680   47.9750    9.1860 C   0  0  0  0  0  0  0  0  0  0  0  0
   31.0530   47.8130    8.3270 O   0  0  0  0  0  0  0  0  0  0  0  0
   31.2430   46.2990   11.7000 N   0  0  0  0  0  0  0  0  0  0  0  0
   30.1830   45.6710   12.4820 C   0  0  0  0  0  0  0  0  0  0  0  0
   28.2149   43.7247    6.5827 H   0  0  0  0  0  0  0  0  0  0  0  0
   29.4277   44.3499    7.6742 H   0  0  0  0  0  0  0  0  0  0  0  0
   28.9012   42.6895    7.8117 H   0  0  0  0  0  0  0  0  0  0  0  0
   31.1034   41.6144    3.8982 H   0  0  0  0  0  0  0  0  0  0  0  0
   30.3195   44.0700    2.2783 H   0  0  0  0  0  0  0  0  0  0  0  0
   30.4992   42.4953    1.6628 H   0  0  0  0  0  0  0  0  0  0  0  0
   28.5103   41.7380    2.8451 H   0  0  0  0  0  0  0  0  0  0  0  0
   28.0452   43.2135    2.1389 H   0  0  0  0  0  0  0  0  0  0  0  0
   27.7954   42.9113    4.7792 H   0  0  0  0  0  0  0  0  0  0  0  0
   28.3707   44.4180    4.2431 H   0  0  0  0  0  0  0  0  0  0  0  0
   31.4932   45.0443    4.4731 H   0  0  0  0  0  0  0  0  0  0  0  0
   34.2203   44.7948    3.6195 H   0  0  0  0  0  0  0  0  0  0  0  0
   33.0807   46.8739    3.0842 H   0  0  0  0  0  0  0  0  0  0  0  0
   34.3820   47.2195    4.2393 H   0  0  0  0  0  0  0  0  0  0  0  0
   33.0038   43.7120    6.3222 H   0  0  0  0  0  0  0  0  0  0  0  0
   35.5435   44.1291    7.6772 H   0  0  0  0  0  0  0  0  0  0  0  0
   34.2703   42.9325    8.0714 H   0  0  0  0  0  0  0  0  0  0  0  0
   32.9184   45.9581    7.7581 H   0  0  0  0  0  0  0  0  0  0  0  0
   33.4445   46.8517   10.4559 H   0  0  0  0  0  0  0  0  0  0  0  0
   31.8865   48.6113    9.9989 H   0  0  0  0  0  0  0  0  0  0  0  0
   32.9637   48.4026    8.6125 H   0  0  0  0  0  0  0  0  0  0  0  0
   30.3155   47.4258    8.8240 H   0  0  0  0  0  0  0  0  0  0  0  0
   31.7566   47.0397   12.0961 H   0  0  0  0  0  0  0  0  0  0  0  0
   29.7300   44.8906   11.9069 H   0  0  0  0  0  0  0  0  0  0  0  0
   29.4444   46.4029   12.7342 H   0  0  0  0  0  0  0  0  0  0  0  0
   30.5974   45.2589   13.3783 H   0  0  0  0  0  0  0  0  0  0  0  0
  1 31  1  0  0  0  0
  1 32  1  0  0  0  0
  1 33  1  0  0  0  0
  2  3  2  0  0  0  0
  2  1  1  0  0  0  0
  4  2  1  0  0  0  0
  5  6  1  0  0  0  0
  5  4  1  0  0  0  0
  5 34  1  1  0  0  0
  6 11  1  0  0  0  0
  7  6  2  0  0  0  0
  8  9  1  0  0  0  0
  8  5  1  0  0  0  0
  8 35  1  0  0  0  0
  8 36  1  0  0  0  0
  9 10  1  0  0  0  0
  9 37  1  0  0  0  0
  9 38  1  0  0  0  0
 10  4  1  0  0  0  0
 10 39  1  0  0  0  0
 10 40  1  0  0  0  0
 11 12  1  0  0  0  0
 11 41  1  0  0  0  0
 12 13  1  0  0  0  0
 12 42  1  6  0  0  0
 13 14  2  0  0  0  0
 13 19  1  0  0  0  0
 15 12  1  0  0  0  0
 15 16  1  0  0  0  0
 15 43  1  0  0  0  0
 15 44  1  0  0  0  0
 16 17  1  0  0  0  0
 18 16  2  0  0  0  0
 19 20  1  0  0  0  0
 19 45  1  0  0  0  0
 20 21  1  0  0  0  0
 20 46  1  0  0  0  0
 20 47  1  0  0  0  0
 21 22  2  0  0  0  0
 23 21  1  0  0  0  0
 23 24  1  0  0  0  0
 23 48  1  0  0  0  0
 24 25  1  0  0  0  0
 24 49  1  1  0  0  0
 25 29  1  0  0  0  0
 26 25  2  0  0  0  0
 27 24  1  0  0  0  0
 27 50  1  0  0  0  0
 27 51  1  0  0  0  0
 28 27  1  0  0  0  0
 28 52  1  0  0  0  0
 29 30  1  0  0  0  0
 29 53  1  0  0  0  0
 30 54  1  0  0  0  0
 30 55  1  0  0  0  0
 30 56  1  0  0  0  0
M  CHG  1  17  -1
M  END
>  <MODEL>
       0

$$$$
selected_4mers/PDGS/787_noH.pdb
 OpenBabel03042518353D

 56 56  0  0  1  0  0  0  0  0999 V2000
   40.5940   29.7590   26.2940 C   0  0  0  0  0  0  0  0  0  0  0  0
   41.7300   28.8020   25.9460 C   0  0  0  0  0  0  0  0  0  0  0  0
   41.7050   28.1240   24.9100 O   0  0  0  0  0  0  0  0  0  0  0  0
   42.7610   28.7420   26.8050 N   0  0  0  0  0  0  0  0  0  0  0  0
   43.8650   27.8350   26.5060 C   0  0  2  0  0  0  0  0  0  0  0  0
   43.4480   26.3820   26.3060 C   0  0  0  0  0  0  0  0  0  0  0  0
   44.0490   25.6950   25.4850 O   0  0  0  0  0  0  0  0  0  0  0  0
   44.7780   28.0000   27.7170 C   0  0  0  0  0  0  0  0  0  0  0  0
   44.4910   29.3790   28.1700 C   0  0  0  0  0  0  0  0  0  0  0  0
   43.0210   29.5240   28.0150 C   0  0  0  0  0  0  0  0  0  0  0  0
   42.4150   25.9180   27.0030 N   0  0  0  0  0  0  0  0  0  0  0  0
   41.8890   24.5600   26.7570 C   0  0  2  0  0  0  0  0  0  0  0  0
   41.0420   24.4000   25.4800 C   0  0  0  0  0  0  0  0  0  0  0  0
   40.5680   23.3000   25.1760 O   0  0  0  0  0  0  0  0  0  0  0  0
   41.1040   24.0540   27.9760 C   0  0  0  0  0  0  0  0  0  0  0  0
   39.8550   24.8790   28.2650 C   0  0  0  0  0  0  0  0  0  0  0  0
   39.4230   25.6340   27.3730 O   0  0  0  0  0  0  0  0  0  0  0  0
   39.3040   24.7620   29.3890 O   0  0  0  0  0  0  0  0  0  0  0  0
   40.8460   25.4870   24.7380 N   0  0  0  0  0  0  0  0  0  0  0  0
   40.1160   25.4260   23.4890 C   0  0  0  0  0  0  0  0  0  0  0  0
   38.6380   25.7430   23.6390 C   0  0  0  0  0  0  0  0  0  0  0  0
   37.9350   25.7670   22.6600 O   0  0  0  0  0  0  0  0  0  0  0  0
   38.1810   25.9910   24.8620 N   0  0  0  0  0  0  0  0  0  0  0  0
   36.7960   26.3450   25.1170 C   0  0  2  0  0  0  0  0  0  0  0  0
   36.5040   27.6600   24.4640 C   0  0  0  0  0  0  0  0  0  0  0  0
   37.3010   28.5620   24.5780 O   0  0  0  0  0  0  0  0  0  0  0  0
   36.5360   26.5370   26.6080 C   0  0  0  0  0  0  0  0  0  0  0  0
   36.8620   25.3720   27.3180 O   0  0  0  0  0  0  0  0  0  0  0  0
   35.3090   27.7980   23.8850 N   0  0  0  0  0  0  0  0  0  0  0  0
   34.9650   29.1050   23.3240 C   0  0  0  0  0  0  0  0  0  0  0  0
   39.8420   29.7112   25.5343 H   0  0  0  0  0  0  0  0  0  0  0  0
   40.9749   30.7570   26.3565 H   0  0  0  0  0  0  0  0  0  0  0  0
   40.1684   29.4801   27.2353 H   0  0  0  0  0  0  0  0  0  0  0  0
   44.3292   28.0754   25.5724 H   0  0  0  0  0  0  0  0  0  0  0  0
   45.8060   27.8930   27.4401 H   0  0  0  0  0  0  0  0  0  0  0  0
   44.6070   27.2647   28.4752 H   0  0  0  0  0  0  0  0  0  0  0  0
   45.0074   30.0919   27.5618 H   0  0  0  0  0  0  0  0  0  0  0  0
   44.8127   29.5517   29.1758 H   0  0  0  0  0  0  0  0  0  0  0  0
   42.5000   29.1201   28.8578 H   0  0  0  0  0  0  0  0  0  0  0  0
   42.6935   30.5405   27.9490 H   0  0  0  0  0  0  0  0  0  0  0  0
   41.9965   26.4855   27.6901 H   0  0  0  0  0  0  0  0  0  0  0  0
   42.7596   23.9595   26.5945 H   0  0  0  0  0  0  0  0  0  0  0  0
   41.7435   24.0920   28.8330 H   0  0  0  0  0  0  0  0  0  0  0  0
   40.7851   23.0559   27.7593 H   0  0  0  0  0  0  0  0  0  0  0  0
   41.2049   26.3509   25.0447 H   0  0  0  0  0  0  0  0  0  0  0  0
   40.5470   26.1311   22.8093 H   0  0  0  0  0  0  0  0  0  0  0  0
   40.1889   24.4211   23.1288 H   0  0  0  0  0  0  0  0  0  0  0  0
   38.8037   25.9326   25.6223 H   0  0  0  0  0  0  0  0  0  0  0  0
   36.1840   25.5539   24.7368 H   0  0  0  0  0  0  0  0  0  0  0  0
   35.5011   26.7631   26.7586 H   0  0  0  0  0  0  0  0  0  0  0  0
   37.1451   27.3412   26.9646 H   0  0  0  0  0  0  0  0  0  0  0  0
   36.3144   24.6366   27.0015 H   0  0  0  0  0  0  0  0  0  0  0  0
   34.6784   27.0435   23.8369 H   0  0  0  0  0  0  0  0  0  0  0  0
   35.7776   29.7840   23.4773 H   0  0  0  0  0  0  0  0  0  0  0  0
   34.0889   29.4820   23.8091 H   0  0  0  0  0  0  0  0  0  0  0  0
   34.7769   29.0048   22.2754 H   0  0  0  0  0  0  0  0  0  0  0  0
  1 31  1  0  0  0  0
  1 32  1  0  0  0  0
  1 33  1  0  0  0  0
  2  1  1  0  0  0  0
  2  4  1  0  0  0  0
  3  2  2  0  0  0  0
  4 10  1  0  0  0  0
  5  4  1  0  0  0  0
  5  8  1  0  0  0  0
  5 34  1  6  0  0  0
  6  5  1  0  0  0  0
  6 11  1  0  0  0  0
  7  6  2  0  0  0  0
  8  9  1  0  0  0  0
  8 35  1  0  0  0  0
  8 36  1  0  0  0  0
  9 37  1  0  0  0  0
  9 38  1  0  0  0  0
 10  9  1  0  0  0  0
 10 39  1  0  0  0  0
 10 40  1  0  0  0  0
 11 41  1  0  0  0  0
 12 11  1  0  0  0  0
 12 15  1  0  0  0  0
 12 42  1  6  0  0  0
 13 12  1  0  0  0  0
 14 13  2  0  0  0  0
 15 16  1  0  0  0  0
 15 43  1  0  0  0  0
 15 44  1  0  0  0  0
 16 18  1  0  0  0  0
 17 16  2  0  0  0  0
 19 13  1  0  0  0  0
 19 45  1  0  0  0  0
 20 21  1  0  0  0  0
 20 19  1  0  0  0  0
 20 46  1  0  0  0  0
 20 47  1  0  0  0  0
 21 23  1  0  0  0  0
 22 21  2  0  0  0  0
 23 24  1  0  0  0  0
 23 48  1  0  0  0  0
 24 27  1  0  0  0  0
 24 49  1  6  0  0  0
 25 26  2  0  0  0  0
 25 24  1  0  0  0  0
 27 28  1  0  0  0  0
 27 50  1  0  0  0  0
 27 51  1  0  0  0  0
 28 52  1  0  0  0  0
 29 25  1  0  0  0  0
 29 53  1  0  0  0  0
 30 29  1  0  0  0  0
 30 54  1  0  0  0  0
 30 55  1  0  0  0  0
 30 56  1  0  0  0  0
M  CHG  1  18  -1
M  END
>  <MODEL>
       0

$$$$
selected_4mers/PDGS/788_noH.pdb
 OpenBabel03042518353D

 56 56  0  0  1  0  0  0  0  0999 V2000
   52.6810    4.7380  118.2540 C   0  0  0  0  0  0  0  0  0  0  0  0
   53.2080    3.3270  118.4620 C   0  0  0  0  0  0  0  0  0  0  0  0
   52.5900    2.3360  118.0360 O   0  0  0  0  0  0  0  0  0  0  0  0
   54.3610    3.2150  119.1300 N   0  0  0  0  0  0  0  0  0  0  0  0
   54.9650    1.9060  119.3860 C   0  0  2  0  0  0  0  0  0  0  0  0
   54.2440    1.0710  120.4700 C   0  0  0  0  0  0  0  0  0  0  0  0
   54.5470   -0.1100  120.6520 O   0  0  0  0  0  0  0  0  0  0  0  0
   56.4030    2.2700  119.7620 C   0  0  0  0  0  0  0  0  0  0  0  0
   56.2280    3.5700  120.4730 C   0  0  0  0  0  0  0  0  0  0  0  0
   55.2030    4.3080  119.6490 C   0  0  0  0  0  0  0  0  0  0  0  0
   53.2570    1.6610  121.1400 N   0  0  0  0  0  0  0  0  0  0  0  0
   52.5230    0.9530  122.1730 C   0  0  2  0  0  0  0  0  0  0  0  0
   51.3390    0.1430  121.6510 C   0  0  0  0  0  0  0  0  0  0  0  0
   50.5230   -0.3420  122.4360 O   0  0  0  0  0  0  0  0  0  0  0  0
   52.0450    1.9300  123.2420 C   0  0  0  0  0  0  0  0  0  0  0  0
   50.9880    2.8710  122.7470 C   0  0  0  0  0  0  0  0  0  0  0  0
   50.6060    2.7980  121.5680 O   0  0  0  0  0  0  0  0  0  0  0  0
   50.5190    3.6910  123.5570 O   0  0  0  0  0  0  0  0  0  0  0  0
   51.2010    0.0780  120.3290 N   0  0  0  0  0  0  0  0  0  0  0  0
   50.1110   -0.6660  119.7310 C   0  0  0  0  0  0  0  0  0  0  0  0
   48.7410   -0.0600  119.9680 C   0  0  0  0  0  0  0  0  0  0  0  0
   47.7270   -0.6750  119.6230 O   0  0  0  0  0  0  0  0  0  0  0  0
   48.6930    1.1620  120.4940 N   0  0  0  0  0  0  0  0  0  0  0  0
   47.4180    1.8090  120.7670 C   0  0  2  0  0  0  0  0  0  0  0  0
   46.6960    2.2870  119.5040 C   0  0  0  0  0  0  0  0  0  0  0  0
   45.4900    2.5390  119.5240 O   0  0  0  0  0  0  0  0  0  0  0  0
   47.6140    2.9950  121.7040 C   0  0  0  0  0  0  0  0  0  0  0  0
   48.4300    3.9890  121.1120 O   0  0  0  0  0  0  0  0  0  0  0  0
   47.4280    2.4310  118.4070 N   0  0  0  0  0  0  0  0  0  0  0  0
   46.7910    2.9060  117.1940 C   0  0  0  0  0  0  0  0  0  0  0  0
   51.7598    4.6983  117.7111 H   0  0  0  0  0  0  0  0  0  0  0  0
   53.3972    5.3082  117.7000 H   0  0  0  0  0  0  0  0  0  0  0  0
   52.5151    5.2005  119.2045 H   0  0  0  0  0  0  0  0  0  0  0  0
   54.8980    1.2560  118.5387 H   0  0  0  0  0  0  0  0  0  0  0  0
   57.0139    2.3842  118.8910 H   0  0  0  0  0  0  0  0  0  0  0  0
   56.8935    1.5231  120.3506 H   0  0  0  0  0  0  0  0  0  0  0  0
   55.8716    3.4124  121.4695 H   0  0  0  0  0  0  0  0  0  0  0  0
   57.1456    4.1123  120.5669 H   0  0  0  0  0  0  0  0  0  0  0  0
   54.6325    4.9811  120.2544 H   0  0  0  0  0  0  0  0  0  0  0  0
   55.6323    4.9164  118.8806 H   0  0  0  0  0  0  0  0  0  0  0  0
   53.0206    2.5937  120.9314 H   0  0  0  0  0  0  0  0  0  0  0  0
   53.2115    0.2475  122.5891 H   0  0  0  0  0  0  0  0  0  0  0  0
   52.8829    2.5048  123.5774 H   0  0  0  0  0  0  0  0  0  0  0  0
   51.6137    1.3524  124.0327 H   0  0  0  0  0  0  0  0  0  0  0  0
   51.8481    0.5416  119.7497 H   0  0  0  0  0  0  0  0  0  0  0  0
   50.2780   -0.7155  118.6753 H   0  0  0  0  0  0  0  0  0  0  0  0
   50.1054   -1.6299  120.1955 H   0  0  0  0  0  0  0  0  0  0  0  0
   49.5314    1.6346  120.7012 H   0  0  0  0  0  0  0  0  0  0  0  0
   46.8027    1.0635  121.2259 H   0  0  0  0  0  0  0  0  0  0  0  0
   48.0788    2.6539  122.6054 H   0  0  0  0  0  0  0  0  0  0  0  0
   46.6558    3.4239  121.9109 H   0  0  0  0  0  0  0  0  0  0  0  0
   49.3041    3.6162  120.9176 H   0  0  0  0  0  0  0  0  0  0  0  0
   48.3893    2.2186  118.4163 H   0  0  0  0  0  0  0  0  0  0  0  0
   45.7522    3.0808  117.3816 H   0  0  0  0  0  0  0  0  0  0  0  0
   46.8955    2.1699  116.4245 H   0  0  0  0  0  0  0  0  0  0  0  0
   47.2553    3.8178  116.8808 H   0  0  0  0  0  0  0  0  0  0  0  0
  1  2  1  0  0  0  0
  1 31  1  0  0  0  0
  1 32  1  0  0  0  0
  1 33  1  0  0  0  0
  2  4  1  0  0  0  0
  3  2  2  0  0  0  0
  4  5  1  0  0  0  0
  4 10  1  0  0  0  0
  5  8  1  0  0  0  0
  5  6  1  0  0  0  0
  5 34  1  6  0  0  0
  6  7  2  0  0  0  0
  6 11  1  0  0  0  0
  8  9  1  0  0  0  0
  8 35  1  0  0  0  0
  8 36  1  0  0  0  0
  9 37  1  0  0  0  0
  9 38  1  0  0  0  0
 10  9  1  0  0  0  0
 10 39  1  0  0  0  0
 10 40  1  0  0  0  0
 11 12  1  0  0  0  0
 11 41  1  0  0  0  0
 12 15  1  0  0  0  0
 12 42  1  1  0  0  0
 13 12  1  0  0  0  0
 13 14  2  0  0  0  0
 15 43  1  0  0  0  0
 15 44  1  0  0  0  0
 16 15  1  0  0  0  0
 16 18  1  0  0  0  0
 17 16  2  0  0  0  0
 19 13  1  0  0  0  0
 19 45  1  0  0  0  0
 20 21  1  0  0  0  0
 20 19  1  0  0  0  0
 20 46  1  0  0  0  0
 20 47  1  0  0  0  0
 21 23  1  0  0  0  0
 22 21  2  0  0  0  0
 23 24  1  0  0  0  0
 23 48  1  0  0  0  0
 24 27  1  0  0  0  0
 24 49  1  1  0  0  0
 25 26  2  0  0  0  0
 25 24  1  0  0  0  0
 27 50  1  0  0  0  0
 27 51  1  0  0  0  0
 28 27  1  0  0  0  0
 28 52  1  0  0  0  0
 29 25  1  0  0  0  0
 29 53  1  0  0  0  0
 30 29  1  0  0  0  0
 30 54  1  0  0  0  0
 30 55  1  0  0  0  0
 30 56  1  0  0  0  0
M  CHG  1  18  -1
M  END
>  <MODEL>
       0

$$$$
selected_4mers/PDGS/789_noH.pdb
 OpenBabel03042518353D

 56 56  0  0  1  0  0  0  0  0999 V2000
   93.3180   78.3760  110.4040 C   0  0  0  0  0  0  0  0  0  0  0  0
   94.4560   77.3060  110.3980 C   0  0  0  0  0  0  0  0  0  0  0  0
   94.5440   76.4390  109.4940 O   0  0  0  0  0  0  0  0  0  0  0  0
   95.3160   77.2540  111.3990 N   0  0  0  0  0  0  0  0  0  0  0  0
   96.3690   76.1680  111.4260 C   0  0  2  0  0  0  0  0  0  0  0  0
   95.7050   74.7980  111.4690 C   0  0  0  0  0  0  0  0  0  0  0  0
   96.2860   73.8140  111.0090 O   0  0  0  0  0  0  0  0  0  0  0  0
   97.0720   76.3770  112.7850 C   0  0  0  0  0  0  0  0  0  0  0  0
   96.9560   77.8870  112.8880 C   0  0  0  0  0  0  0  0  0  0  0  0
   95.5340   78.2650  112.4540 C   0  0  0  0  0  0  0  0  0  0  0  0
   94.5020   74.7360  112.0580 N   0  0  0  0  0  0  0  0  0  0  0  0
   93.7410   73.4990  112.1310 C   0  0  2  0  0  0  0  0  0  0  0  0
   92.6310   73.3830  111.0480 C   0  0  0  0  0  0  0  0  0  0  0  0
   91.6280   72.6700  111.2650 O   0  0  0  0  0  0  0  0  0  0  0  0
   93.1040   73.2370  113.5120 C   0  0  0  0  0  0  0  0  0  0  0  0
   92.2670   74.3970  114.0030 C   0  0  0  0  0  0  0  0  0  0  0  0
   91.2190   74.1060  114.6510 O   0  0  0  0  0  0  0  0  0  0  0  0
   92.5430   75.5710  113.5850 O   0  0  0  0  0  0  0  0  0  0  0  0
   92.8800   73.9550  109.8710 N   0  0  0  0  0  0  0  0  0  0  0  0
   91.9670   73.8360  108.7000 C   0  0  0  0  0  0  0  0  0  0  0  0
   90.8990   74.9570  108.6040 C   0  0  0  0  0  0  0  0  0  0  0  0
   90.9230   75.9470  109.3720 O   0  0  0  0  0  0  0  0  0  0  0  0
   89.9340   74.8320  107.6480 N   0  0  0  0  0  0  0  0  0  0  0  0
   88.9180   75.8730  107.4570 C   0  0  2  0  0  0  0  0  0  0  0  0
   87.9680   75.9200  108.6700 C   0  0  0  0  0  0  0  0  0  0  0  0
   87.4420   74.8800  109.0610 O   0  0  0  0  0  0  0  0  0  0  0  0
   88.0600   75.6440  106.1970 C   0  0  0  0  0  0  0  0  0  0  0  0
   88.8390   75.6090  105.0200 O   0  0  0  0  0  0  0  0  0  0  0  0
   87.6160   77.1280  109.1260 N   0  0  0  0  0  0  0  0  0  0  0  0
   86.6520   77.3350  110.2350 C   0  0  0  0  0  0  0  0  0  0  0  0
   92.7230   78.2688  109.5212 H   0  0  0  0  0  0  0  0  0  0  0  0
   93.7491   79.3550  110.4269 H   0  0  0  0  0  0  0  0  0  0  0  0
   92.7024   78.2371  111.2681 H   0  0  0  0  0  0  0  0  0  0  0  0
   97.0159   76.2123  110.5749 H   0  0  0  0  0  0  0  0  0  0  0  0
   98.0919   76.0543  112.7621 H   0  0  0  0  0  0  0  0  0  0  0  0
   96.6574   75.8284  113.6048 H   0  0  0  0  0  0  0  0  0  0  0  0
   97.1263   78.1995  113.8971 H   0  0  0  0  0  0  0  0  0  0  0  0
   97.6825   78.3664  112.2657 H   0  0  0  0  0  0  0  0  0  0  0  0
   94.8326   78.1615  113.2554 H   0  0  0  0  0  0  0  0  0  0  0  0
   95.4116   79.2805  112.1399 H   0  0  0  0  0  0  0  0  0  0  0  0
   94.1220   75.5536  112.4534 H   0  0  0  0  0  0  0  0  0  0  0  0
   94.4846   72.7516  111.9482 H   0  0  0  0  0  0  0  0  0  0  0  0
   93.8857   73.0561  114.2199 H   0  0  0  0  0  0  0  0  0  0  0  0
   92.4550   72.3923  113.4115 H   0  0  0  0  0  0  0  0  0  0  0  0
   93.7061   74.4810  109.7703 H   0  0  0  0  0  0  0  0  0  0  0  0
   92.5597   73.8612  107.8095 H   0  0  0  0  0  0  0  0  0  0  0  0
   91.4342   72.9159  108.8203 H   0  0  0  0  0  0  0  0  0  0  0  0
   89.9191   74.0302  107.0769 H   0  0  0  0  0  0  0  0  0  0  0  0
   89.4523   76.7934  107.3461 H   0  0  0  0  0  0  0  0  0  0  0  0
   87.5439   74.7120  106.2964 H   0  0  0  0  0  0  0  0  0  0  0  0
   87.3750   76.4617  106.1132 H   0  0  0  0  0  0  0  0  0  0  0  0
   89.4699   74.8740  105.0715 H   0  0  0  0  0  0  0  0  0  0  0  0
   88.0178   77.9212  108.7034 H   0  0  0  0  0  0  0  0  0  0  0  0
   86.3052   76.3863  110.5879 H   0  0  0  0  0  0  0  0  0  0  0  0
   85.8212   77.9100  109.8827 H   0  0  0  0  0  0  0  0  0  0  0  0
   87.1345   77.8580  111.0341 H   0  0  0  0  0  0  0  0  0  0  0  0
  1 31  1  0  0  0  0
  1 32  1  0  0  0  0
  1 33  1  0  0  0  0
  2  1  1  0  0  0  0
  2  4  1  0  0  0  0
  3  2  2  0  0  0  0
  4  5  1  0  0  0  0
  4 10  1  0  0  0  0
  5  6  1  0  0  0  0
  5  8  1  0  0  0  0
  5 34  1  6  0  0  0
  6 11  1  0  0  0  0
  7  6  2  0  0  0  0
  8  9  1  0  0  0  0
  8 35  1  0  0  0  0
  8 36  1  0  0  0  0
  9 37  1  0  0  0  0
  9 38  1  0  0  0  0
 10  9  1  0  0  0  0
 10 39  1  0  0  0  0
 10 40  1  0  0  0  0
 11 12  1  0  0  0  0
 11 41  1  0  0  0  0
 12 15  1  0  0  0  0
 12 42  1  6  0  0  0
 13 14  2  0  0  0  0
 13 12  1  0  0  0  0
 15 16  1  0  0  0  0
 15 43  1  0  0  0  0
 15 44  1  0  0  0  0
 16 17  1  0  0  0  0
 18 16  2  0  0  0  0
 19 13  1  0  0  0  0
 19 45  1  0  0  0  0
 20 19  1  0  0  0  0
 20 46  1  0  0  0  0
 20 47  1  0  0  0  0
 21 20  1  0  0  0  0
 21 22  2  0  0  0  0
 23 21  1  0  0  0  0
 23 48  1  0  0  0  0
 24 23  1  0  0  0  0
 24 25  1  0  0  0  0
 24 49  1  6  0  0  0
 25 26  2  0  0  0  0
 25 29  1  0  0  0  0
 27 24  1  0  0  0  0
 27 50  1  0  0  0  0
 27 51  1  0  0  0  0
 28 27  1  0  0  0  0
 28 52  1  0  0  0  0
 29 30  1  0  0  0  0
 29 53  1  0  0  0  0
 30 54  1  0  0  0  0
 30 55  1  0  0  0  0
 30 56  1  0  0  0  0
M  CHG  1  17  -1
M  END
>  <MODEL>
       0

$$$$
