selected_4mers/PEEI/780_noH.pdb
 OpenBabel03042518353D

 75 75  0  0  1  0  0  0  0  0999 V2000
  -14.2060   11.2200   -4.5630 C   0  0  0  0  0  0  0  0  0  0  0  0
  -13.7150   11.2030   -6.0160 C   0  0  0  0  0  0  0  0  0  0  0  0
  -14.0790   10.2870   -6.7890 O   0  0  0  0  0  0  0  0  0  0  0  0
  -12.8990   12.1920   -6.3990 N   0  0  0  0  0  0  0  0  0  0  0  0
  -12.4810   12.3020   -7.8050 C   0  0  2  0  0  0  0  0  0  0  0  0
  -11.8020   11.0590   -8.3600 C   0  0  0  0  0  0  0  0  0  0  0  0
  -12.0500   10.7060   -9.5270 O   0  0  0  0  0  0  0  0  0  0  0  0
  -11.5490   13.5230   -7.8260 C   0  0  0  0  0  0  0  0  0  0  0  0
  -11.2660   13.8510   -6.3640 C   0  0  0  0  0  0  0  0  0  0  0  0
  -12.3730   13.2950   -5.5570 C   0  0  0  0  0  0  0  0  0  0  0  0
  -11.0250   10.3470   -7.5540 N   0  0  0  0  0  0  0  0  0  0  0  0
  -10.3020    9.1680   -8.0430 C   0  0  2  0  0  0  0  0  0  0  0  0
  -11.2380    8.0170   -8.4000 C   0  0  0  0  0  0  0  0  0  0  0  0
  -10.9590    7.2700   -9.3390 O   0  0  0  0  0  0  0  0  0  0  0  0
   -9.2230    8.7170   -7.0330 C   0  0  0  0  0  0  0  0  0  0  0  0
   -9.7380    8.2630   -5.6510 C   0  0  0  0  0  0  0  0  0  0  0  0
   -9.9050    9.3940   -4.6160 C   0  0  0  0  0  0  0  0  0  0  0  0
   -9.8580   10.6100   -4.9620 O   0  0  0  0  0  0  0  0  0  0  0  0
  -10.1020    9.0400   -3.4300 O   0  0  0  0  0  0  0  0  0  0  0  0
  -12.3510    7.8830   -7.6890 N   0  0  0  0  0  0  0  0  0  0  0  0
  -13.3450    6.8400   -7.9760 C   0  0  2  0  0  0  0  0  0  0  0  0
  -14.1060    7.1690   -9.2590 C   0  0  0  0  0  0  0  0  0  0  0  0
  -14.3620    6.2780  -10.0860 O   0  0  0  0  0  0  0  0  0  0  0  0
  -14.3000    6.6340   -6.7990 C   0  0  0  0  0  0  0  0  0  0  0  0
  -13.6140    5.8690   -5.6630 C   0  0  0  0  0  0  0  0  0  0  0  0
  -14.4500    5.7330   -4.4080 C   0  0  0  0  0  0  0  0  0  0  0  0
  -13.8400    5.7200   -3.3130 O   0  0  0  0  0  0  0  0  0  0  0  0
  -15.6940    5.6370   -4.5080 O   0  0  0  0  0  0  0  0  0  0  0  0
  -14.4600    8.4240   -9.4620 N   0  0  0  0  0  0  0  0  0  0  0  0
  -15.1370    8.7610  -10.7130 C   0  0  2  0  0  0  0  0  0  0  0  0
  -14.1410    8.5850  -11.8590 C   0  0  0  0  0  0  0  0  0  0  0  0
  -14.5040    7.9920  -12.8930 O   0  0  0  0  0  0  0  0  0  0  0  0
  -15.9510   10.1150  -10.6990 C   0  0  2  0  0  0  0  0  0  0  0  0
  -16.0690   10.7400  -12.0980 C   0  0  0  0  0  0  0  0  0  0  0  0
  -15.3980   11.1090   -9.7110 C   0  0  0  0  0  0  0  0  0  0  0  0
  -17.1850   10.1560  -12.9420 C   0  0  0  0  0  0  0  0  0  0  0  0
  -12.8930    9.0030  -11.6840 N   0  0  0  0  0  0  0  0  0  0  0  0
  -11.8820    8.8010  -12.7250 C   0  0  0  0  0  0  0  0  0  0  0  0
  -14.8458   10.3794   -4.3929 H   0  0  0  0  0  0  0  0  0  0  0  0
  -14.7486   12.1239   -4.3804 H   0  0  0  0  0  0  0  0  0  0  0  0
  -13.3661   11.1685   -3.9021 H   0  0  0  0  0  0  0  0  0  0  0  0
  -13.3323   12.4095   -8.4442 H   0  0  0  0  0  0  0  0  0  0  0  0
  -12.0279   14.3497   -8.3079 H   0  0  0  0  0  0  0  0  0  0  0  0
  -10.6481   13.3230   -8.3675 H   0  0  0  0  0  0  0  0  0  0  0  0
  -11.2152   14.9116   -6.2315 H   0  0  0  0  0  0  0  0  0  0  0  0
  -10.3310   13.4293   -6.0592 H   0  0  0  0  0  0  0  0  0  0  0  0
  -12.0135   12.9226   -4.6205 H   0  0  0  0  0  0  0  0  0  0  0  0
  -13.1176   14.0242   -5.3143 H   0  0  0  0  0  0  0  0  0  0  0  0
  -10.9320   10.6146   -6.6112 H   0  0  0  0  0  0  0  0  0  0  0  0
   -9.8115    9.4595   -8.9482 H   0  0  0  0  0  0  0  0  0  0  0  0
   -8.5544    9.5382   -6.8797 H   0  0  0  0  0  0  0  0  0  0  0  0
   -8.7637    7.8538   -7.4676 H   0  0  0  0  0  0  0  0  0  0  0  0
   -9.0445    7.5505   -5.2556 H   0  0  0  0  0  0  0  0  0  0  0  0
  -10.7152    7.8584   -5.8133 H   0  0  0  0  0  0  0  0  0  0  0  0
  -12.5161    8.5043   -6.9433 H   0  0  0  0  0  0  0  0  0  0  0  0
  -12.8243    5.9167   -8.1219 H   0  0  0  0  0  0  0  0  0  0  0  0
  -15.1508    6.0771   -7.1320 H   0  0  0  0  0  0  0  0  0  0  0  0
  -14.6001    7.5931   -6.4316 H   0  0  0  0  0  0  0  0  0  0  0  0
  -12.7111    6.3843   -5.4097 H   0  0  0  0  0  0  0  0  0  0  0  0
  -13.4401    4.8768   -6.0237 H   0  0  0  0  0  0  0  0  0  0  0  0
  -14.2727    9.1163   -8.7875 H   0  0  0  0  0  0  0  0  0  0  0  0
  -15.9426    8.0739  -10.8674 H   0  0  0  0  0  0  0  0  0  0  0  0
  -16.9383    9.8583  -10.3761 H   0  0  0  0  0  0  0  0  0  0  0  0
  -16.2469   11.7889  -11.9840 H   0  0  0  0  0  0  0  0  0  0  0  0
  -15.1524   10.5308  -12.6089 H   0  0  0  0  0  0  0  0  0  0  0  0
  -14.4077   11.3893  -10.0035 H   0  0  0  0  0  0  0  0  0  0  0  0
  -15.3705   10.6664   -8.7372 H   0  0  0  0  0  0  0  0  0  0  0  0
  -16.0231   11.9772   -9.6907 H   0  0  0  0  0  0  0  0  0  0  0  0
  -18.1258   10.3422  -12.4675 H   0  0  0  0  0  0  0  0  0  0  0  0
  -17.0399    9.1009  -13.0446 H   0  0  0  0  0  0  0  0  0  0  0  0
  -17.1769   10.6128  -13.9095 H   0  0  0  0  0  0  0  0  0  0  0  0
  -12.6441    9.4539  -10.8450 H   0  0  0  0  0  0  0  0  0  0  0  0
  -12.3250    8.2994  -13.5599 H   0  0  0  0  0  0  0  0  0  0  0  0
  -11.0824    8.2065  -12.3350 H   0  0  0  0  0  0  0  0  0  0  0  0
  -11.5003    9.7496  -13.0403 H   0  0  0  0  0  0  0  0  0  0  0  0
  1 39  1  0  0  0  0
  1 40  1  0  0  0  0
  1 41  1  0  0  0  0
  2  1  1  0  0  0  0
  3  2  2  0  0  0  0
  4  2  1  0  0  0  0
  4 10  1  0  0  0  0
  5  4  1  0  0  0  0
  5 42  1  6  0  0  0
  6  5  1  0  0  0  0
  6 11  1  0  0  0  0
  7  6  2  0  0  0  0
  8  5  1  0  0  0  0
  8  9  1  0  0  0  0
  8 43  1  0  0  0  0
  8 44  1  0  0  0  0
  9 10  1  0  0  0  0
  9 45  1  0  0  0  0
  9 46  1  0  0  0  0
 10 47  1  0  0  0  0
 10 48  1  0  0  0  0
 11 49  1  0  0  0  0
 12 11  1  0  0  0  0
 12 15  1  0  0  0  0
 12 50  1  6  0  0  0
 13 12  1  0  0  0  0
 13 20  1  0  0  0  0
 14 13  2  0  0  0  0
 15 16  1  0  0  0  0
 15 51  1  0  0  0  0
 15 52  1  0  0  0  0
 16 17  1  0  0  0  0
 16 53  1  0  0  0  0
 16 54  1  0  0  0  0
 17 19  1  0  0  0  0
 18 17  2  0  0  0  0
 20 55  1  0  0  0  0
 21 20  1  0  0  0  0
 21 24  1  0  0  0  0
 21 56  1  6  0  0  0
 22 21  1  0  0  0  0
 23 22  2  0  0  0  0
 24 25  1  0  0  0  0
 24 57  1  0  0  0  0
 24 58  1  0  0  0  0
 25 26  1  0  0  0  0
 25 59  1  0  0  0  0
 25 60  1  0  0  0  0
 26 27  1  0  0  0  0
 28 26  2  0  0  0  0
 29 22  1  0  0  0  0
 29 61  1  0  0  0  0
 30 33  1  0  0  0  0
 30 29  1  0  0  0  0
 30 62  1  6  0  0  0
 31 37  1  0  0  0  0
 31 30  1  0  0  0  0
 32 31  2  0  0  0  0
 33 35  1  0  0  0  0
 33 63  1  1  0  0  0
 34 33  1  0  0  0  0
 34 64  1  0  0  0  0
 34 65  1  0  0  0  0
 35 66  1  0  0  0  0
 35 67  1  0  0  0  0
 35 68  1  0  0  0  0
 36 34  1  0  0  0  0
 36 69  1  0  0  0  0
 36 70  1  0  0  0  0
 36 71  1  0  0  0  0
 37 72  1  0  0  0  0
 38 37  1  0  0  0  0
 38 73  1  0  0  0  0
 38 74  1  0  0  0  0
 38 75  1  0  0  0  0
M  CHG  1  19  -1
M  CHG  1  27  -1
M  END
>  <MODEL>
       0

$$$$
selected_4mers/PEEI/781_noH.pdb
 OpenBabel03042518353D

 75 75  0  0  1  0  0  0  0  0999 V2000
   21.9530   -6.4910   45.2640 C   0  0  0  0  0  0  0  0  0  0  0  0
   22.1680   -6.7830   43.7990 C   0  0  0  0  0  0  0  0  0  0  0  0
   21.2960   -7.3180   43.0620 O   0  0  0  0  0  0  0  0  0  0  0  0
   23.3910   -6.6020   43.2730 N   0  0  0  0  0  0  0  0  0  0  0  0
   23.7730   -7.0110   41.9440 C   0  0  2  0  0  0  0  0  0  0  0  0
   23.3990   -8.4100   41.5450 C   0  0  0  0  0  0  0  0  0  0  0  0
   22.9360   -8.7490   40.4410 O   0  0  0  0  0  0  0  0  0  0  0  0
   25.3160   -6.8260   41.8860 C   0  0  0  0  0  0  0  0  0  0  0  0
   25.5230   -5.6810   42.8560 C   0  0  0  0  0  0  0  0  0  0  0  0
   24.5660   -5.9950   43.9890 C   0  0  0  0  0  0  0  0  0  0  0  0
   23.5070   -9.3570   42.5020 N   0  0  0  0  0  0  0  0  0  0  0  0
   23.1240  -10.7330   42.3150 C   0  0  2  0  0  0  0  0  0  0  0  0
   21.6700  -10.9570   41.8940 C   0  0  0  0  0  0  0  0  0  0  0  0
   21.3070  -11.9950   41.3090 O   0  0  0  0  0  0  0  0  0  0  0  0
   23.3560  -11.4000   43.6900 C   0  0  0  0  0  0  0  0  0  0  0  0
   23.9140  -12.7630   43.8300 C   0  0  0  0  0  0  0  0  0  0  0  0
   25.1440  -12.9240   42.9440 C   0  0  0  0  0  0  0  0  0  0  0  0
   26.2580  -12.5120   43.2750 O   0  0  0  0  0  0  0  0  0  0  0  0
   24.8060  -13.4860   41.8850 O   0  0  0  0  0  0  0  0  0  0  0  0
   20.8060  -10.0480   42.3110 N   0  0  0  0  0  0  0  0  0  0  0  0
   19.3460  -10.0860   42.0900 C   0  0  2  0  0  0  0  0  0  0  0  0
   18.9700   -9.2990   40.8050 C   0  0  0  0  0  0  0  0  0  0  0  0
   17.7690   -9.0460   40.6770 O   0  0  0  0  0  0  0  0  0  0  0  0
   18.6580   -9.4650   43.3180 C   0  0  0  0  0  0  0  0  0  0  0  0
   18.9380  -10.2610   44.6220 C   0  0  0  0  0  0  0  0  0  0  0  0
   18.5610   -9.5060   45.8620 C   0  0  0  0  0  0  0  0  0  0  0  0
   18.7330   -8.3170   46.1060 O   0  0  0  0  0  0  0  0  0  0  0  0
   17.8640  -10.1870   46.7170 O   0  0  0  0  0  0  0  0  0  0  0  0
   19.9190   -8.9920   39.9580 N   0  0  0  0  0  0  0  0  0  0  0  0
   19.5980   -8.1960   38.7480 C   0  0  2  0  0  0  0  0  0  0  0  0
   19.9090   -9.0370   37.5330 C   0  0  0  0  0  0  0  0  0  0  0  0
   21.0320   -9.5980   37.4030 O   0  0  0  0  0  0  0  0  0  0  0  0
   20.5030   -6.9560   38.7330 C   0  0  2  0  0  0  0  0  0  0  0  0
   20.2460   -6.0400   39.9370 C   0  0  0  0  0  0  0  0  0  0  0  0
   20.2190   -6.0930   37.4890 C   0  0  0  0  0  0  0  0  0  0  0  0
   21.2780   -4.9410   40.0840 C   0  0  0  0  0  0  0  0  0  0  0  0
   19.0130   -8.9650   36.5460 N   0  0  0  0  0  0  0  0  0  0  0  0
   19.2790   -9.4510   35.2040 C   0  0  0  0  0  0  0  0  0  0  0  0
   20.9325   -6.6851   45.5203 H   0  0  0  0  0  0  0  0  0  0  0  0
   22.1809   -5.4641   45.4602 H   0  0  0  0  0  0  0  0  0  0  0  0
   22.5932   -7.1167   45.8501 H   0  0  0  0  0  0  0  0  0  0  0  0
   23.2309   -6.4117   41.2427 H   0  0  0  0  0  0  0  0  0  0  0  0
   25.6412   -6.5661   40.9003 H   0  0  0  0  0  0  0  0  0  0  0  0
   25.8694   -7.7086   42.1304 H   0  0  0  0  0  0  0  0  0  0  0  0
   25.2796   -4.7446   42.3990 H   0  0  0  0  0  0  0  0  0  0  0  0
   26.5381   -5.5914   43.1824 H   0  0  0  0  0  0  0  0  0  0  0  0
   24.2817   -5.1054   44.5112 H   0  0  0  0  0  0  0  0  0  0  0  0
   24.9869   -6.6378   44.7336 H   0  0  0  0  0  0  0  0  0  0  0  0
   23.8685   -9.0914   43.3784 H   0  0  0  0  0  0  0  0  0  0  0  0
   23.7009  -11.1405   41.5113 H   0  0  0  0  0  0  0  0  0  0  0  0
   22.4027  -11.4182   44.1757 H   0  0  0  0  0  0  0  0  0  0  0  0
   24.1434  -10.7989   44.0945 H   0  0  0  0  0  0  0  0  0  0  0  0
   24.1898  -12.9285   44.8505 H   0  0  0  0  0  0  0  0  0  0  0  0
   23.1735  -13.4750   43.5307 H   0  0  0  0  0  0  0  0  0  0  0  0
   21.1660   -9.2804   42.8114 H   0  0  0  0  0  0  0  0  0  0  0  0
   19.0227  -11.0977   41.9599 H   0  0  0  0  0  0  0  0  0  0  0  0
   17.6019   -9.4468   43.1471 H   0  0  0  0  0  0  0  0  0  0  0  0
   19.0524   -8.4788   43.4478 H   0  0  0  0  0  0  0  0  0  0  0  0
   19.9828  -10.4878   44.6653 H   0  0  0  0  0  0  0  0  0  0  0  0
   18.3379  -11.1464   44.5916 H   0  0  0  0  0  0  0  0  0  0  0  0
   20.8432   -9.2884   40.1232 H   0  0  0  0  0  0  0  0  0  0  0  0
   18.5683   -7.9052   38.7467 H   0  0  0  0  0  0  0  0  0  0  0  0
   21.5060   -7.3284   38.7470 H   0  0  0  0  0  0  0  0  0  0  0  0
   20.2556   -6.6361   40.8255 H   0  0  0  0  0  0  0  0  0  0  0  0
   19.2992   -5.5670   39.7793 H   0  0  0  0  0  0  0  0  0  0  0  0
   19.2077   -5.7450   37.5197 H   0  0  0  0  0  0  0  0  0  0  0  0
   20.3677   -6.6795   36.6065 H   0  0  0  0  0  0  0  0  0  0  0  0
   20.8843   -5.2551   37.4767 H   0  0  0  0  0  0  0  0  0  0  0  0
   22.2423   -5.3763   40.2439 H   0  0  0  0  0  0  0  0  0  0  0  0
   21.0233   -4.3219   40.9187 H   0  0  0  0  0  0  0  0  0  0  0  0
   21.2974   -4.3485   39.1933 H   0  0  0  0  0  0  0  0  0  0  0  0
   18.1338   -8.5650   36.7364 H   0  0  0  0  0  0  0  0  0  0  0  0
   20.2696   -9.8532   35.1601 H   0  0  0  0  0  0  0  0  0  0  0  0
   19.1909   -8.6430   34.5081 H   0  0  0  0  0  0  0  0  0  0  0  0
   18.5725  -10.2150   34.9548 H   0  0  0  0  0  0  0  0  0  0  0  0
  1 39  1  0  0  0  0
  1 40  1  0  0  0  0
  1 41  1  0  0  0  0
  2  1  1  0  0  0  0
  3  2  2  0  0  0  0
  4  2  1  0  0  0  0
  4 10  1  0  0  0  0
  5  4  1  0  0  0  0
  5 42  1  6  0  0  0
  6  5  1  0  0  0  0
  6 11  1  0  0  0  0
  7  6  2  0  0  0  0
  8  5  1  0  0  0  0
  8  9  1  0  0  0  0
  8 43  1  0  0  0  0
  8 44  1  0  0  0  0
  9 10  1  0  0  0  0
  9 45  1  0  0  0  0
  9 46  1  0  0  0  0
 10 47  1  0  0  0  0
 10 48  1  0  0  0  0
 11 49  1  0  0  0  0
 12 11  1  0  0  0  0
 12 15  1  0  0  0  0
 12 50  1  6  0  0  0
 13 20  1  0  0  0  0
 13 12  1  0  0  0  0
 14 13  2  0  0  0  0
 15 16  1  0  0  0  0
 15 51  1  0  0  0  0
 15 52  1  0  0  0  0
 16 53  1  0  0  0  0
 16 54  1  0  0  0  0
 17 18  1  0  0  0  0
 17 16  1  0  0  0  0
 19 17  2  0  0  0  0
 20 55  1  0  0  0  0
 21 20  1  0  0  0  0
 21 24  1  0  0  0  0
 21 56  1  6  0  0  0
 22 21  1  0  0  0  0
 23 22  2  0  0  0  0
 24 25  1  0  0  0  0
 24 57  1  0  0  0  0
 24 58  1  0  0  0  0
 25 26  1  0  0  0  0
 25 59  1  0  0  0  0
 25 60  1  0  0  0  0
 26 27  2  0  0  0  0
 26 28  1  0  0  0  0
 29 22  1  0  0  0  0
 29 61  1  0  0  0  0
 30 29  1  0  0  0  0
 30 62  1  1  0  0  0
 31 30  1  0  0  0  0
 32 31  2  0  0  0  0
 33 30  1  0  0  0  0
 33 34  1  0  0  0  0
 33 63  1  6  0  0  0
 34 36  1  0  0  0  0
 34 64  1  0  0  0  0
 34 65  1  0  0  0  0
 35 33  1  0  0  0  0
 35 66  1  0  0  0  0
 35 67  1  0  0  0  0
 35 68  1  0  0  0  0
 36 69  1  0  0  0  0
 36 70  1  0  0  0  0
 36 71  1  0  0  0  0
 37 31  1  0  0  0  0
 37 72  1  0  0  0  0
 38 37  1  0  0  0  0
 38 73  1  0  0  0  0
 38 74  1  0  0  0  0
 38 75  1  0  0  0  0
M  CHG  1  18  -1
M  CHG  1  28  -1
M  END
>  <MODEL>
       0

$$$$
selected_4mers/PEEI/782_noH.pdb
 OpenBabel03042518353D

 75 75  0  0  1  0  0  0  0  0999 V2000
   75.8540   35.3120   47.3180 C   0  0  0  0  0  0  0  0  0  0  0  0
   76.2760   34.6810   48.6460 C   0  0  0  0  0  0  0  0  0  0  0  0
   77.2190   35.1510   49.2690 O   0  0  0  0  0  0  0  0  0  0  0  0
   75.5650   33.6280   49.0830 N   0  0  0  0  0  0  0  0  0  0  0  0
   75.8430   33.0840   50.4110 C   0  0  2  0  0  0  0  0  0  0  0  0
   77.2740   32.5910   50.6050 C   0  0  0  0  0  0  0  0  0  0  0  0
   77.8710   32.8330   51.6600 O   0  0  0  0  0  0  0  0  0  0  0  0
   74.7870   31.9830   50.5880 C   0  0  0  0  0  0  0  0  0  0  0  0
   74.2630   31.6970   49.2270 C   0  0  0  0  0  0  0  0  0  0  0  0
   74.4470   32.9440   48.4160 C   0  0  0  0  0  0  0  0  0  0  0  0
   77.8550   31.9480   49.6020 N   0  0  0  0  0  0  0  0  0  0  0  0
   79.2420   31.5290   49.7120 C   0  0  2  0  0  0  0  0  0  0  0  0
   80.2050   32.7280   49.8370 C   0  0  0  0  0  0  0  0  0  0  0  0
   81.2500   32.6380   50.4820 O   0  0  0  0  0  0  0  0  0  0  0  0
   79.6220   30.6500   48.5070 C   0  0  0  0  0  0  0  0  0  0  0  0
   79.6430   31.3620   47.1770 C   0  0  0  0  0  0  0  0  0  0  0  0
   78.3050   31.3850   46.3830 C   0  0  0  0  0  0  0  0  0  0  0  0
   77.1670   31.3100   46.9580 O   0  0  0  0  0  0  0  0  0  0  0  0
   78.4330   31.4920   45.1280 O   0  0  0  0  0  0  0  0  0  0  0  0
   79.8550   33.8550   49.2130 N   0  0  0  0  0  0  0  0  0  0  0  0
   80.7030   35.0430   49.2720 C   0  0  2  0  0  0  0  0  0  0  0  0
   80.5820   35.7550   50.6190 C   0  0  0  0  0  0  0  0  0  0  0  0
   81.5790   36.2530   51.1500 O   0  0  0  0  0  0  0  0  0  0  0  0
   80.3890   35.9980   48.1150 C   0  0  0  0  0  0  0  0  0  0  0  0
   80.7590   35.3970   46.7660 C   0  0  0  0  0  0  0  0  0  0  0  0
   80.5120   36.3090   45.5790 C   0  0  0  0  0  0  0  0  0  0  0  0
   80.2960   37.5120   45.7520 O   0  0  0  0  0  0  0  0  0  0  0  0
   80.5570   35.7890   44.4410 O   0  0  0  0  0  0  0  0  0  0  0  0
   79.3740   35.7720   51.1710 N   0  0  0  0  0  0  0  0  0  0  0  0
   79.1600   36.2640   52.5250 C   0  0  2  0  0  0  0  0  0  0  0  0
   79.9730   35.4340   53.5190 C   0  0  0  0  0  0  0  0  0  0  0  0
   80.7160   35.9930   54.3270 O   0  0  0  0  0  0  0  0  0  0  0  0
   77.6630   36.2200   52.9110 C   0  0  2  0  0  0  0  0  0  0  0  0
   76.8810   37.2560   52.1000 C   0  0  0  0  0  0  0  0  0  0  0  0
   77.4830   36.4800   54.4020 C   0  0  0  0  0  0  0  0  0  0  0  0
   75.3760   37.1430   52.2720 C   0  0  0  0  0  0  0  0  0  0  0  0
   79.8280   34.1180   53.4480 N   0  0  0  0  0  0  0  0  0  0  0  0
   80.5670   33.2360   54.3590 C   0  0  0  0  0  0  0  0  0  0  0  0
   75.0195   34.7753   46.9173 H   0  0  0  0  0  0  0  0  0  0  0  0
   76.6703   35.2694   46.6275 H   0  0  0  0  0  0  0  0  0  0  0  0
   75.5770   36.3327   47.4802 H   0  0  0  0  0  0  0  0  0  0  0  0
   75.7750   33.8401   51.1651 H   0  0  0  0  0  0  0  0  0  0  0  0
   75.2318   31.1049   51.0074 H   0  0  0  0  0  0  0  0  0  0  0  0
   74.0067   32.2909   51.2522 H   0  0  0  0  0  0  0  0  0  0  0  0
   74.8073   30.8882   48.7861 H   0  0  0  0  0  0  0  0  0  0  0  0
   73.2314   31.4155   49.2662 H   0  0  0  0  0  0  0  0  0  0  0  0
   74.6940   32.7074   47.4021 H   0  0  0  0  0  0  0  0  0  0  0  0
   73.5619   33.5433   48.3680 H   0  0  0  0  0  0  0  0  0  0  0  0
   77.3463   31.7541   48.7817 H   0  0  0  0  0  0  0  0  0  0  0  0
   79.3386   30.9573   50.6113 H   0  0  0  0  0  0  0  0  0  0  0  0
   80.5982   30.2491   48.6838 H   0  0  0  0  0  0  0  0  0  0  0  0
   78.8611   29.9014   48.4324 H   0  0  0  0  0  0  0  0  0  0  0  0
   79.9331   32.3764   47.3554 H   0  0  0  0  0  0  0  0  0  0  0  0
   80.3252   30.8064   46.5681 H   0  0  0  0  0  0  0  0  0  0  0  0
   79.0122   33.8860   48.7051 H   0  0  0  0  0  0  0  0  0  0  0  0
   81.7179   34.7194   49.1710 H   0  0  0  0  0  0  0  0  0  0  0  0
   79.3414   36.2159   48.1209 H   0  0  0  0  0  0  0  0  0  0  0  0
   80.9688   36.8868   48.2521 H   0  0  0  0  0  0  0  0  0  0  0  0
   81.7997   35.1489   46.7853 H   0  0  0  0  0  0  0  0  0  0  0  0
   80.1267   34.5446   46.6302 H   0  0  0  0  0  0  0  0  0  0  0  0
   78.6043   35.4439   50.6521 H   0  0  0  0  0  0  0  0  0  0  0  0
   79.4843   37.2831   52.5586 H   0  0  0  0  0  0  0  0  0  0  0  0
   77.2853   35.2437   52.6894 H   0  0  0  0  0  0  0  0  0  0  0  0
   77.1861   38.2327   52.4128 H   0  0  0  0  0  0  0  0  0  0  0  0
   77.0960   37.0776   51.0671 H   0  0  0  0  0  0  0  0  0  0  0  0
   77.8561   37.4538   54.6418 H   0  0  0  0  0  0  0  0  0  0  0  0
   78.0228   35.7438   54.9601 H   0  0  0  0  0  0  0  0  0  0  0  0
   76.4438   36.4250   54.6507 H   0  0  0  0  0  0  0  0  0  0  0  0
   75.1201   37.3158   53.2965 H   0  0  0  0  0  0  0  0  0  0  0  0
   75.0568   36.1628   51.9851 H   0  0  0  0  0  0  0  0  0  0  0  0
   74.8909   37.8708   51.6556 H   0  0  0  0  0  0  0  0  0  0  0  0
   79.2196   33.7293   52.7787 H   0  0  0  0  0  0  0  0  0  0  0  0
   81.1744   33.8265   55.0126 H   0  0  0  0  0  0  0  0  0  0  0  0
   81.1903   32.5777   53.7906 H   0  0  0  0  0  0  0  0  0  0  0  0
   79.8751   32.6607   54.9379 H   0  0  0  0  0  0  0  0  0  0  0  0
  1  2  1  0  0  0  0
  1 39  1  0  0  0  0
  1 40  1  0  0  0  0
  1 41  1  0  0  0  0
  2  4  1  0  0  0  0
  2  3  2  0  0  0  0
  4  5  1  0  0  0  0
  5  8  1  0  0  0  0
  5  6  1  0  0  0  0
  5 42  1  1  0  0  0
  6  7  2  0  0  0  0
  8 43  1  0  0  0  0
  8 44  1  0  0  0  0
  9  8  1  0  0  0  0
  9 45  1  0  0  0  0
  9 46  1  0  0  0  0
 10  4  1  0  0  0  0
 10  9  1  0  0  0  0
 10 47  1  0  0  0  0
 10 48  1  0  0  0  0
 11 12  1  0  0  0  0
 11  6  1  0  0  0  0
 11 49  1  0  0  0  0
 12 13  1  0  0  0  0
 12 50  1  1  0  0  0
 13 14  2  0  0  0  0
 15 12  1  0  0  0  0
 15 51  1  0  0  0  0
 15 52  1  0  0  0  0
 16 15  1  0  0  0  0
 16 53  1  0  0  0  0
 16 54  1  0  0  0  0
 17 18  1  0  0  0  0
 17 16  1  0  0  0  0
 19 17  2  0  0  0  0
 20 21  1  0  0  0  0
 20 13  1  0  0  0  0
 20 55  1  0  0  0  0
 21 22  1  0  0  0  0
 21 56  1  6  0  0  0
 22 23  2  0  0  0  0
 22 29  1  0  0  0  0
 24 21  1  0  0  0  0
 24 57  1  0  0  0  0
 24 58  1  0  0  0  0
 25 24  1  0  0  0  0
 25 59  1  0  0  0  0
 25 60  1  0  0  0  0
 26 27  1  0  0  0  0
 26 25  1  0  0  0  0
 28 26  2  0  0  0  0
 29 30  1  0  0  0  0
 29 61  1  0  0  0  0
 30 33  1  0  0  0  0
 30 31  1  0  0  0  0
 30 62  1  1  0  0  0
 31 32  2  0  0  0  0
 33 35  1  0  0  0  0
 33 63  1  6  0  0  0
 34 36  1  0  0  0  0
 34 33  1  0  0  0  0
 34 64  1  0  0  0  0
 34 65  1  0  0  0  0
 35 66  1  0  0  0  0
 35 67  1  0  0  0  0
 35 68  1  0  0  0  0
 36 69  1  0  0  0  0
 36 70  1  0  0  0  0
 36 71  1  0  0  0  0
 37 31  1  0  0  0  0
 37 38  1  0  0  0  0
 37 72  1  0  0  0  0
 38 73  1  0  0  0  0
 38 74  1  0  0  0  0
 38 75  1  0  0  0  0
M  CHG  1  18  -1
M  CHG  1  27  -1
M  END
>  <MODEL>
       0

$$$$
selected_4mers/PEEI/783_noH.pdb
 OpenBabel03042518353D

 75 75  0  0  1  0  0  0  0  0999 V2000
   16.5900   12.2750   -2.3430 C   0  0  0  0  0  0  0  0  0  0  0  0
   17.7350   12.8110   -1.5100 C   0  0  0  0  0  0  0  0  0  0  0  0
   17.5730   13.7970   -0.7630 O   0  0  0  0  0  0  0  0  0  0  0  0
   18.9280   12.2050   -1.6470 N   0  0  0  0  0  0  0  0  0  0  0  0
   20.1560   12.8150   -1.0760 C   0  0  2  0  0  0  0  0  0  0  0  0
   20.3250   14.2990   -1.5040 C   0  0  0  0  0  0  0  0  0  0  0  0
   20.6820   15.1270   -0.6920 O   0  0  0  0  0  0  0  0  0  0  0  0
   21.2520   11.9180   -1.6260 C   0  0  0  0  0  0  0  0  0  0  0  0
   20.5850   10.5550   -1.7300 C   0  0  0  0  0  0  0  0  0  0  0  0
   19.2070   10.8890   -2.2600 C   0  0  0  0  0  0  0  0  0  0  0  0
   19.9730   14.6210   -2.7360 N   0  0  0  0  0  0  0  0  0  0  0  0
   20.0790   16.0050   -3.2330 C   0  0  2  0  0  0  0  0  0  0  0  0
   19.2180   16.9250   -2.3840 C   0  0  0  0  0  0  0  0  0  0  0  0
   19.6490   17.9400   -1.9040 O   0  0  0  0  0  0  0  0  0  0  0  0
   19.6600   16.1400   -4.6770 C   0  0  0  0  0  0  0  0  0  0  0  0
   19.6430   17.6250   -5.1000 C   0  0  0  0  0  0  0  0  0  0  0  0
   19.0870   17.8850   -6.4950 C   0  0  0  0  0  0  0  0  0  0  0  0
   18.2620   17.0830   -6.9970 O   0  0  0  0  0  0  0  0  0  0  0  0
   19.4420   18.9310   -7.0520 O   0  0  0  0  0  0  0  0  0  0  0  0
   17.9590   16.5140   -2.1740 N   0  0  0  0  0  0  0  0  0  0  0  0
   17.0430   17.2950   -1.4160 C   0  0  2  0  0  0  0  0  0  0  0  0
   17.4290   17.4290    0.0580 C   0  0  0  0  0  0  0  0  0  0  0  0
   17.2940   18.5070    0.6680 O   0  0  0  0  0  0  0  0  0  0  0  0
   15.6430   16.7350   -1.5930 C   0  0  0  0  0  0  0  0  0  0  0  0
   15.0720   17.0040   -3.0130 C   0  0  0  0  0  0  0  0  0  0  0  0
   13.7890   16.2600   -3.3240 C   0  0  0  0  0  0  0  0  0  0  0  0
   13.5580   15.1260   -2.7940 O   0  0  0  0  0  0  0  0  0  0  0  0
   13.0120   16.8090   -4.1500 O   0  0  0  0  0  0  0  0  0  0  0  0
   17.9640   16.3760    0.6250 N   0  0  0  0  0  0  0  0  0  0  0  0
   18.5500   16.4450    1.9670 C   0  0  2  0  0  0  0  0  0  0  0  0
   19.6800   17.4580    2.0590 C   0  0  0  0  0  0  0  0  0  0  0  0
   19.7020   18.2930    2.9540 O   0  0  0  0  0  0  0  0  0  0  0  0
   19.0510   15.0760    2.3810 C   0  0  2  0  0  0  0  0  0  0  0  0
   17.8440   14.0830    2.5320 C   0  0  0  0  0  0  0  0  0  0  0  0
   19.7990   15.1410    3.7260 C   0  0  0  0  0  0  0  0  0  0  0  0
   18.2630   12.5500    2.5950 C   0  0  0  0  0  0  0  0  0  0  0  0
   20.5670   17.4190    1.0870 N   0  0  0  0  0  0  0  0  0  0  0  0
   21.7460   18.3170    1.0170 C   0  0  0  0  0  0  0  0  0  0  0  0
   16.9262   11.4335   -2.9120 H   0  0  0  0  0  0  0  0  0  0  0  0
   16.2438   13.0392   -3.0071 H   0  0  0  0  0  0  0  0  0  0  0  0
   15.7908   11.9735   -1.6986 H   0  0  0  0  0  0  0  0  0  0  0  0
   20.1525   12.8631   -0.0071 H   0  0  0  0  0  0  0  0  0  0  0  0
   21.5768   12.2581   -2.5871 H   0  0  0  0  0  0  0  0  0  0  0  0
   22.1260   11.9056   -1.0089 H   0  0  0  0  0  0  0  0  0  0  0  0
   21.1141    9.9188   -2.4084 H   0  0  0  0  0  0  0  0  0  0  0  0
   20.5620   10.0251   -0.8007 H   0  0  0  0  0  0  0  0  0  0  0  0
   18.4880   10.1597   -1.9500 H   0  0  0  0  0  0  0  0  0  0  0  0
   19.1566   10.9012   -3.3287 H   0  0  0  0  0  0  0  0  0  0  0  0
   19.6316   13.9198   -3.3368 H   0  0  0  0  0  0  0  0  0  0  0  0
   21.1109   16.2796   -3.1647 H   0  0  0  0  0  0  0  0  0  0  0  0
   20.3509   15.6059   -5.2953 H   0  0  0  0  0  0  0  0  0  0  0  0
   18.6752   15.7372   -4.7901 H   0  0  0  0  0  0  0  0  0  0  0  0
   19.0438   18.1647   -4.3968 H   0  0  0  0  0  0  0  0  0  0  0  0
   20.6638   17.9452   -5.1177 H   0  0  0  0  0  0  0  0  0  0  0  0
   17.6627   15.6546   -2.5520 H   0  0  0  0  0  0  0  0  0  0  0  0
   17.0742   18.2953   -1.7946 H   0  0  0  0  0  0  0  0  0  0  0  0
   15.6725   15.6780   -1.4292 H   0  0  0  0  0  0  0  0  0  0  0  0
   15.0047   17.2238   -0.8869 H   0  0  0  0  0  0  0  0  0  0  0  0
   14.8808   18.0529   -3.1035 H   0  0  0  0  0  0  0  0  0  0  0  0
   15.8051   16.6517   -3.7083 H   0  0  0  0  0  0  0  0  0  0  0  0
   17.9727   15.5197    0.1392 H   0  0  0  0  0  0  0  0  0  0  0  0
   17.7783   16.7703    2.6330 H   0  0  0  0  0  0  0  0  0  0  0  0
   19.7214   14.7339    1.6205 H   0  0  0  0  0  0  0  0  0  0  0  0
   17.1918   14.2182    1.6946 H   0  0  0  0  0  0  0  0  0  0  0  0
   17.3738   14.3112    3.4657 H   0  0  0  0  0  0  0  0  0  0  0  0
   19.1315   15.4829    4.4892 H   0  0  0  0  0  0  0  0  0  0  0  0
   20.6232   15.8183    3.6434 H   0  0  0  0  0  0  0  0  0  0  0  0
   20.1619   14.1669    3.9797 H   0  0  0  0  0  0  0  0  0  0  0  0
   18.7401   12.2727    1.6783 H   0  0  0  0  0  0  0  0  0  0  0  0
   17.3907   11.9475    2.7396 H   0  0  0  0  0  0  0  0  0  0  0  0
   18.9401   12.3985    3.4095 H   0  0  0  0  0  0  0  0  0  0  0  0
   20.4412   16.7585    0.3679 H   0  0  0  0  0  0  0  0  0  0  0  0
   21.7452   18.9732    1.8621 H   0  0  0  0  0  0  0  0  0  0  0  0
   21.7017   18.8942    0.1172 H   0  0  0  0  0  0  0  0  0  0  0  0
   22.6413   17.7311    1.0212 H   0  0  0  0  0  0  0  0  0  0  0  0
  1  2  1  0  0  0  0
  1 39  1  0  0  0  0
  1 40  1  0  0  0  0
  1 41  1  0  0  0  0
  2  3  2  0  0  0  0
  4  2  1  0  0  0  0
  4  5  1  0  0  0  0
  5 42  1  1  0  0  0
  6  5  1  0  0  0  0
  6  7  2  0  0  0  0
  8  5  1  0  0  0  0
  8 43  1  0  0  0  0
  8 44  1  0  0  0  0
  9  8  1  0  0  0  0
  9 45  1  0  0  0  0
  9 46  1  0  0  0  0
 10  9  1  0  0  0  0
 10  4  1  0  0  0  0
 10 47  1  0  0  0  0
 10 48  1  0  0  0  0
 11  6  1  0  0  0  0
 11 49  1  0  0  0  0
 12 11  1  0  0  0  0
 12 13  1  0  0  0  0
 12 50  1  1  0  0  0
 13 20  1  0  0  0  0
 13 14  2  0  0  0  0
 15 12  1  0  0  0  0
 15 51  1  0  0  0  0
 15 52  1  0  0  0  0
 16 15  1  0  0  0  0
 16 53  1  0  0  0  0
 16 54  1  0  0  0  0
 17 16  1  0  0  0  0
 18 17  1  0  0  0  0
 19 17  2  0  0  0  0
 20 21  1  0  0  0  0
 20 55  1  0  0  0  0
 21 22  1  0  0  0  0
 21 56  1  6  0  0  0
 22 29  1  0  0  0  0
 22 23  2  0  0  0  0
 24 21  1  0  0  0  0
 24 57  1  0  0  0  0
 24 58  1  0  0  0  0
 25 24  1  0  0  0  0
 25 59  1  0  0  0  0
 25 60  1  0  0  0  0
 26 25  1  0  0  0  0
 26 27  1  0  0  0  0
 28 26  2  0  0  0  0
 29 30  1  0  0  0  0
 29 61  1  0  0  0  0
 30 31  1  0  0  0  0
 30 33  1  0  0  0  0
 30 62  1  1  0  0  0
 31 32  2  0  0  0  0
 33 34  1  0  0  0  0
 33 35  1  0  0  0  0
 33 63  1  6  0  0  0
 34 36  1  0  0  0  0
 34 64  1  0  0  0  0
 34 65  1  0  0  0  0
 35 66  1  0  0  0  0
 35 67  1  0  0  0  0
 35 68  1  0  0  0  0
 36 69  1  0  0  0  0
 36 70  1  0  0  0  0
 36 71  1  0  0  0  0
 37 31  1  0  0  0  0
 37 72  1  0  0  0  0
 38 37  1  0  0  0  0
 38 73  1  0  0  0  0
 38 74  1  0  0  0  0
 38 75  1  0  0  0  0
M  CHG  1  18  -1
M  CHG  1  27  -1
M  END
>  <MODEL>
       0

$$$$
selected_4mers/PEEI/784_noH.pdb
 OpenBabel03042518353D

 75 75  0  0  1  0  0  0  0  0999 V2000
   19.7830   19.9810   42.1080 C   0  0  0  0  0  0  0  0  0  0  0  0
   19.5650   19.6920   43.5810 C   0  0  0  0  0  0  0  0  0  0  0  0
   18.5160   20.0830   44.1230 O   0  0  0  0  0  0  0  0  0  0  0  0
   20.5230   18.9900   44.2220 N   0  0  0  0  0  0  0  0  0  0  0  0
   20.4640   18.8190   45.6620 C   0  0  2  0  0  0  0  0  0  0  0  0
   20.2210   20.1190   46.4080 C   0  0  0  0  0  0  0  0  0  0  0  0
   19.4900   20.1070   47.4020 O   0  0  0  0  0  0  0  0  0  0  0  0
   21.8270   18.2070   46.0070 C   0  0  0  0  0  0  0  0  0  0  0  0
   22.1730   17.3970   44.7730 C   0  0  0  0  0  0  0  0  0  0  0  0
   21.6490   18.2310   43.6230 C   0  0  0  0  0  0  0  0  0  0  0  0
   20.8120   21.2250   45.9490 N   0  0  0  0  0  0  0  0  0  0  0  0
   20.5940   22.5070   46.6350 C   0  0  2  0  0  0  0  0  0  0  0  0
   19.1460   23.0140   46.5360 C   0  0  0  0  0  0  0  0  0  0  0  0
   18.5930   23.4720   47.5460 O   0  0  0  0  0  0  0  0  0  0  0  0
   21.6120   23.5480   46.1730 C   0  0  0  0  0  0  0  0  0  0  0  0
   21.8580   24.6440   47.1650 C   0  0  0  0  0  0  0  0  0  0  0  0
   21.1090   25.9500   46.8680 C   0  0  0  0  0  0  0  0  0  0  0  0
   20.0870   25.9410   46.1600 O   0  0  0  0  0  0  0  0  0  0  0  0
   21.5470   27.0090   47.3830 O   0  0  0  0  0  0  0  0  0  0  0  0
   18.5140   22.8840   45.3840 N   0  0  0  0  0  0  0  0  0  0  0  0
   17.1220   23.2130   45.1990 C   0  0  2  0  0  0  0  0  0  0  0  0
   16.2190   22.2980   46.0230 C   0  0  0  0  0  0  0  0  0  0  0  0
   15.2120   22.7460   46.5910 O   0  0  0  0  0  0  0  0  0  0  0  0
   16.7720   23.1020   43.7280 C   0  0  0  0  0  0  0  0  0  0  0  0
   17.4000   24.2580   42.9610 C   0  0  0  0  0  0  0  0  0  0  0  0
   17.3250   24.0610   41.4920 C   0  0  0  0  0  0  0  0  0  0  0  0
   16.9390   22.9850   41.0140 O   0  0  0  0  0  0  0  0  0  0  0  0
   17.6990   25.0110   40.7820 O   0  0  0  0  0  0  0  0  0  0  0  0
   16.5690   21.0200   46.0950 N   0  0  0  0  0  0  0  0  0  0  0  0
   15.8280   20.1140   46.9560 C   0  0  2  0  0  0  0  0  0  0  0  0
   15.9350   20.5570   48.4210 C   0  0  0  0  0  0  0  0  0  0  0  0
   14.9170   20.5960   49.1330 O   0  0  0  0  0  0  0  0  0  0  0  0
   16.2430   18.6650   46.6750 C   0  0  2  0  0  0  0  0  0  0  0  0
   15.8310   18.3120   45.2350 C   0  0  0  0  0  0  0  0  0  0  0  0
   15.5620   17.7160   47.6570 C   0  0  0  0  0  0  0  0  0  0  0  0
   16.4430   17.0390   44.7250 C   0  0  0  0  0  0  0  0  0  0  0  0
   17.1310   20.9350   48.8690 N   0  0  0  0  0  0  0  0  0  0  0  0
   17.3150   21.4370   50.2380 C   0  0  0  0  0  0  0  0  0  0  0  0
   18.9538   20.5402   41.7277 H   0  0  0  0  0  0  0  0  0  0  0  0
   19.8669   19.0586   41.5722 H   0  0  0  0  0  0  0  0  0  0  0  0
   20.6821   20.5480   41.9850 H   0  0  0  0  0  0  0  0  0  0  0  0
   19.6401   18.2035   45.9574 H   0  0  0  0  0  0  0  0  0  0  0  0
   22.5563   18.9705   46.1804 H   0  0  0  0  0  0  0  0  0  0  0  0
   21.8056   17.6180   46.9000 H   0  0  0  0  0  0  0  0  0  0  0  0
   23.2313   17.2615   44.6923 H   0  0  0  0  0  0  0  0  0  0  0  0
   21.7481   16.4152   44.7945 H   0  0  0  0  0  0  0  0  0  0  0  0
   22.4047   18.8946   43.2578 H   0  0  0  0  0  0  0  0  0  0  0  0
   21.3492   17.6382   42.7842 H   0  0  0  0  0  0  0  0  0  0  0  0
   21.3915   21.1821   45.1543 H   0  0  0  0  0  0  0  0  0  0  0  0
   20.7532   22.3326   47.6786 H   0  0  0  0  0  0  0  0  0  0  0  0
   21.2539   23.9892   45.2664 H   0  0  0  0  0  0  0  0  0  0  0  0
   22.5417   23.0345   46.0429 H   0  0  0  0  0  0  0  0  0  0  0  0
   22.9069   24.8553   47.1765 H   0  0  0  0  0  0  0  0  0  0  0  0
   21.4924   24.2905   48.1064 H   0  0  0  0  0  0  0  0  0  0  0  0
   19.0197   22.5446   44.6105 H   0  0  0  0  0  0  0  0  0  0  0  0
   16.9628   24.2161   45.5357 H   0  0  0  0  0  0  0  0  0  0  0  0
   17.1446   22.1758   43.3429 H   0  0  0  0  0  0  0  0  0  0  0  0
   15.7087   23.1377   43.6136 H   0  0  0  0  0  0  0  0  0  0  0  0
   16.8844   25.1606   43.2146 H   0  0  0  0  0  0  0  0  0  0  0  0
   18.4334   24.3108   43.2335 H   0  0  0  0  0  0  0  0  0  0  0  0
   17.3293   20.6863   45.5660 H   0  0  0  0  0  0  0  0  0  0  0  0
   14.7817   20.1543   46.7357 H   0  0  0  0  0  0  0  0  0  0  0  0
   17.3018   18.5642   46.7922 H   0  0  0  0  0  0  0  0  0  0  0  0
   14.7663   18.2107   45.2038 H   0  0  0  0  0  0  0  0  0  0  0  0
   16.1854   19.1021   44.6066 H   0  0  0  0  0  0  0  0  0  0  0  0
   14.5001   17.8007   47.5566 H   0  0  0  0  0  0  0  0  0  0  0  0
   15.8473   17.9716   48.6561 H   0  0  0  0  0  0  0  0  0  0  0  0
   15.8611   16.7104   47.4468 H   0  0  0  0  0  0  0  0  0  0  0  0
   16.1137   16.2185   45.3277 H   0  0  0  0  0  0  0  0  0  0  0  0
   17.5094   17.1116   44.7733 H   0  0  0  0  0  0  0  0  0  0  0  0
   16.1419   16.8799   43.7106 H   0  0  0  0  0  0  0  0  0  0  0  0
   17.9096   20.8768   48.2693 H   0  0  0  0  0  0  0  0  0  0  0  0
   16.3745   21.4343   50.7483 H   0  0  0  0  0  0  0  0  0  0  0  0
   17.6990   22.4351   50.2033 H   0  0  0  0  0  0  0  0  0  0  0  0
   18.0054   20.8071   50.7591 H   0  0  0  0  0  0  0  0  0  0  0  0
  1  2  1  0  0  0  0
  1 39  1  0  0  0  0
  1 40  1  0  0  0  0
  1 41  1  0  0  0  0
  2  3  2  0  0  0  0
  2  4  1  0  0  0  0
  4  5  1  0  0  0  0
  5  8  1  0  0  0  0
  5  6  1  0  0  0  0
  5 42  1  1  0  0  0
  6  7  2  0  0  0  0
  8 43  1  0  0  0  0
  8 44  1  0  0  0  0
  9  8  1  0  0  0  0
  9 45  1  0  0  0  0
  9 46  1  0  0  0  0
 10  4  1  0  0  0  0
 10  9  1  0  0  0  0
 10 47  1  0  0  0  0
 10 48  1  0  0  0  0
 11  6  1  0  0  0  0
 11 12  1  0  0  0  0
 11 49  1  0  0  0  0
 12 50  1  1  0  0  0
 13 12  1  0  0  0  0
 13 14  2  0  0  0  0
 15 12  1  0  0  0  0
 15 16  1  0  0  0  0
 15 51  1  0  0  0  0
 15 52  1  0  0  0  0
 16 53  1  0  0  0  0
 16 54  1  0  0  0  0
 17 16  1  0  0  0  0
 17 19  1  0  0  0  0
 18 17  2  0  0  0  0
 20 13  1  0  0  0  0
 20 55  1  0  0  0  0
 21 20  1  0  0  0  0
 21 22  1  0  0  0  0
 21 56  1  1  0  0  0
 22 29  1  0  0  0  0
 22 23  2  0  0  0  0
 24 21  1  0  0  0  0
 24 57  1  0  0  0  0
 24 58  1  0  0  0  0
 25 24  1  0  0  0  0
 25 59  1  0  0  0  0
 25 60  1  0  0  0  0
 26 25  1  0  0  0  0
 27 26  1  0  0  0  0
 28 26  2  0  0  0  0
 29 30  1  0  0  0  0
 29 61  1  0  0  0  0
 30 31  1  0  0  0  0
 30 62  1  6  0  0  0
 31 37  1  0  0  0  0
 31 32  2  0  0  0  0
 33 30  1  0  0  0  0
 33 35  1  0  0  0  0
 33 63  1  1  0  0  0
 34 33  1  0  0  0  0
 34 64  1  0  0  0  0
 34 65  1  0  0  0  0
 35 66  1  0  0  0  0
 35 67  1  0  0  0  0
 35 68  1  0  0  0  0
 36 34  1  0  0  0  0
 36 69  1  0  0  0  0
 36 70  1  0  0  0  0
 36 71  1  0  0  0  0
 37 38  1  0  0  0  0
 37 72  1  0  0  0  0
 38 73  1  0  0  0  0
 38 74  1  0  0  0  0
 38 75  1  0  0  0  0
M  CHG  1  19  -1
M  CHG  1  27  -1
M  END
>  <MODEL>
       0

$$$$
