selected_4mers/PELL/765_noH.pdb
 OpenBabel03042518353D

 79 79  0  0  1  0  0  0  0  0999 V2000
  -26.8230   78.1610   50.3140 C   0  0  0  0  0  0  0  0  0  0  0  0
  -26.3380   78.3770   51.7530 C   0  0  0  0  0  0  0  0  0  0  0  0
  -25.2260   77.9880   52.0940 O   0  0  0  0  0  0  0  0  0  0  0  0
  -27.1520   79.0340   52.6000 N   0  0  0  0  0  0  0  0  0  0  0  0
  -26.7990   79.3010   54.0040 C   0  0  2  0  0  0  0  0  0  0  0  0
  -26.5240   78.0320   54.8140 C   0  0  0  0  0  0  0  0  0  0  0  0
  -25.8380   78.0590   55.8590 O   0  0  0  0  0  0  0  0  0  0  0  0
  -28.0010   80.0870   54.5260 C   0  0  0  0  0  0  0  0  0  0  0  0
  -29.1330   79.6610   53.6070 C   0  0  0  0  0  0  0  0  0  0  0  0
  -28.4620   79.6210   52.2650 C   0  0  0  0  0  0  0  0  0  0  0  0
  -27.0630   76.9210   54.3230 N   0  0  0  0  0  0  0  0  0  0  0  0
  -26.8770   75.6290   54.9500 C   0  0  2  0  0  0  0  0  0  0  0  0
  -25.4690   75.1290   54.7410 C   0  0  0  0  0  0  0  0  0  0  0  0
  -25.0460   74.1830   55.4070 O   0  0  0  0  0  0  0  0  0  0  0  0
  -27.8630   74.6340   54.3690 C   0  0  0  0  0  0  0  0  0  0  0  0
  -29.2220   74.8510   54.9290 C   0  0  0  0  0  0  0  0  0  0  0  0
  -29.3050   74.2860   56.3170 C   0  0  0  0  0  0  0  0  0  0  0  0
  -29.4540   73.0480   56.4260 O   0  0  0  0  0  0  0  0  0  0  0  0
  -29.1960   75.0610   57.2940 O   0  0  0  0  0  0  0  0  0  0  0  0
  -24.7550   75.7520   53.8030 N   0  0  0  0  0  0  0  0  0  0  0  0
  -23.3750   75.3600   53.5410 C   0  0  2  0  0  0  0  0  0  0  0  0
  -22.3810   76.2310   54.2960 C   0  0  0  0  0  0  0  0  0  0  0  0
  -21.1800   76.1950   54.0520 O   0  0  0  0  0  0  0  0  0  0  0  0
  -23.0900   75.3270   52.0380 C   0  0  0  0  0  0  0  0  0  0  0  0
  -23.9520   74.2660   51.3230 C   0  0  0  0  0  0  0  0  0  0  0  0
  -23.4890   74.1090   49.8920 C   0  0  0  0  0  0  0  0  0  0  0  0
  -23.8610   72.9270   52.0370 C   0  0  0  0  0  0  0  0  0  0  0  0
  -22.9080   77.0310   55.2150 N   0  0  0  0  0  0  0  0  0  0  0  0
  -22.0730   77.8190   56.1010 C   0  0  2  0  0  0  0  0  0  0  0  0
  -21.5150   76.7560   57.0650 C   0  0  0  0  0  0  0  0  0  0  0  0
  -22.1600   75.7150   57.2690 O   0  0  0  0  0  0  0  0  0  0  0  0
  -22.9270   78.7830   56.9330 C   0  0  0  0  0  0  0  0  0  0  0  0
  -23.2320   80.1800   56.3890 C   0  0  0  0  0  0  0  0  0  0  0  0
  -24.2430   80.8840   57.2870 C   0  0  0  0  0  0  0  0  0  0  0  0
  -21.9470   80.9830   56.3170 C   0  0  0  0  0  0  0  0  0  0  0  0
  -20.3360   76.9970   57.6420 N   0  0  0  0  0  0  0  0  0  0  0  0
  -19.7890   76.0770   58.6400 C   0  0  0  0  0  0  0  0  0  0  0  0
  -26.0766   77.6288   49.7621 H   0  0  0  0  0  0  0  0  0  0  0  0
  -27.0003   79.1093   49.8512 H   0  0  0  0  0  0  0  0  0  0  0  0
  -27.7305   77.5942   50.3248 H   0  0  0  0  0  0  0  0  0  0  0  0
  -25.8791   79.8401   54.0940 H   0  0  0  0  0  0  0  0  0  0  0  0
  -28.2153   79.8274   55.5417 H   0  0  0  0  0  0  0  0  0  0  0  0
  -27.8390   81.1447   54.5233 H   0  0  0  0  0  0  0  0  0  0  0  0
  -29.5110   78.6978   53.8795 H   0  0  0  0  0  0  0  0  0  0  0  0
  -29.9802   80.3137   53.6418 H   0  0  0  0  0  0  0  0  0  0  0  0
  -29.0015   79.0031   51.5780 H   0  0  0  0  0  0  0  0  0  0  0  0
  -28.3991   80.5745   51.7835 H   0  0  0  0  0  0  0  0  0  0  0  0
  -27.6075   76.9783   53.5048 H   0  0  0  0  0  0  0  0  0  0  0  0
  -27.0473   75.7340   56.0011 H   0  0  0  0  0  0  0  0  0  0  0  0
  -27.8980   74.7542   53.3064 H   0  0  0  0  0  0  0  0  0  0  0  0
  -27.5416   73.6450   54.6211 H   0  0  0  0  0  0  0  0  0  0  0  0
  -29.9432   74.3651   54.3056 H   0  0  0  0  0  0  0  0  0  0  0  0
  -29.4214   75.9016   54.9664 H   0  0  0  0  0  0  0  0  0  0  0  0
  -25.1625   76.4822   53.2833 H   0  0  0  0  0  0  0  0  0  0  0  0
  -23.2451   74.3652   53.9131 H   0  0  0  0  0  0  0  0  0  0  0  0
  -23.3061   76.2888   51.6218 H   0  0  0  0  0  0  0  0  0  0  0  0
  -22.0600   75.0739   51.8968 H   0  0  0  0  0  0  0  0  0  0  0  0
  -24.9707   74.5930   51.3375 H   0  0  0  0  0  0  0  0  0  0  0  0
  -22.4703   73.7820   49.8806 H   0  0  0  0  0  0  0  0  0  0  0  0
  -23.5676   75.0488   49.3866 H   0  0  0  0  0  0  0  0  0  0  0  0
  -24.1015   73.3851   49.3963 H   0  0  0  0  0  0  0  0  0  0  0  0
  -22.8464   72.5874   52.0302 H   0  0  0  0  0  0  0  0  0  0  0  0
  -24.4797   72.2125   51.5353 H   0  0  0  0  0  0  0  0  0  0  0  0
  -24.1929   73.0386   53.0481 H   0  0  0  0  0  0  0  0  0  0  0  0
  -23.8873   77.0907   55.2969 H   0  0  0  0  0  0  0  0  0  0  0  0
  -21.3418   78.3933   55.5715 H   0  0  0  0  0  0  0  0  0  0  0  0
  -22.4245   78.9160   57.8683 H   0  0  0  0  0  0  0  0  0  0  0  0
  -23.8860   78.3092   56.9610 H   0  0  0  0  0  0  0  0  0  0  0  0
  -23.6510   80.0947   55.4082 H   0  0  0  0  0  0  0  0  0  0  0  0
  -23.8393   80.9777   58.2735 H   0  0  0  0  0  0  0  0  0  0  0  0
  -25.1463   80.3117   57.3242 H   0  0  0  0  0  0  0  0  0  0  0  0
  -24.4529   81.8567   56.8936 H   0  0  0  0  0  0  0  0  0  0  0  0
  -21.5255   81.0700   57.2966 H   0  0  0  0  0  0  0  0  0  0  0  0
  -22.1572   81.9586   55.9312 H   0  0  0  0  0  0  0  0  0  0  0  0
  -21.2519   80.4867   55.6724 H   0  0  0  0  0  0  0  0  0  0  0  0
  -19.8284   77.8031   57.3934 H   0  0  0  0  0  0  0  0  0  0  0  0
  -20.4684   75.2632   58.7852 H   0  0  0  0  0  0  0  0  0  0  0  0
  -19.6509   76.5958   59.5656 H   0  0  0  0  0  0  0  0  0  0  0  0
  -18.8478   75.6993   58.2989 H   0  0  0  0  0  0  0  0  0  0  0  0
  1  2  1  0  0  0  0
  1 38  1  0  0  0  0
  1 39  1  0  0  0  0
  1 40  1  0  0  0  0
  2  3  2  0  0  0  0
  2  4  1  0  0  0  0
  4  5  1  0  0  0  0
  5  8  1  0  0  0  0
  5  6  1  0  0  0  0
  5 41  1  1  0  0  0
  6  7  2  0  0  0  0
  8 42  1  0  0  0  0
  8 43  1  0  0  0  0
  9  8  1  0  0  0  0
  9 44  1  0  0  0  0
  9 45  1  0  0  0  0
 10  4  1  0  0  0  0
 10  9  1  0  0  0  0
 10 46  1  0  0  0  0
 10 47  1  0  0  0  0
 11  6  1  0  0  0  0
 11 12  1  0  0  0  0
 11 48  1  0  0  0  0
 12 49  1  1  0  0  0
 13 12  1  0  0  0  0
 13 14  2  0  0  0  0
 15 16  1  0  0  0  0
 15 12  1  0  0  0  0
 15 50  1  0  0  0  0
 15 51  1  0  0  0  0
 16 17  1  0  0  0  0
 16 52  1  0  0  0  0
 16 53  1  0  0  0  0
 17 18  2  0  0  0  0
 17 19  1  0  0  0  0
 20 13  1  0  0  0  0
 20 54  1  0  0  0  0
 21 20  1  0  0  0  0
 21 22  1  0  0  0  0
 21 55  1  1  0  0  0
 22 28  1  0  0  0  0
 23 22  2  0  0  0  0
 24 21  1  0  0  0  0
 24 56  1  0  0  0  0
 24 57  1  0  0  0  0
 25 27  1  0  0  0  0
 25 24  1  0  0  0  0
 25 58  1  0  0  0  0
 26 25  1  0  0  0  0
 26 59  1  0  0  0  0
 26 60  1  0  0  0  0
 26 61  1  0  0  0  0
 27 62  1  0  0  0  0
 27 63  1  0  0  0  0
 27 64  1  0  0  0  0
 28 29  1  0  0  0  0
 28 65  1  0  0  0  0
 29 32  1  0  0  0  0
 29 30  1  0  0  0  0
 29 66  1  6  0  0  0
 30 31  2  0  0  0  0
 30 36  1  0  0  0  0
 32 67  1  0  0  0  0
 32 68  1  0  0  0  0
 33 32  1  0  0  0  0
 33 34  1  0  0  0  0
 33 69  1  0  0  0  0
 34 70  1  0  0  0  0
 34 71  1  0  0  0  0
 34 72  1  0  0  0  0
 35 33  1  0  0  0  0
 35 73  1  0  0  0  0
 35 74  1  0  0  0  0
 35 75  1  0  0  0  0
 36 37  1  0  0  0  0
 36 76  1  0  0  0  0
 37 77  1  0  0  0  0
 37 78  1  0  0  0  0
 37 79  1  0  0  0  0
M  CHG  1  19  -1
M  END
>  <MODEL>
       0

$$$$
selected_4mers/PELL/766_noH.pdb
 OpenBabel03042518353D

 79 79  0  0  1  0  0  0  0  0999 V2000
   33.9300   -9.0840    8.6950 C   0  0  0  0  0  0  0  0  0  0  0  0
   33.8700  -10.3360    9.5680 C   0  0  0  0  0  0  0  0  0  0  0  0
   34.8300  -11.0970    9.6340 O   0  0  0  0  0  0  0  0  0  0  0  0
   32.7380  -10.5700   10.2450 N   0  0  0  0  0  0  0  0  0  0  0  0
   32.5980  -11.7440   11.1160 C   0  0  2  0  0  0  0  0  0  0  0  0
   32.6670  -13.0990   10.4150 C   0  0  0  0  0  0  0  0  0  0  0  0
   32.3150  -13.2260    9.2390 O   0  0  0  0  0  0  0  0  0  0  0  0
   31.2280  -11.5380   11.7610 C   0  0  0  0  0  0  0  0  0  0  0  0
   31.0010  -10.0530   11.6660 C   0  0  0  0  0  0  0  0  0  0  0  0
   31.5290   -9.7350   10.2980 C   0  0  0  0  0  0  0  0  0  0  0  0
   33.1300  -14.1040   11.1530 N   0  0  0  0  0  0  0  0  0  0  0  0
   33.1900  -15.4730   10.6510 C   0  0  2  0  0  0  0  0  0  0  0  0
   31.8720  -16.0380   11.1610 C   0  0  0  0  0  0  0  0  0  0  0  0
   31.6800  -16.1700   12.3680 O   0  0  0  0  0  0  0  0  0  0  0  0
   34.3500  -16.2480   11.2800 C   0  0  0  0  0  0  0  0  0  0  0  0
   35.7270  -15.6320   11.0650 C   0  0  0  0  0  0  0  0  0  0  0  0
   36.8440  -16.5180   11.5960 C   0  0  0  0  0  0  0  0  0  0  0  0
   36.9510  -17.6790   11.1380 O   0  0  0  0  0  0  0  0  0  0  0  0
   37.6150  -16.0530   12.4670 O   0  0  0  0  0  0  0  0  0  0  0  0
   30.9590  -16.3560   10.2550 N   0  0  0  0  0  0  0  0  0  0  0  0
   29.6610  -16.8620   10.6650 C   0  0  2  0  0  0  0  0  0  0  0  0
   29.5990  -18.3540   10.9340 C   0  0  0  0  0  0  0  0  0  0  0  0
   30.2730  -19.1500   10.2800 O   0  0  0  0  0  0  0  0  0  0  0  0
   28.6060  -16.5150    9.6160 C   0  0  0  0  0  0  0  0  0  0  0  0
   28.4400  -15.0410    9.2490 C   0  0  0  0  0  0  0  0  0  0  0  0
   27.2670  -14.9200    8.2850 C   0  0  0  0  0  0  0  0  0  0  0  0
   28.2040  -14.1980   10.5000 C   0  0  0  0  0  0  0  0  0  0  0  0
   28.7770  -18.7180   11.9130 N   0  0  0  0  0  0  0  0  0  0  0  0
   28.5630  -20.1110   12.2530 C   0  0  2  0  0  0  0  0  0  0  0  0
   27.3660  -20.5200   11.4030 C   0  0  0  0  0  0  0  0  0  0  0  0
   26.2680  -19.9820   11.5620 O   0  0  0  0  0  0  0  0  0  0  0  0
   28.2230  -20.2710   13.7400 C   0  0  0  0  0  0  0  0  0  0  0  0
   27.8970  -21.6980   14.1930 C   0  0  0  0  0  0  0  0  0  0  0  0
   29.1420  -22.5660   14.0660 C   0  0  0  0  0  0  0  0  0  0  0  0
   27.3970  -21.7000   15.6320 C   0  0  0  0  0  0  0  0  0  0  0  0
   27.5930  -21.4510   10.4840 N   0  0  0  0  0  0  0  0  0  0  0  0
   26.5410  -21.9410    9.5990 C   0  0  0  0  0  0  0  0  0  0  0  0
   34.8862   -9.0271    8.2182 H   0  0  0  0  0  0  0  0  0  0  0  0
   33.7832   -8.2169    9.3044 H   0  0  0  0  0  0  0  0  0  0  0  0
   33.1626   -9.1310    7.9508 H   0  0  0  0  0  0  0  0  0  0  0  0
   33.4190  -11.7950   11.8003 H   0  0  0  0  0  0  0  0  0  0  0  0
   31.2365  -11.8570   12.7823 H   0  0  0  0  0  0  0  0  0  0  0  0
   30.4573  -12.1042   11.2811 H   0  0  0  0  0  0  0  0  0  0  0  0
   29.9610   -9.8143   11.7450 H   0  0  0  0  0  0  0  0  0  0  0  0
   31.4745   -9.4966   12.4477 H   0  0  0  0  0  0  0  0  0  0  0  0
   30.8303  -10.0111    9.5361 H   0  0  0  0  0  0  0  0  0  0  0  0
   31.7122   -8.6937   10.1338 H   0  0  0  0  0  0  0  0  0  0  0  0
   33.4425  -13.9183   12.0679 H   0  0  0  0  0  0  0  0  0  0  0  0
   33.3348  -15.5317    9.5925 H   0  0  0  0  0  0  0  0  0  0  0  0
   34.3576  -17.2325   10.8609 H   0  0  0  0  0  0  0  0  0  0  0  0
   34.1791  -16.2375   12.3362 H   0  0  0  0  0  0  0  0  0  0  0  0
   35.7653  -14.6896   11.5704 H   0  0  0  0  0  0  0  0  0  0  0  0
   35.8734  -15.5161   10.0114 H   0  0  0  0  0  0  0  0  0  0  0  0
   31.1619  -16.2486    9.2976 H   0  0  0  0  0  0  0  0  0  0  0  0
   29.4691  -16.3800   11.6008 H   0  0  0  0  0  0  0  0  0  0  0  0
   28.8581  -17.0428    8.7200 H   0  0  0  0  0  0  0  0  0  0  0  0
   27.6739  -16.7935   10.0617 H   0  0  0  0  0  0  0  0  0  0  0  0
   29.3317  -14.6770    8.7829 H   0  0  0  0  0  0  0  0  0  0  0  0
   26.3787  -15.2853    8.7565 H   0  0  0  0  0  0  0  0  0  0  0  0
   27.4669  -15.4962    7.4059 H   0  0  0  0  0  0  0  0  0  0  0  0
   27.1313  -13.8935    8.0154 H   0  0  0  0  0  0  0  0  0  0  0  0
   27.3168  -14.5344   10.9946 H   0  0  0  0  0  0  0  0  0  0  0  0
   28.0897  -13.1711   10.2218 H   0  0  0  0  0  0  0  0  0  0  0  0
   29.0401  -14.2977   11.1602 H   0  0  0  0  0  0  0  0  0  0  0  0
   28.3003  -18.0225   12.4213 H   0  0  0  0  0  0  0  0  0  0  0  0
   29.4335  -20.7067   12.0735 H   0  0  0  0  0  0  0  0  0  0  0  0
   27.3735  -19.6559   13.9518 H   0  0  0  0  0  0  0  0  0  0  0  0
   29.1053  -19.9877   14.2749 H   0  0  0  0  0  0  0  0  0  0  0  0
   27.1232  -22.0949   13.5696 H   0  0  0  0  0  0  0  0  0  0  0  0
   29.9173  -22.1709   14.6887 H   0  0  0  0  0  0  0  0  0  0  0  0
   29.4705  -22.5716   13.0477 H   0  0  0  0  0  0  0  0  0  0  0  0
   28.9129  -23.5653   14.3724 H   0  0  0  0  0  0  0  0  0  0  0  0
   28.1569  -21.3061   16.2742 H   0  0  0  0  0  0  0  0  0  0  0  0
   27.1644  -22.7018   15.9274 H   0  0  0  0  0  0  0  0  0  0  0  0
   26.5185  -21.0935   15.7052 H   0  0  0  0  0  0  0  0  0  0  0  0
   28.5004  -21.8229   10.3967 H   0  0  0  0  0  0  0  0  0  0  0  0
   25.6235  -21.4381    9.8231 H   0  0  0  0  0  0  0  0  0  0  0  0
   26.4152  -22.9937    9.7432 H   0  0  0  0  0  0  0  0  0  0  0  0
   26.8130  -21.7504    8.5819 H   0  0  0  0  0  0  0  0  0  0  0  0
  1  2  1  0  0  0  0
  1 38  1  0  0  0  0
  1 39  1  0  0  0  0
  1 40  1  0  0  0  0
  2  3  2  0  0  0  0
  2  4  1  0  0  0  0
  4 10  1  0  0  0  0
  4  5  1  0  0  0  0
  5  8  1  0  0  0  0
  5 41  1  1  0  0  0
  6  5  1  0  0  0  0
  6 11  1  0  0  0  0
  7  6  2  0  0  0  0
  8 42  1  0  0  0  0
  8 43  1  0  0  0  0
  9  8  1  0  0  0  0
  9 44  1  0  0  0  0
  9 45  1  0  0  0  0
 10  9  1  0  0  0  0
 10 46  1  0  0  0  0
 10 47  1  0  0  0  0
 11 48  1  0  0  0  0
 12 11  1  0  0  0  0
 12 13  1  0  0  0  0
 12 15  1  0  0  0  0
 12 49  1  6  0  0  0
 13 14  2  0  0  0  0
 15 50  1  0  0  0  0
 15 51  1  0  0  0  0
 16 15  1  0  0  0  0
 16 17  1  0  0  0  0
 16 52  1  0  0  0  0
 16 53  1  0  0  0  0
 17 19  1  0  0  0  0
 18 17  2  0  0  0  0
 20 21  1  0  0  0  0
 20 13  1  0  0  0  0
 20 54  1  0  0  0  0
 21 22  1  0  0  0  0
 21 55  1  1  0  0  0
 22 28  1  0  0  0  0
 23 22  2  0  0  0  0
 24 21  1  0  0  0  0
 24 56  1  0  0  0  0
 24 57  1  0  0  0  0
 25 24  1  0  0  0  0
 25 27  1  0  0  0  0
 25 58  1  0  0  0  0
 26 25  1  0  0  0  0
 26 59  1  0  0  0  0
 26 60  1  0  0  0  0
 26 61  1  0  0  0  0
 27 62  1  0  0  0  0
 27 63  1  0  0  0  0
 27 64  1  0  0  0  0
 28 29  1  0  0  0  0
 28 65  1  0  0  0  0
 29 32  1  0  0  0  0
 29 66  1  6  0  0  0
 30 31  2  0  0  0  0
 30 29  1  0  0  0  0
 32 33  1  0  0  0  0
 32 67  1  0  0  0  0
 32 68  1  0  0  0  0
 33 35  1  0  0  0  0
 33 69  1  0  0  0  0
 34 33  1  0  0  0  0
 34 70  1  0  0  0  0
 34 71  1  0  0  0  0
 34 72  1  0  0  0  0
 35 73  1  0  0  0  0
 35 74  1  0  0  0  0
 35 75  1  0  0  0  0
 36 30  1  0  0  0  0
 36 76  1  0  0  0  0
 37 36  1  0  0  0  0
 37 77  1  0  0  0  0
 37 78  1  0  0  0  0
 37 79  1  0  0  0  0
M  CHG  1  19  -1
M  END
>  <MODEL>
       0

$$$$
selected_4mers/PELL/767_noH.pdb
 OpenBabel03042518353D

 79 79  0  0  1  0  0  0  0  0999 V2000
  -19.2840  -55.2300   -4.0250 C   0  0  0  0  0  0  0  0  0  0  0  0
  -17.9590  -55.9490   -3.7580 C   0  0  0  0  0  0  0  0  0  0  0  0
  -17.7670  -56.5540   -2.7000 O   0  0  0  0  0  0  0  0  0  0  0  0
  -17.0280  -55.9080   -4.7220 N   0  0  0  0  0  0  0  0  0  0  0  0
  -15.7510  -56.5860   -4.4960 C   0  0  2  0  0  0  0  0  0  0  0  0
  -15.0220  -56.1440   -3.2230 C   0  0  0  0  0  0  0  0  0  0  0  0
  -14.3910  -56.9640   -2.5500 O   0  0  0  0  0  0  0  0  0  0  0  0
  -14.9590  -56.3030   -5.7810 C   0  0  0  0  0  0  0  0  0  0  0  0
  -15.6510  -55.1250   -6.4010 C   0  0  0  0  0  0  0  0  0  0  0  0
  -17.1010  -55.3470   -6.0830 C   0  0  0  0  0  0  0  0  0  0  0  0
  -15.1270  -54.8620   -2.8810 N   0  0  0  0  0  0  0  0  0  0  0  0
  -14.4800  -54.3480   -1.6750 C   0  0  2  0  0  0  0  0  0  0  0  0
  -15.1350  -54.9370   -0.4170 C   0  0  0  0  0  0  0  0  0  0  0  0
  -14.4520  -55.2410    0.5600 O   0  0  0  0  0  0  0  0  0  0  0  0
  -14.5440  -52.8180   -1.6520 C   0  0  0  0  0  0  0  0  0  0  0  0
  -13.8720  -52.1450   -0.4440 C   0  0  0  0  0  0  0  0  0  0  0  0
  -12.3880  -52.4760   -0.2890 C   0  0  0  0  0  0  0  0  0  0  0  0
  -11.7330  -52.8420   -1.2860 O   0  0  0  0  0  0  0  0  0  0  0  0
  -11.8680  -52.3450    0.8430 O   0  0  0  0  0  0  0  0  0  0  0  0
  -16.4530  -55.1150   -0.4370 N   0  0  0  0  0  0  0  0  0  0  0  0
  -17.1230  -55.6910    0.7240 C   0  0  2  0  0  0  0  0  0  0  0  0
  -16.7860  -57.1780    0.7960 C   0  0  0  0  0  0  0  0  0  0  0  0
  -16.6690  -57.7570    1.8780 O   0  0  0  0  0  0  0  0  0  0  0  0
  -18.6390  -55.4910    0.6310 C   0  0  0  0  0  0  0  0  0  0  0  0
  -19.4710  -56.1530    1.7380 C   0  0  0  0  0  0  0  0  0  0  0  0
  -19.0080  -55.6910    3.1130 C   0  0  0  0  0  0  0  0  0  0  0  0
  -20.9320  -55.8110    1.5290 C   0  0  0  0  0  0  0  0  0  0  0  0
  -16.6200  -57.7870   -0.3700 N   0  0  0  0  0  0  0  0  0  0  0  0
  -16.2730  -59.1970   -0.4550 C   0  0  2  0  0  0  0  0  0  0  0  0
  -14.8840  -59.3840    0.1600 C   0  0  0  0  0  0  0  0  0  0  0  0
  -14.6230  -60.3760    0.8400 O   0  0  0  0  0  0  0  0  0  0  0  0
  -16.2800  -59.6320   -1.9220 C   0  0  0  0  0  0  0  0  0  0  0  0
  -16.4580  -61.1120   -2.2320 C   0  0  0  0  0  0  0  0  0  0  0  0
  -17.7650  -61.6080   -1.6060 C   0  0  0  0  0  0  0  0  0  0  0  0
  -16.4710  -61.3110   -3.7510 C   0  0  0  0  0  0  0  0  0  0  0  0
  -13.9990  -58.4180   -0.0710 N   0  0  0  0  0  0  0  0  0  0  0  0
  -12.6510  -58.4720    0.4870 C   0  0  0  0  0  0  0  0  0  0  0  0
  -19.2519  -54.7699   -4.9905 H   0  0  0  0  0  0  0  0  0  0  0  0
  -19.4399  -54.4803   -3.2776 H   0  0  0  0  0  0  0  0  0  0  0  0
  -20.0863  -55.9373   -3.9935 H   0  0  0  0  0  0  0  0  0  0  0  0
  -15.8839  -57.6325   -4.3168 H   0  0  0  0  0  0  0  0  0  0  0  0
  -13.9409  -56.0657   -5.5526 H   0  0  0  0  0  0  0  0  0  0  0  0
  -14.9328  -57.1488   -6.4358 H   0  0  0  0  0  0  0  0  0  0  0  0
  -15.3030  -54.2094   -5.9702 H   0  0  0  0  0  0  0  0  0  0  0  0
  -15.4673  -55.0458   -7.4521 H   0  0  0  0  0  0  0  0  0  0  0  0
  -17.5483  -56.0385   -6.7661 H   0  0  0  0  0  0  0  0  0  0  0  0
  -17.7011  -54.4642   -6.1565 H   0  0  0  0  0  0  0  0  0  0  0  0
  -15.6486  -54.2502   -3.4492 H   0  0  0  0  0  0  0  0  0  0  0  0
  -13.4523  -54.6457   -1.6854 H   0  0  0  0  0  0  0  0  0  0  0  0
  -15.5748  -52.5312   -1.6578 H   0  0  0  0  0  0  0  0  0  0  0  0
  -13.9995  -52.4885   -2.5121 H   0  0  0  0  0  0  0  0  0  0  0  0
  -14.3809  -52.4612    0.4425 H   0  0  0  0  0  0  0  0  0  0  0  0
  -13.9368  -51.0891   -0.6044 H   0  0  0  0  0  0  0  0  0  0  0  0
  -16.9743  -54.8591   -1.2320 H   0  0  0  0  0  0  0  0  0  0  0  0
  -16.7836  -55.1989    1.6114 H   0  0  0  0  0  0  0  0  0  0  0  0
  -18.9654  -55.8890   -0.3071 H   0  0  0  0  0  0  0  0  0  0  0  0
  -18.7996  -54.4385    0.7378 H   0  0  0  0  0  0  0  0  0  0  0  0
  -19.3404  -57.2139    1.6896 H   0  0  0  0  0  0  0  0  0  0  0  0
  -19.1269  -54.6305    3.1917 H   0  0  0  0  0  0  0  0  0  0  0  0
  -17.9772  -55.9452    3.2463 H   0  0  0  0  0  0  0  0  0  0  0  0
  -19.5945  -56.1726    3.8673 H   0  0  0  0  0  0  0  0  0  0  0  0
  -21.0604  -54.7499    1.5778 H   0  0  0  0  0  0  0  0  0  0  0  0
  -21.5200  -56.2769    2.2919 H   0  0  0  0  0  0  0  0  0  0  0  0
  -21.2474  -56.1647    0.5697 H   0  0  0  0  0  0  0  0  0  0  0  0
  -16.7347  -57.2710   -1.2006 H   0  0  0  0  0  0  0  0  0  0  0  0
  -16.9815  -59.7973    0.0766 H   0  0  0  0  0  0  0  0  0  0  0  0
  -17.0787  -59.1084   -2.4045 H   0  0  0  0  0  0  0  0  0  0  0  0
  -15.2945  -59.4043   -2.2711 H   0  0  0  0  0  0  0  0  0  0  0  0
  -15.6476  -61.6759   -1.8195 H   0  0  0  0  0  0  0  0  0  0  0  0
  -18.5865  -61.0531   -2.0088 H   0  0  0  0  0  0  0  0  0  0  0  0
  -17.7273  -61.4703   -0.5456 H   0  0  0  0  0  0  0  0  0  0  0  0
  -17.8942  -62.6471   -1.8264 H   0  0  0  0  0  0  0  0  0  0  0  0
  -17.2776  -60.7518   -4.1771 H   0  0  0  0  0  0  0  0  0  0  0  0
  -16.6003  -62.3496   -3.9736 H   0  0  0  0  0  0  0  0  0  0  0  0
  -15.5441  -60.9706   -4.1633 H   0  0  0  0  0  0  0  0  0  0  0  0
  -14.2586  -57.6504   -0.6301 H   0  0  0  0  0  0  0  0  0  0  0  0
  -12.5394  -59.3662    1.0639 H   0  0  0  0  0  0  0  0  0  0  0  0
  -12.4903  -57.6203    1.1145 H   0  0  0  0  0  0  0  0  0  0  0  0
  -11.9353  -58.4691   -0.3084 H   0  0  0  0  0  0  0  0  0  0  0  0
  1  2  1  0  0  0  0
  1 38  1  0  0  0  0
  1 39  1  0  0  0  0
  1 40  1  0  0  0  0
  2  3  2  0  0  0  0
  4  5  1  0  0  0  0
  4  2  1  0  0  0  0
  5  6  1  0  0  0  0
  5 41  1  1  0  0  0
  6 11  1  0  0  0  0
  6  7  2  0  0  0  0
  8  5  1  0  0  0  0
  8 42  1  0  0  0  0
  8 43  1  0  0  0  0
  9 10  1  0  0  0  0
  9  8  1  0  0  0  0
  9 44  1  0  0  0  0
  9 45  1  0  0  0  0
 10  4  1  0  0  0  0
 10 46  1  0  0  0  0
 10 47  1  0  0  0  0
 11 12  1  0  0  0  0
 11 48  1  0  0  0  0
 12 15  1  0  0  0  0
 12 13  1  0  0  0  0
 12 49  1  6  0  0  0
 13 14  2  0  0  0  0
 15 16  1  0  0  0  0
 15 50  1  0  0  0  0
 15 51  1  0  0  0  0
 16 17  1  0  0  0  0
 16 52  1  0  0  0  0
 16 53  1  0  0  0  0
 17 19  1  0  0  0  0
 18 17  2  0  0  0  0
 20 13  1  0  0  0  0
 20 21  1  0  0  0  0
 20 54  1  0  0  0  0
 21 22  1  0  0  0  0
 21 55  1  1  0  0  0
 22 23  2  0  0  0  0
 24 21  1  0  0  0  0
 24 25  1  0  0  0  0
 24 56  1  0  0  0  0
 24 57  1  0  0  0  0
 25 26  1  0  0  0  0
 25 58  1  0  0  0  0
 26 59  1  0  0  0  0
 26 60  1  0  0  0  0
 26 61  1  0  0  0  0
 27 25  1  0  0  0  0
 27 62  1  0  0  0  0
 27 63  1  0  0  0  0
 27 64  1  0  0  0  0
 28 22  1  0  0  0  0
 28 65  1  0  0  0  0
 29 28  1  0  0  0  0
 29 30  1  0  0  0  0
 29 66  1  1  0  0  0
 30 31  2  0  0  0  0
 32 29  1  0  0  0  0
 32 67  1  0  0  0  0
 32 68  1  0  0  0  0
 33 32  1  0  0  0  0
 33 34  1  0  0  0  0
 33 69  1  0  0  0  0
 34 70  1  0  0  0  0
 34 71  1  0  0  0  0
 34 72  1  0  0  0  0
 35 33  1  0  0  0  0
 35 73  1  0  0  0  0
 35 74  1  0  0  0  0
 35 75  1  0  0  0  0
 36 30  1  0  0  0  0
 36 37  1  0  0  0  0
 36 76  1  0  0  0  0
 37 77  1  0  0  0  0
 37 78  1  0  0  0  0
 37 79  1  0  0  0  0
M  CHG  1  19  -1
M  END
>  <MODEL>
       0

$$$$
selected_4mers/PELL/768_noH.pdb
 OpenBabel03042518353D

 79 79  0  0  1  0  0  0  0  0999 V2000
   37.9890  115.9940   20.2320 C   0  0  0  0  0  0  0  0  0  0  0  0
   38.0050  116.2380   18.7290 C   0  0  0  0  0  0  0  0  0  0  0  0
   38.9800  115.9090   18.0490 O   0  0  0  0  0  0  0  0  0  0  0  0
   36.9310  116.8450   18.2010 N   0  0  0  0  0  0  0  0  0  0  0  0
   36.8510  117.1680   16.7810 C   0  0  2  0  0  0  0  0  0  0  0  0
   37.9320  118.1230   16.2780 C   0  0  0  0  0  0  0  0  0  0  0  0
   38.4040  118.9830   17.0170 O   0  0  0  0  0  0  0  0  0  0  0  0
   35.4710  117.8060   16.6360 C   0  0  0  0  0  0  0  0  0  0  0  0
   35.1080  118.2670   18.0060 C   0  0  0  0  0  0  0  0  0  0  0  0
   35.7390  117.2950   18.9350 C   0  0  0  0  0  0  0  0  0  0  0  0
   38.2930  117.9570   15.0120 N   0  0  0  0  0  0  0  0  0  0  0  0
   39.2590  118.7910   14.3460 C   0  0  2  0  0  0  0  0  0  0  0  0
   38.6180  120.1320   14.0630 C   0  0  0  0  0  0  0  0  0  0  0  0
   37.5060  120.2030   13.4950 O   0  0  0  0  0  0  0  0  0  0  0  0
   39.7230  118.1600   13.0300 C   0  0  0  0  0  0  0  0  0  0  0  0
   40.7110  119.0270   12.2550 C   0  0  0  0  0  0  0  0  0  0  0  0
   41.1960  118.4390   10.9560 C   0  0  0  0  0  0  0  0  0  0  0  0
   40.8650  117.2640   10.6440 O   0  0  0  0  0  0  0  0  0  0  0  0
   41.9110  119.1790   10.2410 O   0  0  0  0  0  0  0  0  0  0  0  0
   39.3390  121.1900   14.4210 N   0  0  0  0  0  0  0  0  0  0  0  0
   38.9080  122.5450   14.1200 C   0  0  2  0  0  0  0  0  0  0  0  0
   39.4970  122.9360   12.7590 C   0  0  0  0  0  0  0  0  0  0  0  0
   40.6980  123.1860   12.6340 O   0  0  0  0  0  0  0  0  0  0  0  0
   39.3200  123.4850   15.2590 C   0  0  0  0  0  0  0  0  0  0  0  0
   38.7580  123.1120   16.6360 C   0  0  0  0  0  0  0  0  0  0  0  0
   39.4090  123.9950   17.7170 C   0  0  0  0  0  0  0  0  0  0  0  0
   37.2010  123.2080   16.7310 C   0  0  0  0  0  0  0  0  0  0  0  0
   38.6470  122.9380   11.7220 N   0  0  0  0  0  0  0  0  0  0  0  0
   39.0910  123.1280   10.3600 C   0  0  2  0  0  0  0  0  0  0  0  0
   39.5480  124.5610   10.1530 C   0  0  0  0  0  0  0  0  0  0  0  0
   38.9550  125.4980   10.6960 O   0  0  0  0  0  0  0  0  0  0  0  0
   37.9850  122.7770    9.3700 C   0  0  0  0  0  0  0  0  0  0  0  0
   37.4740  121.3390    9.3990 C   0  0  0  0  0  0  0  0  0  0  0  0
   36.5030  121.1090    8.1980 C   0  0  0  0  0  0  0  0  0  0  0  0
   38.6120  120.2870    9.3970 C   0  0  0  0  0  0  0  0  0  0  0  0
   40.6230  124.7250    9.3990 N   0  0  0  0  0  0  0  0  0  0  0  0
   41.1930  126.0400    9.1620 C   0  0  0  0  0  0  0  0  0  0  0  0
   38.8960  115.5072   20.5240 H   0  0  0  0  0  0  0  0  0  0  0  0
   37.1543  115.3737   20.4838 H   0  0  0  0  0  0  0  0  0  0  0  0
   37.9055  116.9296   20.7444 H   0  0  0  0  0  0  0  0  0  0  0  0
   37.0022  116.2875   16.1921 H   0  0  0  0  0  0  0  0  0  0  0  0
   34.7612  117.0883   16.2812 H   0  0  0  0  0  0  0  0  0  0  0  0
   35.4745  118.6108   15.9309 H   0  0  0  0  0  0  0  0  0  0  0  0
   34.0453  118.2670   18.1307 H   0  0  0  0  0  0  0  0  0  0  0  0
   35.4446  119.2659   18.1897 H   0  0  0  0  0  0  0  0  0  0  0  0
   35.0812  116.4753   19.1360 H   0  0  0  0  0  0  0  0  0  0  0  0
   35.9721  117.7202   19.8888 H   0  0  0  0  0  0  0  0  0  0  0  0
   37.8783  117.2247   14.5011 H   0  0  0  0  0  0  0  0  0  0  0  0
   40.1154  118.9047   14.9774 H   0  0  0  0  0  0  0  0  0  0  0  0
   40.1934  117.2245   13.2502 H   0  0  0  0  0  0  0  0  0  0  0  0
   38.8560  118.0429   12.4139 H   0  0  0  0  0  0  0  0  0  0  0  0
   40.2342  119.9602   12.0387 H   0  0  0  0  0  0  0  0  0  0  0  0
   41.5749  119.1239   12.8788 H   0  0  0  0  0  0  0  0  0  0  0  0
   40.1867  121.0521   14.9024 H   0  0  0  0  0  0  0  0  0  0  0  0
   37.8427  122.6171   14.0498 H   0  0  0  0  0  0  0  0  0  0  0  0
   38.9804  124.4703   15.0167 H   0  0  0  0  0  0  0  0  0  0  0  0
   40.3846  123.4129   15.3387 H   0  0  0  0  0  0  0  0  0  0  0  0
   39.0009  122.0821   16.7948 H   0  0  0  0  0  0  0  0  0  0  0  0
   39.1549  125.0194   17.5414 H   0  0  0  0  0  0  0  0  0  0  0  0
   40.4721  123.8796   17.6792 H   0  0  0  0  0  0  0  0  0  0  0  0
   39.0523  123.6994   18.6815 H   0  0  0  0  0  0  0  0  0  0  0  0
   36.8963  124.2224   16.5793 H   0  0  0  0  0  0  0  0  0  0  0  0
   36.8818  122.8806   17.6984 H   0  0  0  0  0  0  0  0  0  0  0  0
   36.7589  122.5867   15.9804 H   0  0  0  0  0  0  0  0  0  0  0  0
   37.6868  122.8054   11.8945 H   0  0  0  0  0  0  0  0  0  0  0  0
   39.9165  122.4708   10.1827 H   0  0  0  0  0  0  0  0  0  0  0  0
   37.1541  123.4210    9.5695 H   0  0  0  0  0  0  0  0  0  0  0  0
   38.4227  122.9018    8.4016 H   0  0  0  0  0  0  0  0  0  0  0  0
   36.9508  121.2033   10.3225 H   0  0  0  0  0  0  0  0  0  0  0  0
   37.0335  121.2465    7.2790 H   0  0  0  0  0  0  0  0  0  0  0  0
   35.6962  121.8098    8.2523 H   0  0  0  0  0  0  0  0  0  0  0  0
   36.1138  120.1132    8.2396 H   0  0  0  0  0  0  0  0  0  0  0  0
   39.1757  120.3731    8.4916 H   0  0  0  0  0  0  0  0  0  0  0  0
   38.1907  119.3057    9.4629 H   0  0  0  0  0  0  0  0  0  0  0  0
   39.2554  120.4559   10.2351 H   0  0  0  0  0  0  0  0  0  0  0  0
   41.0468  123.9367    8.9887 H   0  0  0  0  0  0  0  0  0  0  0  0
   40.6143  126.7778    9.6774 H   0  0  0  0  0  0  0  0  0  0  0  0
   41.1840  126.2488    8.1126 H   0  0  0  0  0  0  0  0  0  0  0  0
   42.2006  126.0620    9.5214 H   0  0  0  0  0  0  0  0  0  0  0  0
  1 38  1  0  0  0  0
  1 39  1  0  0  0  0
  1 40  1  0  0  0  0
  2  1  1  0  0  0  0
  3  2  2  0  0  0  0
  4  2  1  0  0  0  0
  4 10  1  0  0  0  0
  5  4  1  0  0  0  0
  5 41  1  6  0  0  0
  6  5  1  0  0  0  0
  6  7  2  0  0  0  0
  8  5  1  0  0  0  0
  8  9  1  0  0  0  0
  8 42  1  0  0  0  0
  8 43  1  0  0  0  0
  9 10  1  0  0  0  0
  9 44  1  0  0  0  0
  9 45  1  0  0  0  0
 10 46  1  0  0  0  0
 10 47  1  0  0  0  0
 11  6  1  0  0  0  0
 11 48  1  0  0  0  0
 12 11  1  0  0  0  0
 12 49  1  1  0  0  0
 13 12  1  0  0  0  0
 13 20  1  0  0  0  0
 14 13  2  0  0  0  0
 15 12  1  0  0  0  0
 15 50  1  0  0  0  0
 15 51  1  0  0  0  0
 16 15  1  0  0  0  0
 16 52  1  0  0  0  0
 16 53  1  0  0  0  0
 17 16  1  0  0  0  0
 18 17  1  0  0  0  0
 19 17  2  0  0  0  0
 20 54  1  0  0  0  0
 21 20  1  0  0  0  0
 21 24  1  0  0  0  0
 21 55  1  6  0  0  0
 22 21  1  0  0  0  0
 23 22  2  0  0  0  0
 24 25  1  0  0  0  0
 24 56  1  0  0  0  0
 24 57  1  0  0  0  0
 25 27  1  0  0  0  0
 25 26  1  0  0  0  0
 25 58  1  0  0  0  0
 26 59  1  0  0  0  0
 26 60  1  0  0  0  0
 26 61  1  0  0  0  0
 27 62  1  0  0  0  0
 27 63  1  0  0  0  0
 27 64  1  0  0  0  0
 28 22  1  0  0  0  0
 28 65  1  0  0  0  0
 29 28  1  0  0  0  0
 29 66  1  6  0  0  0
 30 29  1  0  0  0  0
 30 31  2  0  0  0  0
 32 33  1  0  0  0  0
 32 29  1  0  0  0  0
 32 67  1  0  0  0  0
 32 68  1  0  0  0  0
 33 69  1  0  0  0  0
 34 33  1  0  0  0  0
 34 70  1  0  0  0  0
 34 71  1  0  0  0  0
 34 72  1  0  0  0  0
 35 33  1  0  0  0  0
 35 73  1  0  0  0  0
 35 74  1  0  0  0  0
 35 75  1  0  0  0  0
 36 30  1  0  0  0  0
 36 76  1  0  0  0  0
 37 36  1  0  0  0  0
 37 77  1  0  0  0  0
 37 78  1  0  0  0  0
 37 79  1  0  0  0  0
M  CHG  1  18  -1
M  END
>  <MODEL>
       0

$$$$
selected_4mers/PELL/769_noH.pdb
 OpenBabel03042518353D

 79 79  0  0  1  0  0  0  0  0999 V2000
    5.9130   17.6440   29.3730 C   0  0  0  0  0  0  0  0  0  0  0  0
    6.5200   18.3780   30.5930 C   0  0  0  0  0  0  0  0  0  0  0  0
    5.9660   18.3020   31.7140 O   0  0  0  0  0  0  0  0  0  0  0  0
    7.6870   19.0680   30.3970 N   0  0  0  0  0  0  0  0  0  0  0  0
    8.4250   19.7260   31.4910 C   0  0  2  0  0  0  0  0  0  0  0  0
    7.6800   20.8590   32.2130 C   0  0  0  0  0  0  0  0  0  0  0  0
    8.0480   21.2020   33.3340 O   0  0  0  0  0  0  0  0  0  0  0  0
    9.6990   20.2740   30.7960 C   0  0  0  0  0  0  0  0  0  0  0  0
    9.3690   20.3000   29.3180 C   0  0  0  0  0  0  0  0  0  0  0  0
    8.4650   19.1210   29.1320 C   0  0  0  0  0  0  0  0  0  0  0  0
    6.6510   21.4190   31.5750 N   0  0  0  0  0  0  0  0  0  0  0  0
    5.7400   22.3910   32.2010 C   0  0  2  0  0  0  0  0  0  0  0  0
    5.0740   21.8540   33.4560 C   0  0  0  0  0  0  0  0  0  0  0  0
    4.7320   22.6140   34.3300 O   0  0  0  0  0  0  0  0  0  0  0  0
    4.6400   22.8170   31.2310 C   0  0  0  0  0  0  0  0  0  0  0  0
    5.1100   23.7580   30.1250 C   0  0  0  0  0  0  0  0  0  0  0  0
    5.7080   23.0140   28.9400 C   0  0  0  0  0  0  0  0  0  0  0  0
    5.2840   21.8580   28.6830 O   0  0  0  0  0  0  0  0  0  0  0  0
    6.6010   23.5870   28.2720 O   0  0  0  0  0  0  0  0  0  0  0  0
    4.8710   20.5430   33.5240 N   0  0  0  0  0  0  0  0  0  0  0  0
    4.2670   19.9090   34.6910 C   0  0  2  0  0  0  0  0  0  0  0  0
    5.1770   19.7940   35.9230 C   0  0  0  0  0  0  0  0  0  0  0  0
    4.6720   19.5120   37.0010 O   0  0  0  0  0  0  0  0  0  0  0  0
    3.6930   18.5200   34.3350 C   0  0  0  0  0  0  0  0  0  0  0  0
    2.3420   18.6330   33.6130 C   0  0  0  0  0  0  0  0  0  0  0  0
    1.9940   17.3290   32.9100 C   0  0  0  0  0  0  0  0  0  0  0  0
    1.2730   18.9870   34.6410 C   0  0  0  0  0  0  0  0  0  0  0  0
    6.4880   19.9970   35.7730 N   0  0  0  0  0  0  0  0  0  0  0  0
    7.4260   19.9180   36.9180 C   0  0  2  0  0  0  0  0  0  0  0  0
    7.1290   20.8530   38.0960 C   0  0  0  0  0  0  0  0  0  0  0  0
    7.3150   20.4510   39.2520 O   0  0  0  0  0  0  0  0  0  0  0  0
    8.8810   20.0850   36.4810 C   0  0  0  0  0  0  0  0  0  0  0  0
    9.4740   18.9050   35.7020 C   0  0  0  0  0  0  0  0  0  0  0  0
   10.6830   19.3680   34.8980 C   0  0  0  0  0  0  0  0  0  0  0  0
    9.8220   17.7430   36.6170 C   0  0  0  0  0  0  0  0  0  0  0  0
    6.6750   22.0820   37.8160 N   0  0  0  0  0  0  0  0  0  0  0  0
    6.2910   23.0050   38.8750 C   0  0  0  0  0  0  0  0  0  0  0  0
    6.5197   17.8242   28.5102 H   0  0  0  0  0  0  0  0  0  0  0  0
    4.9225   18.0073   29.1947 H   0  0  0  0  0  0  0  0  0  0  0  0
    5.8772   16.5930   29.5706 H   0  0  0  0  0  0  0  0  0  0  0  0
    8.6042   19.0224   32.2769 H   0  0  0  0  0  0  0  0  0  0  0  0
    9.9229   21.2596   31.1473 H   0  0  0  0  0  0  0  0  0  0  0  0
   10.5571   19.6691   31.0023 H   0  0  0  0  0  0  0  0  0  0  0  0
    8.8690   21.2087   29.0552 H   0  0  0  0  0  0  0  0  0  0  0  0
   10.2406   20.2544   28.6990 H   0  0  0  0  0  0  0  0  0  0  0  0
    9.0318   18.2238   28.9952 H   0  0  0  0  0  0  0  0  0  0  0  0
    7.8422   19.2095   28.2665 H   0  0  0  0  0  0  0  0  0  0  0  0
    6.4926   21.1690   30.6360 H   0  0  0  0  0  0  0  0  0  0  0  0
    6.3535   23.2263   32.4671 H   0  0  0  0  0  0  0  0  0  0  0  0
    4.2366   21.9375   30.7742 H   0  0  0  0  0  0  0  0  0  0  0  0
    3.9157   23.3558   31.8054 H   0  0  0  0  0  0  0  0  0  0  0  0
    4.2732   24.3307   29.7834 H   0  0  0  0  0  0  0  0  0  0  0  0
    5.8750   24.3839   30.5348 H   0  0  0  0  0  0  0  0  0  0  0  0
    5.1371   19.9802   32.7613 H   0  0  0  0  0  0  0  0  0  0  0  0
    3.4807   20.5774   34.9737 H   0  0  0  0  0  0  0  0  0  0  0  0
    4.3856   18.0113   33.6975 H   0  0  0  0  0  0  0  0  0  0  0  0
    3.5411   17.9780   35.2450 H   0  0  0  0  0  0  0  0  0  0  0  0
    2.3970   19.3973   32.8662 H   0  0  0  0  0  0  0  0  0  0  0  0
    1.9310   16.5409   33.6310 H   0  0  0  0  0  0  0  0  0  0  0  0
    2.7535   17.0966   32.1930 H   0  0  0  0  0  0  0  0  0  0  0  0
    1.0528   17.4326   32.4117 H   0  0  0  0  0  0  0  0  0  0  0  0
    1.2242   18.2185   35.3839 H   0  0  0  0  0  0  0  0  0  0  0  0
    0.3242   19.0730   34.1538 H   0  0  0  0  0  0  0  0  0  0  0  0
    1.5204   19.9180   35.1067 H   0  0  0  0  0  0  0  0  0  0  0  0
    6.8412   20.2047   34.8778 H   0  0  0  0  0  0  0  0  0  0  0  0
    7.2652   18.9276   37.2898 H   0  0  0  0  0  0  0  0  0  0  0  0
    8.9413   20.9541   35.8598 H   0  0  0  0  0  0  0  0  0  0  0  0
    9.4525   20.1598   37.3825 H   0  0  0  0  0  0  0  0  0  0  0  0
    8.7314   18.5444   35.0212 H   0  0  0  0  0  0  0  0  0  0  0  0
   11.4364   19.7323   35.5647 H   0  0  0  0  0  0  0  0  0  0  0  0
   10.3888   20.1507   34.2303 H   0  0  0  0  0  0  0  0  0  0  0  0
   11.0726   18.5461   34.3344 H   0  0  0  0  0  0  0  0  0  0  0  0
   10.5654   18.0537   37.3211 H   0  0  0  0  0  0  0  0  0  0  0  0
   10.2012   16.9304   36.0332 H   0  0  0  0  0  0  0  0  0  0  0  0
    8.9445   17.4266   37.1411 H   0  0  0  0  0  0  0  0  0  0  0  0
    6.5995   22.3665   36.8765 H   0  0  0  0  0  0  0  0  0  0  0  0
    6.4354   22.5366   39.8261 H   0  0  0  0  0  0  0  0  0  0  0  0
    5.2607   23.2702   38.7608 H   0  0  0  0  0  0  0  0  0  0  0  0
    6.8948   23.8864   38.8162 H   0  0  0  0  0  0  0  0  0  0  0  0
  1  2  1  0  0  0  0
  1 38  1  0  0  0  0
  1 39  1  0  0  0  0
  1 40  1  0  0  0  0
  2  3  2  0  0  0  0
  4  2  1  0  0  0  0
  4  5  1  0  0  0  0
  5  6  1  0  0  0  0
  5 41  1  1  0  0  0
  6  7  2  0  0  0  0
  8  5  1  0  0  0  0
  8 42  1  0  0  0  0
  8 43  1  0  0  0  0
  9  8  1  0  0  0  0
  9 44  1  0  0  0  0
  9 45  1  0  0  0  0
 10  9  1  0  0  0  0
 10  4  1  0  0  0  0
 10 46  1  0  0  0  0
 10 47  1  0  0  0  0
 11 12  1  0  0  0  0
 11  6  1  0  0  0  0
 11 48  1  0  0  0  0
 12 13  1  0  0  0  0
 12 49  1  1  0  0  0
 13 20  1  0  0  0  0
 13 14  2  0  0  0  0
 15 12  1  0  0  0  0
 15 50  1  0  0  0  0
 15 51  1  0  0  0  0
 16 15  1  0  0  0  0
 16 52  1  0  0  0  0
 16 53  1  0  0  0  0
 17 16  1  0  0  0  0
 18 17  1  0  0  0  0
 19 17  2  0  0  0  0
 20 21  1  0  0  0  0
 20 54  1  0  0  0  0
 21 22  1  0  0  0  0
 21 55  1  1  0  0  0
 22 23  2  0  0  0  0
 24 21  1  0  0  0  0
 24 56  1  0  0  0  0
 24 57  1  0  0  0  0
 25 24  1  0  0  0  0
 25 27  1  0  0  0  0
 25 58  1  0  0  0  0
 26 25  1  0  0  0  0
 26 59  1  0  0  0  0
 26 60  1  0  0  0  0
 26 61  1  0  0  0  0
 27 62  1  0  0  0  0
 27 63  1  0  0  0  0
 27 64  1  0  0  0  0
 28 22  1  0  0  0  0
 28 29  1  0  0  0  0
 28 65  1  0  0  0  0
 29 30  1  0  0  0  0
 29 66  1  1  0  0  0
 30 31  2  0  0  0  0
 32 29  1  0  0  0  0
 32 67  1  0  0  0  0
 32 68  1  0  0  0  0
 33 32  1  0  0  0  0
 33 35  1  0  0  0  0
 33 69  1  0  0  0  0
 34 33  1  0  0  0  0
 34 70  1  0  0  0  0
 34 71  1  0  0  0  0
 34 72  1  0  0  0  0
 35 73  1  0  0  0  0
 35 74  1  0  0  0  0
 35 75  1  0  0  0  0
 36 30  1  0  0  0  0
 36 37  1  0  0  0  0
 36 76  1  0  0  0  0
 37 77  1  0  0  0  0
 37 78  1  0  0  0  0
 37 79  1  0  0  0  0
M  CHG  1  18  -1
M  END
>  <MODEL>
       0

$$$$
