selected_4mers/PEVV/795_noH.pdb
 OpenBabel03042518353D

 73 73  0  0  1  0  0  0  0  0999 V2000
   58.1040    5.0080  -43.9920 C   0  0  0  0  0  0  0  0  0  0  0  0
   58.1270    4.5140  -42.5470 C   0  0  0  0  0  0  0  0  0  0  0  0
   58.1940    3.3210  -42.2920 O   0  0  0  0  0  0  0  0  0  0  0  0
   58.0610    5.4520  -41.5760 N   0  0  0  0  0  0  0  0  0  0  0  0
   58.1230    5.0680  -40.1710 C   0  0  2  0  0  0  0  0  0  0  0  0
   56.8720    4.3360  -39.6850 C   0  0  0  0  0  0  0  0  0  0  0  0
   55.7590    4.6250  -40.1460 O   0  0  0  0  0  0  0  0  0  0  0  0
   58.2460    6.4290  -39.4450 C   0  0  0  0  0  0  0  0  0  0  0  0
   57.5620    7.3810  -40.3500 C   0  0  0  0  0  0  0  0  0  0  0  0
   57.9170    6.9180  -41.7460 C   0  0  0  0  0  0  0  0  0  0  0  0
   57.0540    3.4350  -38.7330 N   0  0  0  0  0  0  0  0  0  0  0  0
   55.9390    2.8190  -38.0500 C   0  0  2  0  0  0  0  0  0  0  0  0
   55.5300    3.6330  -36.8370 C   0  0  0  0  0  0  0  0  0  0  0  0
   54.3930    3.5240  -36.3570 O   0  0  0  0  0  0  0  0  0  0  0  0
   56.2850    1.3890  -37.6280 C   0  0  0  0  0  0  0  0  0  0  0  0
   56.1470    0.3960  -38.7940 C   0  0  0  0  0  0  0  0  0  0  0  0
   56.4780   -1.0360  -38.3980 C   0  0  0  0  0  0  0  0  0  0  0  0
   55.9160   -1.5420  -37.4070 O   0  0  0  0  0  0  0  0  0  0  0  0
   57.3090   -1.6640  -39.0940 O   0  0  0  0  0  0  0  0  0  0  0  0
   56.4720    4.4280  -36.3260 N   0  0  0  0  0  0  0  0  0  0  0  0
   56.2250    5.2360  -35.1140 C   0  0  2  0  0  0  0  0  0  0  0  0
   56.8050    6.6220  -35.3350 C   0  0  0  0  0  0  0  0  0  0  0  0
   57.9340    6.7730  -35.8220 O   0  0  0  0  0  0  0  0  0  0  0  0
   56.8380    4.6270  -33.8160 C   0  0  0  0  0  0  0  0  0  0  0  0
   56.3370    5.3880  -32.5540 C   0  0  0  0  0  0  0  0  0  0  0  0
   56.5090    3.1290  -33.6860 C   0  0  0  0  0  0  0  0  0  0  0  0
   56.0140    7.6390  -35.0040 N   0  0  0  0  0  0  0  0  0  0  0  0
   56.4720    9.0170  -35.1070 C   0  0  2  0  0  0  0  0  0  0  0  0
   56.3800    9.6530  -33.7230 C   0  0  0  0  0  0  0  0  0  0  0  0
   55.3160    9.6410  -33.1070 O   0  0  0  0  0  0  0  0  0  0  0  0
   55.6440    9.8460  -36.1240 C   0  0  0  0  0  0  0  0  0  0  0  0
   56.0260   11.3310  -36.0120 C   0  0  0  0  0  0  0  0  0  0  0  0
   55.9060    9.3460  -37.5760 C   0  0  0  0  0  0  0  0  0  0  0  0
   57.5030   10.1870  -33.2390 N   0  0  0  0  0  0  0  0  0  0  0  0
   57.5190   10.8760  -31.9190 C   0  0  0  0  0  0  0  0  0  0  0  0
   58.1617    4.1710  -44.6560 H   0  0  0  0  0  0  0  0  0  0  0  0
   58.9389    5.6555  -44.1609 H   0  0  0  0  0  0  0  0  0  0  0  0
   57.1953    5.5436  -44.1714 H   0  0  0  0  0  0  0  0  0  0  0  0
   58.9265    4.3851  -39.9893 H   0  0  0  0  0  0  0  0  0  0  0  0
   57.7621    6.3964  -38.4912 H   0  0  0  0  0  0  0  0  0  0  0  0
   59.2623    6.7023  -39.2518 H   0  0  0  0  0  0  0  0  0  0  0  0
   56.5030    7.3473  -40.2005 H   0  0  0  0  0  0  0  0  0  0  0  0
   57.8644    8.3920  -40.1728 H   0  0  0  0  0  0  0  0  0  0  0  0
   57.1367    7.1512  -42.4400 H   0  0  0  0  0  0  0  0  0  0  0  0
   58.7940    7.3882  -42.1393 H   0  0  0  0  0  0  0  0  0  0  0  0
   57.9711    3.1780  -38.4839 H   0  0  0  0  0  0  0  0  0  0  0  0
   55.1153    2.7868  -38.7322 H   0  0  0  0  0  0  0  0  0  0  0  0
   57.2944    1.3679  -37.2736 H   0  0  0  0  0  0  0  0  0  0  0  0
   55.5997    1.0955  -36.8605 H   0  0  0  0  0  0  0  0  0  0  0  0
   55.1386    0.4268  -39.1505 H   0  0  0  0  0  0  0  0  0  0  0  0
   56.8466    0.6892  -39.5486 H   0  0  0  0  0  0  0  0  0  0  0  0
   57.3511    4.4772  -36.7664 H   0  0  0  0  0  0  0  0  0  0  0  0
   55.1659    5.2639  -34.9640 H   0  0  0  0  0  0  0  0  0  0  0  0
   57.9002    4.7342  -33.8878 H   0  0  0  0  0  0  0  0  0  0  0  0
   55.2749    5.2860  -32.4742 H   0  0  0  0  0  0  0  0  0  0  0  0
   56.5905    6.4241  -32.6383 H   0  0  0  0  0  0  0  0  0  0  0  0
   56.8013    4.9770  -31.6820 H   0  0  0  0  0  0  0  0  0  0  0  0
   55.4491    3.0017  -33.6128 H   0  0  0  0  0  0  0  0  0  0  0  0
   56.9770    2.7360  -32.8077 H   0  0  0  0  0  0  0  0  0  0  0  0
   56.8722    2.6080  -34.5471 H   0  0  0  0  0  0  0  0  0  0  0  0
   55.1013    7.4563  -34.6832 H   0  0  0  0  0  0  0  0  0  0  0  0
   57.4804    9.0120  -35.4647 H   0  0  0  0  0  0  0  0  0  0  0  0
   54.6045    9.7250  -35.9012 H   0  0  0  0  0  0  0  0  0  0  0  0
   57.0657   11.4496  -36.2352 H   0  0  0  0  0  0  0  0  0  0  0  0
   55.8332   11.6748  -35.0172 H   0  0  0  0  0  0  0  0  0  0  0  0
   55.4449   11.9021  -36.7056 H   0  0  0  0  0  0  0  0  0  0  0  0
   56.9433    9.4618  -37.8114 H   0  0  0  0  0  0  0  0  0  0  0  0
   55.3184    9.9194  -38.2622 H   0  0  0  0  0  0  0  0  0  0  0  0
   55.6362    8.3134  -37.6518 H   0  0  0  0  0  0  0  0  0  0  0  0
   58.3342   10.1245  -33.7629 H   0  0  0  0  0  0  0  0  0  0  0  0
   56.5384   10.8508  -31.4916 H   0  0  0  0  0  0  0  0  0  0  0  0
   57.8244   11.8929  -32.0512 H   0  0  0  0  0  0  0  0  0  0  0  0
   58.2057   10.3794  -31.2657 H   0  0  0  0  0  0  0  0  0  0  0  0
  1  2  1  0  0  0  0
  1 36  1  0  0  0  0
  1 37  1  0  0  0  0
  1 38  1  0  0  0  0
  2  3  2  0  0  0  0
  2  4  1  0  0  0  0
  4  5  1  0  0  0  0
  5  6  1  0  0  0  0
  5  8  1  0  0  0  0
  5 39  1  1  0  0  0
  6 11  1  0  0  0  0
  7  6  2  0  0  0  0
  8 40  1  0  0  0  0
  8 41  1  0  0  0  0
  9  8  1  0  0  0  0
  9 42  1  0  0  0  0
  9 43  1  0  0  0  0
 10  4  1  0  0  0  0
 10  9  1  0  0  0  0
 10 44  1  0  0  0  0
 10 45  1  0  0  0  0
 11 12  1  0  0  0  0
 11 46  1  0  0  0  0
 12 15  1  0  0  0  0
 12 13  1  0  0  0  0
 12 47  1  6  0  0  0
 13 14  2  0  0  0  0
 13 20  1  0  0  0  0
 15 48  1  0  0  0  0
 15 49  1  0  0  0  0
 16 17  1  0  0  0  0
 16 15  1  0  0  0  0
 16 50  1  0  0  0  0
 16 51  1  0  0  0  0
 17 18  1  0  0  0  0
 19 17  2  0  0  0  0
 20 21  1  0  0  0  0
 20 52  1  0  0  0  0
 21 24  1  0  0  0  0
 21 53  1  1  0  0  0
 22 21  1  0  0  0  0
 22 27  1  0  0  0  0
 23 22  2  0  0  0  0
 24 26  1  0  0  0  0
 24 25  1  0  0  0  0
 24 54  1  0  0  0  0
 25 55  1  0  0  0  0
 25 56  1  0  0  0  0
 25 57  1  0  0  0  0
 26 58  1  0  0  0  0
 26 59  1  0  0  0  0
 26 60  1  0  0  0  0
 27 61  1  0  0  0  0
 28 27  1  0  0  0  0
 28 29  1  0  0  0  0
 28 62  1  6  0  0  0
 29 34  1  0  0  0  0
 29 30  2  0  0  0  0
 31 32  1  0  0  0  0
 31 28  1  0  0  0  0
 31 63  1  0  0  0  0
 32 64  1  0  0  0  0
 32 65  1  0  0  0  0
 32 66  1  0  0  0  0
 33 31  1  0  0  0  0
 33 67  1  0  0  0  0
 33 68  1  0  0  0  0
 33 69  1  0  0  0  0
 34 35  1  0  0  0  0
 34 70  1  0  0  0  0
 35 71  1  0  0  0  0
 35 72  1  0  0  0  0
 35 73  1  0  0  0  0
M  CHG  1  18  -1
M  END
>  <MODEL>
       0

$$$$
selected_4mers/PEVV/796_noH.pdb
 OpenBabel03042518353D

 73 73  0  0  1  0  0  0  0  0999 V2000
  -19.3550   29.2690   25.0600 C   0  0  0  0  0  0  0  0  0  0  0  0
  -19.6200   28.9680   26.5550 C   0  0  0  0  0  0  0  0  0  0  0  0
  -19.3390   27.8830   27.0350 O   0  0  0  0  0  0  0  0  0  0  0  0
  -20.1530   29.9480   27.3080 N   0  0  0  0  0  0  0  0  0  0  0  0
  -20.4010   29.6880   28.7320 C   0  0  2  0  0  0  0  0  0  0  0  0
  -21.3460   28.5580   29.1800 C   0  0  0  0  0  0  0  0  0  0  0  0
  -21.1900   28.0310   30.2890 O   0  0  0  0  0  0  0  0  0  0  0  0
  -20.8610   31.0470   29.2570 C   0  0  0  0  0  0  0  0  0  0  0  0
  -20.0240   32.0130   28.4560 C   0  0  0  0  0  0  0  0  0  0  0  0
  -20.1010   31.4010   27.0440 C   0  0  0  0  0  0  0  0  0  0  0  0
  -22.2900   28.1770   28.3360 N   0  0  0  0  0  0  0  0  0  0  0  0
  -23.2820   27.1960   28.6950 C   0  0  2  0  0  0  0  0  0  0  0  0
  -22.8090   25.7790   29.0380 C   0  0  0  0  0  0  0  0  0  0  0  0
  -23.4550   25.0990   29.8510 O   0  0  0  0  0  0  0  0  0  0  0  0
  -24.3260   27.0940   27.5730 C   0  0  0  0  0  0  0  0  0  0  0  0
  -25.1190   28.3980   27.3140 C   0  0  0  0  0  0  0  0  0  0  0  0
  -25.6800   28.4690   25.8880 C   0  0  0  0  0  0  0  0  0  0  0  0
  -26.5990   27.6570   25.5640 O   0  0  0  0  0  0  0  0  0  0  0  0
  -25.1900   29.3380   25.0870 O   0  0  0  0  0  0  0  0  0  0  0  0
  -21.7190   25.3470   28.4150 N   0  0  0  0  0  0  0  0  0  0  0  0
  -21.1960   23.9890   28.6020 C   0  0  2  0  0  0  0  0  0  0  0  0
  -19.6920   24.0050   28.6950 C   0  0  0  0  0  0  0  0  0  0  0  0
  -19.0170   24.6280   27.8640 O   0  0  0  0  0  0  0  0  0  0  0  0
  -21.5890   23.0260   27.4040 C   0  0  0  0  0  0  0  0  0  0  0  0
  -21.0440   21.6130   27.6920 C   0  0  0  0  0  0  0  0  0  0  0  0
  -23.1150   23.0160   27.2210 C   0  0  0  0  0  0  0  0  0  0  0  0
  -19.1480   23.3370   29.7060 N   0  0  0  0  0  0  0  0  0  0  0  0
  -17.6770   23.2410   29.8480 C   0  0  2  0  0  0  0  0  0  0  0  0
  -17.3590   21.7830   29.5920 C   0  0  0  0  0  0  0  0  0  0  0  0
  -17.9900   20.9130   30.1990 O   0  0  0  0  0  0  0  0  0  0  0  0
  -17.2200   23.6040   31.2910 C   0  0  0  0  0  0  0  0  0  0  0  0
  -15.6810   23.3840   31.4380 C   0  0  0  0  0  0  0  0  0  0  0  0
  -17.5260   25.0810   31.5600 C   0  0  0  0  0  0  0  0  0  0  0  0
  -16.3900   21.4990   28.7220 N   0  0  0  0  0  0  0  0  0  0  0  0
  -16.0630   20.1110   28.4340 C   0  0  0  0  0  0  0  0  0  0  0  0
  -18.9334   28.4044   24.5914 H   0  0  0  0  0  0  0  0  0  0  0  0
  -18.6721   30.0885   24.9768 H   0  0  0  0  0  0  0  0  0  0  0  0
  -20.2763   29.5221   24.5784 H   0  0  0  0  0  0  0  0  0  0  0  0
  -19.4968   29.2848   29.1380 H   0  0  0  0  0  0  0  0  0  0  0  0
  -21.9045   31.1978   29.0749 H   0  0  0  0  0  0  0  0  0  0  0  0
  -20.7403   31.1565   30.3145 H   0  0  0  0  0  0  0  0  0  0  0  0
  -20.4398   32.9987   28.4766 H   0  0  0  0  0  0  0  0  0  0  0  0
  -19.0260   32.1299   28.8238 H   0  0  0  0  0  0  0  0  0  0  0  0
  -20.9807   31.7294   26.5309 H   0  0  0  0  0  0  0  0  0  0  0  0
  -19.2806   31.6847   26.4185 H   0  0  0  0  0  0  0  0  0  0  0  0
  -22.3156   28.5754   27.4361 H   0  0  0  0  0  0  0  0  0  0  0  0
  -23.6696   27.5744   29.6178 H   0  0  0  0  0  0  0  0  0  0  0  0
  -23.8202   26.8253   26.6692 H   0  0  0  0  0  0  0  0  0  0  0  0
  -25.0395   26.3610   27.8868 H   0  0  0  0  0  0  0  0  0  0  0  0
  -25.9333   28.4480   28.0063 H   0  0  0  0  0  0  0  0  0  0  0  0
  -24.4453   29.2196   27.4404 H   0  0  0  0  0  0  0  0  0  0  0  0
  -21.2453   25.9591   27.8065 H   0  0  0  0  0  0  0  0  0  0  0  0
  -21.6313   23.6252   29.5092 H   0  0  0  0  0  0  0  0  0  0  0  0
  -21.1546   23.3766   26.4912 H   0  0  0  0  0  0  0  0  0  0  0  0
  -21.4685   21.2458   28.6030 H   0  0  0  0  0  0  0  0  0  0  0  0
  -19.9789   21.6538   27.7859 H   0  0  0  0  0  0  0  0  0  0  0  0
  -21.3063   20.9586   26.8871 H   0  0  0  0  0  0  0  0  0  0  0  0
  -23.5798   22.6688   28.1201 H   0  0  0  0  0  0  0  0  0  0  0  0
  -23.3729   22.3651   26.4118 H   0  0  0  0  0  0  0  0  0  0  0  0
  -23.4547   24.0071   27.0037 H   0  0  0  0  0  0  0  0  0  0  0  0
  -19.7299   22.9003   30.3692 H   0  0  0  0  0  0  0  0  0  0  0  0
  -17.1820   23.9132   29.1787 H   0  0  0  0  0  0  0  0  0  0  0  0
  -17.7409   22.9797   31.9866 H   0  0  0  0  0  0  0  0  0  0  0  0
  -15.1631   24.0095   30.7412 H   0  0  0  0  0  0  0  0  0  0  0  0
  -15.4467   22.3590   31.2397 H   0  0  0  0  0  0  0  0  0  0  0  0
  -15.3786   23.6328   32.4338 H   0  0  0  0  0  0  0  0  0  0  0  0
  -16.9972   25.6888   30.8558 H   0  0  0  0  0  0  0  0  0  0  0  0
  -17.2169   25.3342   32.5526 H   0  0  0  0  0  0  0  0  0  0  0  0
  -18.5775   25.2514   31.4595 H   0  0  0  0  0  0  0  0  0  0  0  0
  -15.8976   22.2256   28.2761 H   0  0  0  0  0  0  0  0  0  0  0  0
  -16.6979   19.4686   29.0076 H   0  0  0  0  0  0  0  0  0  0  0  0
  -15.0412   19.9246   28.6909 H   0  0  0  0  0  0  0  0  0  0  0  0
  -16.2094   19.9190   27.3916 H   0  0  0  0  0  0  0  0  0  0  0  0
  1  2  1  0  0  0  0
  1 36  1  0  0  0  0
  1 37  1  0  0  0  0
  1 38  1  0  0  0  0
  2  3  2  0  0  0  0
  2  4  1  0  0  0  0
  4  5  1  0  0  0  0
  5  6  1  0  0  0  0
  5  8  1  0  0  0  0
  5 39  1  1  0  0  0
  6  7  2  0  0  0  0
  8 40  1  0  0  0  0
  8 41  1  0  0  0  0
  9  8  1  0  0  0  0
  9 42  1  0  0  0  0
  9 43  1  0  0  0  0
 10  4  1  0  0  0  0
 10  9  1  0  0  0  0
 10 44  1  0  0  0  0
 10 45  1  0  0  0  0
 11 12  1  0  0  0  0
 11  6  1  0  0  0  0
 11 46  1  0  0  0  0
 12 13  1  0  0  0  0
 12 47  1  1  0  0  0
 13 14  2  0  0  0  0
 15 12  1  0  0  0  0
 15 48  1  0  0  0  0
 15 49  1  0  0  0  0
 16 15  1  0  0  0  0
 16 50  1  0  0  0  0
 16 51  1  0  0  0  0
 17 16  1  0  0  0  0
 18 17  1  0  0  0  0
 19 17  2  0  0  0  0
 20 21  1  0  0  0  0
 20 13  1  0  0  0  0
 20 52  1  0  0  0  0
 21 22  1  0  0  0  0
 21 53  1  1  0  0  0
 22 27  1  0  0  0  0
 23 22  2  0  0  0  0
 24 25  1  0  0  0  0
 24 21  1  0  0  0  0
 24 54  1  0  0  0  0
 25 55  1  0  0  0  0
 25 56  1  0  0  0  0
 25 57  1  0  0  0  0
 26 24  1  0  0  0  0
 26 58  1  0  0  0  0
 26 59  1  0  0  0  0
 26 60  1  0  0  0  0
 27 28  1  0  0  0  0
 27 61  1  0  0  0  0
 28 31  1  0  0  0  0
 28 62  1  6  0  0  0
 29 28  1  0  0  0  0
 29 30  2  0  0  0  0
 31 32  1  0  0  0  0
 31 33  1  0  0  0  0
 31 63  1  0  0  0  0
 32 64  1  0  0  0  0
 32 65  1  0  0  0  0
 32 66  1  0  0  0  0
 33 67  1  0  0  0  0
 33 68  1  0  0  0  0
 33 69  1  0  0  0  0
 34 29  1  0  0  0  0
 34 70  1  0  0  0  0
 35 34  1  0  0  0  0
 35 71  1  0  0  0  0
 35 72  1  0  0  0  0
 35 73  1  0  0  0  0
M  CHG  1  18  -1
M  END
>  <MODEL>
       0

$$$$
selected_4mers/PEVV/797_noH.pdb
 OpenBabel03042518353D

 73 73  0  0  1  0  0  0  0  0999 V2000
   15.8250  150.9360   21.6750 C   0  0  0  0  0  0  0  0  0  0  0  0
   15.9050  150.9710   20.1490 C   0  0  0  0  0  0  0  0  0  0  0  0
   16.2670  152.0010   19.5710 O   0  0  0  0  0  0  0  0  0  0  0  0
   15.5210  149.8720   19.4840 N   0  0  0  0  0  0  0  0  0  0  0  0
   15.5820  149.8970   18.0070 C   0  0  2  0  0  0  0  0  0  0  0  0
   14.6990  150.9690   17.3360 C   0  0  0  0  0  0  0  0  0  0  0  0
   13.5680  151.2210   17.7650 O   0  0  0  0  0  0  0  0  0  0  0  0
   15.1540  148.4940   17.5980 C   0  0  0  0  0  0  0  0  0  0  0  0
   15.5370  147.6350   18.8290 C   0  0  0  0  0  0  0  0  0  0  0  0
   15.1540  148.5250   20.0130 C   0  0  0  0  0  0  0  0  0  0  0  0
   15.2450  151.5900   16.2830 N   0  0  0  0  0  0  0  0  0  0  0  0
   14.5610  152.6500   15.5690 C   0  0  2  0  0  0  0  0  0  0  0  0
   13.3950  152.1580   14.7440 C   0  0  0  0  0  0  0  0  0  0  0  0
   12.3780  152.8600   14.6310 O   0  0  0  0  0  0  0  0  0  0  0  0
   15.5320  153.3350   14.6080 C   0  0  0  0  0  0  0  0  0  0  0  0
   16.4800  154.3180   15.2840 C   0  0  0  0  0  0  0  0  0  0  0  0
   17.6030  153.6860   16.1240 C   0  0  0  0  0  0  0  0  0  0  0  0
   17.9280  152.4860   15.9860 O   0  0  0  0  0  0  0  0  0  0  0  0
   18.1580  154.4490   16.9530 O   0  0  0  0  0  0  0  0  0  0  0  0
   13.5220  150.9850   14.1410 N   0  0  0  0  0  0  0  0  0  0  0  0
   12.4640  150.4940   13.2600 C   0  0  2  0  0  0  0  0  0  0  0  0
   12.2780  149.0040   13.5010 C   0  0  0  0  0  0  0  0  0  0  0  0
   13.2680  148.2750   13.6440 O   0  0  0  0  0  0  0  0  0  0  0  0
   12.8520  150.6650   11.7670 C   0  0  0  0  0  0  0  0  0  0  0  0
   11.7250  150.0960   10.8510 C   0  0  0  0  0  0  0  0  0  0  0  0
   13.1390  152.1320   11.4260 C   0  0  0  0  0  0  0  0  0  0  0  0
   11.0230  148.5680   13.5400 N   0  0  0  0  0  0  0  0  0  0  0  0
   10.6980  147.1460   13.6310 C   0  0  2  0  0  0  0  0  0  0  0  0
    9.7590  146.8140   12.5140 C   0  0  0  0  0  0  0  0  0  0  0  0
    8.7710  147.5370   12.2880 O   0  0  0  0  0  0  0  0  0  0  0  0
   10.0090  146.8270   14.9820 C   0  0  0  0  0  0  0  0  0  0  0  0
    9.6790  145.3150   15.1090 C   0  0  0  0  0  0  0  0  0  0  0  0
   10.8980  147.3070   16.1630 C   0  0  0  0  0  0  0  0  0  0  0  0
   10.0790  145.7390   11.7910 N   0  0  0  0  0  0  0  0  0  0  0  0
    9.2400  145.2990   10.6950 C   0  0  0  0  0  0  0  0  0  0  0  0
   15.4952  149.9690   21.9928 H   0  0  0  0  0  0  0  0  0  0  0  0
   15.1321  151.6780   22.0129 H   0  0  0  0  0  0  0  0  0  0  0  0
   16.7917  151.1366   22.0875 H   0  0  0  0  0  0  0  0  0  0  0  0
   16.5658  150.1644   17.6822 H   0  0  0  0  0  0  0  0  0  0  0  0
   15.6819  148.1708   16.7252 H   0  0  0  0  0  0  0  0  0  0  0  0
   14.1161  148.4282   17.3465 H   0  0  0  0  0  0  0  0  0  0  0  0
   16.5851  147.4196   18.8348 H   0  0  0  0  0  0  0  0  0  0  0  0
   15.0468  146.6840   18.8445 H   0  0  0  0  0  0  0  0  0  0  0  0
   15.7179  148.2792   20.8885 H   0  0  0  0  0  0  0  0  0  0  0  0
   14.1336  148.4345   20.3222 H   0  0  0  0  0  0  0  0  0  0  0  0
   16.1422  151.3172   15.9832 H   0  0  0  0  0  0  0  0  0  0  0  0
   14.1925  153.3187   16.3186 H   0  0  0  0  0  0  0  0  0  0  0  0
   16.1172  152.5802   14.1257 H   0  0  0  0  0  0  0  0  0  0  0  0
   14.9398  153.8993   13.9182 H   0  0  0  0  0  0  0  0  0  0  0  0
   15.8998  154.9451   15.9283 H   0  0  0  0  0  0  0  0  0  0  0  0
   16.9682  154.8463   14.4919 H   0  0  0  0  0  0  0  0  0  0  0  0
   14.3308  150.4429   14.2867 H   0  0  0  0  0  0  0  0  0  0  0  0
   11.5749  151.0512   13.4696 H   0  0  0  0  0  0  0  0  0  0  0  0
   13.7518  150.1129   11.5925 H   0  0  0  0  0  0  0  0  0  0  0  0
   10.8200  150.6419   11.0180 H   0  0  0  0  0  0  0  0  0  0  0  0
   11.5661  149.0631   11.0808 H   0  0  0  0  0  0  0  0  0  0  0  0
   12.0158  150.1927    9.8258 H   0  0  0  0  0  0  0  0  0  0  0  0
   12.2571  152.7153   11.5897 H   0  0  0  0  0  0  0  0  0  0  0  0
   13.4321  152.2089   10.3998 H   0  0  0  0  0  0  0  0  0  0  0  0
   13.9281  152.4956   12.0505 H   0  0  0  0  0  0  0  0  0  0  0  0
   10.2893  149.2236   13.5065 H   0  0  0  0  0  0  0  0  0  0  0  0
   11.5968  146.5692   13.5642 H   0  0  0  0  0  0  0  0  0  0  0  0
    9.0803  147.3572   15.0168 H   0  0  0  0  0  0  0  0  0  0  0  0
   10.5860  144.7482   15.0784 H   0  0  0  0  0  0  0  0  0  0  0  0
    9.0458  145.0189   14.2989 H   0  0  0  0  0  0  0  0  0  0  0  0
    9.1778  145.1361   16.0373 H   0  0  0  0  0  0  0  0  0  0  0  0
   11.8318  146.7850   16.1416 H   0  0  0  0  0  0  0  0  0  0  0  0
   10.3993  147.1082   17.0886 H   0  0  0  0  0  0  0  0  0  0  0  0
   11.0750  148.3583   16.0719 H   0  0  0  0  0  0  0  0  0  0  0  0
   10.8982  145.2370   12.0058 H   0  0  0  0  0  0  0  0  0  0  0  0
    8.3994  145.9548   10.6037 H   0  0  0  0  0  0  0  0  0  0  0  0
    8.8968  144.3037   10.8859 H   0  0  0  0  0  0  0  0  0  0  0  0
    9.8041  145.3136    9.7859 H   0  0  0  0  0  0  0  0  0  0  0  0
  1 36  1  0  0  0  0
  1 37  1  0  0  0  0
  1 38  1  0  0  0  0
  2  1  1  0  0  0  0
  3  2  2  0  0  0  0
  4 10  1  0  0  0  0
  4  2  1  0  0  0  0
  5  4  1  0  0  0  0
  5 39  1  6  0  0  0
  6  7  2  0  0  0  0
  6  5  1  0  0  0  0
  8  5  1  0  0  0  0
  8  9  1  0  0  0  0
  8 40  1  0  0  0  0
  8 41  1  0  0  0  0
  9 10  1  0  0  0  0
  9 42  1  0  0  0  0
  9 43  1  0  0  0  0
 10 44  1  0  0  0  0
 10 45  1  0  0  0  0
 11  6  1  0  0  0  0
 11 46  1  0  0  0  0
 12 11  1  0  0  0  0
 12 47  1  1  0  0  0
 13 12  1  0  0  0  0
 14 13  2  0  0  0  0
 15 16  1  0  0  0  0
 15 12  1  0  0  0  0
 15 48  1  0  0  0  0
 15 49  1  0  0  0  0
 16 17  1  0  0  0  0
 16 50  1  0  0  0  0
 16 51  1  0  0  0  0
 17 19  1  0  0  0  0
 18 17  2  0  0  0  0
 20 13  1  0  0  0  0
 20 52  1  0  0  0  0
 21 22  1  0  0  0  0
 21 20  1  0  0  0  0
 21 53  1  1  0  0  0
 22 27  1  0  0  0  0
 22 23  2  0  0  0  0
 24 21  1  0  0  0  0
 24 54  1  0  0  0  0
 25 24  1  0  0  0  0
 25 55  1  0  0  0  0
 25 56  1  0  0  0  0
 25 57  1  0  0  0  0
 26 24  1  0  0  0  0
 26 58  1  0  0  0  0
 26 59  1  0  0  0  0
 26 60  1  0  0  0  0
 27 28  1  0  0  0  0
 27 61  1  0  0  0  0
 28 31  1  0  0  0  0
 28 62  1  6  0  0  0
 29 28  1  0  0  0  0
 30 29  2  0  0  0  0
 31 32  1  0  0  0  0
 31 33  1  0  0  0  0
 31 63  1  0  0  0  0
 32 64  1  0  0  0  0
 32 65  1  0  0  0  0
 32 66  1  0  0  0  0
 33 67  1  0  0  0  0
 33 68  1  0  0  0  0
 33 69  1  0  0  0  0
 34 29  1  0  0  0  0
 34 70  1  0  0  0  0
 35 34  1  0  0  0  0
 35 71  1  0  0  0  0
 35 72  1  0  0  0  0
 35 73  1  0  0  0  0
M  CHG  1  19  -1
M  END
>  <MODEL>
       0

$$$$
selected_4mers/PEVV/798_noH.pdb
 OpenBabel03042518353D

 73 73  0  0  1  0  0  0  0  0999 V2000
   30.1860   66.2810   59.8040 C   0  0  0  0  0  0  0  0  0  0  0  0
   30.1950   64.9810   59.0190 C   0  0  0  0  0  0  0  0  0  0  0  0
   30.1710   63.8940   59.6030 O   0  0  0  0  0  0  0  0  0  0  0  0
   30.2580   65.0860   57.6830 N   0  0  0  0  0  0  0  0  0  0  0  0
   30.1830   63.8870   56.8560 C   0  0  2  0  0  0  0  0  0  0  0  0
   31.3010   62.8970   57.1040 C   0  0  0  0  0  0  0  0  0  0  0  0
   31.0660   61.6830   57.0180 O   0  0  0  0  0  0  0  0  0  0  0  0
   30.2010   64.4190   55.4130 C   0  0  0  0  0  0  0  0  0  0  0  0
   30.6380   65.8090   55.4900 C   0  0  0  0  0  0  0  0  0  0  0  0
   30.3680   66.3170   56.8790 C   0  0  0  0  0  0  0  0  0  0  0  0
   32.4900   63.3810   57.4440 N   0  0  0  0  0  0  0  0  0  0  0  0
   33.6000   62.4790   57.6990 C   0  0  2  0  0  0  0  0  0  0  0  0
   33.3480   61.6020   58.9360 C   0  0  0  0  0  0  0  0  0  0  0  0
   33.8410   60.4700   58.9990 O   0  0  0  0  0  0  0  0  0  0  0  0
   34.9140   63.2440   57.8520 C   0  0  0  0  0  0  0  0  0  0  0  0
   35.1410   63.9200   59.2150 C   0  0  0  0  0  0  0  0  0  0  0  0
   34.3600   65.2240   59.4550 C   0  0  0  0  0  0  0  0  0  0  0  0
   33.5210   65.6220   58.6200 O   0  0  0  0  0  0  0  0  0  0  0  0
   34.6220   65.8650   60.5090 O   0  0  0  0  0  0  0  0  0  0  0  0
   32.6120   62.1310   59.9240 N   0  0  0  0  0  0  0  0  0  0  0  0
   32.2510   61.3610   61.1180 C   0  0  2  0  0  0  0  0  0  0  0  0
   31.1900   60.3110   60.7840 C   0  0  0  0  0  0  0  0  0  0  0  0
   31.2500   59.1960   61.2780 O   0  0  0  0  0  0  0  0  0  0  0  0
   31.7280   62.2550   62.2610 C   0  0  0  0  0  0  0  0  0  0  0  0
   31.2340   61.4160   63.4180 C   0  0  0  0  0  0  0  0  0  0  0  0
   32.8250   63.2110   62.7360 C   0  0  0  0  0  0  0  0  0  0  0  0
   30.2160   60.6630   59.9500 N   0  0  0  0  0  0  0  0  0  0  0  0
   29.2010   59.6900   59.5490 C   0  0  2  0  0  0  0  0  0  0  0  0
   29.8820   58.5260   58.8500 C   0  0  0  0  0  0  0  0  0  0  0  0
   29.6140   57.3610   59.1590 O   0  0  0  0  0  0  0  0  0  0  0  0
   28.1400   60.3090   58.6270 C   0  0  0  0  0  0  0  0  0  0  0  0
   27.1580   59.2260   58.1100 C   0  0  0  0  0  0  0  0  0  0  0  0
   27.4080   61.4160   59.3680 C   0  0  0  0  0  0  0  0  0  0  0  0
   30.7830   58.8400   57.9240 N   0  0  0  0  0  0  0  0  0  0  0  0
   31.5150   57.7930   57.2100 C   0  0  0  0  0  0  0  0  0  0  0  0
   30.2102   67.1077   59.1252 H   0  0  0  0  0  0  0  0  0  0  0  0
   31.0441   66.3182   60.4422 H   0  0  0  0  0  0  0  0  0  0  0  0
   29.2974   66.3330   60.3978 H   0  0  0  0  0  0  0  0  0  0  0  0
   29.3029   63.3227   57.0836 H   0  0  0  0  0  0  0  0  0  0  0  0
   30.8834   63.8493   54.8174 H   0  0  0  0  0  0  0  0  0  0  0  0
   29.2349   64.3414   54.9596 H   0  0  0  0  0  0  0  0  0  0  0  0
   30.0969   66.3975   54.7788 H   0  0  0  0  0  0  0  0  0  0  0  0
   31.6831   65.8777   55.2709 H   0  0  0  0  0  0  0  0  0  0  0  0
   29.4566   66.8767   56.9107 H   0  0  0  0  0  0  0  0  0  0  0  0
   31.1293   66.9794   57.2348 H   0  0  0  0  0  0  0  0  0  0  0  0
   32.6196   64.3537   57.5235 H   0  0  0  0  0  0  0  0  0  0  0  0
   33.6795   61.8359   56.8476 H   0  0  0  0  0  0  0  0  0  0  0  0
   34.9404   64.0047   57.1000 H   0  0  0  0  0  0  0  0  0  0  0  0
   35.6887   62.5119   57.7584 H   0  0  0  0  0  0  0  0  0  0  0  0
   36.1842   64.1416   59.3017 H   0  0  0  0  0  0  0  0  0  0  0  0
   34.7806   63.2270   59.9463 H   0  0  0  0  0  0  0  0  0  0  0  0
   32.3053   63.0632   59.8453 H   0  0  0  0  0  0  0  0  0  0  0  0
   33.1487   60.8834   61.4511 H   0  0  0  0  0  0  0  0  0  0  0  0
   30.9072   62.8290   61.8845 H   0  0  0  0  0  0  0  0  0  0  0  0
   32.0431   60.8343   63.8077 H   0  0  0  0  0  0  0  0  0  0  0  0
   30.4565   60.7637   63.0791 H   0  0  0  0  0  0  0  0  0  0  0  0
   30.8529   62.0564   64.1858 H   0  0  0  0  0  0  0  0  0  0  0  0
   33.6510   62.6460   63.1147 H   0  0  0  0  0  0  0  0  0  0  0  0
   32.4387   63.8407   63.5101 H   0  0  0  0  0  0  0  0  0  0  0  0
   33.1521   63.8146   61.9152 H   0  0  0  0  0  0  0  0  0  0  0  0
   30.1781   61.5828   59.6010 H   0  0  0  0  0  0  0  0  0  0  0  0
   28.6953   59.3517   60.4292 H   0  0  0  0  0  0  0  0  0  0  0  0
   28.6215   60.7327   57.7705 H   0  0  0  0  0  0  0  0  0  0  0  0
   26.6541   58.7761   58.9398 H   0  0  0  0  0  0  0  0  0  0  0  0
   27.7030   58.4767   57.5748 H   0  0  0  0  0  0  0  0  0  0  0  0
   26.4394   59.6779   57.4586 H   0  0  0  0  0  0  0  0  0  0  0  0
   26.9206   61.0075   60.2285 H   0  0  0  0  0  0  0  0  0  0  0  0
   26.6788   61.8568   58.7208 H   0  0  0  0  0  0  0  0  0  0  0  0
   28.1093   62.1630   59.6763 H   0  0  0  0  0  0  0  0  0  0  0  0
   30.9594   59.7861   57.7166 H   0  0  0  0  0  0  0  0  0  0  0  0
   31.1978   56.8333   57.5610 H   0  0  0  0  0  0  0  0  0  0  0  0
   32.5642   57.9081   57.3857 H   0  0  0  0  0  0  0  0  0  0  0  0
   31.3182   57.8721   56.1612 H   0  0  0  0  0  0  0  0  0  0  0  0
  1 36  1  0  0  0  0
  1 37  1  0  0  0  0
  1 38  1  0  0  0  0
  2  3  2  0  0  0  0
  2  1  1  0  0  0  0
  4  2  1  0  0  0  0
  5  6  1  0  0  0  0
  5  4  1  0  0  0  0
  5 39  1  1  0  0  0
  6 11  1  0  0  0  0
  7  6  2  0  0  0  0
  8  9  1  0  0  0  0
  8  5  1  0  0  0  0
  8 40  1  0  0  0  0
  8 41  1  0  0  0  0
  9 10  1  0  0  0  0
  9 42  1  0  0  0  0
  9 43  1  0  0  0  0
 10  4  1  0  0  0  0
 10 44  1  0  0  0  0
 10 45  1  0  0  0  0
 11 12  1  0  0  0  0
 11 46  1  0  0  0  0
 12 15  1  0  0  0  0
 12 13  1  0  0  0  0
 12 47  1  6  0  0  0
 13 14  2  0  0  0  0
 13 20  1  0  0  0  0
 15 16  1  0  0  0  0
 15 48  1  0  0  0  0
 15 49  1  0  0  0  0
 16 17  1  0  0  0  0
 16 50  1  0  0  0  0
 16 51  1  0  0  0  0
 17 19  1  0  0  0  0
 18 17  2  0  0  0  0
 20 21  1  0  0  0  0
 20 52  1  0  0  0  0
 21 24  1  0  0  0  0
 21 53  1  1  0  0  0
 22 21  1  0  0  0  0
 22 23  2  0  0  0  0
 24 26  1  0  0  0  0
 24 25  1  0  0  0  0
 24 54  1  0  0  0  0
 25 55  1  0  0  0  0
 25 56  1  0  0  0  0
 25 57  1  0  0  0  0
 26 58  1  0  0  0  0
 26 59  1  0  0  0  0
 26 60  1  0  0  0  0
 27 22  1  0  0  0  0
 27 61  1  0  0  0  0
 28 27  1  0  0  0  0
 28 62  1  1  0  0  0
 29 30  2  0  0  0  0
 29 28  1  0  0  0  0
 31 33  1  0  0  0  0
 31 28  1  0  0  0  0
 31 63  1  0  0  0  0
 32 31  1  0  0  0  0
 32 64  1  0  0  0  0
 32 65  1  0  0  0  0
 32 66  1  0  0  0  0
 33 67  1  0  0  0  0
 33 68  1  0  0  0  0
 33 69  1  0  0  0  0
 34 29  1  0  0  0  0
 34 70  1  0  0  0  0
 35 34  1  0  0  0  0
 35 71  1  0  0  0  0
 35 72  1  0  0  0  0
 35 73  1  0  0  0  0
M  CHG  1  19  -1
M  END
>  <MODEL>
       0

$$$$
selected_4mers/PEVV/799_noH.pdb
 OpenBabel03042518353D

 73 73  0  0  1  0  0  0  0  0999 V2000
   29.7070   -5.0410   80.8350 C   0  0  0  0  0  0  0  0  0  0  0  0
   29.8920   -6.2850   79.9740 C   0  0  0  0  0  0  0  0  0  0  0  0
   30.2030   -6.1890   78.7870 O   0  0  0  0  0  0  0  0  0  0  0  0
   29.7060   -7.4760   80.5660 N   0  0  0  0  0  0  0  0  0  0  0  0
   29.8500   -8.7210   79.8080 C   0  0  2  0  0  0  0  0  0  0  0  0
   28.8400   -8.7150   78.6590 C   0  0  0  0  0  0  0  0  0  0  0  0
   29.0240   -9.3990   77.6530 O   0  0  0  0  0  0  0  0  0  0  0  0
   29.5320   -9.7940   80.8450 C   0  0  0  0  0  0  0  0  0  0  0  0
   30.0100   -9.1780   82.1210 C   0  0  0  0  0  0  0  0  0  0  0  0
   29.5200   -7.7510   82.0020 C   0  0  0  0  0  0  0  0  0  0  0  0
   27.7690   -7.9400   78.8210 N   0  0  0  0  0  0  0  0  0  0  0  0
   26.7420   -7.8340   77.7880 C   0  0  2  0  0  0  0  0  0  0  0  0
   27.2780   -7.0970   76.5640 C   0  0  0  0  0  0  0  0  0  0  0  0
   26.8180   -7.3210   75.4430 O   0  0  0  0  0  0  0  0  0  0  0  0
   25.5120   -7.1000   78.3220 C   0  0  0  0  0  0  0  0  0  0  0  0
   24.8370   -7.7960   79.4910 C   0  0  0  0  0  0  0  0  0  0  0  0
   24.5580   -9.2550   79.2090 C   0  0  0  0  0  0  0  0  0  0  0  0
   23.9200   -9.5490   78.1770 O   0  0  0  0  0  0  0  0  0  0  0  0
   24.9800  -10.1070   80.0210 O   0  0  0  0  0  0  0  0  0  0  0  0
   28.2460   -6.2100   76.7800 N   0  0  0  0  0  0  0  0  0  0  0  0
   28.8440   -5.4710   75.6740 C   0  0  2  0  0  0  0  0  0  0  0  0
   29.6620   -6.4320   74.8140 C   0  0  0  0  0  0  0  0  0  0  0  0
   29.6110   -6.3810   73.5860 O   0  0  0  0  0  0  0  0  0  0  0  0
   29.7530   -4.3320   76.1880 C   0  0  0  0  0  0  0  0  0  0  0  0
   30.6290   -3.7990   75.0540 C   0  0  0  0  0  0  0  0  0  0  0  0
   28.8950   -3.2160   76.7650 C   0  0  0  0  0  0  0  0  0  0  0  0
   30.4100   -7.3140   75.4690 N   0  0  0  0  0  0  0  0  0  0  0  0
   31.2240   -8.2940   74.7650 C   0  0  2  0  0  0  0  0  0  0  0  0
   30.3200   -9.1860   73.9150 C   0  0  0  0  0  0  0  0  0  0  0  0
   30.5970   -9.4200   72.7390 O   0  0  0  0  0  0  0  0  0  0  0  0
   32.0210   -9.1670   75.7590 C   0  0  0  0  0  0  0  0  0  0  0  0
   32.8790  -10.1700   75.0070 C   0  0  0  0  0  0  0  0  0  0  0  0
   32.8910   -8.2790   76.6390 C   0  0  0  0  0  0  0  0  0  0  0  0
   29.2340   -9.6740   74.5100 N   0  0  0  0  0  0  0  0  0  0  0  0
   28.2960  -10.5290   73.7870 C   0  0  0  0  0  0  0  0  0  0  0  0
   29.8840   -4.1677   80.2426 H   0  0  0  0  0  0  0  0  0  0  0  0
   30.3995   -5.0653   81.6503 H   0  0  0  0  0  0  0  0  0  0  0  0
   28.7076   -5.0167   81.2165 H   0  0  0  0  0  0  0  0  0  0  0  0
   30.8120   -8.8709   79.3642 H   0  0  0  0  0  0  0  0  0  0  0  0
   30.0591  -10.7010   80.6344 H   0  0  0  0  0  0  0  0  0  0  0  0
   28.4972  -10.0652   80.8685 H   0  0  0  0  0  0  0  0  0  0  0  0
   31.0770   -9.2154   82.1921 H   0  0  0  0  0  0  0  0  0  0  0  0
   29.6523   -9.6794   82.9960 H   0  0  0  0  0  0  0  0  0  0  0  0
   28.4906   -7.6698   82.2823 H   0  0  0  0  0  0  0  0  0  0  0  0
   30.0362   -7.0652   82.6408 H   0  0  0  0  0  0  0  0  0  0  0  0
   27.6674   -7.4274   79.6553 H   0  0  0  0  0  0  0  0  0  0  0  0
   26.4634   -8.8273   77.5041 H   0  0  0  0  0  0  0  0  0  0  0  0
   24.8013   -7.0117   77.5270 H   0  0  0  0  0  0  0  0  0  0  0  0
   25.8495   -6.1499   78.6801 H   0  0  0  0  0  0  0  0  0  0  0  0
   23.9102   -7.3022   79.6965 H   0  0  0  0  0  0  0  0  0  0  0  0
   25.5013   -7.7464   80.3284 H   0  0  0  0  0  0  0  0  0  0  0  0
   28.5627   -6.0505   77.6984 H   0  0  0  0  0  0  0  0  0  0  0  0
   28.0592   -5.0325   75.0937 H   0  0  0  0  0  0  0  0  0  0  0  0
   30.3930   -4.7133   76.9560 H   0  0  0  0  0  0  0  0  0  0  0  0
   30.0067   -3.4123   74.2742 H   0  0  0  0  0  0  0  0  0  0  0  0
   31.2337   -4.5925   74.6673 H   0  0  0  0  0  0  0  0  0  0  0  0
   31.2596   -3.0191   75.4268 H   0  0  0  0  0  0  0  0  0  0  0  0
   28.2520   -2.8297   76.0020 H   0  0  0  0  0  0  0  0  0  0  0  0
   29.5264   -2.4329   77.1296 H   0  0  0  0  0  0  0  0  0  0  0  0
   28.3032   -3.6006   77.5692 H   0  0  0  0  0  0  0  0  0  0  0  0
   30.4136   -7.3043   76.4534 H   0  0  0  0  0  0  0  0  0  0  0  0
   31.9189   -7.7733   74.1398 H   0  0  0  0  0  0  0  0  0  0  0  0
   31.3357   -9.7064   76.3789 H   0  0  0  0  0  0  0  0  0  0  0  0
   33.5718   -9.6479   74.3806 H   0  0  0  0  0  0  0  0  0  0  0  0
   32.2528  -10.7937   74.4038 H   0  0  0  0  0  0  0  0  0  0  0  0
   33.4168  -10.7749   75.7069 H   0  0  0  0  0  0  0  0  0  0  0  0
   33.5799   -7.7354   76.0267 H   0  0  0  0  0  0  0  0  0  0  0  0
   33.4333   -8.8864   77.3332 H   0  0  0  0  0  0  0  0  0  0  0  0
   32.2710   -7.5913   77.1753 H   0  0  0  0  0  0  0  0  0  0  0  0
   29.0599   -9.4549   75.4539 H   0  0  0  0  0  0  0  0  0  0  0  0
   28.6372  -10.6625   72.7817 H   0  0  0  0  0  0  0  0  0  0  0  0
   27.3295  -10.0701   73.7776 H   0  0  0  0  0  0  0  0  0  0  0  0
   28.2342  -11.4807   74.2721 H   0  0  0  0  0  0  0  0  0  0  0  0
  1 36  1  0  0  0  0
  1 37  1  0  0  0  0
  1 38  1  0  0  0  0
  2  4  1  0  0  0  0
  2  1  1  0  0  0  0
  3  2  2  0  0  0  0
  4 10  1  0  0  0  0
  5  4  1  0  0  0  0
  5  8  1  0  0  0  0
  5 39  1  6  0  0  0
  6 11  1  0  0  0  0
  6  5  1  0  0  0  0
  7  6  2  0  0  0  0
  8  9  1  0  0  0  0
  8 40  1  0  0  0  0
  8 41  1  0  0  0  0
  9 42  1  0  0  0  0
  9 43  1  0  0  0  0
 10  9  1  0  0  0  0
 10 44  1  0  0  0  0
 10 45  1  0  0  0  0
 11 46  1  0  0  0  0
 12 15  1  0  0  0  0
 12 11  1  0  0  0  0
 12 47  1  6  0  0  0
 13 20  1  0  0  0  0
 13 12  1  0  0  0  0
 14 13  2  0  0  0  0
 15 16  1  0  0  0  0
 15 48  1  0  0  0  0
 15 49  1  0  0  0  0
 16 50  1  0  0  0  0
 16 51  1  0  0  0  0
 17 16  1  0  0  0  0
 17 19  1  0  0  0  0
 18 17  2  0  0  0  0
 20 52  1  0  0  0  0
 21 24  1  0  0  0  0
 21 20  1  0  0  0  0
 21 53  1  6  0  0  0
 22 27  1  0  0  0  0
 22 21  1  0  0  0  0
 23 22  2  0  0  0  0
 24 26  1  0  0  0  0
 24 54  1  0  0  0  0
 25 24  1  0  0  0  0
 25 55  1  0  0  0  0
 25 56  1  0  0  0  0
 25 57  1  0  0  0  0
 26 58  1  0  0  0  0
 26 59  1  0  0  0  0
 26 60  1  0  0  0  0
 27 61  1  0  0  0  0
 28 27  1  0  0  0  0
 28 31  1  0  0  0  0
 28 62  1  6  0  0  0
 29 34  1  0  0  0  0
 29 28  1  0  0  0  0
 30 29  2  0  0  0  0
 31 33  1  0  0  0  0
 31 63  1  0  0  0  0
 32 31  1  0  0  0  0
 32 64  1  0  0  0  0
 32 65  1  0  0  0  0
 32 66  1  0  0  0  0
 33 67  1  0  0  0  0
 33 68  1  0  0  0  0
 33 69  1  0  0  0  0
 34 70  1  0  0  0  0
 35 34  1  0  0  0  0
 35 71  1  0  0  0  0
 35 72  1  0  0  0  0
 35 73  1  0  0  0  0
M  CHG  1  19  -1
M  END
>  <MODEL>
       0

$$$$
