selected_4mers/PGAS/800_noH.pdb
 OpenBabel03042518353D

 54 54  0  0  1  0  0  0  0  0999 V2000
   25.3190    4.3310   25.2180 C   0  0  0  0  0  0  0  0  0  0  0  0
   26.6660    4.9290   25.5980 C   0  0  0  0  0  0  0  0  0  0  0  0
   27.6830    4.5980   24.9880 O   0  0  0  0  0  0  0  0  0  0  0  0
   26.6980    5.8210   26.5970 N   0  0  0  0  0  0  0  0  0  0  0  0
   27.9910    6.3990   26.9720 C   0  0  2  0  0  0  0  0  0  0  0  0
   28.9940    5.3010   27.3350 C   0  0  0  0  0  0  0  0  0  0  0  0
   28.6720    4.3810   28.0880 O   0  0  0  0  0  0  0  0  0  0  0  0
   27.6360    7.2850   28.1640 C   0  0  0  0  0  0  0  0  0  0  0  0
   26.2360    7.7340   27.8340 C   0  0  0  0  0  0  0  0  0  0  0  0
   25.5990    6.4440   27.3570 C   0  0  0  0  0  0  0  0  0  0  0  0
   30.1970    5.3940   26.7750 N   0  0  0  0  0  0  0  0  0  0  0  0
   31.2310    4.4120   27.0560 C   0  0  0  0  0  0  0  0  0  0  0  0
   31.1480    3.0920   26.3070 C   0  0  0  0  0  0  0  0  0  0  0  0
   32.0270    2.2420   26.4610 O   0  0  0  0  0  0  0  0  0  0  0  0
   30.1100    2.9070   25.4960 N   0  0  0  0  0  0  0  0  0  0  0  0
   29.9470    1.6650   24.7440 C   0  0  2  0  0  0  0  0  0  0  0  0
   30.7400    1.6770   23.4410 C   0  0  0  0  0  0  0  0  0  0  0  0
   30.8680    2.7160   22.7900 O   0  0  0  0  0  0  0  0  0  0  0  0
   28.4690    1.4200   24.4490 C   0  0  0  0  0  0  0  0  0  0  0  0
   31.2630    0.5140   23.0620 N   0  0  0  0  0  0  0  0  0  0  0  0
   32.0450    0.3840   21.8350 C   0  0  2  0  0  0  0  0  0  0  0  0
   31.1930   -0.1140   20.6660 C   0  0  0  0  0  0  0  0  0  0  0  0
   31.6280   -0.0830   19.5130 O   0  0  0  0  0  0  0  0  0  0  0  0
   33.2150   -0.5760   22.0570 C   0  0  0  0  0  0  0  0  0  0  0  0
   32.7480   -1.8900   22.3250 O   0  0  0  0  0  0  0  0  0  0  0  0
   29.9820   -0.5730   20.9730 N   0  0  0  0  0  0  0  0  0  0  0  0
   29.0590   -1.0770   19.9590 C   0  0  0  0  0  0  0  0  0  0  0  0
   25.4501    3.6408   24.4109 H   0  0  0  0  0  0  0  0  0  0  0  0
   24.6546    5.1128   24.9143 H   0  0  0  0  0  0  0  0  0  0  0  0
   24.9053    3.8190   26.0616 H   0  0  0  0  0  0  0  0  0  0  0  0
   28.4657    6.9478   26.1856 H   0  0  0  0  0  0  0  0  0  0  0  0
   28.3021    8.1192   28.2372 H   0  0  0  0  0  0  0  0  0  0  0  0
   27.7110    6.7821   29.1055 H   0  0  0  0  0  0  0  0  0  0  0  0
   25.7365    8.1184   28.6987 H   0  0  0  0  0  0  0  0  0  0  0  0
   26.1938    8.5279   27.1179 H   0  0  0  0  0  0  0  0  0  0  0  0
   25.2997    5.8305   28.1810 H   0  0  0  0  0  0  0  0  0  0  0  0
   24.7072    6.5898   26.7840 H   0  0  0  0  0  0  0  0  0  0  0  0
   30.3898    6.1391   26.1611 H   0  0  0  0  0  0  0  0  0  0  0  0
   32.1740    4.8590   26.8196 H   0  0  0  0  0  0  0  0  0  0  0  0
   31.1000    4.1564   28.0867 H   0  0  0  0  0  0  0  0  0  0  0  0
   29.4386    3.6207   25.4006 H   0  0  0  0  0  0  0  0  0  0  0  0
   30.3301    0.8710   25.3504 H   0  0  0  0  0  0  0  0  0  0  0  0
   28.0896    2.2158   23.8426 H   0  0  0  0  0  0  0  0  0  0  0  0
   27.9234    1.3811   25.3686 H   0  0  0  0  0  0  0  0  0  0  0  0
   28.3582    0.4914   23.9290 H   0  0  0  0  0  0  0  0  0  0  0  0
   31.1190   -0.2813   23.6242 H   0  0  0  0  0  0  0  0  0  0  0  0
   32.4137    1.3572   21.5862 H   0  0  0  0  0  0  0  0  0  0  0  0
   33.7958   -0.2342   22.8881 H   0  0  0  0  0  0  0  0  0  0  0  0
   33.8114   -0.5995   21.1689 H   0  0  0  0  0  0  0  0  0  0  0  0
   32.2052   -1.8825   23.1288 H   0  0  0  0  0  0  0  0  0  0  0  0
   29.6985   -0.5729   21.9158 H   0  0  0  0  0  0  0  0  0  0  0  0
   29.5168   -1.0083   18.9943 H   0  0  0  0  0  0  0  0  0  0  0  0
   28.1626   -0.4929   19.9708 H   0  0  0  0  0  0  0  0  0  0  0  0
   28.8216   -2.0989   20.1692 H   0  0  0  0  0  0  0  0  0  0  0  0
  1  2  1  0  0  0  0
  1 28  1  0  0  0  0
  1 29  1  0  0  0  0
  1 30  1  0  0  0  0
  2  4  1  0  0  0  0
  3  2  2  0  0  0  0
  4  5  1  0  0  0  0
  4 10  1  0  0  0  0
  5  6  1  0  0  0  0
  5  8  1  0  0  0  0
  5 31  1  6  0  0  0
  6  7  2  0  0  0  0
  8 32  1  0  0  0  0
  8 33  1  0  0  0  0
  9  8  1  0  0  0  0
  9 34  1  0  0  0  0
  9 35  1  0  0  0  0
 10  9  1  0  0  0  0
 10 36  1  0  0  0  0
 10 37  1  0  0  0  0
 11 12  1  0  0  0  0
 11  6  1  0  0  0  0
 11 38  1  0  0  0  0
 12 39  1  0  0  0  0
 12 40  1  0  0  0  0
 13 14  2  0  0  0  0
 13 12  1  0  0  0  0
 15 13  1  0  0  0  0
 15 41  1  0  0  0  0
 16 15  1  0  0  0  0
 16 42  1  1  0  0  0
 17 16  1  0  0  0  0
 18 17  2  0  0  0  0
 19 16  1  0  0  0  0
 19 43  1  0  0  0  0
 19 44  1  0  0  0  0
 19 45  1  0  0  0  0
 20 17  1  0  0  0  0
 20 46  1  0  0  0  0
 21 24  1  0  0  0  0
 21 20  1  0  0  0  0
 21 47  1  6  0  0  0
 22 26  1  0  0  0  0
 22 21  1  0  0  0  0
 23 22  2  0  0  0  0
 24 25  1  0  0  0  0
 24 48  1  0  0  0  0
 24 49  1  0  0  0  0
 25 50  1  0  0  0  0
 26 51  1  0  0  0  0
 27 26  1  0  0  0  0
 27 52  1  0  0  0  0
 27 53  1  0  0  0  0
 27 54  1  0  0  0  0
M  END
>  <MODEL>
       0

$$$$
selected_4mers/PGAS/801_noH.pdb
 OpenBabel03042518353D

 54 54  0  0  1  0  0  0  0  0999 V2000
   32.8890   36.9170   25.8380 C   0  0  0  0  0  0  0  0  0  0  0  0
   32.9570   38.4660   25.6780 C   0  0  0  0  0  0  0  0  0  0  0  0
   32.8620   38.9080   24.5190 O   0  0  0  0  0  0  0  0  0  0  0  0
   33.1040   39.3150   26.7320 N   0  0  0  0  0  0  0  0  0  0  0  0
   33.1960   40.7590   26.4970 C   0  0  2  0  0  0  0  0  0  0  0  0
   34.4350   41.1180   25.7160 C   0  0  0  0  0  0  0  0  0  0  0  0
   35.4880   40.4650   25.8510 O   0  0  0  0  0  0  0  0  0  0  0  0
   33.2770   41.3910   27.8970 C   0  0  0  0  0  0  0  0  0  0  0  0
   32.8300   40.3350   28.8270 C   0  0  0  0  0  0  0  0  0  0  0  0
   33.1710   39.0270   28.1840 C   0  0  0  0  0  0  0  0  0  0  0  0
   34.2800   42.1090   24.8610 N   0  0  0  0  0  0  0  0  0  0  0  0
   35.4750   42.7970   24.3290 C   0  0  0  0  0  0  0  0  0  0  0  0
   35.5320   42.9660   22.8250 C   0  0  0  0  0  0  0  0  0  0  0  0
   36.5350   43.4710   22.2840 O   0  0  0  0  0  0  0  0  0  0  0  0
   34.4860   42.5210   22.1340 N   0  0  0  0  0  0  0  0  0  0  0  0
   34.4170   42.7170   20.6790 C   0  0  2  0  0  0  0  0  0  0  0  0
   33.0560   43.3450   20.4130 C   0  0  0  0  0  0  0  0  0  0  0  0
   32.1040   42.6460   20.1130 O   0  0  0  0  0  0  0  0  0  0  0  0
   34.5520   41.3620   19.9650 C   0  0  0  0  0  0  0  0  0  0  0  0
   32.9940   44.6760   20.5880 N   0  0  0  0  0  0  0  0  0  0  0  0
   31.7060   45.3430   20.7740 C   0  0  2  0  0  0  0  0  0  0  0  0
   31.2000   45.9840   19.4750 C   0  0  0  0  0  0  0  0  0  0  0  0
   31.8910   46.8160   18.9090 O   0  0  0  0  0  0  0  0  0  0  0  0
   31.8650   46.4320   21.8380 C   0  0  0  0  0  0  0  0  0  0  0  0
   32.1950   45.8640   23.1050 O   0  0  0  0  0  0  0  0  0  0  0  0
   29.9920   45.6120   19.0140 N   0  0  0  0  0  0  0  0  0  0  0  0
   29.4440   46.1560   17.7490 C   0  0  0  0  0  0  0  0  0  0  0  0
   32.7721   36.4638   24.8758 H   0  0  0  0  0  0  0  0  0  0  0  0
   32.0557   36.6587   26.4575 H   0  0  0  0  0  0  0  0  0  0  0  0
   33.7925   36.5652   26.2906 H   0  0  0  0  0  0  0  0  0  0  0  0
   32.3592   41.1056   25.9273 H   0  0  0  0  0  0  0  0  0  0  0  0
   32.6339   42.2438   27.9611 H   0  0  0  0  0  0  0  0  0  0  0  0
   34.2656   41.7312   28.1248 H   0  0  0  0  0  0  0  0  0  0  0  0
   31.7740   40.4047   28.9848 H   0  0  0  0  0  0  0  0  0  0  0  0
   33.3068   40.4326   29.7799 H   0  0  0  0  0  0  0  0  0  0  0  0
   34.1538   38.7099   28.4642 H   0  0  0  0  0  0  0  0  0  0  0  0
   32.5112   38.2380   28.4789 H   0  0  0  0  0  0  0  0  0  0  0  0
   33.3786   42.3877   24.5800 H   0  0  0  0  0  0  0  0  0  0  0  0
   35.5143   43.7715   24.7692 H   0  0  0  0  0  0  0  0  0  0  0  0
   36.3039   42.1684   24.5793 H   0  0  0  0  0  0  0  0  0  0  0  0
   33.7533   42.0573   22.6003 H   0  0  0  0  0  0  0  0  0  0  0  0
   35.2053   43.3421   20.3147 H   0  0  0  0  0  0  0  0  0  0  0  0
   33.7791   40.7030   20.3015 H   0  0  0  0  0  0  0  0  0  0  0  0
   35.5073   40.9348   20.1883 H   0  0  0  0  0  0  0  0  0  0  0  0
   34.4635   41.5053   18.9083 H   0  0  0  0  0  0  0  0  0  0  0  0
   33.8232   45.2068   20.5910 H   0  0  0  0  0  0  0  0  0  0  0  0
   30.9907   44.6078   21.0785 H   0  0  0  0  0  0  0  0  0  0  0  0
   30.9458   46.9727   21.9255 H   0  0  0  0  0  0  0  0  0  0  0  0
   32.6576   47.0864   21.5406 H   0  0  0  0  0  0  0  0  0  0  0  0
   31.4839   45.2677   23.3871 H   0  0  0  0  0  0  0  0  0  0  0  0
   29.4597   44.9634   19.5290 H   0  0  0  0  0  0  0  0  0  0  0  0
   30.1459   46.8414   17.3218 H   0  0  0  0  0  0  0  0  0  0  0  0
   28.5244   46.6654   17.9485 H   0  0  0  0  0  0  0  0  0  0  0  0
   29.2660   45.3540   17.0634 H   0  0  0  0  0  0  0  0  0  0  0  0
  1 28  1  0  0  0  0
  1 29  1  0  0  0  0
  1 30  1  0  0  0  0
  2  1  1  0  0  0  0
  2  4  1  0  0  0  0
  3  2  2  0  0  0  0
  4 10  1  0  0  0  0
  5  4  1  0  0  0  0
  5  8  1  0  0  0  0
  5 31  1  6  0  0  0
  6  7  2  0  0  0  0
  6  5  1  0  0  0  0
  8  9  1  0  0  0  0
  8 32  1  0  0  0  0
  8 33  1  0  0  0  0
  9 34  1  0  0  0  0
  9 35  1  0  0  0  0
 10  9  1  0  0  0  0
 10 36  1  0  0  0  0
 10 37  1  0  0  0  0
 11  6  1  0  0  0  0
 11 38  1  0  0  0  0
 12 11  1  0  0  0  0
 12 39  1  0  0  0  0
 12 40  1  0  0  0  0
 13 12  1  0  0  0  0
 14 13  2  0  0  0  0
 15 13  1  0  0  0  0
 15 41  1  0  0  0  0
 16 15  1  0  0  0  0
 16 42  1  6  0  0  0
 17 20  1  0  0  0  0
 17 16  1  0  0  0  0
 18 17  2  0  0  0  0
 19 16  1  0  0  0  0
 19 43  1  0  0  0  0
 19 44  1  0  0  0  0
 19 45  1  0  0  0  0
 20 21  1  0  0  0  0
 20 46  1  0  0  0  0
 21 24  1  0  0  0  0
 21 47  1  1  0  0  0
 22 21  1  0  0  0  0
 23 22  2  0  0  0  0
 24 25  1  0  0  0  0
 24 48  1  0  0  0  0
 24 49  1  0  0  0  0
 25 50  1  0  0  0  0
 26 22  1  0  0  0  0
 26 51  1  0  0  0  0
 27 26  1  0  0  0  0
 27 52  1  0  0  0  0
 27 53  1  0  0  0  0
 27 54  1  0  0  0  0
M  END
>  <MODEL>
       0

$$$$
selected_4mers/PGAS/802_noH.pdb
 OpenBabel03042518353D

 54 54  0  0  1  0  0  0  0  0999 V2000
   16.4880    1.8460   18.9830 C   0  0  0  0  0  0  0  0  0  0  0  0
   15.5040    2.3330   20.0570 C   0  0  0  0  0  0  0  0  0  0  0  0
   15.9260    2.7150   21.1190 O   0  0  0  0  0  0  0  0  0  0  0  0
   14.1890    2.2900   19.8030 N   0  0  0  0  0  0  0  0  0  0  0  0
   13.2210    2.6890   20.8280 C   0  0  2  0  0  0  0  0  0  0  0  0
   13.3020    1.7480   22.0400 C   0  0  0  0  0  0  0  0  0  0  0  0
   13.3860    0.5250   21.8640 O   0  0  0  0  0  0  0  0  0  0  0  0
   11.8490    2.5460   20.1130 C   0  0  0  0  0  0  0  0  0  0  0  0
   12.0950    1.6660   18.9750 C   0  0  0  0  0  0  0  0  0  0  0  0
   13.5260    1.9040   18.5480 C   0  0  0  0  0  0  0  0  0  0  0  0
   13.3190    2.3140   23.2410 N   0  0  0  0  0  0  0  0  0  0  0  0
   13.4980    1.5440   24.4940 C   0  0  0  0  0  0  0  0  0  0  0  0
   14.9160    1.0790   24.8170 C   0  0  0  0  0  0  0  0  0  0  0  0
   15.1530    0.5420   25.9020 O   0  0  0  0  0  0  0  0  0  0  0  0
   15.8660    1.2940   23.9090 N   0  0  0  0  0  0  0  0  0  0  0  0
   17.2350    0.8650   24.1300 C   0  0  2  0  0  0  0  0  0  0  0  0
   18.0850    1.8520   24.8770 C   0  0  0  0  0  0  0  0  0  0  0  0
   17.8320    3.0690   24.8920 O   0  0  0  0  0  0  0  0  0  0  0  0
   17.9020    0.5850   22.8000 C   0  0  0  0  0  0  0  0  0  0  0  0
   19.1340    1.3080   25.4720 N   0  0  0  0  0  0  0  0  0  0  0  0
   20.1390    2.0680   26.1900 C   0  0  2  0  0  0  0  0  0  0  0  0
   21.5340    1.5880   25.8270 C   0  0  0  0  0  0  0  0  0  0  0  0
   21.6970    0.4000   25.4680 O   0  0  0  0  0  0  0  0  0  0  0  0
   19.9990    1.9030   27.7100 C   0  0  0  0  0  0  0  0  0  0  0  0
   18.6720    2.0920   28.1590 O   0  0  0  0  0  0  0  0  0  0  0  0
   22.5180    2.4830   25.9060 N   0  0  0  0  0  0  0  0  0  0  0  0
   23.9440    2.2130   25.7710 C   0  0  0  0  0  0  0  0  0  0  0  0
   15.9448    1.5464   18.1111 H   0  0  0  0  0  0  0  0  0  0  0  0
   17.0443    1.0135   19.3602 H   0  0  0  0  0  0  0  0  0  0  0  0
   17.1603    2.6388   18.7294 H   0  0  0  0  0  0  0  0  0  0  0  0
   13.3925    3.6764   21.2030 H   0  0  0  0  0  0  0  0  0  0  0  0
   11.1266    2.1122   20.7724 H   0  0  0  0  0  0  0  0  0  0  0  0
   11.4595    3.4941   19.8060 H   0  0  0  0  0  0  0  0  0  0  0  0
   11.9603    0.6441   19.2623 H   0  0  0  0  0  0  0  0  0  0  0  0
   11.4141    1.8693   18.1750 H   0  0  0  0  0  0  0  0  0  0  0  0
   13.5853    2.6903   17.8247 H   0  0  0  0  0  0  0  0  0  0  0  0
   13.9730    1.0512   18.0813 H   0  0  0  0  0  0  0  0  0  0  0  0
   13.2075    3.2903   23.3016 H   0  0  0  0  0  0  0  0  0  0  0  0
   12.8780    0.6742   24.4313 H   0  0  0  0  0  0  0  0  0  0  0  0
   13.2388    2.2222   25.2800 H   0  0  0  0  0  0  0  0  0  0  0  0
   15.6349    1.7538   23.0697 H   0  0  0  0  0  0  0  0  0  0  0  0
   17.1625   -0.0119   24.7389 H   0  0  0  0  0  0  0  0  0  0  0  0
   17.9514    1.4883   22.2286 H   0  0  0  0  0  0  0  0  0  0  0  0
   17.3343   -0.1460   22.2632 H   0  0  0  0  0  0  0  0  0  0  0  0
   18.8917    0.2148   22.9683 H   0  0  0  0  0  0  0  0  0  0  0  0
   19.2384    0.3302   25.4246 H   0  0  0  0  0  0  0  0  0  0  0  0
   19.9942    3.0915   25.9135 H   0  0  0  0  0  0  0  0  0  0  0  0
   20.6290    2.6212   28.1918 H   0  0  0  0  0  0  0  0  0  0  0  0
   20.2832    0.9007   27.9540 H   0  0  0  0  0  0  0  0  0  0  0  0
   18.3858    2.9951   27.9509 H   0  0  0  0  0  0  0  0  0  0  0  0
   22.2564    3.4175   26.0717 H   0  0  0  0  0  0  0  0  0  0  0  0
   24.0941    1.1683   25.5950 H   0  0  0  0  0  0  0  0  0  0  0  0
   24.4479    2.4992   26.6705 H   0  0  0  0  0  0  0  0  0  0  0  0
   24.3368    2.7733   24.9484 H   0  0  0  0  0  0  0  0  0  0  0  0
  1  2  1  0  0  0  0
  1 28  1  0  0  0  0
  1 29  1  0  0  0  0
  1 30  1  0  0  0  0
  2  3  2  0  0  0  0
  4  2  1  0  0  0  0
  4  5  1  0  0  0  0
  5  6  1  0  0  0  0
  5 31  1  1  0  0  0
  6 11  1  0  0  0  0
  7  6  2  0  0  0  0
  8  5  1  0  0  0  0
  8 32  1  0  0  0  0
  8 33  1  0  0  0  0
  9  8  1  0  0  0  0
  9 34  1  0  0  0  0
  9 35  1  0  0  0  0
 10  9  1  0  0  0  0
 10  4  1  0  0  0  0
 10 36  1  0  0  0  0
 10 37  1  0  0  0  0
 11 12  1  0  0  0  0
 11 38  1  0  0  0  0
 12 13  1  0  0  0  0
 12 39  1  0  0  0  0
 12 40  1  0  0  0  0
 13 14  2  0  0  0  0
 15 16  1  0  0  0  0
 15 13  1  0  0  0  0
 15 41  1  0  0  0  0
 16 17  1  0  0  0  0
 16 42  1  1  0  0  0
 17 18  2  0  0  0  0
 17 20  1  0  0  0  0
 19 16  1  0  0  0  0
 19 43  1  0  0  0  0
 19 44  1  0  0  0  0
 19 45  1  0  0  0  0
 20 21  1  0  0  0  0
 20 46  1  0  0  0  0
 21 24  1  0  0  0  0
 21 47  1  6  0  0  0
 22 26  1  0  0  0  0
 22 21  1  0  0  0  0
 23 22  2  0  0  0  0
 24 25  1  0  0  0  0
 24 48  1  0  0  0  0
 24 49  1  0  0  0  0
 25 50  1  0  0  0  0
 26 51  1  0  0  0  0
 27 26  1  0  0  0  0
 27 52  1  0  0  0  0
 27 53  1  0  0  0  0
 27 54  1  0  0  0  0
M  END
>  <MODEL>
       0

$$$$
selected_4mers/PGAS/803_noH.pdb
 OpenBabel03042518353D

 54 54  0  0  1  0  0  0  0  0999 V2000
   39.5300   19.3420   18.1820 C   0  0  0  0  0  0  0  0  0  0  0  0
   38.7670   18.0710   17.7900 C   0  0  0  0  0  0  0  0  0  0  0  0
   38.1880   17.4250   18.6720 O   0  0  0  0  0  0  0  0  0  0  0  0
   38.7380   17.6030   16.5440 N   0  0  0  0  0  0  0  0  0  0  0  0
   38.1590   16.3040   16.1980 C   0  0  2  0  0  0  0  0  0  0  0  0
   38.7020   15.1890   17.0930 C   0  0  0  0  0  0  0  0  0  0  0  0
   39.8860   15.2050   17.4740 O   0  0  0  0  0  0  0  0  0  0  0  0
   38.4970   16.1400   14.7370 C   0  0  0  0  0  0  0  0  0  0  0  0
   38.5270   17.5630   14.2450 C   0  0  0  0  0  0  0  0  0  0  0  0
   39.2360   18.3020   15.3670 C   0  0  0  0  0  0  0  0  0  0  0  0
   37.8230   14.2690   17.4810 N   0  0  0  0  0  0  0  0  0  0  0  0
   38.1360   13.1560   18.3430 C   0  0  0  0  0  0  0  0  0  0  0  0
   37.8810   13.4570   19.8130 C   0  0  0  0  0  0  0  0  0  0  0  0
   37.8560   12.5240   20.6170 O   0  0  0  0  0  0  0  0  0  0  0  0
   37.6450   14.7160   20.2010 N   0  0  0  0  0  0  0  0  0  0  0  0
   37.4830   15.1110   21.5850 C   0  0  2  0  0  0  0  0  0  0  0  0
   36.1170   14.7960   22.1900 C   0  0  0  0  0  0  0  0  0  0  0  0
   35.1980   14.3710   21.4870 O   0  0  0  0  0  0  0  0  0  0  0  0
   37.7300   16.5990   21.6890 C   0  0  0  0  0  0  0  0  0  0  0  0
   35.9540   14.9890   23.4880 N   0  0  0  0  0  0  0  0  0  0  0  0
   34.7150   14.7630   24.2030 C   0  0  2  0  0  0  0  0  0  0  0  0
   34.2770   16.0440   24.8960 C   0  0  0  0  0  0  0  0  0  0  0  0
   35.1070   16.9360   25.1610 O   0  0  0  0  0  0  0  0  0  0  0  0
   34.9320   13.6850   25.2250 C   0  0  0  0  0  0  0  0  0  0  0  0
   35.2360   12.4900   24.5040 O   0  0  0  0  0  0  0  0  0  0  0  0
   32.9790   16.1180   25.2250 N   0  0  0  0  0  0  0  0  0  0  0  0
   32.3840   17.3100   25.7940 C   0  0  0  0  0  0  0  0  0  0  0  0
   39.9696   19.7776   17.3091 H   0  0  0  0  0  0  0  0  0  0  0  0
   40.2994   19.0942   18.8831 H   0  0  0  0  0  0  0  0  0  0  0  0
   38.8534   20.0411   18.6274 H   0  0  0  0  0  0  0  0  0  0  0  0
   37.1023   16.2501   16.3573 H   0  0  0  0  0  0  0  0  0  0  0  0
   39.4489   15.6677   14.6114 H   0  0  0  0  0  0  0  0  0  0  0  0
   37.8039   15.5209   14.2067 H   0  0  0  0  0  0  0  0  0  0  0  0
   37.5361   17.9409   14.1025 H   0  0  0  0  0  0  0  0  0  0  0  0
   39.0138   17.6699   13.2982 H   0  0  0  0  0  0  0  0  0  0  0  0
   38.9648   19.3369   15.3845 H   0  0  0  0  0  0  0  0  0  0  0  0
   40.3025   18.3011   15.2809 H   0  0  0  0  0  0  0  0  0  0  0  0
   36.8968   14.3536   17.1581 H   0  0  0  0  0  0  0  0  0  0  0  0
   39.1695   12.9082   18.2193 H   0  0  0  0  0  0  0  0  0  0  0  0
   37.4965   12.3443   18.0653 H   0  0  0  0  0  0  0  0  0  0  0  0
   37.5778   15.4117   19.5077 H   0  0  0  0  0  0  0  0  0  0  0  0
   38.1898   14.5347   22.1447 H   0  0  0  0  0  0  0  0  0  0  0  0
   36.9969   17.1234   21.1124 H   0  0  0  0  0  0  0  0  0  0  0  0
   38.7066   16.8254   21.3150 H   0  0  0  0  0  0  0  0  0  0  0  0
   37.6613   16.9012   22.7131 H   0  0  0  0  0  0  0  0  0  0  0  0
   36.7289   15.3086   24.0043 H   0  0  0  0  0  0  0  0  0  0  0  0
   33.9526   14.4629   23.5148 H   0  0  0  0  0  0  0  0  0  0  0  0
   34.0464   13.5476   25.8096 H   0  0  0  0  0  0  0  0  0  0  0  0
   35.7264   13.9433   25.8937 H   0  0  0  0  0  0  0  0  0  0  0  0
   34.5023   12.2776   23.9062 H   0  0  0  0  0  0  0  0  0  0  0  0
   32.4076   15.3307   25.0738 H   0  0  0  0  0  0  0  0  0  0  0  0
   33.1316   18.0689   25.8939 H   0  0  0  0  0  0  0  0  0  0  0  0
   31.9774   17.0809   26.7568 H   0  0  0  0  0  0  0  0  0  0  0  0
   31.6035   17.6606   25.1515 H   0  0  0  0  0  0  0  0  0  0  0  0
  1 28  1  0  0  0  0
  1 29  1  0  0  0  0
  1 30  1  0  0  0  0
  2  1  1  0  0  0  0
  2  3  2  0  0  0  0
  4  2  1  0  0  0  0
  5  4  1  0  0  0  0
  5  6  1  0  0  0  0
  5 31  1  1  0  0  0
  6  7  2  0  0  0  0
  6 11  1  0  0  0  0
  8  5  1  0  0  0  0
  8 32  1  0  0  0  0
  8 33  1  0  0  0  0
  9  8  1  0  0  0  0
  9 10  1  0  0  0  0
  9 34  1  0  0  0  0
  9 35  1  0  0  0  0
 10  4  1  0  0  0  0
 10 36  1  0  0  0  0
 10 37  1  0  0  0  0
 11 12  1  0  0  0  0
 11 38  1  0  0  0  0
 12 13  1  0  0  0  0
 12 39  1  0  0  0  0
 12 40  1  0  0  0  0
 13 15  1  0  0  0  0
 13 14  2  0  0  0  0
 15 16  1  0  0  0  0
 15 41  1  0  0  0  0
 16 19  1  0  0  0  0
 16 17  1  0  0  0  0
 16 42  1  1  0  0  0
 17 20  1  0  0  0  0
 18 17  2  0  0  0  0
 19 43  1  0  0  0  0
 19 44  1  0  0  0  0
 19 45  1  0  0  0  0
 20 21  1  0  0  0  0
 20 46  1  0  0  0  0
 21 22  1  0  0  0  0
 21 24  1  0  0  0  0
 21 47  1  6  0  0  0
 22 23  2  0  0  0  0
 22 26  1  0  0  0  0
 24 48  1  0  0  0  0
 24 49  1  0  0  0  0
 25 24  1  0  0  0  0
 25 50  1  0  0  0  0
 26 27  1  0  0  0  0
 26 51  1  0  0  0  0
 27 52  1  0  0  0  0
 27 53  1  0  0  0  0
 27 54  1  0  0  0  0
M  END
>  <MODEL>
       0

$$$$
selected_4mers/PGAS/804_noH.pdb
 OpenBabel03042518353D

 54 54  0  0  1  0  0  0  0  0999 V2000
   33.1650   -7.4270   50.8590 C   0  0  0  0  0  0  0  0  0  0  0  0
   31.9990   -6.6050   50.2640 C   0  0  0  0  0  0  0  0  0  0  0  0
   31.3650   -7.0370   49.3250 O   0  0  0  0  0  0  0  0  0  0  0  0
   31.6810   -5.4370   50.8500 N   0  0  0  0  0  0  0  0  0  0  0  0
   30.5200   -4.7170   50.3350 C   0  0  2  0  0  0  0  0  0  0  0  0
   30.6650   -4.1990   48.8990 C   0  0  0  0  0  0  0  0  0  0  0  0
   29.6590   -3.9720   48.2590 O   0  0  0  0  0  0  0  0  0  0  0  0
   30.3530   -3.5790   51.3360 C   0  0  0  0  0  0  0  0  0  0  0  0
   31.7010   -3.3800   51.8650 C   0  0  0  0  0  0  0  0  0  0  0  0
   32.2920   -4.7240   51.9810 C   0  0  0  0  0  0  0  0  0  0  0  0
   31.9000   -4.0850   48.3940 N   0  0  0  0  0  0  0  0  0  0  0  0
   32.1590   -3.7860   46.9840 C   0  0  0  0  0  0  0  0  0  0  0  0
   31.8660   -4.9390   46.0230 C   0  0  0  0  0  0  0  0  0  0  0  0
   31.9370   -4.7740   44.8070 O   0  0  0  0  0  0  0  0  0  0  0  0
   31.4810   -6.0970   46.5530 N   0  0  0  0  0  0  0  0  0  0  0  0
   31.2120   -7.2870   45.7220 C   0  0  2  0  0  0  0  0  0  0  0  0
   29.7270   -7.4730   45.5640 C   0  0  0  0  0  0  0  0  0  0  0  0
   29.0190   -7.5370   46.5680 O   0  0  0  0  0  0  0  0  0  0  0  0
   31.8600   -8.5580   46.3770 C   0  0  0  0  0  0  0  0  0  0  0  0
   29.2590   -7.5400   44.3020 N   0  0  0  0  0  0  0  0  0  0  0  0
   27.8350   -7.7760   44.0040 C   0  0  2  0  0  0  0  0  0  0  0  0
   27.3530   -9.0310   44.6980 C   0  0  0  0  0  0  0  0  0  0  0  0
   26.2830   -9.0350   45.2770 O   0  0  0  0  0  0  0  0  0  0  0  0
   27.5910   -7.8490   42.4870 C   0  0  0  0  0  0  0  0  0  0  0  0
   28.3960   -8.8490   41.9010 O   0  0  0  0  0  0  0  0  0  0  0  0
   28.1930  -10.0690   44.7120 N   0  0  0  0  0  0  0  0  0  0  0  0
   27.8670  -11.3390   45.3390 C   0  0  0  0  0  0  0  0  0  0  0  0
   33.2967   -8.3231   50.2894 H   0  0  0  0  0  0  0  0  0  0  0  0
   32.9416   -7.6795   51.8745 H   0  0  0  0  0  0  0  0  0  0  0  0
   34.0638   -6.8474   50.8250 H   0  0  0  0  0  0  0  0  0  0  0  0
   29.6694   -5.3613   50.2557 H   0  0  0  0  0  0  0  0  0  0  0  0
   29.6741   -3.8539   52.1160 H   0  0  0  0  0  0  0  0  0  0  0  0
   29.9474   -2.6937   50.8925 H   0  0  0  0  0  0  0  0  0  0  0  0
   31.6583   -2.9082   52.8244 H   0  0  0  0  0  0  0  0  0  0  0  0
   32.2838   -2.7484   51.2275 H   0  0  0  0  0  0  0  0  0  0  0  0
   33.3571   -4.6879   51.8858 H   0  0  0  0  0  0  0  0  0  0  0  0
   32.1117   -5.1898   52.9273 H   0  0  0  0  0  0  0  0  0  0  0  0
   32.6681   -4.2077   48.9975 H   0  0  0  0  0  0  0  0  0  0  0  0
   31.5487   -2.9536   46.7021 H   0  0  0  0  0  0  0  0  0  0  0  0
   33.2069   -3.5849   46.9048 H   0  0  0  0  0  0  0  0  0  0  0  0
   31.3722   -6.1622   47.5293 H   0  0  0  0  0  0  0  0  0  0  0  0
   31.6454   -7.1464   44.7538 H   0  0  0  0  0  0  0  0  0  0  0  0
   31.4374   -8.7138   47.3476 H   0  0  0  0  0  0  0  0  0  0  0  0
   32.9164   -8.4136   46.4669 H   0  0  0  0  0  0  0  0  0  0  0  0
   31.6679   -9.4129   45.7629 H   0  0  0  0  0  0  0  0  0  0  0  0
   29.8893   -7.4276   43.5542 H   0  0  0  0  0  0  0  0  0  0  0  0
   27.2704   -6.9483   44.3796 H   0  0  0  0  0  0  0  0  0  0  0  0
   26.5611   -8.0768   42.3072 H   0  0  0  0  0  0  0  0  0  0  0  0
   27.8432   -6.9047   42.0517 H   0  0  0  0  0  0  0  0  0  0  0  0
   28.1753   -9.7102   42.2889 H   0  0  0  0  0  0  0  0  0  0  0  0
   29.0714   -9.9696   44.2787 H   0  0  0  0  0  0  0  0  0  0  0  0
   26.8853  -11.2866   45.7614 H   0  0  0  0  0  0  0  0  0  0  0  0
   28.5771  -11.5480   46.1116 H   0  0  0  0  0  0  0  0  0  0  0  0
   27.8986  -12.1174   44.6055 H   0  0  0  0  0  0  0  0  0  0  0  0
  1 28  1  0  0  0  0
  1 29  1  0  0  0  0
  1 30  1  0  0  0  0
  2  4  1  0  0  0  0
  2  1  1  0  0  0  0
  3  2  2  0  0  0  0
  4 10  1  0  0  0  0
  5  4  1  0  0  0  0
  5  8  1  0  0  0  0
  5 31  1  1  0  0  0
  6  5  1  0  0  0  0
  7  6  2  0  0  0  0
  8  9  1  0  0  0  0
  8 32  1  0  0  0  0
  8 33  1  0  0  0  0
  9 10  1  0  0  0  0
  9 34  1  0  0  0  0
  9 35  1  0  0  0  0
 10 36  1  0  0  0  0
 10 37  1  0  0  0  0
 11  6  1  0  0  0  0
 11 38  1  0  0  0  0
 12 11  1  0  0  0  0
 12 39  1  0  0  0  0
 12 40  1  0  0  0  0
 13 15  1  0  0  0  0
 13 12  1  0  0  0  0
 14 13  2  0  0  0  0
 15 41  1  0  0  0  0
 16 19  1  0  0  0  0
 16 15  1  0  0  0  0
 16 42  1  6  0  0  0
 17 16  1  0  0  0  0
 17 18  2  0  0  0  0
 19 43  1  0  0  0  0
 19 44  1  0  0  0  0
 19 45  1  0  0  0  0
 20 17  1  0  0  0  0
 20 46  1  0  0  0  0
 21 20  1  0  0  0  0
 21 22  1  0  0  0  0
 21 47  1  1  0  0  0
 22 26  1  0  0  0  0
 22 23  2  0  0  0  0
 24 21  1  0  0  0  0
 24 48  1  0  0  0  0
 24 49  1  0  0  0  0
 25 24  1  0  0  0  0
 25 50  1  0  0  0  0
 26 27  1  0  0  0  0
 26 51  1  0  0  0  0
 27 52  1  0  0  0  0
 27 53  1  0  0  0  0
 27 54  1  0  0  0  0
M  END
>  <MODEL>
       0

$$$$
