selected_4mers/PLAP/775_noH.pdb
 OpenBabel03042518353D

 69 70  0  0  1  0  0  0  0  0999 V2000
   95.0220   61.0900   66.4020 C   0  0  0  0  0  0  0  0  0  0  0  0
   95.6730   62.1610   65.5600 C   0  0  0  0  0  0  0  0  0  0  0  0
   95.1980   62.4700   64.4940 O   0  0  0  0  0  0  0  0  0  0  0  0
   96.7750   62.7100   66.0420 N   0  0  0  0  0  0  0  0  0  0  0  0
   97.5110   63.6700   65.2520 C   0  0  2  0  0  0  0  0  0  0  0  0
   98.2740   62.9780   64.1150 C   0  0  0  0  0  0  0  0  0  0  0  0
   98.8190   61.8910   64.2980 O   0  0  0  0  0  0  0  0  0  0  0  0
   98.4940   64.2450   66.2660 C   0  0  0  0  0  0  0  0  0  0  0  0
   98.7340   63.1230   67.2150 C   0  0  0  0  0  0  0  0  0  0  0  0
   97.4460   62.4050   67.3180 C   0  0  0  0  0  0  0  0  0  0  0  0
   98.2960   63.6120   62.9610 N   0  0  0  0  0  0  0  0  0  0  0  0
   99.0020   63.0960   61.8020 C   0  0  2  0  0  0  0  0  0  0  0  0
  100.1180   64.0620   61.4830 C   0  0  0  0  0  0  0  0  0  0  0  0
   99.8880   65.1270   60.9420 O   0  0  0  0  0  0  0  0  0  0  0  0
   98.0610   63.0100   60.6110 C   0  0  0  0  0  0  0  0  0  0  0  0
   96.8330   62.1290   60.7720 C   0  0  0  0  0  0  0  0  0  0  0  0
   95.9520   62.2010   59.5290 C   0  0  0  0  0  0  0  0  0  0  0  0
   97.2780   60.7200   61.0790 C   0  0  0  0  0  0  0  0  0  0  0  0
  101.3160   63.6820   61.8580 N   0  0  0  0  0  0  0  0  0  0  0  0
  102.5060   64.4770   61.6210 C   0  0  2  0  0  0  0  0  0  0  0  0
  103.3130   63.7290   60.5770 C   0  0  0  0  0  0  0  0  0  0  0  0
  103.2880   62.5150   60.5290 O   0  0  0  0  0  0  0  0  0  0  0  0
  103.2900   64.6450   62.9050 C   0  0  0  0  0  0  0  0  0  0  0  0
  103.9980   64.4580   59.7030 N   0  0  0  0  0  0  0  0  0  0  0  0
  104.7790   63.7790   58.6840 C   0  0  2  0  0  0  0  0  0  0  0  0
  105.8780   62.8780   59.2560 C   0  0  0  0  0  0  0  0  0  0  0  0
  106.3960   63.1400   60.3510 O   0  0  0  0  0  0  0  0  0  0  0  0
  105.3900   64.9330   57.8840 C   0  0  0  0  0  0  0  0  0  0  0  0
  105.2580   66.1290   58.7060 C   0  0  0  0  0  0  0  0  0  0  0  0
  104.0760   65.9210   59.5800 C   0  0  0  0  0  0  0  0  0  0  0  0
  106.2380   61.8430   58.4950 N   0  0  0  0  0  0  0  0  0  0  0  0
  107.3580   60.9640   58.8250 C   0  0  0  0  0  0  0  0  0  0  0  0
   94.1459   60.7290   65.9050 H   0  0  0  0  0  0  0  0  0  0  0  0
   94.7497   61.4997   67.3522 H   0  0  0  0  0  0  0  0  0  0  0  0
   95.7090   60.2824   66.5455 H   0  0  0  0  0  0  0  0  0  0  0  0
   96.8844   64.4014   64.7858 H   0  0  0  0  0  0  0  0  0  0  0  0
   98.0690   65.0864   66.7722 H   0  0  0  0  0  0  0  0  0  0  0  0
   99.3955   64.5974   65.8100 H   0  0  0  0  0  0  0  0  0  0  0  0
   99.0286   63.5002   68.1720 H   0  0  0  0  0  0  0  0  0  0  0  0
   99.5191   62.4798   66.8762 H   0  0  0  0  0  0  0  0  0  0  0  0
   97.6033   61.3520   67.4246 H   0  0  0  0  0  0  0  0  0  0  0  0
   96.8718   62.7022   68.1706 H   0  0  0  0  0  0  0  0  0  0  0  0
   97.8158   64.4678   62.8812 H   0  0  0  0  0  0  0  0  0  0  0  0
   99.3837   62.1176   62.0067 H   0  0  0  0  0  0  0  0  0  0  0  0
   97.7222   64.0014   60.3935 H   0  0  0  0  0  0  0  0  0  0  0  0
   98.6348   62.5522   59.8325 H   0  0  0  0  0  0  0  0  0  0  0  0
   96.2355   62.4780   61.5882 H   0  0  0  0  0  0  0  0  0  0  0  0
   96.5058   61.8606   58.6791 H   0  0  0  0  0  0  0  0  0  0  0  0
   95.6410   63.2124   59.3703 H   0  0  0  0  0  0  0  0  0  0  0  0
   95.0911   61.5804   59.6656 H   0  0  0  0  0  0  0  0  0  0  0  0
   97.8781   60.3519   60.2732 H   0  0  0  0  0  0  0  0  0  0  0  0
   96.4193   60.0930   61.1995 H   0  0  0  0  0  0  0  0  0  0  0  0
   97.8521   60.7160   61.9820 H   0  0  0  0  0  0  0  0  0  0  0  0
  101.4119   62.8185   62.3211 H   0  0  0  0  0  0  0  0  0  0  0  0
  102.2630   65.4613   61.2789 H   0  0  0  0  0  0  0  0  0  0  0  0
  103.5575   63.6824   63.2881 H   0  0  0  0  0  0  0  0  0  0  0  0
  102.6894   65.1610   63.6247 H   0  0  0  0  0  0  0  0  0  0  0  0
  104.1773   65.2103   62.7098 H   0  0  0  0  0  0  0  0  0  0  0  0
  104.1721   63.1152   58.1044 H   0  0  0  0  0  0  0  0  0  0  0  0
  104.8645   65.0604   56.9607 H   0  0  0  0  0  0  0  0  0  0  0  0
  106.4158   64.7382   57.6501 H   0  0  0  0  0  0  0  0  0  0  0  0
  105.1105   66.9880   58.0853 H   0  0  0  0  0  0  0  0  0  0  0  0
  106.1409   66.2944   59.2875 H   0  0  0  0  0  0  0  0  0  0  0  0
  103.1904   66.3151   59.1269 H   0  0  0  0  0  0  0  0  0  0  0  0
  104.1620   66.4161   60.5246 H   0  0  0  0  0  0  0  0  0  0  0  0
  105.7258   61.6632   57.6737 H   0  0  0  0  0  0  0  0  0  0  0  0
  107.8087   61.2886   59.7395 H   0  0  0  0  0  0  0  0  0  0  0  0
  108.0824   60.9987   58.0383 H   0  0  0  0  0  0  0  0  0  0  0  0
  107.0028   59.9611   58.9388 H   0  0  0  0  0  0  0  0  0  0  0  0
  1 33  1  0  0  0  0
  1 34  1  0  0  0  0
  1 35  1  0  0  0  0
  2  4  1  0  0  0  0
  2  1  1  0  0  0  0
  3  2  2  0  0  0  0
  4 10  1  0  0  0  0
  5  4  1  0  0  0  0
  5  8  1  0  0  0  0
  5 36  1  6  0  0  0
  6  7  2  0  0  0  0
  6  5  1  0  0  0  0
  8  9  1  0  0  0  0
  8 37  1  0  0  0  0
  8 38  1  0  0  0  0
  9 10  1  0  0  0  0
  9 39  1  0  0  0  0
  9 40  1  0  0  0  0
 10 41  1  0  0  0  0
 10 42  1  0  0  0  0
 11  6  1  0  0  0  0
 11 43  1  0  0  0  0
 12 11  1  0  0  0  0
 12 44  1  1  0  0  0
 13 12  1  0  0  0  0
 13 19  1  0  0  0  0
 14 13  2  0  0  0  0
 15 16  1  0  0  0  0
 15 12  1  0  0  0  0
 15 45  1  0  0  0  0
 15 46  1  0  0  0  0
 16 18  1  0  0  0  0
 16 47  1  0  0  0  0
 17 16  1  0  0  0  0
 17 48  1  0  0  0  0
 17 49  1  0  0  0  0
 17 50  1  0  0  0  0
 18 51  1  0  0  0  0
 18 52  1  0  0  0  0
 18 53  1  0  0  0  0
 19 54  1  0  0  0  0
 20 19  1  0  0  0  0
 20 23  1  0  0  0  0
 20 55  1  6  0  0  0
 21 20  1  0  0  0  0
 22 21  2  0  0  0  0
 23 56  1  0  0  0  0
 23 57  1  0  0  0  0
 23 58  1  0  0  0  0
 24 21  1  0  0  0  0
 25 26  1  0  0  0  0
 25 24  1  0  0  0  0
 25 59  1  6  0  0  0
 26 27  2  0  0  0  0
 28 25  1  0  0  0  0
 28 29  1  0  0  0  0
 28 60  1  0  0  0  0
 28 61  1  0  0  0  0
 29 30  1  0  0  0  0
 29 62  1  0  0  0  0
 29 63  1  0  0  0  0
 30 24  1  0  0  0  0
 30 64  1  0  0  0  0
 30 65  1  0  0  0  0
 31 32  1  0  0  0  0
 31 26  1  0  0  0  0
 31 66  1  0  0  0  0
 32 67  1  0  0  0  0
 32 68  1  0  0  0  0
 32 69  1  0  0  0  0
M  END
>  <MODEL>
       0

$$$$
selected_4mers/PLAP/776_noH.pdb
 OpenBabel03042518353D

 69 70  0  0  1  0  0  0  0  0999 V2000
   52.2280    2.2860   31.8030 C   0  0  0  0  0  0  0  0  0  0  0  0
   52.1780    3.3550   32.8860 C   0  0  0  0  0  0  0  0  0  0  0  0
   52.2880    4.5440   32.5970 O   0  0  0  0  0  0  0  0  0  0  0  0
   52.0050    2.9410   34.1510 N   0  0  0  0  0  0  0  0  0  0  0  0
   51.9500    3.8920   35.2630 C   0  0  2  0  0  0  0  0  0  0  0  0
   53.3600    4.1520   35.7970 C   0  0  0  0  0  0  0  0  0  0  0  0
   53.9700    3.2730   36.4030 O   0  0  0  0  0  0  0  0  0  0  0  0
   51.0760    3.1690   36.2760 C   0  0  0  0  0  0  0  0  0  0  0  0
   51.5320    1.7470   36.1140 C   0  0  0  0  0  0  0  0  0  0  0  0
   51.6330    1.5850   34.6020 C   0  0  0  0  0  0  0  0  0  0  0  0
   53.8790    5.3530   35.5610 N   0  0  0  0  0  0  0  0  0  0  0  0
   55.2180    5.7010   36.0340 C   0  0  2  0  0  0  0  0  0  0  0  0
   55.1450    6.2340   37.4580 C   0  0  0  0  0  0  0  0  0  0  0  0
   56.1170    6.1730   38.2150 O   0  0  0  0  0  0  0  0  0  0  0  0
   55.8500    6.7400   35.1050 C   0  0  0  0  0  0  0  0  0  0  0  0
   56.0140    6.2900   33.6470 C   0  0  0  0  0  0  0  0  0  0  0  0
   56.6160    7.4190   32.8260 C   0  0  0  0  0  0  0  0  0  0  0  0
   56.9000    5.0560   33.5790 C   0  0  0  0  0  0  0  0  0  0  0  0
   53.9740    6.7480   37.8150 N   0  0  0  0  0  0  0  0  0  0  0  0
   53.7190    7.2870   39.1450 C   0  0  2  0  0  0  0  0  0  0  0  0
   52.2250    7.5510   39.2110 C   0  0  0  0  0  0  0  0  0  0  0  0
   51.5860    7.7580   38.1810 O   0  0  0  0  0  0  0  0  0  0  0  0
   54.4920    8.5870   39.3500 C   0  0  0  0  0  0  0  0  0  0  0  0
   51.6400    7.5280   40.4180 N   0  0  0  0  0  0  0  0  0  0  0  0
   50.1990    7.7840   40.5050 C   0  0  2  0  0  0  0  0  0  0  0  0
   49.8720    9.1110   39.8220 C   0  0  0  0  0  0  0  0  0  0  0  0
   50.4580   10.1420   40.1490 O   0  0  0  0  0  0  0  0  0  0  0  0
   49.9500    7.8250   42.0110 C   0  0  0  0  0  0  0  0  0  0  0  0
   50.9790    6.8680   42.5430 C   0  0  0  0  0  0  0  0  0  0  0  0
   52.2090    7.2450   41.7470 C   0  0  0  0  0  0  0  0  0  0  0  0
   48.9530    9.0790   38.8610 N   0  0  0  0  0  0  0  0  0  0  0  0
   48.5840   10.2920   38.1550 C   0  0  0  0  0  0  0  0  0  0  0  0
   52.3689    2.7506   30.8495 H   0  0  0  0  0  0  0  0  0  0  0  0
   51.3091    1.7378   31.8003 H   0  0  0  0  0  0  0  0  0  0  0  0
   53.0411    1.6184   31.9981 H   0  0  0  0  0  0  0  0  0  0  0  0
   51.5622    4.8553   35.0051 H   0  0  0  0  0  0  0  0  0  0  0  0
   50.0376    3.2746   36.0406 H   0  0  0  0  0  0  0  0  0  0  0  0
   51.1686    3.5432   37.2742 H   0  0  0  0  0  0  0  0  0  0  0  0
   52.4824    1.5931   36.5809 H   0  0  0  0  0  0  0  0  0  0  0  0
   50.8708    1.0394   36.5690 H   0  0  0  0  0  0  0  0  0  0  0  0
   52.3865    0.8717   34.3404 H   0  0  0  0  0  0  0  0  0  0  0  0
   50.7315    1.2223   34.1540 H   0  0  0  0  0  0  0  0  0  0  0  0
   53.3537    6.0182   35.0601 H   0  0  0  0  0  0  0  0  0  0  0  0
   55.8294    4.8229   36.0285 H   0  0  0  0  0  0  0  0  0  0  0  0
   55.2328    7.6140   35.1155 H   0  0  0  0  0  0  0  0  0  0  0  0
   56.8378    6.9138   35.4778 H   0  0  0  0  0  0  0  0  0  0  0  0
   55.0538    6.0429   33.2447 H   0  0  0  0  0  0  0  0  0  0  0  0
   57.5773    7.6737   33.2208 H   0  0  0  0  0  0  0  0  0  0  0  0
   55.9742    8.2740   32.8706 H   0  0  0  0  0  0  0  0  0  0  0  0
   56.7202    7.1040   31.8088 H   0  0  0  0  0  0  0  0  0  0  0  0
   57.8653    5.2875   33.9784 H   0  0  0  0  0  0  0  0  0  0  0  0
   57.0008    4.7450   32.5602 H   0  0  0  0  0  0  0  0  0  0  0  0
   56.4574    4.2672   34.1506 H   0  0  0  0  0  0  0  0  0  0  0  0
   53.2461    6.7658   37.1524 H   0  0  0  0  0  0  0  0  0  0  0  0
   54.0331    6.6059   39.9081 H   0  0  0  0  0  0  0  0  0  0  0  0
   54.2031    9.2955   38.6020 H   0  0  0  0  0  0  0  0  0  0  0  0
   55.5416    8.3940   39.2720 H   0  0  0  0  0  0  0  0  0  0  0  0
   54.2733    8.9829   40.3197 H   0  0  0  0  0  0  0  0  0  0  0  0
   49.5857    7.0542   40.0191 H   0  0  0  0  0  0  0  0  0  0  0  0
   48.9594    7.4967   42.2472 H   0  0  0  0  0  0  0  0  0  0  0  0
   50.0289    8.8075   42.4275 H   0  0  0  0  0  0  0  0  0  0  0  0
   51.1366    7.0115   43.5916 H   0  0  0  0  0  0  0  0  0  0  0  0
   50.7013    5.8396   42.4425 H   0  0  0  0  0  0  0  0  0  0  0  0
   52.6873    8.1098   42.1571 H   0  0  0  0  0  0  0  0  0  0  0  0
   52.9662    6.4890   41.7397 H   0  0  0  0  0  0  0  0  0  0  0  0
   48.5200    8.2264   38.6270 H   0  0  0  0  0  0  0  0  0  0  0  0
   49.1511   11.1144   38.5384 H   0  0  0  0  0  0  0  0  0  0  0  0
   47.5404   10.4825   38.2946 H   0  0  0  0  0  0  0  0  0  0  0  0
   48.7884   10.1735   37.1114 H   0  0  0  0  0  0  0  0  0  0  0  0
  1  2  1  0  0  0  0
  1 33  1  0  0  0  0
  1 34  1  0  0  0  0
  1 35  1  0  0  0  0
  2  4  1  0  0  0  0
  3  2  2  0  0  0  0
  4 10  1  0  0  0  0
  4  5  1  0  0  0  0
  5  6  1  0  0  0  0
  5  8  1  0  0  0  0
  5 36  1  6  0  0  0
  6  7  2  0  0  0  0
  8 37  1  0  0  0  0
  8 38  1  0  0  0  0
  9  8  1  0  0  0  0
  9 39  1  0  0  0  0
  9 40  1  0  0  0  0
 10  9  1  0  0  0  0
 10 41  1  0  0  0  0
 10 42  1  0  0  0  0
 11  6  1  0  0  0  0
 11 12  1  0  0  0  0
 11 43  1  0  0  0  0
 12 13  1  0  0  0  0
 12 44  1  6  0  0  0
 13 19  1  0  0  0  0
 13 14  2  0  0  0  0
 15 12  1  0  0  0  0
 15 45  1  0  0  0  0
 15 46  1  0  0  0  0
 16 15  1  0  0  0  0
 16 47  1  0  0  0  0
 17 16  1  0  0  0  0
 17 48  1  0  0  0  0
 17 49  1  0  0  0  0
 17 50  1  0  0  0  0
 18 16  1  0  0  0  0
 18 51  1  0  0  0  0
 18 52  1  0  0  0  0
 18 53  1  0  0  0  0
 19 20  1  0  0  0  0
 19 54  1  0  0  0  0
 20 21  1  0  0  0  0
 20 23  1  0  0  0  0
 20 55  1  1  0  0  0
 21 24  1  0  0  0  0
 22 21  2  0  0  0  0
 23 56  1  0  0  0  0
 23 57  1  0  0  0  0
 23 58  1  0  0  0  0
 24 25  1  0  0  0  0
 24 30  1  0  0  0  0
 25 28  1  0  0  0  0
 25 59  1  6  0  0  0
 26 27  2  0  0  0  0
 26 25  1  0  0  0  0
 28 29  1  0  0  0  0
 28 60  1  0  0  0  0
 28 61  1  0  0  0  0
 29 62  1  0  0  0  0
 29 63  1  0  0  0  0
 30 29  1  0  0  0  0
 30 64  1  0  0  0  0
 30 65  1  0  0  0  0
 31 26  1  0  0  0  0
 31 66  1  0  0  0  0
 32 31  1  0  0  0  0
 32 67  1  0  0  0  0
 32 68  1  0  0  0  0
 32 69  1  0  0  0  0
M  END
>  <MODEL>
       0

$$$$
selected_4mers/PLAP/777_noH.pdb
 OpenBabel03042518353D

 69 70  0  0  1  0  0  0  0  0999 V2000
   68.0330   43.4680   49.7530 C   0  0  0  0  0  0  0  0  0  0  0  0
   67.3070   43.5820   51.0930 C   0  0  0  0  0  0  0  0  0  0  0  0
   66.0840   43.4780   51.1520 O   0  0  0  0  0  0  0  0  0  0  0  0
   68.0510   43.8080   52.1870 N   0  0  0  0  0  0  0  0  0  0  0  0
   67.4310   43.9270   53.5120 C   0  0  2  0  0  0  0  0  0  0  0  0
   66.5300   45.1500   53.7020 C   0  0  0  0  0  0  0  0  0  0  0  0
   65.8410   45.2690   54.7160 O   0  0  0  0  0  0  0  0  0  0  0  0
   68.6350   43.9170   54.4570 C   0  0  0  0  0  0  0  0  0  0  0  0
   69.7190   44.5350   53.6350 C   0  0  0  0  0  0  0  0  0  0  0  0
   69.5200   43.8790   52.2840 C   0  0  0  0  0  0  0  0  0  0  0  0
   66.5350   46.0580   52.7310 N   0  0  0  0  0  0  0  0  0  0  0  0
   65.6920   47.2510   52.7980 C   0  0  2  0  0  0  0  0  0  0  0  0
   64.3940   47.0700   52.0120 C   0  0  0  0  0  0  0  0  0  0  0  0
   63.5240   47.9420   52.0160 O   0  0  0  0  0  0  0  0  0  0  0  0
   66.4500   48.4660   52.2500 C   0  0  0  0  0  0  0  0  0  0  0  0
   67.4800   49.0960   53.1900 C   0  0  0  0  0  0  0  0  0  0  0  0
   68.4460   49.9630   52.3930 C   0  0  0  0  0  0  0  0  0  0  0  0
   66.7550   49.9140   54.2490 C   0  0  0  0  0  0  0  0  0  0  0  0
   64.2620   45.9360   51.3380 N   0  0  0  0  0  0  0  0  0  0  0  0
   63.0690   45.6730   50.5420 C   0  0  2  0  0  0  0  0  0  0  0  0
   61.8120   45.5170   51.3940 C   0  0  0  0  0  0  0  0  0  0  0  0
   61.8380   44.8670   52.4390 O   0  0  0  0  0  0  0  0  0  0  0  0
   63.2800   44.4240   49.6970 C   0  0  0  0  0  0  0  0  0  0  0  0
   60.6980   46.1400   50.9710 N   0  0  0  0  0  0  0  0  0  0  0  0
   59.4380   46.0390   51.7150 C   0  0  2  0  0  0  0  0  0  0  0  0
   58.8580   44.6510   51.4470 C   0  0  0  0  0  0  0  0  0  0  0  0
   58.4430   44.3470   50.3290 O   0  0  0  0  0  0  0  0  0  0  0  0
   58.5960   47.1640   51.1220 C   0  0  0  0  0  0  0  0  0  0  0  0
   59.0850   47.2380   49.7110 C   0  0  0  0  0  0  0  0  0  0  0  0
   60.5800   47.1070   49.8660 C   0  0  0  0  0  0  0  0  0  0  0  0
   58.8400   43.8110   52.4750 N   0  0  0  0  0  0  0  0  0  0  0  0
   58.3590   42.4440   52.3250 C   0  0  0  0  0  0  0  0  0  0  0  0
   67.3202   43.2891   48.9753 H   0  0  0  0  0  0  0  0  0  0  0  0
   68.7292   42.6564   49.7924 H   0  0  0  0  0  0  0  0  0  0  0  0
   68.5579   44.3787   49.5531 H   0  0  0  0  0  0  0  0  0  0  0  0
   66.7376   43.1322   53.6922 H   0  0  0  0  0  0  0  0  0  0  0  0
   68.8913   42.9178   54.7414 H   0  0  0  0  0  0  0  0  0  0  0  0
   68.4537   44.4390   55.3733 H   0  0  0  0  0  0  0  0  0  0  0  0
   69.5986   45.5963   53.5711 H   0  0  0  0  0  0  0  0  0  0  0  0
   70.6983   44.3883   54.0405 H   0  0  0  0  0  0  0  0  0  0  0  0
   69.9325   44.4764   51.4979 H   0  0  0  0  0  0  0  0  0  0  0  0
   70.0034   42.9289   52.1920 H   0  0  0  0  0  0  0  0  0  0  0  0
   67.1190   45.9243   51.9498 H   0  0  0  0  0  0  0  0  0  0  0  0
   65.4437   47.4100   53.8266 H   0  0  0  0  0  0  0  0  0  0  0  0
   65.7291   49.2174   52.0039 H   0  0  0  0  0  0  0  0  0  0  0  0
   67.0087   48.1029   51.4128 H   0  0  0  0  0  0  0  0  0  0  0  0
   68.0476   48.3305   53.6766 H   0  0  0  0  0  0  0  0  0  0  0  0
   67.9019   50.7384   51.8954 H   0  0  0  0  0  0  0  0  0  0  0  0
   68.9512   49.3600   51.6678 H   0  0  0  0  0  0  0  0  0  0  0  0
   69.1634   50.3997   53.0559 H   0  0  0  0  0  0  0  0  0  0  0  0
   66.1829   50.6840   53.7751 H   0  0  0  0  0  0  0  0  0  0  0  0
   67.4708   50.3568   54.9096 H   0  0  0  0  0  0  0  0  0  0  0  0
   66.1016   49.2762   54.8069 H   0  0  0  0  0  0  0  0  0  0  0  0
   64.9791   45.2625   51.3755 H   0  0  0  0  0  0  0  0  0  0  0  0
   62.9161   46.5243   49.9121 H   0  0  0  0  0  0  0  0  0  0  0  0
   63.4316   43.5810   50.3383 H   0  0  0  0  0  0  0  0  0  0  0  0
   64.1390   44.5565   49.0730 H   0  0  0  0  0  0  0  0  0  0  0  0
   62.4177   44.2569   49.0860 H   0  0  0  0  0  0  0  0  0  0  0  0
   59.5100   46.1401   52.7778 H   0  0  0  0  0  0  0  0  0  0  0  0
   57.5538   46.9241   51.1563 H   0  0  0  0  0  0  0  0  0  0  0  0
   58.6922   48.0886   51.6519 H   0  0  0  0  0  0  0  0  0  0  0  0
   58.6872   46.4374   49.1231 H   0  0  0  0  0  0  0  0  0  0  0  0
   58.7890   48.1344   49.2073 H   0  0  0  0  0  0  0  0  0  0  0  0
   61.0265   48.0449   50.1226 H   0  0  0  0  0  0  0  0  0  0  0  0
   61.0779   46.7973   48.9709 H   0  0  0  0  0  0  0  0  0  0  0  0
   59.1576   44.1176   53.3550 H   0  0  0  0  0  0  0  0  0  0  0  0
   58.0553   42.2819   51.3119 H   0  0  0  0  0  0  0  0  0  0  0  0
   57.5254   42.2857   52.9769 H   0  0  0  0  0  0  0  0  0  0  0  0
   59.1430   41.7605   52.5761 H   0  0  0  0  0  0  0  0  0  0  0  0
  1  2  1  0  0  0  0
  1 33  1  0  0  0  0
  1 34  1  0  0  0  0
  1 35  1  0  0  0  0
  2  3  2  0  0  0  0
  2  4  1  0  0  0  0
  4 10  1  0  0  0  0
  4  5  1  0  0  0  0
  5  6  1  0  0  0  0
  5  8  1  0  0  0  0
  5 36  1  1  0  0  0
  6  7  2  0  0  0  0
  8 37  1  0  0  0  0
  8 38  1  0  0  0  0
  9  8  1  0  0  0  0
  9 39  1  0  0  0  0
  9 40  1  0  0  0  0
 10  9  1  0  0  0  0
 10 41  1  0  0  0  0
 10 42  1  0  0  0  0
 11 12  1  0  0  0  0
 11  6  1  0  0  0  0
 11 43  1  0  0  0  0
 12 44  1  1  0  0  0
 13 14  2  0  0  0  0
 13 12  1  0  0  0  0
 15 12  1  0  0  0  0
 15 16  1  0  0  0  0
 15 45  1  0  0  0  0
 15 46  1  0  0  0  0
 16 18  1  0  0  0  0
 16 47  1  0  0  0  0
 17 16  1  0  0  0  0
 17 48  1  0  0  0  0
 17 49  1  0  0  0  0
 17 50  1  0  0  0  0
 18 51  1  0  0  0  0
 18 52  1  0  0  0  0
 18 53  1  0  0  0  0
 19 13  1  0  0  0  0
 19 54  1  0  0  0  0
 20 19  1  0  0  0  0
 20 21  1  0  0  0  0
 20 55  1  6  0  0  0
 21 22  2  0  0  0  0
 23 20  1  0  0  0  0
 23 56  1  0  0  0  0
 23 57  1  0  0  0  0
 23 58  1  0  0  0  0
 24 21  1  0  0  0  0
 24 25  1  0  0  0  0
 25 59  1  1  0  0  0
 26 25  1  0  0  0  0
 26 31  1  0  0  0  0
 27 26  2  0  0  0  0
 28 25  1  0  0  0  0
 28 60  1  0  0  0  0
 28 61  1  0  0  0  0
 29 30  1  0  0  0  0
 29 28  1  0  0  0  0
 29 62  1  0  0  0  0
 29 63  1  0  0  0  0
 30 24  1  0  0  0  0
 30 64  1  0  0  0  0
 30 65  1  0  0  0  0
 31 66  1  0  0  0  0
 32 31  1  0  0  0  0
 32 67  1  0  0  0  0
 32 68  1  0  0  0  0
 32 69  1  0  0  0  0
M  END
>  <MODEL>
       0

$$$$
selected_4mers/PLAP/778_noH.pdb
 OpenBabel03042518353D

 69 70  0  0  1  0  0  0  0  0999 V2000
   48.3230   18.5150   12.1040 C   0  0  0  0  0  0  0  0  0  0  0  0
   48.0500   19.9630   11.6920 C   0  0  0  0  0  0  0  0  0  0  0  0
   47.6160   20.2050   10.5630 O   0  0  0  0  0  0  0  0  0  0  0  0
   48.3140   20.9390   12.5720 N   0  0  0  0  0  0  0  0  0  0  0  0
   48.0420   22.3290   12.1710 C   0  0  2  0  0  0  0  0  0  0  0  0
   48.7620   22.7810   10.8990 C   0  0  0  0  0  0  0  0  0  0  0  0
   48.2780   23.6610   10.1830 O   0  0  0  0  0  0  0  0  0  0  0  0
   48.5010   23.1450   13.3730 C   0  0  0  0  0  0  0  0  0  0  0  0
   48.3370   22.1880   14.5370 C   0  0  0  0  0  0  0  0  0  0  0  0
   48.8480   20.8800   13.9440 C   0  0  0  0  0  0  0  0  0  0  0  0
   49.9180   22.1870   10.6090 N   0  0  0  0  0  0  0  0  0  0  0  0
   50.7130   22.5630    9.4480 C   0  0  2  0  0  0  0  0  0  0  0  0
   50.3870   21.7730    8.1820 C   0  0  0  0  0  0  0  0  0  0  0  0
   50.9440   22.0520    7.1170 O   0  0  0  0  0  0  0  0  0  0  0  0
   52.2100   22.4690    9.7770 C   0  0  0  0  0  0  0  0  0  0  0  0
   52.8490   23.7690   10.2990 C   0  0  0  0  0  0  0  0  0  0  0  0
   51.9960   24.3940   11.4420 C   0  0  0  0  0  0  0  0  0  0  0  0
   54.2800   23.4690   10.7680 C   0  0  0  0  0  0  0  0  0  0  0  0
   49.4860   20.8030    8.2920 N   0  0  0  0  0  0  0  0  0  0  0  0
   49.0730   19.9990    7.1470 C   0  0  2  0  0  0  0  0  0  0  0  0
   48.1130   20.8640    6.3350 C   0  0  0  0  0  0  0  0  0  0  0  0
   47.3960   21.7040    6.8930 O   0  0  0  0  0  0  0  0  0  0  0  0
   48.3820   18.7130    7.6160 C   0  0  0  0  0  0  0  0  0  0  0  0
   48.0870   20.6700    5.0130 N   0  0  0  0  0  0  0  0  0  0  0  0
   47.2180   21.4480    4.1240 C   0  0  2  0  0  0  0  0  0  0  0  0
   45.7190   21.3240    4.3700 C   0  0  0  0  0  0  0  0  0  0  0  0
   44.9830   22.3100    4.2140 O   0  0  0  0  0  0  0  0  0  0  0  0
   47.6290   20.9610    2.7330 C   0  0  0  0  0  0  0  0  0  0  0  0
   48.0780   19.5460    2.9840 C   0  0  0  0  0  0  0  0  0  0  0  0
   48.9080   19.7150    4.2400 C   0  0  0  0  0  0  0  0  0  0  0  0
   45.2620   20.1370    4.7440 N   0  0  0  0  0  0  0  0  0  0  0  0
   43.8400   19.9140    4.9930 C   0  0  0  0  0  0  0  0  0  0  0  0
   48.0628   17.8600   11.2989 H   0  0  0  0  0  0  0  0  0  0  0  0
   47.7360   18.2725   12.9651 H   0  0  0  0  0  0  0  0  0  0  0  0
   49.3612   18.3999   12.3362 H   0  0  0  0  0  0  0  0  0  0  0  0
   47.0085   22.4514   11.9226 H   0  0  0  0  0  0  0  0  0  0  0  0
   47.8881   24.0125   13.5024 H   0  0  0  0  0  0  0  0  0  0  0  0
   49.5023   23.5081   13.2712 H   0  0  0  0  0  0  0  0  0  0  0  0
   47.3118   22.1069   14.8325 H   0  0  0  0  0  0  0  0  0  0  0  0
   48.8546   22.4922   15.4227 H   0  0  0  0  0  0  0  0  0  0  0  0
   49.9174   20.8442   13.9442 H   0  0  0  0  0  0  0  0  0  0  0  0
   48.5446   20.0106   14.4890 H   0  0  0  0  0  0  0  0  0  0  0  0
   50.2460   21.4702   11.1987 H   0  0  0  0  0  0  0  0  0  0  0  0
   50.4517   23.5768    9.2268 H   0  0  0  0  0  0  0  0  0  0  0  0
   52.7273   22.1804    8.8860 H   0  0  0  0  0  0  0  0  0  0  0  0
   52.2956   21.7564   10.5706 H   0  0  0  0  0  0  0  0  0  0  0  0
   52.8838   24.4893    9.5085 H   0  0  0  0  0  0  0  0  0  0  0  0
   51.9337   23.7049   12.2582 H   0  0  0  0  0  0  0  0  0  0  0  0
   51.0123   24.6057   11.0781 H   0  0  0  0  0  0  0  0  0  0  0  0
   52.4558   25.3009   11.7752 H   0  0  0  0  0  0  0  0  0  0  0  0
   54.2525   22.7489   11.5589 H   0  0  0  0  0  0  0  0  0  0  0  0
   54.7357   24.3702   11.1218 H   0  0  0  0  0  0  0  0  0  0  0  0
   54.8490   23.0789    9.9501 H   0  0  0  0  0  0  0  0  0  0  0  0
   49.0850   20.6213    9.1726 H   0  0  0  0  0  0  0  0  0  0  0  0
   49.9150   19.7038    6.5564 H   0  0  0  0  0  0  0  0  0  0  0  0
   47.5301   18.9632    8.2131 H   0  0  0  0  0  0  0  0  0  0  0  0
   49.0668   18.1318    8.1975 H   0  0  0  0  0  0  0  0  0  0  0  0
   48.0669   18.1465    6.7647 H   0  0  0  0  0  0  0  0  0  0  0  0
   47.3560   22.4970    4.2836 H   0  0  0  0  0  0  0  0  0  0  0  0
   46.8001   20.9865    2.0569 H   0  0  0  0  0  0  0  0  0  0  0  0
   48.3859   21.5681    2.2820 H   0  0  0  0  0  0  0  0  0  0  0  0
   48.6672   19.1725    2.1727 H   0  0  0  0  0  0  0  0  0  0  0  0
   47.2770   18.8431    3.0799 H   0  0  0  0  0  0  0  0  0  0  0  0
   49.8733   20.1201    4.0185 H   0  0  0  0  0  0  0  0  0  0  0  0
   49.1100   18.7989    4.7546 H   0  0  0  0  0  0  0  0  0  0  0  0
   45.8940   19.3905    4.8562 H   0  0  0  0  0  0  0  0  0  0  0  0
   43.3016   20.8234    4.8253 H   0  0  0  0  0  0  0  0  0  0  0  0
   43.7004   19.5985    6.0059 H   0  0  0  0  0  0  0  0  0  0  0  0
   43.4763   19.1568    4.3302 H   0  0  0  0  0  0  0  0  0  0  0  0
  1 33  1  0  0  0  0
  1 34  1  0  0  0  0
  1 35  1  0  0  0  0
  2  1  1  0  0  0  0
  2  4  1  0  0  0  0
  3  2  2  0  0  0  0
  4 10  1  0  0  0  0
  5  4  1  0  0  0  0
  5  8  1  0  0  0  0
  5 36  1  6  0  0  0
  6  5  1  0  0  0  0
  7  6  2  0  0  0  0
  8  9  1  0  0  0  0
  8 37  1  0  0  0  0
  8 38  1  0  0  0  0
  9 39  1  0  0  0  0
  9 40  1  0  0  0  0
 10  9  1  0  0  0  0
 10 41  1  0  0  0  0
 10 42  1  0  0  0  0
 11  6  1  0  0  0  0
 11 43  1  0  0  0  0
 12 15  1  0  0  0  0
 12 11  1  0  0  0  0
 12 44  1  6  0  0  0
 13 19  1  0  0  0  0
 13 12  1  0  0  0  0
 14 13  2  0  0  0  0
 15 16  1  0  0  0  0
 15 45  1  0  0  0  0
 15 46  1  0  0  0  0
 16 18  1  0  0  0  0
 16 17  1  0  0  0  0
 16 47  1  0  0  0  0
 17 48  1  0  0  0  0
 17 49  1  0  0  0  0
 17 50  1  0  0  0  0
 18 51  1  0  0  0  0
 18 52  1  0  0  0  0
 18 53  1  0  0  0  0
 19 54  1  0  0  0  0
 20 23  1  0  0  0  0
 20 19  1  0  0  0  0
 20 55  1  6  0  0  0
 21 22  2  0  0  0  0
 21 20  1  0  0  0  0
 23 56  1  0  0  0  0
 23 57  1  0  0  0  0
 23 58  1  0  0  0  0
 24 21  1  0  0  0  0
 25 26  1  0  0  0  0
 25 24  1  0  0  0  0
 25 59  1  1  0  0  0
 26 31  1  0  0  0  0
 27 26  2  0  0  0  0
 28 29  1  0  0  0  0
 28 25  1  0  0  0  0
 28 60  1  0  0  0  0
 28 61  1  0  0  0  0
 29 30  1  0  0  0  0
 29 62  1  0  0  0  0
 29 63  1  0  0  0  0
 30 24  1  0  0  0  0
 30 64  1  0  0  0  0
 30 65  1  0  0  0  0
 31 32  1  0  0  0  0
 31 66  1  0  0  0  0
 32 67  1  0  0  0  0
 32 68  1  0  0  0  0
 32 69  1  0  0  0  0
M  END
>  <MODEL>
       0

$$$$
selected_4mers/PLAP/779_noH.pdb
 OpenBabel03042518353D

 69 70  0  0  1  0  0  0  0  0999 V2000
   37.2590   35.4760   25.8740 C   0  0  0  0  0  0  0  0  0  0  0  0
   38.5640   36.2220   26.0800 C   0  0  0  0  0  0  0  0  0  0  0  0
   39.6490   35.6450   25.9510 O   0  0  0  0  0  0  0  0  0  0  0  0
   38.4790   37.5230   26.3830 N   0  0  0  0  0  0  0  0  0  0  0  0
   39.6660   38.3460   26.6040 C   0  0  2  0  0  0  0  0  0  0  0  0
   40.4050   37.9700   27.8840 C   0  0  0  0  0  0  0  0  0  0  0  0
   39.8170   37.4400   28.8270 O   0  0  0  0  0  0  0  0  0  0  0  0
   39.0950   39.7560   26.6560 C   0  0  0  0  0  0  0  0  0  0  0  0
   37.7510   39.5330   27.2800 C   0  0  0  0  0  0  0  0  0  0  0  0
   37.2510   38.3210   26.5270 C   0  0  0  0  0  0  0  0  0  0  0  0
   41.6990   38.2610   27.9170 N   0  0  0  0  0  0  0  0  0  0  0  0
   42.5050   37.9440   29.0830 C   0  0  2  0  0  0  0  0  0  0  0  0
   42.2470   38.8590   30.2820 C   0  0  0  0  0  0  0  0  0  0  0  0
   42.0530   38.3830   31.3970 O   0  0  0  0  0  0  0  0  0  0  0  0
   43.9910   37.9990   28.7210 C   0  0  0  0  0  0  0  0  0  0  0  0
   44.9560   37.6410   29.8550 C   0  0  0  0  0  0  0  0  0  0  0  0
   44.8000   36.1670   30.2240 C   0  0  0  0  0  0  0  0  0  0  0  0
   46.3860   37.9350   29.4210 C   0  0  0  0  0  0  0  0  0  0  0  0
   42.2320   40.1670   30.0470 N   0  0  0  0  0  0  0  0  0  0  0  0
   42.0590   41.1490   31.1180 C   0  0  2  0  0  0  0  0  0  0  0  0
   41.1040   40.8260   32.2720 C   0  0  0  0  0  0  0  0  0  0  0  0
   41.5220   40.8080   33.4280 O   0  0  0  0  0  0  0  0  0  0  0  0
   41.7000   42.5170   30.5180 C   0  0  0  0  0  0  0  0  0  0  0  0
   39.8170   40.5780   31.9860 N   0  0  0  0  0  0  0  0  0  0  0  0
   38.8940   40.2750   33.0890 C   0  0  2  0  0  0  0  0  0  0  0  0
   39.1610   38.9190   33.7200 C   0  0  0  0  0  0  0  0  0  0  0  0
   38.7690   38.6620   34.8580 O   0  0  0  0  0  0  0  0  0  0  0  0
   37.5210   40.3000   32.4170 C   0  0  0  0  0  0  0  0  0  0  0  0
   37.7420   41.0930   31.1510 C   0  0  0  0  0  0  0  0  0  0  0  0
   39.0940   40.6450   30.7050 C   0  0  0  0  0  0  0  0  0  0  0  0
   39.8430   38.0630   32.9680 N   0  0  0  0  0  0  0  0  0  0  0  0
   40.1190   36.7010   33.4000 C   0  0  0  0  0  0  0  0  0  0  0  0
   37.4663   34.4529   25.6391 H   0  0  0  0  0  0  0  0  0  0  0  0
   36.7155   35.9239   25.0685 H   0  0  0  0  0  0  0  0  0  0  0  0
   36.6749   35.5251   26.7692 H   0  0  0  0  0  0  0  0  0  0  0  0
   40.4073   38.2231   25.8423 H   0  0  0  0  0  0  0  0  0  0  0  0
   39.0024   40.1731   25.6750 H   0  0  0  0  0  0  0  0  0  0  0  0
   39.7085   40.4472   27.1952 H   0  0  0  0  0  0  0  0  0  0  0  0
   37.8374   39.3315   28.3273 H   0  0  0  0  0  0  0  0  0  0  0  0
   37.0999   40.3796   27.2153 H   0  0  0  0  0  0  0  0  0  0  0  0
   36.5081   37.7937   27.0882 H   0  0  0  0  0  0  0  0  0  0  0  0
   36.7773   38.5559   25.5968 H   0  0  0  0  0  0  0  0  0  0  0  0
   42.1185   38.6977   27.1407 H   0  0  0  0  0  0  0  0  0  0  0  0
   42.2183   36.9566   29.3793 H   0  0  0  0  0  0  0  0  0  0  0  0
   44.2156   38.9940   28.3979 H   0  0  0  0  0  0  0  0  0  0  0  0
   44.1379   37.2579   27.9633 H   0  0  0  0  0  0  0  0  0  0  0  0
   44.7288   38.2328   30.7170 H   0  0  0  0  0  0  0  0  0  0  0  0
   45.0240   35.5603   29.3716 H   0  0  0  0  0  0  0  0  0  0  0  0
   43.7941   35.9826   30.5386 H   0  0  0  0  0  0  0  0  0  0  0  0
   45.4727   35.9256   31.0203 H   0  0  0  0  0  0  0  0  0  0  0  0
   46.6248   37.3482   28.5588 H   0  0  0  0  0  0  0  0  0  0  0  0
   47.0579   37.6895   30.2168 H   0  0  0  0  0  0  0  0  0  0  0  0
   46.4799   38.9739   29.1826 H   0  0  0  0  0  0  0  0  0  0  0  0
   42.3409   40.4857   29.1219 H   0  0  0  0  0  0  0  0  0  0  0  0
   43.0160   41.1379   31.5965 H   0  0  0  0  0  0  0  0  0  0  0  0
   40.7362   42.4622   30.0564 H   0  0  0  0  0  0  0  0  0  0  0  0
   42.4313   42.7882   29.7855 H   0  0  0  0  0  0  0  0  0  0  0  0
   41.6824   43.2534   31.2941 H   0  0  0  0  0  0  0  0  0  0  0  0
   38.9922   40.9720   33.8949 H   0  0  0  0  0  0  0  0  0  0  0  0
   37.1914   39.3076   32.1904 H   0  0  0  0  0  0  0  0  0  0  0  0
   36.7665   40.7291   33.0427 H   0  0  0  0  0  0  0  0  0  0  0  0
   36.9986   40.8608   30.4172 H   0  0  0  0  0  0  0  0  0  0  0  0
   37.6763   42.1506   31.2994 H   0  0  0  0  0  0  0  0  0  0  0  0
   39.5413   41.3540   30.0401 H   0  0  0  0  0  0  0  0  0  0  0  0
   39.0908   39.7262   30.1567 H   0  0  0  0  0  0  0  0  0  0  0  0
   40.1728   38.3596   32.0891 H   0  0  0  0  0  0  0  0  0  0  0  0
   39.6949   36.5414   34.3693 H   0  0  0  0  0  0  0  0  0  0  0  0
   41.1771   36.5483   33.4441 H   0  0  0  0  0  0  0  0  0  0  0  0
   39.6879   36.0119   32.7042 H   0  0  0  0  0  0  0  0  0  0  0  0
  1  2  1  0  0  0  0
  1 33  1  0  0  0  0
  1 34  1  0  0  0  0
  1 35  1  0  0  0  0
  2  4  1  0  0  0  0
  3  2  2  0  0  0  0
  4 10  1  0  0  0  0
  4  5  1  0  0  0  0
  5  8  1  0  0  0  0
  5  6  1  0  0  0  0
  5 36  1  6  0  0  0
  6 11  1  0  0  0  0
  6  7  2  0  0  0  0
  8  9  1  0  0  0  0
  8 37  1  0  0  0  0
  8 38  1  0  0  0  0
  9 39  1  0  0  0  0
  9 40  1  0  0  0  0
 10  9  1  0  0  0  0
 10 41  1  0  0  0  0
 10 42  1  0  0  0  0
 11 12  1  0  0  0  0
 11 43  1  0  0  0  0
 12 13  1  0  0  0  0
 12 44  1  1  0  0  0
 13 14  2  0  0  0  0
 15 12  1  0  0  0  0
 15 16  1  0  0  0  0
 15 45  1  0  0  0  0
 15 46  1  0  0  0  0
 16 17  1  0  0  0  0
 16 47  1  0  0  0  0
 17 48  1  0  0  0  0
 17 49  1  0  0  0  0
 17 50  1  0  0  0  0
 18 16  1  0  0  0  0
 18 51  1  0  0  0  0
 18 52  1  0  0  0  0
 18 53  1  0  0  0  0
 19 13  1  0  0  0  0
 19 20  1  0  0  0  0
 19 54  1  0  0  0  0
 20 21  1  0  0  0  0
 20 55  1  1  0  0  0
 21 22  2  0  0  0  0
 23 20  1  0  0  0  0
 23 56  1  0  0  0  0
 23 57  1  0  0  0  0
 23 58  1  0  0  0  0
 24 21  1  0  0  0  0
 24 25  1  0  0  0  0
 25 26  1  0  0  0  0
 25 59  1  1  0  0  0
 26 27  2  0  0  0  0
 28 25  1  0  0  0  0
 28 60  1  0  0  0  0
 28 61  1  0  0  0  0
 29 28  1  0  0  0  0
 29 62  1  0  0  0  0
 29 63  1  0  0  0  0
 30 29  1  0  0  0  0
 30 24  1  0  0  0  0
 30 64  1  0  0  0  0
 30 65  1  0  0  0  0
 31 32  1  0  0  0  0
 31 26  1  0  0  0  0
 31 66  1  0  0  0  0
 32 67  1  0  0  0  0
 32 68  1  0  0  0  0
 32 69  1  0  0  0  0
M  END
>  <MODEL>
       0

$$$$
