selected_4mers/PVLL/805_noH.pdb
 OpenBabel03042518353D

 80 80  0  0  1  0  0  0  0  0999 V2000
  -16.4900   96.4500   20.0810 C   0  0  0  0  0  0  0  0  0  0  0  0
  -17.5600   96.6230   19.0070 C   0  0  0  0  0  0  0  0  0  0  0  0
  -18.3060   97.6070   19.0170 O   0  0  0  0  0  0  0  0  0  0  0  0
  -17.6520   95.6850   18.0640 N   0  0  0  0  0  0  0  0  0  0  0  0
  -18.6610   95.8230   17.0130 C   0  0  2  0  0  0  0  0  0  0  0  0
  -20.0710   95.4180   17.4120 C   0  0  0  0  0  0  0  0  0  0  0  0
  -20.2640   94.6410   18.3500 O   0  0  0  0  0  0  0  0  0  0  0  0
  -18.1230   94.9210   15.9150 C   0  0  0  0  0  0  0  0  0  0  0  0
  -17.5190   93.7840   16.7160 C   0  0  0  0  0  0  0  0  0  0  0  0
  -16.7980   94.5050   17.8360 C   0  0  0  0  0  0  0  0  0  0  0  0
  -21.0520   95.9700   16.7030 N   0  0  0  0  0  0  0  0  0  0  0  0
  -22.4430   95.6000   16.9120 C   0  0  2  0  0  0  0  0  0  0  0  0
  -22.7650   94.8260   15.6390 C   0  0  0  0  0  0  0  0  0  0  0  0
  -22.3820   95.2390   14.5440 O   0  0  0  0  0  0  0  0  0  0  0  0
  -23.3760   96.8340   17.0460 C   0  0  0  0  0  0  0  0  0  0  0  0
  -23.2840   97.7130   15.8150 C   0  0  0  0  0  0  0  0  0  0  0  0
  -23.0100   97.6160   18.2950 C   0  0  0  0  0  0  0  0  0  0  0  0
  -23.4400   93.6920   15.7750 N   0  0  0  0  0  0  0  0  0  0  0  0
  -23.7620   92.8760   14.6150 C   0  0  2  0  0  0  0  0  0  0  0  0
  -24.8710   93.4730   13.7580 C   0  0  0  0  0  0  0  0  0  0  0  0
  -25.9870   93.6780   14.2320 O   0  0  0  0  0  0  0  0  0  0  0  0
  -24.1570   91.4660   15.0690 C   0  0  0  0  0  0  0  0  0  0  0  0
  -24.3370   90.3570   14.0250 C   0  0  0  0  0  0  0  0  0  0  0  0
  -25.5440   90.6410   13.1490 C   0  0  0  0  0  0  0  0  0  0  0  0
  -23.0720   90.2270   13.1920 C   0  0  0  0  0  0  0  0  0  0  0  0
  -24.5570   93.7460   12.4950 N   0  0  0  0  0  0  0  0  0  0  0  0
  -25.5350   94.2900   11.5590 C   0  0  2  0  0  0  0  0  0  0  0  0
  -26.2180   93.1690   10.7870 C   0  0  0  0  0  0  0  0  0  0  0  0
  -27.3950   93.2670   10.4450 O   0  0  0  0  0  0  0  0  0  0  0  0
  -24.8670   95.2310   10.5550 C   0  0  0  0  0  0  0  0  0  0  0  0
  -24.2840   96.5410   11.0760 C   0  0  0  0  0  0  0  0  0  0  0  0
  -23.7140   97.3330    9.9030 C   0  0  0  0  0  0  0  0  0  0  0  0
  -25.3680   97.3470   11.7820 C   0  0  0  0  0  0  0  0  0  0  0  0
  -25.4700   92.1090   10.4990 N   0  0  0  0  0  0  0  0  0  0  0  0
  -26.0140   90.9770    9.7570 C   0  0  0  0  0  0  0  0  0  0  0  0
  -15.9497   95.5436   19.9035 H   0  0  0  0  0  0  0  0  0  0  0  0
  -16.9549   96.4054   21.0437 H   0  0  0  0  0  0  0  0  0  0  0  0
  -15.8151   97.2797   20.0489 H   0  0  0  0  0  0  0  0  0  0  0  0
  -18.7858   96.8489   16.7357 H   0  0  0  0  0  0  0  0  0  0  0  0
  -18.9082   94.5736   15.2765 H   0  0  0  0  0  0  0  0  0  0  0  0
  -17.4303   95.4040   15.2579 H   0  0  0  0  0  0  0  0  0  0  0  0
  -16.8352   93.2150   16.1214 H   0  0  0  0  0  0  0  0  0  0  0  0
  -18.2456   93.0804   17.0652 H   0  0  0  0  0  0  0  0  0  0  0  0
  -15.8121   94.7941   17.5371 H   0  0  0  0  0  0  0  0  0  0  0  0
  -16.6625   93.9034   18.7104 H   0  0  0  0  0  0  0  0  0  0  0  0
  -20.8313   96.6447   16.0209 H   0  0  0  0  0  0  0  0  0  0  0  0
  -22.5895   95.0504   17.8183 H   0  0  0  0  0  0  0  0  0  0  0  0
  -24.3880   96.4972   17.1312 H   0  0  0  0  0  0  0  0  0  0  0  0
  -22.2801   98.0661   15.7031 H   0  0  0  0  0  0  0  0  0  0  0  0
  -23.9456   98.5471   15.9221 H   0  0  0  0  0  0  0  0  0  0  0  0
  -23.5613   97.1465   14.9507 H   0  0  0  0  0  0  0  0  0  0  0  0
  -21.9987   97.9571   18.2187 H   0  0  0  0  0  0  0  0  0  0  0  0
  -23.1096   96.9846   19.1531 H   0  0  0  0  0  0  0  0  0  0  0  0
  -23.6637   98.4573   18.3934 H   0  0  0  0  0  0  0  0  0  0  0  0
  -23.7259   93.3998   16.6706 H   0  0  0  0  0  0  0  0  0  0  0  0
  -22.8839   92.8378   14.0047 H   0  0  0  0  0  0  0  0  0  0  0  0
  -23.3990   91.1342   15.7474 H   0  0  0  0  0  0  0  0  0  0  0  0
  -25.1416   91.5977   15.4667 H   0  0  0  0  0  0  0  0  0  0  0  0
  -24.5111   89.4275   14.5257 H   0  0  0  0  0  0  0  0  0  0  0  0
  -25.4002   91.5673   12.6330 H   0  0  0  0  0  0  0  0  0  0  0  0
  -26.4205   90.7051   13.7593 H   0  0  0  0  0  0  0  0  0  0  0  0
  -25.6620   89.8508   12.4373 H   0  0  0  0  0  0  0  0  0  0  0  0
  -22.8832   91.1495   12.6838 H   0  0  0  0  0  0  0  0  0  0  0  0
  -23.1966   89.4434   12.4742 H   0  0  0  0  0  0  0  0  0  0  0  0
  -22.2458   89.9966   13.8317 H   0  0  0  0  0  0  0  0  0  0  0  0
  -23.6389   93.5763   12.1828 H   0  0  0  0  0  0  0  0  0  0  0  0
  -26.2581   94.8322   12.1318 H   0  0  0  0  0  0  0  0  0  0  0  0
  -24.0680   94.6886   10.0942 H   0  0  0  0  0  0  0  0  0  0  0  0
  -25.6609   95.5331    9.9044 H   0  0  0  0  0  0  0  0  0  0  0  0
  -23.5031   96.3357   11.7781 H   0  0  0  0  0  0  0  0  0  0  0  0
  -24.4935   97.5394    9.1996 H   0  0  0  0  0  0  0  0  0  0  0  0
  -22.9456   96.7610    9.4262 H   0  0  0  0  0  0  0  0  0  0  0  0
  -23.3032   98.2540   10.2605 H   0  0  0  0  0  0  0  0  0  0  0  0
  -26.1584   97.5616   11.0934 H   0  0  0  0  0  0  0  0  0  0  0  0
  -24.9519   98.2638   12.1443 H   0  0  0  0  0  0  0  0  0  0  0  0
  -25.7547   96.7815   12.6039 H   0  0  0  0  0  0  0  0  0  0  0  0
  -24.5304   92.0873   10.7921 H   0  0  0  0  0  0  0  0  0  0  0  0
  -27.0401   91.1661    9.5196 H   0  0  0  0  0  0  0  0  0  0  0  0
  -25.9433   90.0920   10.3542 H   0  0  0  0  0  0  0  0  0  0  0  0
  -25.4576   90.8426    8.8530 H   0  0  0  0  0  0  0  0  0  0  0  0
  1 36  1  0  0  0  0
  1 37  1  0  0  0  0
  1 38  1  0  0  0  0
  2  3  2  0  0  0  0
  2  1  1  0  0  0  0
  4  2  1  0  0  0  0
  5  6  1  0  0  0  0
  5  4  1  0  0  0  0
  5 39  1  6  0  0  0
  6  7  2  0  0  0  0
  8  9  1  0  0  0  0
  8  5  1  0  0  0  0
  8 40  1  0  0  0  0
  8 41  1  0  0  0  0
  9 10  1  0  0  0  0
  9 42  1  0  0  0  0
  9 43  1  0  0  0  0
 10  4  1  0  0  0  0
 10 44  1  0  0  0  0
 10 45  1  0  0  0  0
 11 12  1  0  0  0  0
 11  6  1  0  0  0  0
 11 46  1  0  0  0  0
 12 15  1  0  0  0  0
 12 47  1  1  0  0  0
 13 18  1  0  0  0  0
 13 12  1  0  0  0  0
 14 13  2  0  0  0  0
 15 17  1  0  0  0  0
 15 48  1  0  0  0  0
 16 15  1  0  0  0  0
 16 49  1  0  0  0  0
 16 50  1  0  0  0  0
 16 51  1  0  0  0  0
 17 52  1  0  0  0  0
 17 53  1  0  0  0  0
 17 54  1  0  0  0  0
 18 55  1  0  0  0  0
 19 22  1  0  0  0  0
 19 18  1  0  0  0  0
 19 56  1  6  0  0  0
 20 21  2  0  0  0  0
 20 19  1  0  0  0  0
 22 57  1  0  0  0  0
 22 58  1  0  0  0  0
 23 22  1  0  0  0  0
 23 59  1  0  0  0  0
 24 23  1  0  0  0  0
 24 60  1  0  0  0  0
 24 61  1  0  0  0  0
 24 62  1  0  0  0  0
 25 23  1  0  0  0  0
 25 63  1  0  0  0  0
 25 64  1  0  0  0  0
 25 65  1  0  0  0  0
 26 20  1  0  0  0  0
 26 66  1  0  0  0  0
 27 26  1  0  0  0  0
 27 67  1  1  0  0  0
 28 27  1  0  0  0  0
 29 28  2  0  0  0  0
 30 31  1  0  0  0  0
 30 27  1  0  0  0  0
 30 68  1  0  0  0  0
 30 69  1  0  0  0  0
 31 33  1  0  0  0  0
 31 70  1  0  0  0  0
 32 31  1  0  0  0  0
 32 71  1  0  0  0  0
 32 72  1  0  0  0  0
 32 73  1  0  0  0  0
 33 74  1  0  0  0  0
 33 75  1  0  0  0  0
 33 76  1  0  0  0  0
 34 28  1  0  0  0  0
 34 77  1  0  0  0  0
 35 34  1  0  0  0  0
 35 78  1  0  0  0  0
 35 79  1  0  0  0  0
 35 80  1  0  0  0  0
M  END
>  <MODEL>
       0

$$$$
selected_4mers/PVLL/806_noH.pdb
 OpenBabel03042518353D

 80 80  0  0  1  0  0  0  0  0999 V2000
   55.5480   14.7210   37.8820 C   0  0  0  0  0  0  0  0  0  0  0  0
   55.0280   16.1670   37.8890 C   0  0  0  0  0  0  0  0  0  0  0  0
   53.8230   16.3880   37.6810 O   0  0  0  0  0  0  0  0  0  0  0  0
   55.9240   17.1360   38.1530 N   0  0  0  0  0  0  0  0  0  0  0  0
   55.4950   18.5380   38.1580 C   0  0  2  0  0  0  0  0  0  0  0  0
   55.0630   18.9370   36.7500 C   0  0  0  0  0  0  0  0  0  0  0  0
   55.6130   18.4270   35.7440 O   0  0  0  0  0  0  0  0  0  0  0  0
   56.7600   19.3030   38.5590 C   0  0  0  0  0  0  0  0  0  0  0  0
   57.8920   18.3900   38.1930 C   0  0  0  0  0  0  0  0  0  0  0  0
   57.3510   17.0070   38.4910 C   0  0  0  0  0  0  0  0  0  0  0  0
   54.0440   19.7950   36.7070 N   0  0  0  0  0  0  0  0  0  0  0  0
   53.4370   20.2530   35.4790 C   0  0  2  0  0  0  0  0  0  0  0  0
   53.8210   21.7100   35.2070 C   0  0  0  0  0  0  0  0  0  0  0  0
   53.6980   22.5770   36.0750 O   0  0  0  0  0  0  0  0  0  0  0  0
   51.9050   20.1590   35.5610 C   0  0  0  0  0  0  0  0  0  0  0  0
   51.2380   20.8900   34.3740 C   0  0  0  0  0  0  0  0  0  0  0  0
   51.4650   18.6770   35.6800 C   0  0  0  0  0  0  0  0  0  0  0  0
   54.2840   21.9490   33.9960 N   0  0  0  0  0  0  0  0  0  0  0  0
   54.6160   23.3170   33.5680 C   0  0  2  0  0  0  0  0  0  0  0  0
   53.5660   23.7430   32.5470 C   0  0  0  0  0  0  0  0  0  0  0  0
   53.3240   23.0230   31.5940 O   0  0  0  0  0  0  0  0  0  0  0  0
   56.0310   23.3400   32.9580 C   0  0  0  0  0  0  0  0  0  0  0  0
   56.4500   24.6070   32.1820 C   0  0  0  0  0  0  0  0  0  0  0  0
   56.5010   25.8390   33.0940 C   0  0  0  0  0  0  0  0  0  0  0  0
   57.8070   24.4160   31.4460 C   0  0  0  0  0  0  0  0  0  0  0  0
   52.9550   24.9110   32.7420 N   0  0  0  0  0  0  0  0  0  0  0  0
   52.1300   25.5000   31.6950 C   0  0  2  0  0  0  0  0  0  0  0  0
   52.9340   26.5660   30.9510 C   0  0  0  0  0  0  0  0  0  0  0  0
   53.6090   27.3810   31.5730 O   0  0  0  0  0  0  0  0  0  0  0  0
   50.8570   26.1390   32.2800 C   0  0  0  0  0  0  0  0  0  0  0  0
   49.9430   26.9010   31.3110 C   0  0  0  0  0  0  0  0  0  0  0  0
   49.4190   25.9400   30.2360 C   0  0  0  0  0  0  0  0  0  0  0  0
   48.7850   27.5380   32.0740 C   0  0  0  0  0  0  0  0  0  0  0  0
   52.8280   26.5710   29.6240 N   0  0  0  0  0  0  0  0  0  0  0  0
   53.3940   27.6470   28.8180 C   0  0  0  0  0  0  0  0  0  0  0  0
   54.7418   14.0531   37.6607 H   0  0  0  0  0  0  0  0  0  0  0  0
   55.9544   14.4835   38.8429 H   0  0  0  0  0  0  0  0  0  0  0  0
   56.3098   14.6195   37.1375 H   0  0  0  0  0  0  0  0  0  0  0  0
   54.6712   18.7306   38.8132 H   0  0  0  0  0  0  0  0  0  0  0  0
   56.7621   19.5033   39.6101 H   0  0  0  0  0  0  0  0  0  0  0  0
   56.8311   20.2513   38.0684 H   0  0  0  0  0  0  0  0  0  0  0  0
   58.1404   18.4871   37.1568 H   0  0  0  0  0  0  0  0  0  0  0  0
   58.7904   18.6080   38.7317 H   0  0  0  0  0  0  0  0  0  0  0  0
   57.8263   16.2674   37.8811 H   0  0  0  0  0  0  0  0  0  0  0  0
   57.5210   16.6936   39.4998 H   0  0  0  0  0  0  0  0  0  0  0  0
   53.6856   20.1351   37.5585 H   0  0  0  0  0  0  0  0  0  0  0  0
   53.7923   19.6274   34.6870 H   0  0  0  0  0  0  0  0  0  0  0  0
   51.5709   20.6598   36.4455 H   0  0  0  0  0  0  0  0  0  0  0  0
   51.5385   20.4285   33.4566 H   0  0  0  0  0  0  0  0  0  0  0  0
   51.5396   21.9166   34.3724 H   0  0  0  0  0  0  0  0  0  0  0  0
   50.1741   20.8310   34.4712 H   0  0  0  0  0  0  0  0  0  0  0  0
   51.7820   18.1399   34.8106 H   0  0  0  0  0  0  0  0  0  0  0  0
   50.3993   18.6268   35.7614 H   0  0  0  0  0  0  0  0  0  0  0  0
   51.9101   18.2416   36.5502 H   0  0  0  0  0  0  0  0  0  0  0  0
   54.4095   21.2008   33.3685 H   0  0  0  0  0  0  0  0  0  0  0  0
   54.6116   23.9958   34.3951 H   0  0  0  0  0  0  0  0  0  0  0  0
   56.7280   23.2093   33.7593 H   0  0  0  0  0  0  0  0  0  0  0  0
   56.0257   22.5600   32.2256 H   0  0  0  0  0  0  0  0  0  0  0  0
   55.6967   24.7736   31.4406 H   0  0  0  0  0  0  0  0  0  0  0  0
   57.2490   25.6957   33.8455 H   0  0  0  0  0  0  0  0  0  0  0  0
   55.5482   25.9768   33.5609 H   0  0  0  0  0  0  0  0  0  0  0  0
   56.7414   26.7040   32.5119 H   0  0  0  0  0  0  0  0  0  0  0  0
   58.5817   24.2470   32.1644 H   0  0  0  0  0  0  0  0  0  0  0  0
   58.0320   25.2950   30.8789 H   0  0  0  0  0  0  0  0  0  0  0  0
   57.7407   23.5746   30.7883 H   0  0  0  0  0  0  0  0  0  0  0  0
   53.0618   25.3802   33.6009 H   0  0  0  0  0  0  0  0  0  0  0  0
   51.8380   24.7209   31.0222 H   0  0  0  0  0  0  0  0  0  0  0  0
   50.2767   25.3549   32.7198 H   0  0  0  0  0  0  0  0  0  0  0  0
   51.2117   26.8812   32.9642 H   0  0  0  0  0  0  0  0  0  0  0  0
   50.5006   27.6804   30.8352 H   0  0  0  0  0  0  0  0  0  0  0  0
   48.8592   25.1556   30.7011 H   0  0  0  0  0  0  0  0  0  0  0  0
   50.2444   25.5198   29.7003 H   0  0  0  0  0  0  0  0  0  0  0  0
   48.7879   26.4743   29.5569 H   0  0  0  0  0  0  0  0  0  0  0  0
   48.2136   26.7738   32.5581 H   0  0  0  0  0  0  0  0  0  0  0  0
   48.1588   28.0727   31.3907 H   0  0  0  0  0  0  0  0  0  0  0  0
   49.1706   28.2142   32.8082 H   0  0  0  0  0  0  0  0  0  0  0  0
   52.3568   25.8315   29.1764 H   0  0  0  0  0  0  0  0  0  0  0  0
   53.8666   28.3619   29.4587 H   0  0  0  0  0  0  0  0  0  0  0  0
   52.6139   28.1257   28.2637 H   0  0  0  0  0  0  0  0  0  0  0  0
   54.1167   27.2428   28.1403 H   0  0  0  0  0  0  0  0  0  0  0  0
  1  2  1  0  0  0  0
  1 36  1  0  0  0  0
  1 37  1  0  0  0  0
  1 38  1  0  0  0  0
  2  4  1  0  0  0  0
  3  2  2  0  0  0  0
  4  5  1  0  0  0  0
  4 10  1  0  0  0  0
  5  8  1  0  0  0  0
  5 39  1  1  0  0  0
  6  5  1  0  0  0  0
  7  6  2  0  0  0  0
  8 40  1  0  0  0  0
  8 41  1  0  0  0  0
  9 10  1  0  0  0  0
  9  8  1  0  0  0  0
  9 42  1  0  0  0  0
  9 43  1  0  0  0  0
 10 44  1  0  0  0  0
 10 45  1  0  0  0  0
 11  6  1  0  0  0  0
 11 46  1  0  0  0  0
 12 15  1  0  0  0  0
 12 11  1  0  0  0  0
 12 47  1  6  0  0  0
 13 12  1  0  0  0  0
 13 14  2  0  0  0  0
 15 17  1  0  0  0  0
 15 48  1  0  0  0  0
 16 15  1  0  0  0  0
 16 49  1  0  0  0  0
 16 50  1  0  0  0  0
 16 51  1  0  0  0  0
 17 52  1  0  0  0  0
 17 53  1  0  0  0  0
 17 54  1  0  0  0  0
 18 13  1  0  0  0  0
 18 55  1  0  0  0  0
 19 18  1  0  0  0  0
 19 56  1  1  0  0  0
 20 26  1  0  0  0  0
 20 19  1  0  0  0  0
 21 20  2  0  0  0  0
 22 19  1  0  0  0  0
 22 57  1  0  0  0  0
 22 58  1  0  0  0  0
 23 22  1  0  0  0  0
 23 24  1  0  0  0  0
 23 59  1  0  0  0  0
 24 60  1  0  0  0  0
 24 61  1  0  0  0  0
 24 62  1  0  0  0  0
 25 23  1  0  0  0  0
 25 63  1  0  0  0  0
 25 64  1  0  0  0  0
 25 65  1  0  0  0  0
 26 66  1  0  0  0  0
 27 30  1  0  0  0  0
 27 26  1  0  0  0  0
 27 67  1  6  0  0  0
 28 29  2  0  0  0  0
 28 27  1  0  0  0  0
 30 68  1  0  0  0  0
 30 69  1  0  0  0  0
 31 33  1  0  0  0  0
 31 30  1  0  0  0  0
 31 70  1  0  0  0  0
 32 31  1  0  0  0  0
 32 71  1  0  0  0  0
 32 72  1  0  0  0  0
 32 73  1  0  0  0  0
 33 74  1  0  0  0  0
 33 75  1  0  0  0  0
 33 76  1  0  0  0  0
 34 28  1  0  0  0  0
 34 77  1  0  0  0  0
 35 34  1  0  0  0  0
 35 78  1  0  0  0  0
 35 79  1  0  0  0  0
 35 80  1  0  0  0  0
M  END
>  <MODEL>
       0

$$$$
selected_4mers/PVLL/807_noH.pdb
 OpenBabel03042518353D

 80 80  0  0  1  0  0  0  0  0999 V2000
   38.6450   -5.0840    4.3460 C   0  0  0  0  0  0  0  0  0  0  0  0
   38.8910   -5.4790    2.8760 C   0  0  0  0  0  0  0  0  0  0  0  0
   39.5410   -4.7460    2.1240 O   0  0  0  0  0  0  0  0  0  0  0  0
   38.3600   -6.6380    2.4680 N   0  0  0  0  0  0  0  0  0  0  0  0
   38.5520   -7.0350    1.0840 C   0  0  2  0  0  0  0  0  0  0  0  0
   37.9050   -6.0400    0.1190 C   0  0  0  0  0  0  0  0  0  0  0  0
   36.9100   -5.4030    0.4830 O   0  0  0  0  0  0  0  0  0  0  0  0
   37.8430   -8.3730    1.0190 C   0  0  0  0  0  0  0  0  0  0  0  0
   36.7710   -8.3120    2.1060 C   0  0  0  0  0  0  0  0  0  0  0  0
   37.4850   -7.5600    3.2000 C   0  0  0  0  0  0  0  0  0  0  0  0
   38.4670   -5.9190   -1.0850 N   0  0  0  0  0  0  0  0  0  0  0  0
   37.9670   -5.0040   -2.0990 C   0  0  2  0  0  0  0  0  0  0  0  0
   37.0160   -5.7720   -2.9980 C   0  0  0  0  0  0  0  0  0  0  0  0
   37.4540   -6.5020   -3.8830 O   0  0  0  0  0  0  0  0  0  0  0  0
   39.1390   -4.3890   -2.8800 C   0  0  0  0  0  0  0  0  0  0  0  0
   38.5880   -3.4150   -3.9280 C   0  0  0  0  0  0  0  0  0  0  0  0
   40.1120   -3.7280   -1.9370 C   0  0  0  0  0  0  0  0  0  0  0  0
   35.7170   -5.6010   -2.7970 N   0  0  0  0  0  0  0  0  0  0  0  0
   34.7360   -6.4120   -3.5150 C   0  0  2  0  0  0  0  0  0  0  0  0
   34.9070   -6.3360   -5.0140 C   0  0  0  0  0  0  0  0  0  0  0  0
   34.8250   -7.3490   -5.6780 O   0  0  0  0  0  0  0  0  0  0  0  0
   33.2870   -6.0230   -3.1360 C   0  0  0  0  0  0  0  0  0  0  0  0
   32.2000   -6.7130   -3.9860 C   0  0  0  0  0  0  0  0  0  0  0  0
   32.3220   -8.2550   -3.8650 C   0  0  0  0  0  0  0  0  0  0  0  0
   30.8230   -6.2370   -3.6060 C   0  0  0  0  0  0  0  0  0  0  0  0
   35.1280   -5.1460   -5.5580 N   0  0  0  0  0  0  0  0  0  0  0  0
   35.1990   -5.0280   -7.0230 C   0  0  2  0  0  0  0  0  0  0  0  0
   36.4190   -5.7080   -7.6350 C   0  0  0  0  0  0  0  0  0  0  0  0
   36.4680   -5.8510   -8.8590 O   0  0  0  0  0  0  0  0  0  0  0  0
   35.0810   -3.5920   -7.4710 C   0  0  0  0  0  0  0  0  0  0  0  0
   33.6900   -2.9680   -7.2340 C   0  0  0  0  0  0  0  0  0  0  0  0
   33.7670   -1.4770   -7.5820 C   0  0  0  0  0  0  0  0  0  0  0  0
   32.5820   -3.6830   -7.9790 C   0  0  0  0  0  0  0  0  0  0  0  0
   37.3840   -6.1100   -6.8060 N   0  0  0  0  0  0  0  0  0  0  0  0
   38.5350   -6.8770   -7.2640 C   0  0  0  0  0  0  0  0  0  0  0  0
   39.1169   -4.1449    4.5467 H   0  0  0  0  0  0  0  0  0  0  0  0
   39.0545   -5.8339    4.9901 H   0  0  0  0  0  0  0  0  0  0  0  0
   37.5929   -4.9991    4.5212 H   0  0  0  0  0  0  0  0  0  0  0  0
   39.5835   -7.0763    0.8026 H   0  0  0  0  0  0  0  0  0  0  0  0
   38.5290   -9.1709    1.2130 H   0  0  0  0  0  0  0  0  0  0  0  0
   37.4222   -8.5559    0.0524 H   0  0  0  0  0  0  0  0  0  0  0  0
   36.4865   -9.2919    2.4282 H   0  0  0  0  0  0  0  0  0  0  0  0
   35.8577   -7.8533    1.7892 H   0  0  0  0  0  0  0  0  0  0  0  0
   38.0573   -8.2262    3.8112 H   0  0  0  0  0  0  0  0  0  0  0  0
   36.8148   -7.0578    3.8660 H   0  0  0  0  0  0  0  0  0  0  0  0
   39.2534   -6.4725   -1.2960 H   0  0  0  0  0  0  0  0  0  0  0  0
   37.4357   -4.1898   -1.6521 H   0  0  0  0  0  0  0  0  0  0  0  0
   39.6816   -5.1558   -3.3924 H   0  0  0  0  0  0  0  0  0  0  0  0
   38.0400   -2.6371   -3.4387 H   0  0  0  0  0  0  0  0  0  0  0  0
   37.9400   -3.9408   -4.5977 H   0  0  0  0  0  0  0  0  0  0  0  0
   39.3994   -2.9874   -4.4790 H   0  0  0  0  0  0  0  0  0  0  0  0
   39.6136   -2.9493   -1.3983 H   0  0  0  0  0  0  0  0  0  0  0  0
   40.9237   -3.3117   -2.4962 H   0  0  0  0  0  0  0  0  0  0  0  0
   40.4892   -4.4538   -1.2472 H   0  0  0  0  0  0  0  0  0  0  0  0
   35.4095   -4.9196   -2.1564 H   0  0  0  0  0  0  0  0  0  0  0  0
   34.9152   -7.4227   -3.2129 H   0  0  0  0  0  0  0  0  0  0  0  0
   33.1271   -6.2851   -2.1110 H   0  0  0  0  0  0  0  0  0  0  0  0
   33.1952   -4.9723   -3.3165 H   0  0  0  0  0  0  0  0  0  0  0  0
   32.3527   -6.4451   -5.0106 H   0  0  0  0  0  0  0  0  0  0  0  0
   32.1724   -8.5458   -2.8462 H   0  0  0  0  0  0  0  0  0  0  0  0
   33.2961   -8.5619   -4.1842 H   0  0  0  0  0  0  0  0  0  0  0  0
   31.5816   -8.7208   -4.4812 H   0  0  0  0  0  0  0  0  0  0  0  0
   30.6290   -6.4862   -2.5837 H   0  0  0  0  0  0  0  0  0  0  0  0
   30.0964   -6.7106   -4.2326 H   0  0  0  0  0  0  0  0  0  0  0  0
   30.7651   -5.1760   -3.7317 H   0  0  0  0  0  0  0  0  0  0  0  0
   35.2431   -4.3515   -4.9882 H   0  0  0  0  0  0  0  0  0  0  0  0
   34.3515   -5.5634   -7.3971 H   0  0  0  0  0  0  0  0  0  0  0  0
   35.8042   -3.0129   -6.9357 H   0  0  0  0  0  0  0  0  0  0  0  0
   35.2450   -3.5852   -8.5283 H   0  0  0  0  0  0  0  0  0  0  0  0
   33.4296   -3.0816   -6.2024 H   0  0  0  0  0  0  0  0  0  0  0  0
   34.0274   -1.3645   -8.6137 H   0  0  0  0  0  0  0  0  0  0  0  0
   34.5106   -1.0066   -6.9731 H   0  0  0  0  0  0  0  0  0  0  0  0
   32.8168   -1.0192   -7.4021 H   0  0  0  0  0  0  0  0  0  0  0  0
   32.7617   -3.6200   -9.0319 H   0  0  0  0  0  0  0  0  0  0  0  0
   31.6434   -3.2234   -7.7493 H   0  0  0  0  0  0  0  0  0  0  0  0
   32.5581   -4.7107   -7.6822 H   0  0  0  0  0  0  0  0  0  0  0  0
   37.3159   -5.8803   -5.8511 H   0  0  0  0  0  0  0  0  0  0  0  0
   38.4575   -7.0411   -8.3185 H   0  0  0  0  0  0  0  0  0  0  0  0
   38.5603   -7.8191   -6.7574 H   0  0  0  0  0  0  0  0  0  0  0  0
   39.4324   -6.3341   -7.0525 H   0  0  0  0  0  0  0  0  0  0  0  0
  1 36  1  0  0  0  0
  1 37  1  0  0  0  0
  1 38  1  0  0  0  0
  2  1  1  0  0  0  0
  3  2  2  0  0  0  0
  4  2  1  0  0  0  0
  4 10  1  0  0  0  0
  5  4  1  0  0  0  0
  5 39  1  6  0  0  0
  6  7  2  0  0  0  0
  6  5  1  0  0  0  0
  8  5  1  0  0  0  0
  8  9  1  0  0  0  0
  8 40  1  0  0  0  0
  8 41  1  0  0  0  0
  9 10  1  0  0  0  0
  9 42  1  0  0  0  0
  9 43  1  0  0  0  0
 10 44  1  0  0  0  0
 10 45  1  0  0  0  0
 11  6  1  0  0  0  0
 11 46  1  0  0  0  0
 12 11  1  0  0  0  0
 12 47  1  1  0  0  0
 13 18  1  0  0  0  0
 13 12  1  0  0  0  0
 14 13  2  0  0  0  0
 15 12  1  0  0  0  0
 15 17  1  0  0  0  0
 15 48  1  0  0  0  0
 16 15  1  0  0  0  0
 16 49  1  0  0  0  0
 16 50  1  0  0  0  0
 16 51  1  0  0  0  0
 17 52  1  0  0  0  0
 17 53  1  0  0  0  0
 17 54  1  0  0  0  0
 18 55  1  0  0  0  0
 19 22  1  0  0  0  0
 19 18  1  0  0  0  0
 19 56  1  1  0  0  0
 20 19  1  0  0  0  0
 21 20  2  0  0  0  0
 22 57  1  0  0  0  0
 22 58  1  0  0  0  0
 23 24  1  0  0  0  0
 23 25  1  0  0  0  0
 23 22  1  0  0  0  0
 23 59  1  0  0  0  0
 24 60  1  0  0  0  0
 24 61  1  0  0  0  0
 24 62  1  0  0  0  0
 25 63  1  0  0  0  0
 25 64  1  0  0  0  0
 25 65  1  0  0  0  0
 26 20  1  0  0  0  0
 26 66  1  0  0  0  0
 27 26  1  0  0  0  0
 27 67  1  6  0  0  0
 28 27  1  0  0  0  0
 28 34  1  0  0  0  0
 29 28  2  0  0  0  0
 30 31  1  0  0  0  0
 30 27  1  0  0  0  0
 30 68  1  0  0  0  0
 30 69  1  0  0  0  0
 31 70  1  0  0  0  0
 32 31  1  0  0  0  0
 32 71  1  0  0  0  0
 32 72  1  0  0  0  0
 32 73  1  0  0  0  0
 33 31  1  0  0  0  0
 33 74  1  0  0  0  0
 33 75  1  0  0  0  0
 33 76  1  0  0  0  0
 34 77  1  0  0  0  0
 35 34  1  0  0  0  0
 35 78  1  0  0  0  0
 35 79  1  0  0  0  0
 35 80  1  0  0  0  0
M  END
>  <MODEL>
       0

$$$$
selected_4mers/PVLL/808_noH.pdb
 OpenBabel03042518353D

 80 80  0  0  1  0  0  0  0  0999 V2000
   23.3760  -17.9340   25.3110 C   0  0  0  0  0  0  0  0  0  0  0  0
   22.4230  -18.7260   26.2000 C   0  0  0  0  0  0  0  0  0  0  0  0
   21.2740  -18.9580   25.8320 O   0  0  0  0  0  0  0  0  0  0  0  0
   22.8890  -19.1640   27.3800 N   0  0  0  0  0  0  0  0  0  0  0  0
   21.9860  -19.9220   28.2510 C   0  0  2  0  0  0  0  0  0  0  0  0
   20.8080  -19.0530   28.6970 C   0  0  0  0  0  0  0  0  0  0  0  0
   20.9550  -17.8460   28.8800 O   0  0  0  0  0  0  0  0  0  0  0  0
   22.8880  -20.3240   29.4160 C   0  0  0  0  0  0  0  0  0  0  0  0
   23.8770  -19.1980   29.4790 C   0  0  0  0  0  0  0  0  0  0  0  0
   24.2000  -18.9640   28.0220 C   0  0  0  0  0  0  0  0  0  0  0  0
   19.6400  -19.6640   28.8490 N   0  0  0  0  0  0  0  0  0  0  0  0
   18.4540  -18.9430   29.2930 C   0  0  2  0  0  0  0  0  0  0  0  0
   18.5250  -18.9130   30.8170 C   0  0  0  0  0  0  0  0  0  0  0  0
   18.4840  -19.9570   31.4610 O   0  0  0  0  0  0  0  0  0  0  0  0
   17.1770  -19.6690   28.8310 C   0  0  0  0  0  0  0  0  0  0  0  0
   15.9470  -18.9820   29.3930 C   0  0  0  0  0  0  0  0  0  0  0  0
   17.1230  -19.6920   27.3120 C   0  0  0  0  0  0  0  0  0  0  0  0
   18.6210  -17.7180   31.3940 N   0  0  0  0  0  0  0  0  0  0  0  0
   18.7530  -17.5830   32.8410 C   0  0  2  0  0  0  0  0  0  0  0  0
   17.7660  -18.3620   33.7030 C   0  0  0  0  0  0  0  0  0  0  0  0
   18.1770  -19.0700   34.6240 O   0  0  0  0  0  0  0  0  0  0  0  0
   18.6990  -16.1070   33.2540 C   0  0  0  0  0  0  0  0  0  0  0  0
   18.8680  -15.8760   34.7620 C   0  0  0  0  0  0  0  0  0  0  0  0
   20.3260  -16.1190   35.1620 C   0  0  0  0  0  0  0  0  0  0  0  0
   18.4540  -14.4580   35.1260 C   0  0  0  0  0  0  0  0  0  0  0  0
   16.4730  -18.2380   33.4220 N   0  0  0  0  0  0  0  0  0  0  0  0
   15.4820  -18.9160   34.2480 C   0  0  2  0  0  0  0  0  0  0  0  0
   15.4870  -20.4370   34.1620 C   0  0  0  0  0  0  0  0  0  0  0  0
   14.7280  -21.1030   34.8680 O   0  0  0  0  0  0  0  0  0  0  0  0
   14.0850  -18.3540   33.9660 C   0  0  0  0  0  0  0  0  0  0  0  0
   13.9460  -16.8750   34.3630 C   0  0  0  0  0  0  0  0  0  0  0  0
   12.5180  -16.4090   34.1170 C   0  0  0  0  0  0  0  0  0  0  0  0
   14.3240  -16.6940   35.8300 C   0  0  0  0  0  0  0  0  0  0  0  0
   16.3470  -20.9840   33.3070 N   0  0  0  0  0  0  0  0  0  0  0  0
   16.4720  -22.4350   33.1780 C   0  0  0  0  0  0  0  0  0  0  0  0
   22.8721  -17.6521   24.4101 H   0  0  0  0  0  0  0  0  0  0  0  0
   24.2251  -18.5390   25.0704 H   0  0  0  0  0  0  0  0  0  0  0  0
   23.6994  -17.0552   25.8287 H   0  0  0  0  0  0  0  0  0  0  0  0
   21.5357  -20.7690   27.7768 H   0  0  0  0  0  0  0  0  0  0  0  0
   23.3771  -21.2553   29.2204 H   0  0  0  0  0  0  0  0  0  0  0  0
   22.3548  -20.4695   30.3322 H   0  0  0  0  0  0  0  0  0  0  0  0
   23.4431  -18.3268   29.9236 H   0  0  0  0  0  0  0  0  0  0  0  0
   24.7369  -19.4187   30.0762 H   0  0  0  0  0  0  0  0  0  0  0  0
   24.5648  -17.9713   27.8595 H   0  0  0  0  0  0  0  0  0  0  0  0
   24.9678  -19.6054   27.6426 H   0  0  0  0  0  0  0  0  0  0  0  0
   19.5731  -20.6273   28.6573 H   0  0  0  0  0  0  0  0  0  0  0  0
   18.4215  -17.9556   28.8820 H   0  0  0  0  0  0  0  0  0  0  0  0
   17.1960  -20.6751   29.1947 H   0  0  0  0  0  0  0  0  0  0  0  0
   15.9098  -17.9725   29.0402 H   0  0  0  0  0  0  0  0  0  0  0  0
   15.9941  -18.9847   30.4620 H   0  0  0  0  0  0  0  0  0  0  0  0
   15.0695  -19.5042   29.0733 H   0  0  0  0  0  0  0  0  0  0  0  0
   17.1038  -18.6887   26.9406 H   0  0  0  0  0  0  0  0  0  0  0  0
   16.2405  -20.2070   26.9942 H   0  0  0  0  0  0  0  0  0  0  0  0
   17.9867  -20.1965   26.9320 H   0  0  0  0  0  0  0  0  0  0  0  0
   18.6026  -16.9088   30.8336 H   0  0  0  0  0  0  0  0  0  0  0  0
   19.7075  -18.0261   33.0347 H   0  0  0  0  0  0  0  0  0  0  0  0
   17.7517  -15.7084   32.9563 H   0  0  0  0  0  0  0  0  0  0  0  0
   19.5201  -15.6194   32.7714 H   0  0  0  0  0  0  0  0  0  0  0  0
   18.2407  -16.5616   35.2925 H   0  0  0  0  0  0  0  0  0  0  0  0
   20.9590  -15.4363   34.6347 H   0  0  0  0  0  0  0  0  0  0  0  0
   20.6009  -17.1233   34.9154 H   0  0  0  0  0  0  0  0  0  0  0  0
   20.4369  -15.9673   36.2154 H   0  0  0  0  0  0  0  0  0  0  0  0
   19.0734  -13.7601   34.6024 H   0  0  0  0  0  0  0  0  0  0  0  0
   18.5660  -14.3132   36.1802 H   0  0  0  0  0  0  0  0  0  0  0  0
   17.4315  -14.3034   34.8514 H   0  0  0  0  0  0  0  0  0  0  0  0
   16.1851  -17.6891   32.6571 H   0  0  0  0  0  0  0  0  0  0  0  0
   15.7680  -18.7079   35.2579 H   0  0  0  0  0  0  0  0  0  0  0  0
   13.3688  -18.9251   34.5190 H   0  0  0  0  0  0  0  0  0  0  0  0
   13.9177  -18.4214   32.9113 H   0  0  0  0  0  0  0  0  0  0  0  0
   14.6075  -16.2829   33.7657 H   0  0  0  0  0  0  0  0  0  0  0  0
   11.8451  -16.9936   34.7089 H   0  0  0  0  0  0  0  0  0  0  0  0
   12.2774  -16.5280   33.0812 H   0  0  0  0  0  0  0  0  0  0  0  0
   12.4277  -15.3778   34.3879 H   0  0  0  0  0  0  0  0  0  0  0  0
   13.6708  -17.2806   36.4416 H   0  0  0  0  0  0  0  0  0  0  0  0
   14.2319  -15.6620   36.0974 H   0  0  0  0  0  0  0  0  0  0  0  0
   15.3345  -17.0124   35.9799 H   0  0  0  0  0  0  0  0  0  0  0  0
   16.9107  -20.3999   32.7499 H   0  0  0  0  0  0  0  0  0  0  0  0
   15.7915  -22.9129   33.8514 H   0  0  0  0  0  0  0  0  0  0  0  0
   17.4733  -22.7291   33.4143 H   0  0  0  0  0  0  0  0  0  0  0  0
   16.2427  -22.7249   32.1739 H   0  0  0  0  0  0  0  0  0  0  0  0
  1  2  1  0  0  0  0
  1 36  1  0  0  0  0
  1 37  1  0  0  0  0
  1 38  1  0  0  0  0
  2  4  1  0  0  0  0
  3  2  2  0  0  0  0
  4 10  1  0  0  0  0
  4  5  1  0  0  0  0
  5  6  1  0  0  0  0
  5  8  1  0  0  0  0
  5 39  1  6  0  0  0
  6 11  1  0  0  0  0
  6  7  2  0  0  0  0
  8  9  1  0  0  0  0
  8 40  1  0  0  0  0
  8 41  1  0  0  0  0
  9 42  1  0  0  0  0
  9 43  1  0  0  0  0
 10  9  1  0  0  0  0
 10 44  1  0  0  0  0
 10 45  1  0  0  0  0
 11 12  1  0  0  0  0
 11 46  1  0  0  0  0
 12 13  1  0  0  0  0
 12 47  1  6  0  0  0
 13 18  1  0  0  0  0
 13 14  2  0  0  0  0
 15 12  1  0  0  0  0
 15 16  1  0  0  0  0
 15 48  1  0  0  0  0
 16 49  1  0  0  0  0
 16 50  1  0  0  0  0
 16 51  1  0  0  0  0
 17 15  1  0  0  0  0
 17 52  1  0  0  0  0
 17 53  1  0  0  0  0
 17 54  1  0  0  0  0
 18 19  1  0  0  0  0
 18 55  1  0  0  0  0
 19 22  1  0  0  0  0
 19 20  1  0  0  0  0
 19 56  1  1  0  0  0
 20 21  2  0  0  0  0
 22 23  1  0  0  0  0
 22 57  1  0  0  0  0
 22 58  1  0  0  0  0
 23 25  1  0  0  0  0
 23 24  1  0  0  0  0
 23 59  1  0  0  0  0
 24 60  1  0  0  0  0
 24 61  1  0  0  0  0
 24 62  1  0  0  0  0
 25 63  1  0  0  0  0
 25 64  1  0  0  0  0
 25 65  1  0  0  0  0
 26 20  1  0  0  0  0
 26 27  1  0  0  0  0
 26 66  1  0  0  0  0
 27 67  1  1  0  0  0
 28 27  1  0  0  0  0
 28 29  2  0  0  0  0
 30 27  1  0  0  0  0
 30 31  1  0  0  0  0
 30 68  1  0  0  0  0
 30 69  1  0  0  0  0
 31 33  1  0  0  0  0
 31 70  1  0  0  0  0
 32 31  1  0  0  0  0
 32 71  1  0  0  0  0
 32 72  1  0  0  0  0
 32 73  1  0  0  0  0
 33 74  1  0  0  0  0
 33 75  1  0  0  0  0
 33 76  1  0  0  0  0
 34 28  1  0  0  0  0
 34 77  1  0  0  0  0
 35 34  1  0  0  0  0
 35 78  1  0  0  0  0
 35 79  1  0  0  0  0
 35 80  1  0  0  0  0
M  END
>  <MODEL>
       0

$$$$
selected_4mers/PVLL/809_noH.pdb
 OpenBabel03042518353D

 80 80  0  0  1  0  0  0  0  0999 V2000
    9.8360  -10.5550   31.7550 C   0  0  0  0  0  0  0  0  0  0  0  0
   11.1230  -10.8080   30.9420 C   0  0  0  0  0  0  0  0  0  0  0  0
   11.0290  -11.3100   29.8210 O   0  0  0  0  0  0  0  0  0  0  0  0
   12.3090  -10.4600   31.4650 N   0  0  0  0  0  0  0  0  0  0  0  0
   13.5470  -10.7220   30.7140 C   0  0  2  0  0  0  0  0  0  0  0  0
   13.7680  -12.2080   30.4340 C   0  0  0  0  0  0  0  0  0  0  0  0
   14.3120  -12.5460   29.3820 O   0  0  0  0  0  0  0  0  0  0  0  0
   14.6530  -10.1700   31.6230 C   0  0  0  0  0  0  0  0  0  0  0  0
   14.0360  -10.0280   32.9680 C   0  0  0  0  0  0  0  0  0  0  0  0
   12.5800   -9.7770   32.7470 C   0  0  0  0  0  0  0  0  0  0  0  0
   13.3420  -13.0780   31.3490 N   0  0  0  0  0  0  0  0  0  0  0  0
   13.4730  -14.5180   31.1470 C   0  0  2  0  0  0  0  0  0  0  0  0
   12.6100  -14.9830   29.9740 C   0  0  0  0  0  0  0  0  0  0  0  0
   13.0950  -15.7010   29.0970 O   0  0  0  0  0  0  0  0  0  0  0  0
   13.1490  -15.3090   32.4370 C   0  0  0  0  0  0  0  0  0  0  0  0
   13.1760  -16.8120   32.1800 C   0  0  0  0  0  0  0  0  0  0  0  0
   14.1370  -14.9470   33.5340 C   0  0  0  0  0  0  0  0  0  0  0  0
   11.3500  -14.5520   29.9410 N   0  0  0  0  0  0  0  0  0  0  0  0
   10.4490  -14.9460   28.8600 C   0  0  2  0  0  0  0  0  0  0  0  0
   10.9180  -14.4310   27.4960 C   0  0  0  0  0  0  0  0  0  0  0  0
   10.8850  -15.1680   26.5090 O   0  0  0  0  0  0  0  0  0  0  0  0
    9.0070  -14.5220   29.1580 C   0  0  0  0  0  0  0  0  0  0  0  0
    8.3470  -15.1780   30.3760 C   0  0  0  0  0  0  0  0  0  0  0  0
    6.9270  -14.6900   30.5100 C   0  0  0  0  0  0  0  0  0  0  0  0
    8.3740  -16.7010   30.3090 C   0  0  0  0  0  0  0  0  0  0  0  0
   11.3800  -13.1820   27.4480 N   0  0  0  0  0  0  0  0  0  0  0  0
   11.9300  -12.6320   26.2100 C   0  0  2  0  0  0  0  0  0  0  0  0
   13.1400  -13.4340   25.7450 C   0  0  0  0  0  0  0  0  0  0  0  0
   13.2840  -13.7200   24.5550 O   0  0  0  0  0  0  0  0  0  0  0  0
   12.2990  -11.1540   26.3810 C   0  0  0  0  0  0  0  0  0  0  0  0
   11.1340  -10.1790   26.5770 C   0  0  0  0  0  0  0  0  0  0  0  0
   11.6550   -8.7910   26.8770 C   0  0  0  0  0  0  0  0  0  0  0  0
   10.2050  -10.1490   25.3660 C   0  0  0  0  0  0  0  0  0  0  0  0
   13.9950  -13.8090   26.6940 N   0  0  0  0  0  0  0  0  0  0  0  0
   15.1620  -14.6310   26.3900 C   0  0  0  0  0  0  0  0  0  0  0  0
    8.9883  -10.8892   31.1941 H   0  0  0  0  0  0  0  0  0  0  0  0
    9.7408   -9.5083   31.9556 H   0  0  0  0  0  0  0  0  0  0  0  0
    9.8865  -11.0921   32.6791 H   0  0  0  0  0  0  0  0  0  0  0  0
   13.5216  -10.2650   29.7469 H   0  0  0  0  0  0  0  0  0  0  0  0
   14.9901   -9.2196   31.2652 H   0  0  0  0  0  0  0  0  0  0  0  0
   15.5046  -10.8174   31.6459 H   0  0  0  0  0  0  0  0  0  0  0  0
   14.4769   -9.2053   33.4912 H   0  0  0  0  0  0  0  0  0  0  0  0
   14.1902  -10.9076   33.5574 H   0  0  0  0  0  0  0  0  0  0  0  0
   11.9941  -10.1980   33.5371 H   0  0  0  0  0  0  0  0  0  0  0  0
   12.3323   -8.7362   32.7279 H   0  0  0  0  0  0  0  0  0  0  0  0
   12.9305  -12.7429   32.1782 H   0  0  0  0  0  0  0  0  0  0  0  0
   14.4954  -14.7204   30.9047 H   0  0  0  0  0  0  0  0  0  0  0  0
   12.1618  -15.0431   32.7527 H   0  0  0  0  0  0  0  0  0  0  0  0
   14.1558  -17.1020   31.8624 H   0  0  0  0  0  0  0  0  0  0  0  0
   12.4668  -17.0562   31.4169 H   0  0  0  0  0  0  0  0  0  0  0  0
   12.9244  -17.3324   33.0804 H   0  0  0  0  0  0  0  0  0  0  0  0
   15.1266  -15.2107   33.2240 H   0  0  0  0  0  0  0  0  0  0  0  0
   13.8891  -15.4807   34.4276 H   0  0  0  0  0  0  0  0  0  0  0  0
   14.0908  -13.8948   33.7226 H   0  0  0  0  0  0  0  0  0  0  0  0
   11.0210  -13.9595   30.6551 H   0  0  0  0  0  0  0  0  0  0  0  0
   10.4712  -16.0145   28.8072 H   0  0  0  0  0  0  0  0  0  0  0  0
    8.4136  -14.7567   28.2991 H   0  0  0  0  0  0  0  0  0  0  0  0
    9.0569  -13.4779   29.3868 H   0  0  0  0  0  0  0  0  0  0  0  0
    8.9144  -14.8939   31.2376 H   0  0  0  0  0  0  0  0  0  0  0  0
    6.3676  -14.9784   29.6447 H   0  0  0  0  0  0  0  0  0  0  0  0
    6.9231  -13.6236   30.5981 H   0  0  0  0  0  0  0  0  0  0  0  0
    6.4824  -15.1216   31.3823 H   0  0  0  0  0  0  0  0  0  0  0  0
    7.8157  -17.0305   29.4577 H   0  0  0  0  0  0  0  0  0  0  0  0
    7.9387  -17.1049   31.1991 H   0  0  0  0  0  0  0  0  0  0  0  0
    9.3865  -17.0363   30.2232 H   0  0  0  0  0  0  0  0  0  0  0  0
   11.3506  -12.6220   28.2572 H   0  0  0  0  0  0  0  0  0  0  0  0
   11.1721  -12.7032   25.4580 H   0  0  0  0  0  0  0  0  0  0  0  0
   12.8350  -10.8491   25.5066 H   0  0  0  0  0  0  0  0  0  0  0  0
   12.8654  -11.1057   27.2875 H   0  0  0  0  0  0  0  0  0  0  0  0
   10.5610  -10.5261   27.4113 H   0  0  0  0  0  0  0  0  0  0  0  0
   12.2292   -8.4382   26.0459 H   0  0  0  0  0  0  0  0  0  0  0  0
   12.2733   -8.8230   27.7497 H   0  0  0  0  0  0  0  0  0  0  0  0
   10.8311   -8.1299   27.0476 H   0  0  0  0  0  0  0  0  0  0  0  0
   10.7465   -9.8053   24.5095 H   0  0  0  0  0  0  0  0  0  0  0  0
    9.3871   -9.4870   25.5602 H   0  0  0  0  0  0  0  0  0  0  0  0
    9.8303  -11.1337   25.1795 H   0  0  0  0  0  0  0  0  0  0  0  0
   13.8363  -13.5250   27.6232 H   0  0  0  0  0  0  0  0  0  0  0  0
   15.1826  -14.8476   25.3424 H   0  0  0  0  0  0  0  0  0  0  0  0
   15.1076  -15.5458   26.9424 H   0  0  0  0  0  0  0  0  0  0  0  0
   16.0514  -14.1022   26.6624 H   0  0  0  0  0  0  0  0  0  0  0  0
  1 36  1  0  0  0  0
  1 37  1  0  0  0  0
  1 38  1  0  0  0  0
  2  4  1  0  0  0  0
  2  1  1  0  0  0  0
  3  2  2  0  0  0  0
  4 10  1  0  0  0  0
  5  4  1  0  0  0  0
  5  8  1  0  0  0  0
  5 39  1  6  0  0  0
  6  5  1  0  0  0  0
  6 11  1  0  0  0  0
  7  6  2  0  0  0  0
  8  9  1  0  0  0  0
  8 40  1  0  0  0  0
  8 41  1  0  0  0  0
  9 42  1  0  0  0  0
  9 43  1  0  0  0  0
 10  9  1  0  0  0  0
 10 44  1  0  0  0  0
 10 45  1  0  0  0  0
 11 46  1  0  0  0  0
 12 11  1  0  0  0  0
 12 15  1  0  0  0  0
 12 47  1  6  0  0  0
 13 12  1  0  0  0  0
 14 13  2  0  0  0  0
 15 17  1  0  0  0  0
 15 48  1  0  0  0  0
 16 15  1  0  0  0  0
 16 49  1  0  0  0  0
 16 50  1  0  0  0  0
 16 51  1  0  0  0  0
 17 52  1  0  0  0  0
 17 53  1  0  0  0  0
 17 54  1  0  0  0  0
 18 13  1  0  0  0  0
 18 55  1  0  0  0  0
 19 22  1  0  0  0  0
 19 18  1  0  0  0  0
 19 56  1  6  0  0  0
 20 19  1  0  0  0  0
 21 20  2  0  0  0  0
 22 23  1  0  0  0  0
 22 57  1  0  0  0  0
 22 58  1  0  0  0  0
 23 24  1  0  0  0  0
 23 59  1  0  0  0  0
 24 60  1  0  0  0  0
 24 61  1  0  0  0  0
 24 62  1  0  0  0  0
 25 23  1  0  0  0  0
 25 63  1  0  0  0  0
 25 64  1  0  0  0  0
 25 65  1  0  0  0  0
 26 20  1  0  0  0  0
 26 66  1  0  0  0  0
 27 30  1  0  0  0  0
 27 26  1  0  0  0  0
 27 67  1  6  0  0  0
 28 27  1  0  0  0  0
 28 34  1  0  0  0  0
 29 28  2  0  0  0  0
 30 31  1  0  0  0  0
 30 68  1  0  0  0  0
 30 69  1  0  0  0  0
 31 32  1  0  0  0  0
 31 70  1  0  0  0  0
 32 71  1  0  0  0  0
 32 72  1  0  0  0  0
 32 73  1  0  0  0  0
 33 31  1  0  0  0  0
 33 74  1  0  0  0  0
 33 75  1  0  0  0  0
 33 76  1  0  0  0  0
 34 77  1  0  0  0  0
 35 34  1  0  0  0  0
 35 78  1  0  0  0  0
 35 79  1  0  0  0  0
 35 80  1  0  0  0  0
M  END
>  <MODEL>
       0

$$$$
