selected_4mers/SGSG/485_noH.pdb
 OpenBabel03042518173D

 48 47  0  0  1  0  0  0  0  0999 V2000
  -10.6730    4.5830   21.7240 C   0  0  0  0  0  0  0  0  0  0  0  0
  -10.7910    4.8370   23.2150 C   0  0  0  0  0  0  0  0  0  0  0  0
  -11.5000    5.7410   23.6440 O   0  0  0  0  0  0  0  0  0  0  0  0
  -10.1020    4.0200   23.9990 N   0  0  0  0  0  0  0  0  0  0  0  0
  -10.0510    4.2120   25.4350 C   0  0  2  0  0  0  0  0  0  0  0  0
   -8.7040    3.7070   25.9130 C   0  0  0  0  0  0  0  0  0  0  0  0
   -7.9480    3.1020   25.1540 O   0  0  0  0  0  0  0  0  0  0  0  0
  -11.1890    3.4610   26.1310 C   0  0  0  0  0  0  0  0  0  0  0  0
  -11.0440    2.0550   26.0140 O   0  0  0  0  0  0  0  0  0  0  0  0
   -8.3980    3.9770   27.1730 N   0  0  0  0  0  0  0  0  0  0  0  0
   -7.1910    3.4450   27.7710 C   0  0  0  0  0  0  0  0  0  0  0  0
   -6.6600    4.3500   28.8540 C   0  0  0  0  0  0  0  0  0  0  0  0
   -7.2740    5.3610   29.1900 O   0  0  0  0  0  0  0  0  0  0  0  0
   -5.5150    3.9600   29.4030 N   0  0  0  0  0  0  0  0  0  0  0  0
   -4.8260    4.7450   30.4130 C   0  0  2  0  0  0  0  0  0  0  0  0
   -3.9400    5.7500   29.6890 C   0  0  0  0  0  0  0  0  0  0  0  0
   -4.2190    6.1170   28.5480 O   0  0  0  0  0  0  0  0  0  0  0  0
   -3.9780    3.8220   31.2850 C   0  0  0  0  0  0  0  0  0  0  0  0
   -3.0090    3.1660   30.4880 O   0  0  0  0  0  0  0  0  0  0  0  0
   -2.8650    6.1790   30.3380 N   0  0  0  0  0  0  0  0  0  0  0  0
   -1.8850    7.0290   29.6770 C   0  0  0  0  0  0  0  0  0  0  0  0
   -0.8860    6.2370   28.8540 C   0  0  0  0  0  0  0  0  0  0  0  0
   -0.1390    6.8180   28.0670 O   0  0  0  0  0  0  0  0  0  0  0  0
   -0.8790    4.9150   29.0150 N   0  0  0  0  0  0  0  0  0  0  0  0
    0.1530    4.0760   28.4060 C   0  0  0  0  0  0  0  0  0  0  0  0
  -11.2667    5.2971   21.1925 H   0  0  0  0  0  0  0  0  0  0  0  0
  -11.0194    3.5953   21.5019 H   0  0  0  0  0  0  0  0  0  0  0  0
   -9.6497    4.6775   21.4260 H   0  0  0  0  0  0  0  0  0  0  0  0
   -9.6137    3.2656   23.5969 H   0  0  0  0  0  0  0  0  0  0  0  0
  -10.1702    5.2481   25.6740 H   0  0  0  0  0  0  0  0  0  0  0  0
  -12.1179    3.7512   25.6862 H   0  0  0  0  0  0  0  0  0  0  0  0
  -11.1644    3.7115   27.1710 H   0  0  0  0  0  0  0  0  0  0  0  0
  -11.0635    1.8048   25.0770 H   0  0  0  0  0  0  0  0  0  0  0  0
   -8.9973    4.5453   27.7087 H   0  0  0  0  0  0  0  0  0  0  0  0
   -6.4452    3.3388   27.0111 H   0  0  0  0  0  0  0  0  0  0  0  0
   -7.4261    2.4989   28.2121 H   0  0  0  0  0  0  0  0  0  0  0  0
   -5.1181    3.1065   29.1145 H   0  0  0  0  0  0  0  0  0  0  0  0
   -5.5236    5.2552   31.0438 H   0  0  0  0  0  0  0  0  0  0  0  0
   -4.6090    3.0930   31.7489 H   0  0  0  0  0  0  0  0  0  0  0  0
   -3.4838    4.4016   32.0365 H   0  0  0  0  0  0  0  0  0  0  0  0
   -3.4542    2.6396   29.8056 H   0  0  0  0  0  0  0  0  0  0  0  0
   -2.7285    5.9194   31.2778 H   0  0  0  0  0  0  0  0  0  0  0  0
   -2.4007    7.7074   29.0299 H   0  0  0  0  0  0  0  0  0  0  0  0
   -1.3396    7.5470   30.4380 H   0  0  0  0  0  0  0  0  0  0  0  0
   -1.5846    4.4927   29.5563 H   0  0  0  0  0  0  0  0  0  0  0  0
    0.8348    4.6913   27.8569 H   0  0  0  0  0  0  0  0  0  0  0  0
   -0.3050    3.3719   27.7432 H   0  0  0  0  0  0  0  0  0  0  0  0
    0.6841    3.5511   29.1724 H   0  0  0  0  0  0  0  0  0  0  0  0
  1  2  1  0  0  0  0
  1 26  1  0  0  0  0
  1 27  1  0  0  0  0
  1 28  1  0  0  0  0
  2  3  2  0  0  0  0
  2  4  1  0  0  0  0
  4  5  1  0  0  0  0
  4 29  1  0  0  0  0
  5  6  1  0  0  0  0
  5  8  1  0  0  0  0
  5 30  1  1  0  0  0
  6 10  1  0  0  0  0
  7  6  2  0  0  0  0
  8 31  1  0  0  0  0
  8 32  1  0  0  0  0
  9  8  1  0  0  0  0
  9 33  1  0  0  0  0
 10 11  1  0  0  0  0
 10 34  1  0  0  0  0
 11 12  1  0  0  0  0
 11 35  1  0  0  0  0
 11 36  1  0  0  0  0
 12 13  2  0  0  0  0
 12 14  1  0  0  0  0
 14 15  1  0  0  0  0
 14 37  1  0  0  0  0
 15 18  1  0  0  0  0
 15 38  1  1  0  0  0
 16 20  1  0  0  0  0
 16 15  1  0  0  0  0
 17 16  2  0  0  0  0
 18 39  1  0  0  0  0
 18 40  1  0  0  0  0
 19 18  1  0  0  0  0
 19 41  1  0  0  0  0
 20 42  1  0  0  0  0
 21 20  1  0  0  0  0
 21 43  1  0  0  0  0
 21 44  1  0  0  0  0
 22 24  1  0  0  0  0
 22 21  1  0  0  0  0
 23 22  2  0  0  0  0
 24 45  1  0  0  0  0
 25 24  1  0  0  0  0
 25 46  1  0  0  0  0
 25 47  1  0  0  0  0
 25 48  1  0  0  0  0
M  END
>  <MODEL>
       0

$$$$
selected_4mers/SGSG/486_noH.pdb
 OpenBabel03042518173D

 48 47  0  0  1  0  0  0  0  0999 V2000
   60.2930  134.5020   91.5350 C   0  0  0  0  0  0  0  0  0  0  0  0
   59.1090  134.4510   92.4590 C   0  0  0  0  0  0  0  0  0  0  0  0
   58.4600  135.4740   92.6880 O   0  0  0  0  0  0  0  0  0  0  0  0
   58.8740  133.2840   93.0710 N   0  0  0  0  0  0  0  0  0  0  0  0
   57.8780  133.1750   94.1360 C   0  0  2  0  0  0  0  0  0  0  0  0
   58.4070  133.5920   95.5060 C   0  0  0  0  0  0  0  0  0  0  0  0
   57.6510  133.6000   96.4870 O   0  0  0  0  0  0  0  0  0  0  0  0
   57.2850  131.7700   94.1880 C   0  0  0  0  0  0  0  0  0  0  0  0
   56.4240  131.5810   93.0440 O   0  0  0  0  0  0  0  0  0  0  0  0
   59.6880  133.9450   95.5770 N   0  0  0  0  0  0  0  0  0  0  0  0
   60.2130  134.5000   96.8140 C   0  0  0  0  0  0  0  0  0  0  0  0
   61.5230  133.8780   97.1940 C   0  0  0  0  0  0  0  0  0  0  0  0
   62.1040  133.1400   96.4000 O   0  0  0  0  0  0  0  0  0  0  0  0
   61.9500  134.1980   98.4090 N   0  0  0  0  0  0  0  0  0  0  0  0
   63.1850  133.6640   98.9590 C   0  0  2  0  0  0  0  0  0  0  0  0
   63.0190  133.5940  100.4630 C   0  0  0  0  0  0  0  0  0  0  0  0
   62.3480  134.4260  101.0920 O   0  0  0  0  0  0  0  0  0  0  0  0
   64.4090  134.5190   98.5970 C   0  0  0  0  0  0  0  0  0  0  0  0
   64.2800  135.8220   99.0870 O   0  0  0  0  0  0  0  0  0  0  0  0
   63.6670  132.5990  101.0400 N   0  0  0  0  0  0  0  0  0  0  0  0
   63.4710  132.2880  102.4450 C   0  0  0  0  0  0  0  0  0  0  0  0
   62.2320  131.4530  102.6790 C   0  0  0  0  0  0  0  0  0  0  0  0
   61.4270  131.2270  101.7650 O   0  0  0  0  0  0  0  0  0  0  0  0
   62.0630  131.0210  103.9300 N   0  0  0  0  0  0  0  0  0  0  0  0
   60.9290  130.1980  104.2820 C   0  0  0  0  0  0  0  0  0  0  0  0
   60.3728  135.4813   91.1112 H   0  0  0  0  0  0  0  0  0  0  0  0
   60.1656  133.7838   90.7521 H   0  0  0  0  0  0  0  0  0  0  0  0
   61.1836  134.2772   92.0838 H   0  0  0  0  0  0  0  0  0  0  0  0
   59.3807  132.4849   92.7993 H   0  0  0  0  0  0  0  0  0  0  0  0
   57.1028  133.8702   93.8896 H   0  0  0  0  0  0  0  0  0  0  0  0
   58.0733  131.0468   94.1672 H   0  0  0  0  0  0  0  0  0  0  0  0
   56.7211  131.6485   95.0892 H   0  0  0  0  0  0  0  0  0  0  0  0
   56.9392  131.6920   92.2297 H   0  0  0  0  0  0  0  0  0  0  0  0
   60.2769  133.8310   94.7963 H   0  0  0  0  0  0  0  0  0  0  0  0
   59.5067  134.3256   97.5986 H   0  0  0  0  0  0  0  0  0  0  0  0
   60.3738  135.5474   96.6656 H   0  0  0  0  0  0  0  0  0  0  0  0
   61.4133  134.8167   98.9552 H   0  0  0  0  0  0  0  0  0  0  0  0
   63.3643  132.6955   98.5409 H   0  0  0  0  0  0  0  0  0  0  0  0
   64.5067  134.5549   97.5321 H   0  0  0  0  0  0  0  0  0  0  0  0
   65.2752  134.0748   99.0413 H   0  0  0  0  0  0  0  0  0  0  0  0
   63.4980  136.2395   98.6933 H   0  0  0  0  0  0  0  0  0  0  0  0
   64.2945  132.0580  100.5082 H   0  0  0  0  0  0  0  0  0  0  0  0
   63.3773  133.2037  102.9906 H   0  0  0  0  0  0  0  0  0  0  0  0
   64.3159  131.7213  102.7765 H   0  0  0  0  0  0  0  0  0  0  0  0
   62.7192  131.2661  104.6218 H   0  0  0  0  0  0  0  0  0  0  0  0
   60.3255  130.0323  103.4141 H   0  0  0  0  0  0  0  0  0  0  0  0
   60.3477  130.6934  105.0314 H   0  0  0  0  0  0  0  0  0  0  0  0
   61.2739  129.2588  104.6611 H   0  0  0  0  0  0  0  0  0  0  0  0
  1  2  1  0  0  0  0
  1 26  1  0  0  0  0
  1 27  1  0  0  0  0
  1 28  1  0  0  0  0
  2  3  2  0  0  0  0
  2  4  1  0  0  0  0
  4  5  1  0  0  0  0
  4 29  1  0  0  0  0
  5  8  1  0  0  0  0
  5  6  1  0  0  0  0
  5 30  1  6  0  0  0
  6 10  1  0  0  0  0
  6  7  2  0  0  0  0
  8 31  1  0  0  0  0
  8 32  1  0  0  0  0
  9  8  1  0  0  0  0
  9 33  1  0  0  0  0
 10 11  1  0  0  0  0
 10 34  1  0  0  0  0
 11 12  1  0  0  0  0
 11 35  1  0  0  0  0
 11 36  1  0  0  0  0
 12 14  1  0  0  0  0
 13 12  2  0  0  0  0
 14 15  1  0  0  0  0
 14 37  1  0  0  0  0
 15 16  1  0  0  0  0
 15 38  1  6  0  0  0
 16 20  1  0  0  0  0
 16 17  2  0  0  0  0
 18 15  1  0  0  0  0
 18 19  1  0  0  0  0
 18 39  1  0  0  0  0
 18 40  1  0  0  0  0
 19 41  1  0  0  0  0
 20 21  1  0  0  0  0
 20 42  1  0  0  0  0
 21 22  1  0  0  0  0
 21 43  1  0  0  0  0
 21 44  1  0  0  0  0
 22 24  1  0  0  0  0
 23 22  2  0  0  0  0
 24 25  1  0  0  0  0
 24 45  1  0  0  0  0
 25 46  1  0  0  0  0
 25 47  1  0  0  0  0
 25 48  1  0  0  0  0
M  END
>  <MODEL>
       0

$$$$
selected_4mers/SGSG/487_noH.pdb
 OpenBabel03042518173D

 48 47  0  0  1  0  0  0  0  0999 V2000
   32.8860   15.8120   26.2240 C   0  0  0  0  0  0  0  0  0  0  0  0
   34.1270   16.3400   26.8500 C   0  0  0  0  0  0  0  0  0  0  0  0
   34.1030   17.3380   27.5890 O   0  0  0  0  0  0  0  0  0  0  0  0
   35.2260   15.6350   26.6420 N   0  0  0  0  0  0  0  0  0  0  0  0
   36.5230   16.1700   27.0270 C   0  0  2  0  0  0  0  0  0  0  0  0
   37.6300   15.6810   26.1060 C   0  0  0  0  0  0  0  0  0  0  0  0
   37.4670   14.7850   25.2810 O   0  0  0  0  0  0  0  0  0  0  0  0
   36.8670   15.8560   28.4910 C   0  0  0  0  0  0  0  0  0  0  0  0
   37.1400   14.4720   28.6990 O   0  0  0  0  0  0  0  0  0  0  0  0
   38.7730   16.3290   26.2360 N   0  0  0  0  0  0  0  0  0  0  0  0
   39.9650   15.9370   25.5400 C   0  0  0  0  0  0  0  0  0  0  0  0
   40.5150   17.0810   24.7260 C   0  0  0  0  0  0  0  0  0  0  0  0
   39.8270   18.0540   24.4430 O   0  0  0  0  0  0  0  0  0  0  0  0
   41.7700   16.9340   24.3420 N   0  0  0  0  0  0  0  0  0  0  0  0
   42.4660   17.8650   23.4740 C   0  0  2  0  0  0  0  0  0  0  0  0
   43.6270   17.1150   22.8440 C   0  0  0  0  0  0  0  0  0  0  0  0
   44.0560   16.0710   23.3520 O   0  0  0  0  0  0  0  0  0  0  0  0
   42.9650   19.0690   24.2610 C   0  0  0  0  0  0  0  0  0  0  0  0
   43.8920   18.7070   25.2760 O   0  0  0  0  0  0  0  0  0  0  0  0
   44.1070   17.6140   21.7120 N   0  0  0  0  0  0  0  0  0  0  0  0
   45.2530   17.0080   21.0420 C   0  0  0  0  0  0  0  0  0  0  0  0
   44.8060   15.8930   20.1390 C   0  0  0  0  0  0  0  0  0  0  0  0
   44.2320   16.1480   19.0700 O   0  0  0  0  0  0  0  0  0  0  0  0
   45.0560   14.6510   20.5570 N   0  0  0  0  0  0  0  0  0  0  0  0
   44.6980   13.4760   19.7670 C   0  0  0  0  0  0  0  0  0  0  0  0
   33.1233   14.9545   25.6297 H   0  0  0  0  0  0  0  0  0  0  0  0
   32.4507   16.5669   25.6031 H   0  0  0  0  0  0  0  0  0  0  0  0
   32.1909   15.5346   26.9887 H   0  0  0  0  0  0  0  0  0  0  0  0
   35.1665   14.7451   26.2252 H   0  0  0  0  0  0  0  0  0  0  0  0
   36.4512   17.2330   26.9286 H   0  0  0  0  0  0  0  0  0  0  0  0
   36.0395   16.1397   29.1072 H   0  0  0  0  0  0  0  0  0  0  0  0
   37.7498   16.4050   28.7443 H   0  0  0  0  0  0  0  0  0  0  0  0
   36.3533   13.9502   28.4760 H   0  0  0  0  0  0  0  0  0  0  0  0
   38.8088   17.1109   26.8332 H   0  0  0  0  0  0  0  0  0  0  0  0
   40.7012   15.6286   26.2526 H   0  0  0  0  0  0  0  0  0  0  0  0
   39.7245   15.1315   24.8780 H   0  0  0  0  0  0  0  0  0  0  0  0
   42.2630   16.1451   24.6642 H   0  0  0  0  0  0  0  0  0  0  0  0
   41.8057   18.2367   22.7186 H   0  0  0  0  0  0  0  0  0  0  0  0
   42.1267   19.5523   24.7178 H   0  0  0  0  0  0  0  0  0  0  0  0
   43.4682   19.7199   23.5769 H   0  0  0  0  0  0  0  0  0  0  0  0
   43.4605   18.1150   25.9118 H   0  0  0  0  0  0  0  0  0  0  0  0
   43.6815   18.4088   21.3163 H   0  0  0  0  0  0  0  0  0  0  0  0
   45.7548   17.7526   20.4601 H   0  0  0  0  0  0  0  0  0  0  0  0
   45.9154   16.6095   21.7819 H   0  0  0  0  0  0  0  0  0  0  0  0
   45.4969   14.5221   21.4278 H   0  0  0  0  0  0  0  0  0  0  0  0
   44.2310   13.7874   18.8560 H   0  0  0  0  0  0  0  0  0  0  0  0
   44.0197   12.8645   20.3246 H   0  0  0  0  0  0  0  0  0  0  0  0
   45.5810   12.9152   19.5416 H   0  0  0  0  0  0  0  0  0  0  0  0
  1  2  1  0  0  0  0
  1 26  1  0  0  0  0
  1 27  1  0  0  0  0
  1 28  1  0  0  0  0
  2  3  2  0  0  0  0
  4  2  1  0  0  0  0
  4  5  1  0  0  0  0
  4 29  1  0  0  0  0
  5  8  1  0  0  0  0
  5 30  1  6  0  0  0
  6 10  1  0  0  0  0
  6  5  1  0  0  0  0
  7  6  2  0  0  0  0
  8  9  1  0  0  0  0
  8 31  1  0  0  0  0
  8 32  1  0  0  0  0
  9 33  1  0  0  0  0
 10 34  1  0  0  0  0
 11 10  1  0  0  0  0
 11 35  1  0  0  0  0
 11 36  1  0  0  0  0
 12 11  1  0  0  0  0
 13 12  2  0  0  0  0
 14 12  1  0  0  0  0
 14 37  1  0  0  0  0
 15 18  1  0  0  0  0
 15 14  1  0  0  0  0
 15 38  1  6  0  0  0
 16 17  2  0  0  0  0
 16 15  1  0  0  0  0
 18 19  1  0  0  0  0
 18 39  1  0  0  0  0
 18 40  1  0  0  0  0
 19 41  1  0  0  0  0
 20 16  1  0  0  0  0
 20 42  1  0  0  0  0
 21 20  1  0  0  0  0
 21 43  1  0  0  0  0
 21 44  1  0  0  0  0
 22 24  1  0  0  0  0
 22 21  1  0  0  0  0
 23 22  2  0  0  0  0
 24 45  1  0  0  0  0
 25 24  1  0  0  0  0
 25 46  1  0  0  0  0
 25 47  1  0  0  0  0
 25 48  1  0  0  0  0
M  END
>  <MODEL>
       0

$$$$
selected_4mers/SGSG/488_noH.pdb
 OpenBabel03042518173D

 48 47  0  0  1  0  0  0  0  0999 V2000
   55.4850    6.0230   15.6790 C   0  0  0  0  0  0  0  0  0  0  0  0
   56.7100    5.1080   15.7490 C   0  0  0  0  0  0  0  0  0  0  0  0
   56.5750    3.8800   15.7360 O   0  0  0  0  0  0  0  0  0  0  0  0
   57.9070    5.7080   15.7660 N   0  0  0  0  0  0  0  0  0  0  0  0
   59.1300    4.9180   15.7060 C   0  0  2  0  0  0  0  0  0  0  0  0
   59.3300    4.1420   17.0010 C   0  0  0  0  0  0  0  0  0  0  0  0
   58.9860    4.6260   18.0770 O   0  0  0  0  0  0  0  0  0  0  0  0
   60.3520    5.7740   15.3390 C   0  0  0  0  0  0  0  0  0  0  0  0
   60.4090    6.9310   16.1470 O   0  0  0  0  0  0  0  0  0  0  0  0
   59.8300    2.9140   16.8690 N   0  0  0  0  0  0  0  0  0  0  0  0
   60.0390    2.0120   18.0040 C   0  0  0  0  0  0  0  0  0  0  0  0
   58.7830    1.3860   18.6000 C   0  0  0  0  0  0  0  0  0  0  0  0
   58.8820    0.5990   19.5400 O   0  0  0  0  0  0  0  0  0  0  0  0
   57.6080    1.7030   18.0460 N   0  0  0  0  0  0  0  0  0  0  0  0
   56.3160    1.2700   18.6190 C   0  0  2  0  0  0  0  0  0  0  0  0
   55.9990   -0.2130   18.4000 C   0  0  0  0  0  0  0  0  0  0  0  0
   55.1550   -0.7840   19.1060 O   0  0  0  0  0  0  0  0  0  0  0  0
   55.1650    2.0840   18.0210 C   0  0  0  0  0  0  0  0  0  0  0  0
   55.1010    1.8890   16.6180 O   0  0  0  0  0  0  0  0  0  0  0  0
   56.6370   -0.7990   17.3880 N   0  0  0  0  0  0  0  0  0  0  0  0
   56.3230   -2.1440   16.9260 C   0  0  0  0  0  0  0  0  0  0  0  0
   55.2510   -2.1370   15.8470 C   0  0  0  0  0  0  0  0  0  0  0  0
   54.9640   -3.1810   15.2430 O   0  0  0  0  0  0  0  0  0  0  0  0
   54.6530   -0.9710   15.6020 N   0  0  0  0  0  0  0  0  0  0  0  0
   53.6570   -0.8320   14.5390 C   0  0  0  0  0  0  0  0  0  0  0  0
   54.5956    5.4283   15.6715 H   0  0  0  0  0  0  0  0  0  0  0  0
   55.5290    6.6102   14.7856 H   0  0  0  0  0  0  0  0  0  0  0  0
   55.4741    6.6702   16.5310 H   0  0  0  0  0  0  0  0  0  0  0  0
   57.9611    6.6896   15.8194 H   0  0  0  0  0  0  0  0  0  0  0  0
   59.0242    4.2042   14.9160 H   0  0  0  0  0  0  0  0  0  0  0  0
   60.2815    6.0655   14.3119 H   0  0  0  0  0  0  0  0  0  0  0  0
   61.2385    5.1968   15.4999 H   0  0  0  0  0  0  0  0  0  0  0  0
   59.6091    7.4618   16.0085 H   0  0  0  0  0  0  0  0  0  0  0  0
   60.0698    2.5986   15.9677 H   0  0  0  0  0  0  0  0  0  0  0  0
   60.5270    2.5670   18.7778 H   0  0  0  0  0  0  0  0  0  0  0  0
   60.6148    1.1953   17.6214 H   0  0  0  0  0  0  0  0  0  0  0  0
   57.6032    2.2458   17.2247 H   0  0  0  0  0  0  0  0  0  0  0  0
   56.4126    1.4339   19.6720 H   0  0  0  0  0  0  0  0  0  0  0  0
   54.2430    1.7693   18.4635 H   0  0  0  0  0  0  0  0  0  0  0  0
   55.3322    3.1218   18.2208 H   0  0  0  0  0  0  0  0  0  0  0  0
   54.9495    0.9498   16.4287 H   0  0  0  0  0  0  0  0  0  0  0  0
   57.3530   -0.3004   16.9319 H   0  0  0  0  0  0  0  0  0  0  0  0
   57.2110   -2.5894   16.5286 H   0  0  0  0  0  0  0  0  0  0  0  0
   55.9511   -2.7026   17.7594 H   0  0  0  0  0  0  0  0  0  0  0  0
   54.8866   -0.1860   16.1483 H   0  0  0  0  0  0  0  0  0  0  0  0
   53.5246   -1.7739   14.0489 H   0  0  0  0  0  0  0  0  0  0  0  0
   53.9919   -0.1046   13.8293 H   0  0  0  0  0  0  0  0  0  0  0  0
   52.7262   -0.5159   14.9615 H   0  0  0  0  0  0  0  0  0  0  0  0
  1  2  1  0  0  0  0
  1 26  1  0  0  0  0
  1 27  1  0  0  0  0
  1 28  1  0  0  0  0
  2  4  1  0  0  0  0
  3  2  2  0  0  0  0
  4 29  1  0  0  0  0
  5  4  1  0  0  0  0
  5  6  1  0  0  0  0
  5 30  1  6  0  0  0
  6  7  2  0  0  0  0
  8  5  1  0  0  0  0
  8  9  1  0  0  0  0
  8 31  1  0  0  0  0
  8 32  1  0  0  0  0
  9 33  1  0  0  0  0
 10  6  1  0  0  0  0
 10 11  1  0  0  0  0
 10 34  1  0  0  0  0
 11 12  1  0  0  0  0
 11 35  1  0  0  0  0
 11 36  1  0  0  0  0
 12 13  2  0  0  0  0
 14 12  1  0  0  0  0
 14 15  1  0  0  0  0
 14 37  1  0  0  0  0
 15 38  1  1  0  0  0
 16 15  1  0  0  0  0
 16 17  2  0  0  0  0
 18 15  1  0  0  0  0
 18 39  1  0  0  0  0
 18 40  1  0  0  0  0
 19 18  1  0  0  0  0
 19 41  1  0  0  0  0
 20 16  1  0  0  0  0
 20 42  1  0  0  0  0
 21 20  1  0  0  0  0
 21 43  1  0  0  0  0
 21 44  1  0  0  0  0
 22 21  1  0  0  0  0
 23 22  2  0  0  0  0
 24 22  1  0  0  0  0
 24 45  1  0  0  0  0
 25 24  1  0  0  0  0
 25 46  1  0  0  0  0
 25 47  1  0  0  0  0
 25 48  1  0  0  0  0
M  END
>  <MODEL>
       0

$$$$
selected_4mers/SGSG/489_noH.pdb
 OpenBabel03042518173D

 48 47  0  0  1  0  0  0  0  0999 V2000
   84.7090   75.0160   55.8850 C   0  0  0  0  0  0  0  0  0  0  0  0
   84.8760   75.4430   57.3370 C   0  0  0  0  0  0  0  0  0  0  0  0
   85.3150   76.5580   57.6110 O   0  0  0  0  0  0  0  0  0  0  0  0
   84.5330   74.5530   58.2630 N   0  0  0  0  0  0  0  0  0  0  0  0
   84.6140   74.8550   59.6900 C   0  0  2  0  0  0  0  0  0  0  0  0
   86.0640   74.9800   60.1480 C   0  0  0  0  0  0  0  0  0  0  0  0
   86.9730   74.4530   59.5050 O   0  0  0  0  0  0  0  0  0  0  0  0
   83.9140   73.7720   60.5050 C   0  0  0  0  0  0  0  0  0  0  0  0
   84.6400   72.5580   60.4360 O   0  0  0  0  0  0  0  0  0  0  0  0
   86.2670   75.6700   61.2680 N   0  0  0  0  0  0  0  0  0  0  0  0
   87.5990   75.9260   61.7920 C   0  0  0  0  0  0  0  0  0  0  0  0
   88.2440   74.7380   62.4830 C   0  0  0  0  0  0  0  0  0  0  0  0
   89.4620   74.5640   62.4200 O   0  0  0  0  0  0  0  0  0  0  0  0
   87.4280   73.9230   63.1480 N   0  0  0  0  0  0  0  0  0  0  0  0
   87.9120   72.7290   63.8350 C   0  0  2  0  0  0  0  0  0  0  0  0
   86.7540   71.9910   64.4980 C   0  0  0  0  0  0  0  0  0  0  0  0
   85.6340   72.4980   64.5500 O   0  0  0  0  0  0  0  0  0  0  0  0
   88.9650   73.0920   64.8850 C   0  0  0  0  0  0  0  0  0  0  0  0
   88.3850   73.8130   65.9600 O   0  0  0  0  0  0  0  0  0  0  0  0
   87.0310   70.7950   65.0080 N   0  0  0  0  0  0  0  0  0  0  0  0
   86.0110   69.9820   65.6470 C   0  0  0  0  0  0  0  0  0  0  0  0
   84.8910   69.5960   64.6980 C   0  0  0  0  0  0  0  0  0  0  0  0
   83.9000   70.3210   64.5640 O   0  0  0  0  0  0  0  0  0  0  0  0
   85.0500   68.4480   64.0430 N   0  0  0  0  0  0  0  0  0  0  0  0
   84.0950   67.9790   63.0450 C   0  0  0  0  0  0  0  0  0  0  0  0
   85.0165   75.8133   55.2411 H   0  0  0  0  0  0  0  0  0  0  0  0
   83.6817   74.7824   55.6978 H   0  0  0  0  0  0  0  0  0  0  0  0
   85.3114   74.1522   55.6957 H   0  0  0  0  0  0  0  0  0  0  0  0
   84.2155   73.6654   57.9791 H   0  0  0  0  0  0  0  0  0  0  0  0
   84.1242   75.7927   59.8500 H   0  0  0  0  0  0  0  0  0  0  0  0
   82.9298   73.6173   60.1147 H   0  0  0  0  0  0  0  0  0  0  0  0
   83.8583   74.0865   61.5262 H   0  0  0  0  0  0  0  0  0  0  0  0
   84.6949   72.2661   59.5126 H   0  0  0  0  0  0  0  0  0  0  0  0
   85.4882   76.0192   61.7587 H   0  0  0  0  0  0  0  0  0  0  0  0
   87.5318   76.7271   62.4982 H   0  0  0  0  0  0  0  0  0  0  0  0
   88.2168   76.1601   60.9503 H   0  0  0  0  0  0  0  0  0  0  0  0
   86.4665   74.1323   63.1775 H   0  0  0  0  0  0  0  0  0  0  0  0
   88.3637   72.0890   63.1061 H   0  0  0  0  0  0  0  0  0  0  0  0
   89.7217   73.6947   64.4276 H   0  0  0  0  0  0  0  0  0  0  0  0
   89.3874   72.1876   65.2703 H   0  0  0  0  0  0  0  0  0  0  0  0
   87.9975   74.6367   65.6251 H   0  0  0  0  0  0  0  0  0  0  0  0
   87.9518   70.4513   64.9511 H   0  0  0  0  0  0  0  0  0  0  0  0
   86.4681   69.0888   66.0186 H   0  0  0  0  0  0  0  0  0  0  0  0
   85.5809   70.5635   66.4355 H   0  0  0  0  0  0  0  0  0  0  0  0
   85.8408   67.8955   64.2393 H   0  0  0  0  0  0  0  0  0  0  0  0
   83.2999   68.6888   62.9510 H   0  0  0  0  0  0  0  0  0  0  0  0
   83.6956   67.0343   63.3498 H   0  0  0  0  0  0  0  0  0  0  0  0
   84.5890   67.8699   62.1022 H   0  0  0  0  0  0  0  0  0  0  0  0
  1  2  1  0  0  0  0
  1 26  1  0  0  0  0
  1 27  1  0  0  0  0
  1 28  1  0  0  0  0
  2  3  2  0  0  0  0
  2  4  1  0  0  0  0
  4  5  1  0  0  0  0
  4 29  1  0  0  0  0
  5  6  1  0  0  0  0
  5  8  1  0  0  0  0
  5 30  1  1  0  0  0
  6 10  1  0  0  0  0
  7  6  2  0  0  0  0
  8 31  1  0  0  0  0
  8 32  1  0  0  0  0
  9  8  1  0  0  0  0
  9 33  1  0  0  0  0
 10 11  1  0  0  0  0
 10 34  1  0  0  0  0
 11 12  1  0  0  0  0
 11 35  1  0  0  0  0
 11 36  1  0  0  0  0
 12 14  1  0  0  0  0
 13 12  2  0  0  0  0
 14 15  1  0  0  0  0
 14 37  1  0  0  0  0
 15 16  1  0  0  0  0
 15 18  1  0  0  0  0
 15 38  1  6  0  0  0
 16 17  2  0  0  0  0
 16 20  1  0  0  0  0
 18 19  1  0  0  0  0
 18 39  1  0  0  0  0
 18 40  1  0  0  0  0
 19 41  1  0  0  0  0
 20 21  1  0  0  0  0
 20 42  1  0  0  0  0
 21 43  1  0  0  0  0
 21 44  1  0  0  0  0
 22 21  1  0  0  0  0
 23 22  2  0  0  0  0
 24 22  1  0  0  0  0
 24 45  1  0  0  0  0
 25 24  1  0  0  0  0
 25 46  1  0  0  0  0
 25 47  1  0  0  0  0
 25 48  1  0  0  0  0
M  END
>  <MODEL>
       0

$$$$
