selected_4mers/SPEE/530_noH.pdb
 OpenBabel03042518173D

 67 67  0  0  1  0  0  0  0  0999 V2000
   16.2570   19.7770   40.6920 C   0  0  0  0  0  0  0  0  0  0  0  0
   17.5930   19.3250   41.2560 C   0  0  0  0  0  0  0  0  0  0  0  0
   17.7810   18.1380   41.5020 O   0  0  0  0  0  0  0  0  0  0  0  0
   18.5010   20.2800   41.4810 N   0  0  0  0  0  0  0  0  0  0  0  0
   19.7830   19.9810   42.1080 C   0  0  2  0  0  0  0  0  0  0  0  0
   19.5650   19.6920   43.5810 C   0  0  0  0  0  0  0  0  0  0  0  0
   18.5160   20.0830   44.1230 O   0  0  0  0  0  0  0  0  0  0  0  0
   20.6890   21.1830   42.0240 C   0  0  0  0  0  0  0  0  0  0  0  0
   20.1060   22.2800   42.7230 O   0  0  0  0  0  0  0  0  0  0  0  0
   20.5230   18.9900   44.2220 N   0  0  0  0  0  0  0  0  0  0  0  0
   20.4640   18.8190   45.6620 C   0  0  2  0  0  0  0  0  0  0  0  0
   20.2210   20.1190   46.4080 C   0  0  0  0  0  0  0  0  0  0  0  0
   19.4900   20.1070   47.4020 O   0  0  0  0  0  0  0  0  0  0  0  0
   21.8270   18.2070   46.0070 C   0  0  0  0  0  0  0  0  0  0  0  0
   22.1730   17.3970   44.7730 C   0  0  0  0  0  0  0  0  0  0  0  0
   21.6490   18.2310   43.6230 C   0  0  0  0  0  0  0  0  0  0  0  0
   20.8120   21.2250   45.9490 N   0  0  0  0  0  0  0  0  0  0  0  0
   20.5940   22.5070   46.6350 C   0  0  2  0  0  0  0  0  0  0  0  0
   19.1460   23.0140   46.5360 C   0  0  0  0  0  0  0  0  0  0  0  0
   18.5930   23.4720   47.5460 O   0  0  0  0  0  0  0  0  0  0  0  0
   21.6120   23.5480   46.1730 C   0  0  0  0  0  0  0  0  0  0  0  0
   21.8580   24.6440   47.1650 C   0  0  0  0  0  0  0  0  0  0  0  0
   21.1090   25.9500   46.8680 C   0  0  0  0  0  0  0  0  0  0  0  0
   20.0870   25.9410   46.1600 O   0  0  0  0  0  0  0  0  0  0  0  0
   21.5470   27.0090   47.3830 O   0  0  0  0  0  0  0  0  0  0  0  0
   18.5140   22.8840   45.3840 N   0  0  0  0  0  0  0  0  0  0  0  0
   17.1220   23.2130   45.1990 C   0  0  2  0  0  0  0  0  0  0  0  0
   16.2190   22.2980   46.0230 C   0  0  0  0  0  0  0  0  0  0  0  0
   15.2120   22.7460   46.5910 O   0  0  0  0  0  0  0  0  0  0  0  0
   16.7720   23.1020   43.7280 C   0  0  0  0  0  0  0  0  0  0  0  0
   17.4000   24.2580   42.9610 C   0  0  0  0  0  0  0  0  0  0  0  0
   17.3250   24.0610   41.4920 C   0  0  0  0  0  0  0  0  0  0  0  0
   16.9390   22.9850   41.0140 O   0  0  0  0  0  0  0  0  0  0  0  0
   17.6990   25.0110   40.7820 O   0  0  0  0  0  0  0  0  0  0  0  0
   16.5690   21.0200   46.0950 N   0  0  0  0  0  0  0  0  0  0  0  0
   15.8280   20.1140   46.9560 C   0  0  0  0  0  0  0  0  0  0  0  0
   16.2736   20.8362   40.5410 H   0  0  0  0  0  0  0  0  0  0  0  0
   15.4765   19.5269   41.3799 H   0  0  0  0  0  0  0  0  0  0  0  0
   16.0799   19.2863   39.7578 H   0  0  0  0  0  0  0  0  0  0  0  0
   18.2994   21.2068   41.2172 H   0  0  0  0  0  0  0  0  0  0  0  0
   20.2189   19.1423   41.6066 H   0  0  0  0  0  0  0  0  0  0  0  0
   20.8291   21.4506   40.9975 H   0  0  0  0  0  0  0  0  0  0  0  0
   21.6329   20.9443   42.4678 H   0  0  0  0  0  0  0  0  0  0  0  0
   19.2498   22.4996   42.3236 H   0  0  0  0  0  0  0  0  0  0  0  0
   19.6401   18.2035   45.9574 H   0  0  0  0  0  0  0  0  0  0  0  0
   22.5563   18.9705   46.1804 H   0  0  0  0  0  0  0  0  0  0  0  0
   21.8056   17.6180   46.9000 H   0  0  0  0  0  0  0  0  0  0  0  0
   23.2313   17.2615   44.6923 H   0  0  0  0  0  0  0  0  0  0  0  0
   21.7481   16.4152   44.7945 H   0  0  0  0  0  0  0  0  0  0  0  0
   22.4047   18.8946   43.2578 H   0  0  0  0  0  0  0  0  0  0  0  0
   21.3492   17.6382   42.7842 H   0  0  0  0  0  0  0  0  0  0  0  0
   21.3915   21.1821   45.1543 H   0  0  0  0  0  0  0  0  0  0  0  0
   20.7532   22.3326   47.6786 H   0  0  0  0  0  0  0  0  0  0  0  0
   21.2539   23.9892   45.2664 H   0  0  0  0  0  0  0  0  0  0  0  0
   22.5417   23.0345   46.0429 H   0  0  0  0  0  0  0  0  0  0  0  0
   22.9069   24.8553   47.1765 H   0  0  0  0  0  0  0  0  0  0  0  0
   21.4924   24.2905   48.1064 H   0  0  0  0  0  0  0  0  0  0  0  0
   19.0197   22.5446   44.6105 H   0  0  0  0  0  0  0  0  0  0  0  0
   16.9628   24.2161   45.5357 H   0  0  0  0  0  0  0  0  0  0  0  0
   17.1446   22.1758   43.3429 H   0  0  0  0  0  0  0  0  0  0  0  0
   15.7087   23.1377   43.6136 H   0  0  0  0  0  0  0  0  0  0  0  0
   16.8844   25.1606   43.2146 H   0  0  0  0  0  0  0  0  0  0  0  0
   18.4334   24.3108   43.2335 H   0  0  0  0  0  0  0  0  0  0  0  0
   17.3293   20.6863   45.5660 H   0  0  0  0  0  0  0  0  0  0  0  0
   15.0437   20.6507   47.4476 H   0  0  0  0  0  0  0  0  0  0  0  0
   16.4882   19.6974   47.6878 H   0  0  0  0  0  0  0  0  0  0  0  0
   15.4064   19.3267   46.3666 H   0  0  0  0  0  0  0  0  0  0  0  0
  1  2  1  0  0  0  0
  1 37  1  0  0  0  0
  1 38  1  0  0  0  0
  1 39  1  0  0  0  0
  2  4  1  0  0  0  0
  2  3  2  0  0  0  0
  4  5  1  0  0  0  0
  4 40  1  0  0  0  0
  5  6  1  0  0  0  0
  5 41  1  6  0  0  0
  6  7  2  0  0  0  0
  6 10  1  0  0  0  0
  8  5  1  0  0  0  0
  8  9  1  0  0  0  0
  8 42  1  0  0  0  0
  8 43  1  0  0  0  0
  9 44  1  0  0  0  0
 10 11  1  0  0  0  0
 11 14  1  0  0  0  0
 11 12  1  0  0  0  0
 11 45  1  1  0  0  0
 12 13  2  0  0  0  0
 14 46  1  0  0  0  0
 14 47  1  0  0  0  0
 15 14  1  0  0  0  0
 15 48  1  0  0  0  0
 15 49  1  0  0  0  0
 16 10  1  0  0  0  0
 16 15  1  0  0  0  0
 16 50  1  0  0  0  0
 16 51  1  0  0  0  0
 17 12  1  0  0  0  0
 17 18  1  0  0  0  0
 17 52  1  0  0  0  0
 18 53  1  1  0  0  0
 19 18  1  0  0  0  0
 19 20  2  0  0  0  0
 21 18  1  0  0  0  0
 21 22  1  0  0  0  0
 21 54  1  0  0  0  0
 21 55  1  0  0  0  0
 22 56  1  0  0  0  0
 22 57  1  0  0  0  0
 23 22  1  0  0  0  0
 23 25  1  0  0  0  0
 24 23  2  0  0  0  0
 26 19  1  0  0  0  0
 26 58  1  0  0  0  0
 27 26  1  0  0  0  0
 27 28  1  0  0  0  0
 27 59  1  1  0  0  0
 28 35  1  0  0  0  0
 28 29  2  0  0  0  0
 30 27  1  0  0  0  0
 30 60  1  0  0  0  0
 30 61  1  0  0  0  0
 31 30  1  0  0  0  0
 31 62  1  0  0  0  0
 31 63  1  0  0  0  0
 32 31  1  0  0  0  0
 33 32  1  0  0  0  0
 34 32  2  0  0  0  0
 35 36  1  0  0  0  0
 35 64  1  0  0  0  0
 36 65  1  0  0  0  0
 36 66  1  0  0  0  0
 36 67  1  0  0  0  0
M  CHG  1  25  -1
M  CHG  1  33  -1
M  END
>  <MODEL>
       0

$$$$
selected_4mers/SPEE/531_noH.pdb
 OpenBabel03042518173D

 67 67  0  0  1  0  0  0  0  0999 V2000
   45.1790   92.2170   47.1280 C   0  0  0  0  0  0  0  0  0  0  0  0
   44.9050   90.6920   47.1330 C   0  0  0  0  0  0  0  0  0  0  0  0
   44.1440   90.2050   46.2970 O   0  0  0  0  0  0  0  0  0  0  0  0
   45.4250   90.0210   48.1240 N   0  0  0  0  0  0  0  0  0  0  0  0
   45.0370   88.6200   48.3160 C   0  0  2  0  0  0  0  0  0  0  0  0
   43.6200   88.6700   48.8700 C   0  0  0  0  0  0  0  0  0  0  0  0
   43.1280   89.6950   49.3510 O   0  0  0  0  0  0  0  0  0  0  0  0
   45.9570   87.9600   49.3320 C   0  0  0  0  0  0  0  0  0  0  0  0
   45.7340   88.5970   50.5850 O   0  0  0  0  0  0  0  0  0  0  0  0
   42.9460   87.5210   48.9410 N   0  0  0  0  0  0  0  0  0  0  0  0
   41.6140   87.5170   49.5200 C   0  0  2  0  0  0  0  0  0  0  0  0
   41.6300   88.0010   50.9690 C   0  0  0  0  0  0  0  0  0  0  0  0
   40.7340   88.7620   51.3440 O   0  0  0  0  0  0  0  0  0  0  0  0
   41.1970   86.0430   49.3840 C   0  0  0  0  0  0  0  0  0  0  0  0
   41.9410   85.5970   48.1620 C   0  0  0  0  0  0  0  0  0  0  0  0
   43.2990   86.2270   48.2720 C   0  0  0  0  0  0  0  0  0  0  0  0
   42.6180   87.6610   51.7680 N   0  0  0  0  0  0  0  0  0  0  0  0
   42.7300   88.0980   53.1410 C   0  0  2  0  0  0  0  0  0  0  0  0
   42.9370   89.6110   53.2020 C   0  0  0  0  0  0  0  0  0  0  0  0
   42.3110   90.3040   54.0010 O   0  0  0  0  0  0  0  0  0  0  0  0
   43.9070   87.4030   53.8380 C   0  0  0  0  0  0  0  0  0  0  0  0
   44.0970   87.9010   55.2630 C   0  0  0  0  0  0  0  0  0  0  0  0
   45.1090   87.1060   56.0590 C   0  0  0  0  0  0  0  0  0  0  0  0
   45.2810   85.9140   55.7190 O   0  0  0  0  0  0  0  0  0  0  0  0
   45.6800   87.6990   57.0080 O   0  0  0  0  0  0  0  0  0  0  0  0
   43.7990   90.1090   52.3380 N   0  0  0  0  0  0  0  0  0  0  0  0
   44.0480   91.5690   52.3230 C   0  0  2  0  0  0  0  0  0  0  0  0
   42.8030   92.3250   51.8920 C   0  0  0  0  0  0  0  0  0  0  0  0
   42.5070   93.3880   52.4130 O   0  0  0  0  0  0  0  0  0  0  0  0
   45.2120   91.8580   51.4210 C   0  0  0  0  0  0  0  0  0  0  0  0
   46.5430   91.4010   51.9430 C   0  0  0  0  0  0  0  0  0  0  0  0
   47.6540   91.3740   50.9360 C   0  0  0  0  0  0  0  0  0  0  0  0
   47.3910   91.4740   49.7280 O   0  0  0  0  0  0  0  0  0  0  0  0
   48.8270   91.2090   51.3610 O   0  0  0  0  0  0  0  0  0  0  0  0
   42.0980   91.8400   50.8920 N   0  0  0  0  0  0  0  0  0  0  0  0
   40.9000   92.4770   50.3920 C   0  0  0  0  0  0  0  0  0  0  0  0
   44.7079   92.6612   46.2762 H   0  0  0  0  0  0  0  0  0  0  0  0
   46.2340   92.3897   47.0826 H   0  0  0  0  0  0  0  0  0  0  0  0
   44.7843   92.6532   48.0218 H   0  0  0  0  0  0  0  0  0  0  0  0
   46.0684   90.4491   48.7339 H   0  0  0  0  0  0  0  0  0  0  0  0
   45.0991   88.0601   47.4063 H   0  0  0  0  0  0  0  0  0  0  0  0
   46.9777   88.0834   49.0355 H   0  0  0  0  0  0  0  0  0  0  0  0
   45.7546   86.9115   49.3999 H   0  0  0  0  0  0  0  0  0  0  0  0
   45.9224   89.5451   50.5038 H   0  0  0  0  0  0  0  0  0  0  0  0
   40.9292   88.1835   49.0387 H   0  0  0  0  0  0  0  0  0  0  0  0
   41.4935   85.4781   50.2430 H   0  0  0  0  0  0  0  0  0  0  0  0
   40.1383   85.9083   49.3072 H   0  0  0  0  0  0  0  0  0  0  0  0
   42.0234   84.5304   48.1420 H   0  0  0  0  0  0  0  0  0  0  0  0
   41.4392   85.8861   47.2622 H   0  0  0  0  0  0  0  0  0  0  0  0
   43.7395   86.3869   47.3101 H   0  0  0  0  0  0  0  0  0  0  0  0
   44.0231   85.6376   48.7947 H   0  0  0  0  0  0  0  0  0  0  0  0
   43.3227   87.0743   51.4096 H   0  0  0  0  0  0  0  0  0  0  0  0
   41.8212   87.8395   53.6431 H   0  0  0  0  0  0  0  0  0  0  0  0
   44.8008   87.5957   53.2822 H   0  0  0  0  0  0  0  0  0  0  0  0
   43.6962   86.3547   53.8785 H   0  0  0  0  0  0  0  0  0  0  0  0
   43.1547   87.8480   55.7671 H   0  0  0  0  0  0  0  0  0  0  0  0
   44.4704   88.9015   55.1958 H   0  0  0  0  0  0  0  0  0  0  0  0
   44.2721   89.5170   51.7096 H   0  0  0  0  0  0  0  0  0  0  0  0
   44.2876   91.9027   53.3110 H   0  0  0  0  0  0  0  0  0  0  0  0
   45.0366   91.3703   50.4849 H   0  0  0  0  0  0  0  0  0  0  0  0
   45.2711   92.9232   51.3383 H   0  0  0  0  0  0  0  0  0  0  0  0
   46.8311   92.0604   52.7348 H   0  0  0  0  0  0  0  0  0  0  0  0
   46.4045   90.3874   52.2565 H   0  0  0  0  0  0  0  0  0  0  0  0
   42.3999   91.0058   50.4651 H   0  0  0  0  0  0  0  0  0  0  0  0
   40.7065   93.3654   50.9560 H   0  0  0  0  0  0  0  0  0  0  0  0
   40.0723   91.8058   50.4886 H   0  0  0  0  0  0  0  0  0  0  0  0
   41.0347   92.7311   49.3614 H   0  0  0  0  0  0  0  0  0  0  0  0
  1  2  1  0  0  0  0
  1 37  1  0  0  0  0
  1 38  1  0  0  0  0
  1 39  1  0  0  0  0
  2  4  1  0  0  0  0
  3  2  2  0  0  0  0
  4  5  1  0  0  0  0
  4 40  1  0  0  0  0
  5  6  1  0  0  0  0
  5  8  1  0  0  0  0
  5 41  1  6  0  0  0
  6 10  1  0  0  0  0
  6  7  2  0  0  0  0
  8  9  1  0  0  0  0
  8 42  1  0  0  0  0
  8 43  1  0  0  0  0
  9 44  1  0  0  0  0
 10 11  1  0  0  0  0
 11 12  1  0  0  0  0
 11 45  1  6  0  0  0
 12 13  2  0  0  0  0
 12 17  1  0  0  0  0
 14 11  1  0  0  0  0
 14 46  1  0  0  0  0
 14 47  1  0  0  0  0
 15 16  1  0  0  0  0
 15 14  1  0  0  0  0
 15 48  1  0  0  0  0
 15 49  1  0  0  0  0
 16 10  1  0  0  0  0
 16 50  1  0  0  0  0
 16 51  1  0  0  0  0
 17 18  1  0  0  0  0
 17 52  1  0  0  0  0
 18 19  1  0  0  0  0
 18 21  1  0  0  0  0
 18 53  1  1  0  0  0
 19 20  2  0  0  0  0
 21 22  1  0  0  0  0
 21 54  1  0  0  0  0
 21 55  1  0  0  0  0
 22 23  1  0  0  0  0
 22 56  1  0  0  0  0
 22 57  1  0  0  0  0
 23 25  1  0  0  0  0
 24 23  2  0  0  0  0
 26 19  1  0  0  0  0
 26 58  1  0  0  0  0
 27 26  1  0  0  0  0
 27 59  1  1  0  0  0
 28 27  1  0  0  0  0
 28 29  2  0  0  0  0
 30 31  1  0  0  0  0
 30 27  1  0  0  0  0
 30 60  1  0  0  0  0
 30 61  1  0  0  0  0
 31 62  1  0  0  0  0
 31 63  1  0  0  0  0
 32 34  1  0  0  0  0
 32 31  1  0  0  0  0
 33 32  2  0  0  0  0
 35 28  1  0  0  0  0
 35 64  1  0  0  0  0
 36 35  1  0  0  0  0
 36 65  1  0  0  0  0
 36 66  1  0  0  0  0
 36 67  1  0  0  0  0
M  CHG  1  25  -1
M  CHG  1  34  -1
M  END
>  <MODEL>
       0

$$$$
selected_4mers/SPEE/532_noH.pdb
 OpenBabel03042518173D

 67 67  0  0  1  0  0  0  0  0999 V2000
   58.2200   42.8040  -69.9100 C   0  0  0  0  0  0  0  0  0  0  0  0
   58.3450   44.1130  -69.1200 C   0  0  0  0  0  0  0  0  0  0  0  0
   58.0760   44.1850  -67.9140 O   0  0  0  0  0  0  0  0  0  0  0  0
   58.7020   45.1790  -69.8310 N   0  0  0  0  0  0  0  0  0  0  0  0
   58.5650   46.5390  -69.2820 C   0  0  2  0  0  0  0  0  0  0  0  0
   57.1050   46.7970  -68.9890 C   0  0  0  0  0  0  0  0  0  0  0  0
   56.2140   46.3240  -69.6930 O   0  0  0  0  0  0  0  0  0  0  0  0
   59.1660   47.5090  -70.3100 C   0  0  0  0  0  0  0  0  0  0  0  0
   58.2230   48.4880  -70.7110 O   0  0  0  0  0  0  0  0  0  0  0  0
   56.7950   47.5970  -67.9800 N   0  0  0  0  0  0  0  0  0  0  0  0
   55.4090   47.8180  -67.5970 C   0  0  2  0  0  0  0  0  0  0  0  0
   54.5110   48.4600  -68.6450 C   0  0  0  0  0  0  0  0  0  0  0  0
   53.2680   48.3750  -68.5310 O   0  0  0  0  0  0  0  0  0  0  0  0
   55.4750   48.7140  -66.3720 C   0  0  0  0  0  0  0  0  0  0  0  0
   56.8770   48.8800  -66.0230 C   0  0  0  0  0  0  0  0  0  0  0  0
   57.7490   48.2230  -67.0350 C   0  0  0  0  0  0  0  0  0  0  0  0
   55.0700   49.1770  -69.6280 N   0  0  0  0  0  0  0  0  0  0  0  0
   54.2810   49.8070  -70.6770 C   0  0  2  0  0  0  0  0  0  0  0  0
   53.9560   48.8730  -71.8340 C   0  0  0  0  0  0  0  0  0  0  0  0
   53.1460   49.2050  -72.7120 O   0  0  0  0  0  0  0  0  0  0  0  0
   55.0660   51.0140  -71.2340 C   0  0  0  0  0  0  0  0  0  0  0  0
   55.5060   51.9820  -70.1490 C   0  0  0  0  0  0  0  0  0  0  0  0
   56.9080   51.7120  -69.6280 C   0  0  0  0  0  0  0  0  0  0  0  0
   57.4580   52.6470  -68.9830 O   0  0  0  0  0  0  0  0  0  0  0  0
   57.4920   50.6160  -69.8450 O   0  0  0  0  0  0  0  0  0  0  0  0
   54.5780   47.6850  -71.8980 N   0  0  0  0  0  0  0  0  0  0  0  0
   54.3770   46.7640  -73.0230 C   0  0  2  0  0  0  0  0  0  0  0  0
   52.9720   46.1630  -73.0460 C   0  0  0  0  0  0  0  0  0  0  0  0
   52.4640   45.7220  -72.0170 O   0  0  0  0  0  0  0  0  0  0  0  0
   55.4300   45.6490  -73.0420 C   0  0  0  0  0  0  0  0  0  0  0  0
   56.8390   46.1450  -73.3460 C   0  0  0  0  0  0  0  0  0  0  0  0
   57.8820   45.0410  -73.3710 C   0  0  0  0  0  0  0  0  0  0  0  0
   57.5840   44.0770  -74.1240 O   0  0  0  0  0  0  0  0  0  0  0  0
   58.9520   45.0510  -72.7380 O   0  0  0  0  0  0  0  0  0  0  0  0
   52.3280   46.1580  -74.2170 N   0  0  0  0  0  0  0  0  0  0  0  0
   50.9520   45.7290  -74.3970 C   0  0  0  0  0  0  0  0  0  0  0  0
   58.5021   42.9735  -70.9281 H   0  0  0  0  0  0  0  0  0  0  0  0
   57.2074   42.4604  -69.8729 H   0  0  0  0  0  0  0  0  0  0  0  0
   58.8634   42.0651  -69.4800 H   0  0  0  0  0  0  0  0  0  0  0  0
   59.0635   45.0571  -70.7386 H   0  0  0  0  0  0  0  0  0  0  0  0
   59.0894   46.6707  -68.3587 H   0  0  0  0  0  0  0  0  0  0  0  0
   60.0116   47.9984  -69.8738 H   0  0  0  0  0  0  0  0  0  0  0  0
   59.4557   46.9473  -71.1734 H   0  0  0  0  0  0  0  0  0  0  0  0
   57.9486   49.0078  -69.9394 H   0  0  0  0  0  0  0  0  0  0  0  0
   54.9572   46.8617  -67.4353 H   0  0  0  0  0  0  0  0  0  0  0  0
   54.9250   48.2690  -65.5430 H   0  0  0  0  0  0  0  0  0  0  0  0
   55.0300   49.6830  -66.5950 H   0  0  0  0  0  0  0  0  0  0  0  0
   57.0550   48.4170  -65.0520 H   0  0  0  0  0  0  0  0  0  0  0  0
   57.1130   49.9430  -65.9810 H   0  0  0  0  0  0  0  0  0  0  0  0
   58.3612   48.9443  -67.5349 H   0  0  0  0  0  0  0  0  0  0  0  0
   58.4219   47.5139  -66.5998 H   0  0  0  0  0  0  0  0  0  0  0  0
   56.0488   49.2819  -69.6419 H   0  0  0  0  0  0  0  0  0  0  0  0
   53.3528   50.1004  -70.2328 H   0  0  0  0  0  0  0  0  0  0  0  0
   54.4410   51.5380  -71.9266 H   0  0  0  0  0  0  0  0  0  0  0  0
   55.9490   50.6345  -71.7043 H   0  0  0  0  0  0  0  0  0  0  0  0
   54.8205   51.9080  -69.3308 H   0  0  0  0  0  0  0  0  0  0  0  0
   55.5146   52.9596  -70.5839 H   0  0  0  0  0  0  0  0  0  0  0  0
   55.1865   47.4241  -71.1694 H   0  0  0  0  0  0  0  0  0  0  0  0
   54.4918   47.3541  -73.9081 H   0  0  0  0  0  0  0  0  0  0  0  0
   55.4379   45.1749  -72.0828 H   0  0  0  0  0  0  0  0  0  0  0  0
   55.1586   44.9746  -73.8272 H   0  0  0  0  0  0  0  0  0  0  0  0
   56.8298   46.6230  -74.3033 H   0  0  0  0  0  0  0  0  0  0  0  0
   57.1117   46.8155  -72.5579 H   0  0  0  0  0  0  0  0  0  0  0  0
   52.8199   46.4662  -75.0121 H   0  0  0  0  0  0  0  0  0  0  0  0
   50.5475   45.4236  -73.4547 H   0  0  0  0  0  0  0  0  0  0  0  0
   50.9213   44.9072  -75.0815 H   0  0  0  0  0  0  0  0  0  0  0  0
   50.3737   46.5402  -74.7874 H   0  0  0  0  0  0  0  0  0  0  0  0
  1  2  1  0  0  0  0
  1 37  1  0  0  0  0
  1 38  1  0  0  0  0
  1 39  1  0  0  0  0
  2  4  1  0  0  0  0
  3  2  2  0  0  0  0
  4  5  1  0  0  0  0
  4 40  1  0  0  0  0
  5  6  1  0  0  0  0
  5  8  1  0  0  0  0
  5 41  1  6  0  0  0
  6 10  1  0  0  0  0
  6  7  2  0  0  0  0
  8  9  1  0  0  0  0
  8 42  1  0  0  0  0
  8 43  1  0  0  0  0
  9 44  1  0  0  0  0
 10 11  1  0  0  0  0
 11 12  1  0  0  0  0
 11 45  1  6  0  0  0
 12 13  2  0  0  0  0
 12 17  1  0  0  0  0
 14 11  1  0  0  0  0
 14 46  1  0  0  0  0
 14 47  1  0  0  0  0
 15 16  1  0  0  0  0
 15 14  1  0  0  0  0
 15 48  1  0  0  0  0
 15 49  1  0  0  0  0
 16 10  1  0  0  0  0
 16 50  1  0  0  0  0
 16 51  1  0  0  0  0
 17 18  1  0  0  0  0
 17 52  1  0  0  0  0
 18 19  1  0  0  0  0
 18 21  1  0  0  0  0
 18 53  1  1  0  0  0
 19 20  2  0  0  0  0
 21 22  1  0  0  0  0
 21 54  1  0  0  0  0
 21 55  1  0  0  0  0
 22 23  1  0  0  0  0
 22 56  1  0  0  0  0
 22 57  1  0  0  0  0
 23 25  1  0  0  0  0
 24 23  2  0  0  0  0
 26 19  1  0  0  0  0
 26 58  1  0  0  0  0
 27 26  1  0  0  0  0
 27 59  1  1  0  0  0
 28 27  1  0  0  0  0
 28 29  2  0  0  0  0
 30 31  1  0  0  0  0
 30 27  1  0  0  0  0
 30 60  1  0  0  0  0
 30 61  1  0  0  0  0
 31 62  1  0  0  0  0
 31 63  1  0  0  0  0
 32 34  1  0  0  0  0
 32 31  1  0  0  0  0
 33 32  2  0  0  0  0
 35 28  1  0  0  0  0
 35 64  1  0  0  0  0
 36 35  1  0  0  0  0
 36 65  1  0  0  0  0
 36 66  1  0  0  0  0
 36 67  1  0  0  0  0
M  CHG  1  25  -1
M  CHG  1  34  -1
M  END
>  <MODEL>
       0

$$$$
selected_4mers/SPEE/533_noH.pdb
 OpenBabel03042518173D

 67 67  0  0  1  0  0  0  0  0999 V2000
   31.9250   20.6180   -3.6030 C   0  0  0  0  0  0  0  0  0  0  0  0
   30.4920   20.0930   -3.6680 C   0  0  0  0  0  0  0  0  0  0  0  0
   30.2840   18.9230   -3.9740 O   0  0  0  0  0  0  0  0  0  0  0  0
   29.5190   20.9580   -3.3770 N   0  0  0  0  0  0  0  0  0  0  0  0
   28.1020   20.5610   -3.3540 C   0  0  2  0  0  0  0  0  0  0  0  0
   27.4770   20.6710   -4.7540 C   0  0  0  0  0  0  0  0  0  0  0  0
   27.9460   21.4580   -5.5750 O   0  0  0  0  0  0  0  0  0  0  0  0
   27.3150   21.4320   -2.3640 C   0  0  0  0  0  0  0  0  0  0  0  0
   27.0710   22.7330   -2.8830 O   0  0  0  0  0  0  0  0  0  0  0  0
   26.4100   19.8860   -5.0270 N   0  0  0  0  0  0  0  0  0  0  0  0
   25.6810   19.9780   -6.3000 C   0  0  2  0  0  0  0  0  0  0  0  0
   25.3220   21.4070   -6.7120 C   0  0  0  0  0  0  0  0  0  0  0  0
   25.4140   21.7480   -7.8910 O   0  0  0  0  0  0  0  0  0  0  0  0
   24.4080   19.1710   -6.0230 C   0  0  0  0  0  0  0  0  0  0  0  0
   24.8300   18.1530   -5.0430 C   0  0  0  0  0  0  0  0  0  0  0  0
   25.8390   18.8410   -4.1550 C   0  0  0  0  0  0  0  0  0  0  0  0
   24.9260   22.2270   -5.7420 N   0  0  0  0  0  0  0  0  0  0  0  0
   24.5650   23.6300   -5.9800 C   0  0  2  0  0  0  0  0  0  0  0  0
   25.7820   24.4540   -6.4290 C   0  0  0  0  0  0  0  0  0  0  0  0
   25.6760   25.2960   -7.3190 O   0  0  0  0  0  0  0  0  0  0  0  0
   23.9300   24.2230   -4.7090 C   0  0  0  0  0  0  0  0  0  0  0  0
   23.9700   25.7440   -4.5620 C   0  0  0  0  0  0  0  0  0  0  0  0
   22.8460   26.4520   -5.2800 C   0  0  0  0  0  0  0  0  0  0  0  0
   22.1790   27.3060   -4.6460 O   0  0  0  0  0  0  0  0  0  0  0  0
   22.6290   26.1640   -6.4770 O   0  0  0  0  0  0  0  0  0  0  0  0
   26.9240   24.1940   -5.8030 N   0  0  0  0  0  0  0  0  0  0  0  0
   28.1830   24.8580   -6.1490 C   0  0  2  0  0  0  0  0  0  0  0  0
   28.6840   24.4170   -7.5300 C   0  0  0  0  0  0  0  0  0  0  0  0
   29.2280   25.2310   -8.2820 O   0  0  0  0  0  0  0  0  0  0  0  0
   29.2340   24.5830   -5.0630 C   0  0  0  0  0  0  0  0  0  0  0  0
   28.9380   25.3370   -3.7550 C   0  0  0  0  0  0  0  0  0  0  0  0
   29.5800   24.7390   -2.5080 C   0  0  0  0  0  0  0  0  0  0  0  0
   30.1720   23.6380   -2.5620 O   0  0  0  0  0  0  0  0  0  0  0  0
   29.4680   25.3880   -1.4470 O   0  0  0  0  0  0  0  0  0  0  0  0
   28.4860   23.1390   -7.8530 N   0  0  0  0  0  0  0  0  0  0  0  0
   28.7970   22.6070   -9.1830 C   0  0  0  0  0  0  0  0  0  0  0  0
   32.6048   19.8315   -3.8563 H   0  0  0  0  0  0  0  0  0  0  0  0
   32.1334   20.9643   -2.6123 H   0  0  0  0  0  0  0  0  0  0  0  0
   32.0406   21.4260   -4.2949 H   0  0  0  0  0  0  0  0  0  0  0  0
   29.7562   21.8911   -3.1712 H   0  0  0  0  0  0  0  0  0  0  0  0
   28.0529   19.5401   -3.0374 H   0  0  0  0  0  0  0  0  0  0  0  0
   27.8771   21.5205   -1.4579 H   0  0  0  0  0  0  0  0  0  0  0  0
   26.3701   20.9624   -2.1863 H   0  0  0  0  0  0  0  0  0  0  0  0
   27.9164   23.1776   -3.0517 H   0  0  0  0  0  0  0  0  0  0  0  0
   26.2762   19.6175   -7.1128 H   0  0  0  0  0  0  0  0  0  0  0  0
   24.0491   18.7092   -6.9190 H   0  0  0  0  0  0  0  0  0  0  0  0
   23.6071   19.7811   -5.6606 H   0  0  0  0  0  0  0  0  0  0  0  0
   25.2776   17.3181   -5.5404 H   0  0  0  0  0  0  0  0  0  0  0  0
   24.0010   17.7743   -4.4824 H   0  0  0  0  0  0  0  0  0  0  0  0
   26.5954   18.1559   -3.8335 H   0  0  0  0  0  0  0  0  0  0  0  0
   25.4055   19.2362   -3.2601 H   0  0  0  0  0  0  0  0  0  0  0  0
   24.8727   21.8772   -4.8233 H   0  0  0  0  0  0  0  0  0  0  0  0
   23.8501   23.6692   -6.7751 H   0  0  0  0  0  0  0  0  0  0  0  0
   24.4394   23.8032   -3.8669 H   0  0  0  0  0  0  0  0  0  0  0  0
   22.8910   23.9759   -4.7745 H   0  0  0  0  0  0  0  0  0  0  0  0
   23.9107   25.9846   -3.5211 H   0  0  0  0  0  0  0  0  0  0  0  0
   24.8845   26.0776   -5.0062 H   0  0  0  0  0  0  0  0  0  0  0  0
   26.9244   23.5285   -5.0775 H   0  0  0  0  0  0  0  0  0  0  0  0
   28.0095   25.9127   -6.1981 H   0  0  0  0  0  0  0  0  0  0  0  0
   30.1923   24.8897   -5.4269 H   0  0  0  0  0  0  0  0  0  0  0  0
   29.2131   23.5352   -4.8471 H   0  0  0  0  0  0  0  0  0  0  0  0
   27.8779   25.3474   -3.6103 H   0  0  0  0  0  0  0  0  0  0  0  0
   29.3602   26.3134   -3.8702 H   0  0  0  0  0  0  0  0  0  0  0  0
   28.1172   22.5299   -7.1731 H   0  0  0  0  0  0  0  0  0  0  0  0
   29.1862   23.3909   -9.7986 H   0  0  0  0  0  0  0  0  0  0  0  0
   27.9065   22.2136   -9.6270 H   0  0  0  0  0  0  0  0  0  0  0  0
   29.5253   21.8282   -9.0943 H   0  0  0  0  0  0  0  0  0  0  0  0
  1 37  1  0  0  0  0
  1 38  1  0  0  0  0
  1 39  1  0  0  0  0
  2  1  1  0  0  0  0
  2  4  1  0  0  0  0
  3  2  2  0  0  0  0
  4  5  1  0  0  0  0
  4 40  1  0  0  0  0
  5  8  1  0  0  0  0
  5 41  1  1  0  0  0
  6  5  1  0  0  0  0
  7  6  2  0  0  0  0
  8 42  1  0  0  0  0
  8 43  1  0  0  0  0
  9  8  1  0  0  0  0
  9 44  1  0  0  0  0
 10  6  1  0  0  0  0
 10 16  1  0  0  0  0
 11 14  1  0  0  0  0
 11 10  1  0  0  0  0
 11 45  1  6  0  0  0
 12 11  1  0  0  0  0
 12 17  1  0  0  0  0
 13 12  2  0  0  0  0
 14 15  1  0  0  0  0
 14 46  1  0  0  0  0
 14 47  1  0  0  0  0
 15 16  1  0  0  0  0
 15 48  1  0  0  0  0
 15 49  1  0  0  0  0
 16 50  1  0  0  0  0
 16 51  1  0  0  0  0
 17 52  1  0  0  0  0
 18 17  1  0  0  0  0
 18 21  1  0  0  0  0
 18 53  1  6  0  0  0
 19 18  1  0  0  0  0
 19 26  1  0  0  0  0
 20 19  2  0  0  0  0
 21 22  1  0  0  0  0
 21 54  1  0  0  0  0
 21 55  1  0  0  0  0
 22 56  1  0  0  0  0
 22 57  1  0  0  0  0
 23 24  1  0  0  0  0
 23 22  1  0  0  0  0
 25 23  2  0  0  0  0
 26 58  1  0  0  0  0
 27 26  1  0  0  0  0
 27 30  1  0  0  0  0
 27 59  1  6  0  0  0
 28 27  1  0  0  0  0
 29 28  2  0  0  0  0
 30 31  1  0  0  0  0
 30 60  1  0  0  0  0
 30 61  1  0  0  0  0
 31 32  1  0  0  0  0
 31 62  1  0  0  0  0
 31 63  1  0  0  0  0
 32 34  1  0  0  0  0
 33 32  2  0  0  0  0
 35 28  1  0  0  0  0
 35 64  1  0  0  0  0
 36 35  1  0  0  0  0
 36 65  1  0  0  0  0
 36 66  1  0  0  0  0
 36 67  1  0  0  0  0
M  CHG  1  24  -1
M  CHG  1  34  -1
M  END
>  <MODEL>
       0

$$$$
selected_4mers/SPEE/534_noH.pdb
 OpenBabel03042518173D

 67 67  0  0  1  0  0  0  0  0999 V2000
   45.6220    9.8070   90.4420 C   0  0  0  0  0  0  0  0  0  0  0  0
   44.3750    9.0220   90.0550 C   0  0  0  0  0  0  0  0  0  0  0  0
   44.4330    8.1340   89.2090 O   0  0  0  0  0  0  0  0  0  0  0  0
   43.2490    9.3640   90.6750 N   0  0  0  0  0  0  0  0  0  0  0  0
   41.9670    8.7640   90.3150 C   0  0  2  0  0  0  0  0  0  0  0  0
   41.1990    9.6860   89.3720 C   0  0  0  0  0  0  0  0  0  0  0  0
   41.4570   10.8960   89.3430 O   0  0  0  0  0  0  0  0  0  0  0  0
   41.1310    8.4810   91.5670 C   0  0  0  0  0  0  0  0  0  0  0  0
   40.6070    9.6830   92.1130 O   0  0  0  0  0  0  0  0  0  0  0  0
   40.2660    9.1220   88.5770 N   0  0  0  0  0  0  0  0  0  0  0  0
   39.4570    9.9680   87.6930 C   0  0  2  0  0  0  0  0  0  0  0  0
   38.6940   11.0600   88.4250 C   0  0  0  0  0  0  0  0  0  0  0  0
   38.3980   12.0870   87.8310 O   0  0  0  0  0  0  0  0  0  0  0  0
   38.4570    8.9840   87.0720 C   0  0  0  0  0  0  0  0  0  0  0  0
   39.1230    7.6770   87.1430 C   0  0  0  0  0  0  0  0  0  0  0  0
   39.9640    7.6880   88.3920 C   0  0  0  0  0  0  0  0  0  0  0  0
   38.3780   10.8210   89.6960 N   0  0  0  0  0  0  0  0  0  0  0  0
   37.5680   11.7460   90.4900 C   0  0  2  0  0  0  0  0  0  0  0  0
   38.3900   12.7710   91.2880 C   0  0  0  0  0  0  0  0  0  0  0  0
   37.8290   13.5940   92.0000 O   0  0  0  0  0  0  0  0  0  0  0  0
   36.6180   10.9810   91.4250 C   0  0  0  0  0  0  0  0  0  0  0  0
   37.2920   10.2330   92.5650 C   0  0  0  0  0  0  0  0  0  0  0  0
   37.6700    8.7870   92.2270 C   0  0  0  0  0  0  0  0  0  0  0  0
   37.7460    8.4290   91.0260 O   0  0  0  0  0  0  0  0  0  0  0  0
   37.8930    7.9980   93.1810 O   0  0  0  0  0  0  0  0  0  0  0  0
   39.7170   12.7330   91.1720 N   0  0  0  0  0  0  0  0  0  0  0  0
   40.5360   13.6840   91.9130 C   0  0  2  0  0  0  0  0  0  0  0  0
   40.1910   15.1270   91.5430 C   0  0  0  0  0  0  0  0  0  0  0  0
   40.0330   15.4540   90.3560 O   0  0  0  0  0  0  0  0  0  0  0  0
   42.0270   13.4400   91.6570 C   0  0  0  0  0  0  0  0  0  0  0  0
   42.9140   14.0910   92.7190 C   0  0  0  0  0  0  0  0  0  0  0  0
   44.4080   13.7800   92.5690 C   0  0  0  0  0  0  0  0  0  0  0  0
   44.8560   13.2630   91.5080 O   0  0  0  0  0  0  0  0  0  0  0  0
   45.1430   14.0660   93.5350 O   0  0  0  0  0  0  0  0  0  0  0  0
   40.0800   15.9840   92.5570 N   0  0  0  0  0  0  0  0  0  0  0  0
   39.7600   17.4050   92.3610 C   0  0  0  0  0  0  0  0  0  0  0  0
   46.4591    9.4455   89.8821 H   0  0  0  0  0  0  0  0  0  0  0  0
   45.8117    9.6824   91.4877 H   0  0  0  0  0  0  0  0  0  0  0  0
   45.4711   10.8445   90.2280 H   0  0  0  0  0  0  0  0  0  0  0  0
   43.2805   10.0369   91.3929 H   0  0  0  0  0  0  0  0  0  0  0  0
   42.1583    7.8366   89.8168 H   0  0  0  0  0  0  0  0  0  0  0  0
   41.7485    8.0043   92.2994 H   0  0  0  0  0  0  0  0  0  0  0  0
   40.3138    7.8464   91.2943 H   0  0  0  0  0  0  0  0  0  0  0  0
   41.3377   10.2691   92.3651 H   0  0  0  0  0  0  0  0  0  0  0  0
   40.0788   10.4839   86.9915 H   0  0  0  0  0  0  0  0  0  0  0  0
   37.5439    8.9725   87.6296 H   0  0  0  0  0  0  0  0  0  0  0  0
   38.1977    9.2511   86.0688 H   0  0  0  0  0  0  0  0  0  0  0  0
   39.7422    7.5313   86.2826 H   0  0  0  0  0  0  0  0  0  0  0  0
   38.4081    6.8812   87.1670 H   0  0  0  0  0  0  0  0  0  0  0  0
   40.8609    7.1205   88.2566 H   0  0  0  0  0  0  0  0  0  0  0  0
   39.4727    7.2485   89.2349 H   0  0  0  0  0  0  0  0  0  0  0  0
   38.7009    9.9918   90.1172 H   0  0  0  0  0  0  0  0  0  0  0  0
   36.9977   12.3078   89.7801 H   0  0  0  0  0  0  0  0  0  0  0  0
   36.0770   10.2695   90.8368 H   0  0  0  0  0  0  0  0  0  0  0  0
   35.9947   11.7202   91.8833 H   0  0  0  0  0  0  0  0  0  0  0  0
   36.6229   10.2191   93.3999 H   0  0  0  0  0  0  0  0  0  0  0  0
   38.2050   10.7495   92.7759 H   0  0  0  0  0  0  0  0  0  0  0  0
   40.1427   12.0647   90.5877 H   0  0  0  0  0  0  0  0  0  0  0  0
   40.3261   13.5346   92.9515 H   0  0  0  0  0  0  0  0  0  0  0  0
   42.2824   13.8453   90.7002 H   0  0  0  0  0  0  0  0  0  0  0  0
   42.1960   12.3840   91.6928 H   0  0  0  0  0  0  0  0  0  0  0  0
   42.5945   13.7459   93.6801 H   0  0  0  0  0  0  0  0  0  0  0  0
   42.8075   15.1491   92.6011 H   0  0  0  0  0  0  0  0  0  0  0  0
   40.2178   15.6524   93.4737 H   0  0  0  0  0  0  0  0  0  0  0  0
   39.6417   17.6031   91.3162 H   0  0  0  0  0  0  0  0  0  0  0  0
   40.5546   18.0065   92.7504 H   0  0  0  0  0  0  0  0  0  0  0  0
   38.8507   17.6399   92.8738 H   0  0  0  0  0  0  0  0  0  0  0  0
  1 37  1  0  0  0  0
  1 38  1  0  0  0  0
  1 39  1  0  0  0  0
  2  1  1  0  0  0  0
  2  4  1  0  0  0  0
  3  2  2  0  0  0  0
  4 40  1  0  0  0  0
  5  4  1  0  0  0  0
  5  8  1  0  0  0  0
  5 41  1  6  0  0  0
  6  5  1  0  0  0  0
  7  6  2  0  0  0  0
  8  9  1  0  0  0  0
  8 42  1  0  0  0  0
  8 43  1  0  0  0  0
  9 44  1  0  0  0  0
 10  6  1  0  0  0  0
 11 12  1  0  0  0  0
 11 10  1  0  0  0  0
 11 45  1  6  0  0  0
 12 17  1  0  0  0  0
 13 12  2  0  0  0  0
 14 15  1  0  0  0  0
 14 11  1  0  0  0  0
 14 46  1  0  0  0  0
 14 47  1  0  0  0  0
 15 16  1  0  0  0  0
 15 48  1  0  0  0  0
 15 49  1  0  0  0  0
 16 10  1  0  0  0  0
 16 50  1  0  0  0  0
 16 51  1  0  0  0  0
 17 18  1  0  0  0  0
 17 52  1  0  0  0  0
 18 19  1  0  0  0  0
 18 21  1  0  0  0  0
 18 53  1  6  0  0  0
 19 20  2  0  0  0  0
 21 22  1  0  0  0  0
 21 54  1  0  0  0  0
 21 55  1  0  0  0  0
 22 56  1  0  0  0  0
 22 57  1  0  0  0  0
 23 22  1  0  0  0  0
 23 25  1  0  0  0  0
 24 23  2  0  0  0  0
 26 19  1  0  0  0  0
 26 27  1  0  0  0  0
 26 58  1  0  0  0  0
 27 59  1  1  0  0  0
 28 27  1  0  0  0  0
 28 35  1  0  0  0  0
 29 28  2  0  0  0  0
 30 27  1  0  0  0  0
 30 31  1  0  0  0  0
 30 60  1  0  0  0  0
 30 61  1  0  0  0  0
 31 62  1  0  0  0  0
 31 63  1  0  0  0  0
 32 31  1  0  0  0  0
 32 34  1  0  0  0  0
 33 32  2  0  0  0  0
 35 64  1  0  0  0  0
 36 35  1  0  0  0  0
 36 65  1  0  0  0  0
 36 66  1  0  0  0  0
 36 67  1  0  0  0  0
M  CHG  1  25  -1
M  CHG  1  34  -1
M  END
>  <MODEL>
       0

$$$$
