selected_4mers/SSPV/375_noH.pdb
 OpenBabel03042517593D

 64 64  0  0  1  0  0  0  0  0999 V2000
   16.4120   11.2900   49.1430 C   0  0  0  0  0  0  0  0  0  0  0  0
   15.0850   11.4010   49.8800 C   0  0  0  0  0  0  0  0  0  0  0  0
   14.1080   11.9020   49.3220 O   0  0  0  0  0  0  0  0  0  0  0  0
   15.0510   10.9500   51.1350 N   0  0  0  0  0  0  0  0  0  0  0  0
   13.8210   10.9860   51.9260 C   0  0  2  0  0  0  0  0  0  0  0  0
   13.3750   12.4160   52.2140 C   0  0  0  0  0  0  0  0  0  0  0  0
   12.1830   12.6890   52.3220 O   0  0  0  0  0  0  0  0  0  0  0  0
   13.9870   10.2010   53.2290 C   0  0  0  0  0  0  0  0  0  0  0  0
   15.0940   10.6770   53.9690 O   0  0  0  0  0  0  0  0  0  0  0  0
   14.3370   13.3260   52.3280 N   0  0  0  0  0  0  0  0  0  0  0  0
   14.0420   14.7500   52.3590 C   0  0  2  0  0  0  0  0  0  0  0  0
   15.1690   15.4950   51.6210 C   0  0  0  0  0  0  0  0  0  0  0  0
   16.2630   14.9510   51.4400 O   0  0  0  0  0  0  0  0  0  0  0  0
   13.8420   15.2390   53.8020 C   0  0  0  0  0  0  0  0  0  0  0  0
   14.9970   15.0450   54.5980 O   0  0  0  0  0  0  0  0  0  0  0  0
   14.8970   16.7280   51.1700 N   0  0  0  0  0  0  0  0  0  0  0  0
   15.9430   17.4550   50.4340 C   0  0  2  0  0  0  0  0  0  0  0  0
   17.2390   17.6220   51.2320 C   0  0  0  0  0  0  0  0  0  0  0  0
   17.2080   17.8430   52.4560 O   0  0  0  0  0  0  0  0  0  0  0  0
   15.3020   18.8170   50.1330 C   0  0  0  0  0  0  0  0  0  0  0  0
   13.8240   18.6100   50.2890 C   0  0  0  0  0  0  0  0  0  0  0  0
   13.6420   17.4950   51.2770 C   0  0  0  0  0  0  0  0  0  0  0  0
   18.3640   17.5120   50.5280 N   0  0  0  0  0  0  0  0  0  0  0  0
   19.6890   17.6270   51.1180 C   0  0  2  0  0  0  0  0  0  0  0  0
   20.2460   19.0120   50.7690 C   0  0  0  0  0  0  0  0  0  0  0  0
   20.1680   19.4410   49.6140 O   0  0  0  0  0  0  0  0  0  0  0  0
   20.6350   16.5180   50.5900 C   0  0  0  0  0  0  0  0  0  0  0  0
   22.1040   16.8620   50.8620 C   0  0  0  0  0  0  0  0  0  0  0  0
   20.2640   15.1630   51.1970 C   0  0  0  0  0  0  0  0  0  0  0  0
   20.7910   19.7040   51.7660 N   0  0  0  0  0  0  0  0  0  0  0  0
   21.4160   21.0070   51.5520 C   0  0  0  0  0  0  0  0  0  0  0  0
   16.3047   11.6840   48.1540 H   0  0  0  0  0  0  0  0  0  0  0  0
   16.7044   10.2622   49.0877 H   0  0  0  0  0  0  0  0  0  0  0  0
   17.1598   11.8458   49.6692 H   0  0  0  0  0  0  0  0  0  0  0  0
   15.8718   10.5849   51.5377 H   0  0  0  0  0  0  0  0  0  0  0  0
   13.0545   10.5195   51.3431 H   0  0  0  0  0  0  0  0  0  0  0  0
   14.1387    9.1673   52.9980 H   0  0  0  0  0  0  0  0  0  0  0  0
   13.1029   10.3271   53.8184 H   0  0  0  0  0  0  0  0  0  0  0  0
   15.9035   10.5685   53.4457 H   0  0  0  0  0  0  0  0  0  0  0  0
   15.2732   13.0286   52.3931 H   0  0  0  0  0  0  0  0  0  0  0  0
   13.1194   14.9527   51.8565 H   0  0  0  0  0  0  0  0  0  0  0  0
   13.0279   14.6993   54.2389 H   0  0  0  0  0  0  0  0  0  0  0  0
   13.6396   16.2891   53.7676 H   0  0  0  0  0  0  0  0  0  0  0  0
   15.2020   14.0981   54.6449 H   0  0  0  0  0  0  0  0  0  0  0  0
   16.2429   16.9212   49.5565 H   0  0  0  0  0  0  0  0  0  0  0  0
   15.6509   19.5551   50.8246 H   0  0  0  0  0  0  0  0  0  0  0  0
   15.5520   19.1645   49.1524 H   0  0  0  0  0  0  0  0  0  0  0  0
   13.3885   18.3432   49.3487 H   0  0  0  0  0  0  0  0  0  0  0  0
   13.3456   19.5048   50.6288 H   0  0  0  0  0  0  0  0  0  0  0  0
   12.8000   16.8880   51.0171 H   0  0  0  0  0  0  0  0  0  0  0  0
   13.4530   17.8462   52.2699 H   0  0  0  0  0  0  0  0  0  0  0  0
   18.2958   17.3445   49.5602 H   0  0  0  0  0  0  0  0  0  0  0  0
   19.6205   17.5081   52.1792 H   0  0  0  0  0  0  0  0  0  0  0  0
   20.5125   16.4550   49.5289 H   0  0  0  0  0  0  0  0  0  0  0  0
   22.2641   16.9334   51.9176 H   0  0  0  0  0  0  0  0  0  0  0  0
   22.3425   17.7977   50.4010 H   0  0  0  0  0  0  0  0  0  0  0  0
   22.7308   16.0950   50.4573 H   0  0  0  0  0  0  0  0  0  0  0  0
   20.3799   15.2046   52.2599 H   0  0  0  0  0  0  0  0  0  0  0  0
   20.9056   14.4056   50.7976 H   0  0  0  0  0  0  0  0  0  0  0  0
   19.2471   14.9315   50.9579 H   0  0  0  0  0  0  0  0  0  0  0  0
   20.7726   19.3267   52.6752 H   0  0  0  0  0  0  0  0  0  0  0  0
   21.3508   21.2681   50.5164 H   0  0  0  0  0  0  0  0  0  0  0  0
   22.4443   20.9617   51.8443 H   0  0  0  0  0  0  0  0  0  0  0  0
   20.9107   21.7456   52.1385 H   0  0  0  0  0  0  0  0  0  0  0  0
  1  2  1  0  0  0  0
  1 32  1  0  0  0  0
  1 33  1  0  0  0  0
  1 34  1  0  0  0  0
  2  4  1  0  0  0  0
  3  2  2  0  0  0  0
  4  5  1  0  0  0  0
  4 35  1  0  0  0  0
  5  6  1  0  0  0  0
  5  8  1  0  0  0  0
  5 36  1  6  0  0  0
  6  7  2  0  0  0  0
  6 10  1  0  0  0  0
  8  9  1  0  0  0  0
  8 37  1  0  0  0  0
  8 38  1  0  0  0  0
  9 39  1  0  0  0  0
 10 11  1  0  0  0  0
 10 40  1  0  0  0  0
 11 14  1  0  0  0  0
 11 41  1  6  0  0  0
 12 11  1  0  0  0  0
 13 12  2  0  0  0  0
 14 15  1  0  0  0  0
 14 42  1  0  0  0  0
 14 43  1  0  0  0  0
 15 44  1  0  0  0  0
 16 22  1  0  0  0  0
 16 12  1  0  0  0  0
 17 16  1  0  0  0  0
 17 18  1  0  0  0  0
 17 45  1  6  0  0  0
 18 19  2  0  0  0  0
 20 21  1  0  0  0  0
 20 17  1  0  0  0  0
 20 46  1  0  0  0  0
 20 47  1  0  0  0  0
 21 22  1  0  0  0  0
 21 48  1  0  0  0  0
 21 49  1  0  0  0  0
 22 50  1  0  0  0  0
 22 51  1  0  0  0  0
 23 24  1  0  0  0  0
 23 18  1  0  0  0  0
 23 52  1  0  0  0  0
 24 53  1  1  0  0  0
 25 24  1  0  0  0  0
 25 30  1  0  0  0  0
 26 25  2  0  0  0  0
 27 28  1  0  0  0  0
 27 24  1  0  0  0  0
 27 29  1  0  0  0  0
 27 54  1  0  0  0  0
 28 55  1  0  0  0  0
 28 56  1  0  0  0  0
 28 57  1  0  0  0  0
 29 58  1  0  0  0  0
 29 59  1  0  0  0  0
 29 60  1  0  0  0  0
 30 61  1  0  0  0  0
 31 30  1  0  0  0  0
 31 62  1  0  0  0  0
 31 63  1  0  0  0  0
 31 64  1  0  0  0  0
M  END
>  <MODEL>
       0

$$$$
selected_4mers/SSPV/376_noH.pdb
 OpenBabel03042517593D

 64 64  0  0  1  0  0  0  0  0999 V2000
   -1.2680  -12.4560   20.4290 C   0  0  0  0  0  0  0  0  0  0  0  0
   -0.3780  -13.2420   21.4260 C   0  0  0  0  0  0  0  0  0  0  0  0
   -0.1770  -14.5050   21.3830 O   0  0  0  0  0  0  0  0  0  0  0  0
    0.1830  -12.5400   22.3810 N   0  0  0  0  0  0  0  0  0  0  0  0
    1.1420  -13.0670   23.2980 C   0  0  2  0  0  0  0  0  0  0  0  0
    0.5850  -13.6720   24.5810 C   0  0  0  0  0  0  0  0  0  0  0  0
    1.2410  -14.5060   25.2420 O   0  0  0  0  0  0  0  0  0  0  0  0
    2.2060  -11.9320   23.6140 C   0  0  0  0  0  0  0  0  0  0  0  0
    1.5300  -10.7960   24.1680 O   0  0  0  0  0  0  0  0  0  0  0  0
   -0.6760  -13.3060   24.9710 N   0  0  0  0  0  0  0  0  0  0  0  0
   -1.3050  -13.7540   26.2180 C   0  0  2  0  0  0  0  0  0  0  0  0
   -2.7230  -14.2620   26.0320 C   0  0  0  0  0  0  0  0  0  0  0  0
   -3.6860  -13.5260   26.1910 O   0  0  0  0  0  0  0  0  0  0  0  0
   -1.2400  -12.6160   27.2360 C   0  0  0  0  0  0  0  0  0  0  0  0
   -1.8700  -13.1440   28.4120 O   0  0  0  0  0  0  0  0  0  0  0  0
   -2.8880  -15.5570   25.6850 N   0  0  0  0  0  0  0  0  0  0  0  0
   -4.2220  -16.1340   25.6440 C   0  0  2  0  0  0  0  0  0  0  0  0
   -4.9490  -15.9670   26.9330 C   0  0  0  0  0  0  0  0  0  0  0  0
   -6.1840  -15.7970   26.8940 O   0  0  0  0  0  0  0  0  0  0  0  0
   -3.9380  -17.6450   25.3580 C   0  0  0  0  0  0  0  0  0  0  0  0
   -2.5880  -17.7720   25.0710 C   0  0  0  0  0  0  0  0  0  0  0  0
   -1.8630  -16.5480   25.3000 C   0  0  0  0  0  0  0  0  0  0  0  0
   -4.2750  -15.9690   28.1160 N   0  0  0  0  0  0  0  0  0  0  0  0
   -4.9970  -15.7940   29.3520 C   0  0  2  0  0  0  0  0  0  0  0  0
   -5.6320  -14.4150   29.4250 C   0  0  0  0  0  0  0  0  0  0  0  0
   -6.8020  -14.3110   29.7930 O   0  0  0  0  0  0  0  0  0  0  0  0
   -4.0540  -16.0150   30.6080 C   0  0  0  0  0  0  0  0  0  0  0  0
   -3.6000  -17.4760   30.6690 C   0  0  0  0  0  0  0  0  0  0  0  0
   -2.8670  -15.2540   30.5070 C   0  0  0  0  0  0  0  0  0  0  0  0
   -4.9150  -13.3640   29.0400 N   0  0  0  0  0  0  0  0  0  0  0  0
   -5.5770  -12.0660   29.0680 C   0  0  0  0  0  0  0  0  0  0  0  0
   -1.6683  -13.1298   19.7005 H   0  0  0  0  0  0  0  0  0  0  0  0
   -0.6799  -11.7086   19.9386 H   0  0  0  0  0  0  0  0  0  0  0  0
   -2.0700  -11.9872   20.9599 H   0  0  0  0  0  0  0  0  0  0  0  0
   -0.0723  -11.5934   22.4710 H   0  0  0  0  0  0  0  0  0  0  0  0
    1.5907  -13.9072   22.8105 H   0  0  0  0  0  0  0  0  0  0  0  0
    2.7046  -11.6470   22.7112 H   0  0  0  0  0  0  0  0  0  0  0  0
    2.9271  -12.2990   24.3142 H   0  0  0  0  0  0  0  0  0  0  0  0
    0.8772  -10.4659   23.5310 H   0  0  0  0  0  0  0  0  0  0  0  0
   -1.1893  -12.7082   24.3807 H   0  0  0  0  0  0  0  0  0  0  0  0
   -0.7580  -14.5992   26.5803 H   0  0  0  0  0  0  0  0  0  0  0  0
   -1.7691  -11.7579   26.8773 H   0  0  0  0  0  0  0  0  0  0  0  0
   -0.2361  -12.2964   27.4229 H   0  0  0  0  0  0  0  0  0  0  0  0
   -2.7748  -13.4204   28.1977 H   0  0  0  0  0  0  0  0  0  0  0  0
   -4.8488  -15.6649   24.9147 H   0  0  0  0  0  0  0  0  0  0  0  0
   -4.5410  -17.9950   24.5200 H   0  0  0  0  0  0  0  0  0  0  0  0
   -4.1900  -18.2430   26.2330 H   0  0  0  0  0  0  0  0  0  0  0  0
   -2.4940  -18.0220   24.0140 H   0  0  0  0  0  0  0  0  0  0  0  0
   -2.1660  -18.5530   25.7030 H   0  0  0  0  0  0  0  0  0  0  0  0
   -1.3581  -16.2386   24.4088 H   0  0  0  0  0  0  0  0  0  0  0  0
   -1.1137  -16.6624   26.0553 H   0  0  0  0  0  0  0  0  0  0  0  0
   -3.2980  -16.0895   28.1276 H   0  0  0  0  0  0  0  0  0  0  0  0
   -5.7709  -16.5327   29.3716 H   0  0  0  0  0  0  0  0  0  0  0  0
   -4.6201  -15.7260   31.4687 H   0  0  0  0  0  0  0  0  0  0  0  0
   -3.0404  -17.7127   29.7882 H   0  0  0  0  0  0  0  0  0  0  0  0
   -4.4572  -18.1136   30.7290 H   0  0  0  0  0  0  0  0  0  0  0  0
   -2.9852  -17.6227   31.5324 H   0  0  0  0  0  0  0  0  0  0  0  0
   -2.3193  -15.5608   29.6405 H   0  0  0  0  0  0  0  0  0  0  0  0
   -2.2686  -15.4088   31.3804 H   0  0  0  0  0  0  0  0  0  0  0  0
   -3.1146  -14.2164   30.4236 H   0  0  0  0  0  0  0  0  0  0  0  0
   -3.9792  -13.4582   28.7491 H   0  0  0  0  0  0  0  0  0  0  0  0
   -6.5829  -12.1860   29.4126 H   0  0  0  0  0  0  0  0  0  0  0  0
   -5.5849  -11.6483   28.0829 H   0  0  0  0  0  0  0  0  0  0  0  0
   -5.0493  -11.4107   29.7291 H   0  0  0  0  0  0  0  0  0  0  0  0
  1  2  1  0  0  0  0
  1 32  1  0  0  0  0
  1 33  1  0  0  0  0
  1 34  1  0  0  0  0
  2  4  1  0  0  0  0
  3  2  2  0  0  0  0
  4  5  1  0  0  0  0
  4 35  1  0  0  0  0
  5  6  1  0  0  0  0
  5  8  1  0  0  0  0
  5 36  1  6  0  0  0
  6  7  2  0  0  0  0
  6 10  1  0  0  0  0
  8  9  1  0  0  0  0
  8 37  1  0  0  0  0
  8 38  1  0  0  0  0
  9 39  1  0  0  0  0
 10 11  1  0  0  0  0
 10 40  1  0  0  0  0
 11 14  1  0  0  0  0
 11 41  1  6  0  0  0
 12 11  1  0  0  0  0
 13 12  2  0  0  0  0
 14 15  1  0  0  0  0
 14 42  1  0  0  0  0
 14 43  1  0  0  0  0
 15 44  1  0  0  0  0
 16 22  1  0  0  0  0
 16 12  1  0  0  0  0
 17 16  1  0  0  0  0
 17 18  1  0  0  0  0
 17 45  1  6  0  0  0
 18 19  2  0  0  0  0
 20 21  1  0  0  0  0
 20 17  1  0  0  0  0
 20 46  1  0  0  0  0
 20 47  1  0  0  0  0
 21 22  1  0  0  0  0
 21 48  1  0  0  0  0
 21 49  1  0  0  0  0
 22 50  1  0  0  0  0
 22 51  1  0  0  0  0
 23 24  1  0  0  0  0
 23 18  1  0  0  0  0
 23 52  1  0  0  0  0
 24 53  1  1  0  0  0
 25 24  1  0  0  0  0
 25 30  1  0  0  0  0
 26 25  2  0  0  0  0
 27 28  1  0  0  0  0
 27 24  1  0  0  0  0
 27 29  1  0  0  0  0
 27 54  1  0  0  0  0
 28 55  1  0  0  0  0
 28 56  1  0  0  0  0
 28 57  1  0  0  0  0
 29 58  1  0  0  0  0
 29 59  1  0  0  0  0
 29 60  1  0  0  0  0
 30 61  1  0  0  0  0
 31 30  1  0  0  0  0
 31 62  1  0  0  0  0
 31 63  1  0  0  0  0
 31 64  1  0  0  0  0
M  END
>  <MODEL>
       0

$$$$
selected_4mers/SSPV/377_noH.pdb
 OpenBabel03042517593D

 64 64  0  0  1  0  0  0  0  0999 V2000
    3.9750   32.5250   16.1450 C   0  0  0  0  0  0  0  0  0  0  0  0
    3.8810   32.3930   17.6290 C   0  0  0  0  0  0  0  0  0  0  0  0
    2.9730   32.9440   18.2630 O   0  0  0  0  0  0  0  0  0  0  0  0
    4.8570   31.6550   18.1760 N   0  0  0  0  0  0  0  0  0  0  0  0
    5.0290   31.4920   19.5990 C   0  0  2  0  0  0  0  0  0  0  0  0
    5.8630   32.6110   20.1720 C   0  0  0  0  0  0  0  0  0  0  0  0
    7.0750   32.7180   19.9100 O   0  0  0  0  0  0  0  0  0  0  0  0
    5.6940   30.1460   19.9030 C   0  0  0  0  0  0  0  0  0  0  0  0
    5.8320   29.9750   21.2790 O   0  0  0  0  0  0  0  0  0  0  0  0
    5.2100   33.4410   20.9700 N   0  0  0  0  0  0  0  0  0  0  0  0
    5.8120   34.6490   21.5120 C   0  0  2  0  0  0  0  0  0  0  0  0
    5.4760   34.7650   23.0170 C   0  0  0  0  0  0  0  0  0  0  0  0
    4.7310   35.6660   23.4510 O   0  0  0  0  0  0  0  0  0  0  0  0
    5.3460   35.8810   20.7150 C   0  0  0  0  0  0  0  0  0  0  0  0
    6.0220   37.0340   21.1240 O   0  0  0  0  0  0  0  0  0  0  0  0
    6.0400   33.8480   23.8260 N   0  0  0  0  0  0  0  0  0  0  0  0
    5.7130   33.8100   25.2550 C   0  0  2  0  0  0  0  0  0  0  0  0
    6.0640   35.0920   25.9500 C   0  0  0  0  0  0  0  0  0  0  0  0
    7.0210   35.7520   25.5730 O   0  0  0  0  0  0  0  0  0  0  0  0
    6.5520   32.6460   25.8130 C   0  0  0  0  0  0  0  0  0  0  0  0
    7.3330   32.0770   24.6800 C   0  0  0  0  0  0  0  0  0  0  0  0
    7.0020   32.8080   23.4270 C   0  0  0  0  0  0  0  0  0  0  0  0
    5.2450   35.4800   26.9260 N   0  0  0  0  0  0  0  0  0  0  0  0
    5.5450   36.6030   27.7850 C   0  0  2  0  0  0  0  0  0  0  0  0
    6.9070   36.3650   28.4550 C   0  0  0  0  0  0  0  0  0  0  0  0
    7.2360   35.2360   28.8200 O   0  0  0  0  0  0  0  0  0  0  0  0
    4.4660   36.8060   28.8960 C   0  0  0  0  0  0  0  0  0  0  0  0
    3.2700   37.6330   28.3710 C   0  0  0  0  0  0  0  0  0  0  0  0
    4.0350   35.4750   29.4870 C   0  0  0  0  0  0  0  0  0  0  0  0
    7.6990   37.4260   28.5820 N   0  0  0  0  0  0  0  0  0  0  0  0
    9.0160   37.3310   29.2170 C   0  0  0  0  0  0  0  0  0  0  0  0
    4.8239   31.9780   15.7913 H   0  0  0  0  0  0  0  0  0  0  0  0
    4.0822   33.5573   15.8848 H   0  0  0  0  0  0  0  0  0  0  0  0
    3.0862   32.1343   15.6952 H   0  0  0  0  0  0  0  0  0  0  0  0
    5.4901   31.2000   17.5748 H   0  0  0  0  0  0  0  0  0  0  0  0
    4.0611   31.5188   20.0543 H   0  0  0  0  0  0  0  0  0  0  0  0
    6.6607   30.1184   19.4451 H   0  0  0  0  0  0  0  0  0  0  0  0
    5.0818   29.3594   19.5140 H   0  0  0  0  0  0  0  0  0  0  0  0
    6.3863   30.6850   21.6391 H   0  0  0  0  0  0  0  0  0  0  0  0
    4.2775   33.2318   21.2066 H   0  0  0  0  0  0  0  0  0  0  0  0
    6.8766   34.5980   21.4175 H   0  0  0  0  0  0  0  0  0  0  0  0
    5.5356   35.7158   19.6750 H   0  0  0  0  0  0  0  0  0  0  0  0
    4.2999   36.0218   20.8905 H   0  0  0  0  0  0  0  0  0  0  0  0
    6.9734   36.9224   20.9712 H   0  0  0  0  0  0  0  0  0  0  0  0
    4.6625   33.6794   25.4109 H   0  0  0  0  0  0  0  0  0  0  0  0
    7.2162   33.0046   26.5714 H   0  0  0  0  0  0  0  0  0  0  0  0
    5.9207   31.9002   26.2490 H   0  0  0  0  0  0  0  0  0  0  0  0
    7.0810   31.0230   24.5610 H   0  0  0  0  0  0  0  0  0  0  0  0
    8.3990   32.1760   24.8870 H   0  0  0  0  0  0  0  0  0  0  0  0    
    7.8890   33.2340   22.9590 H   0  0  0  0  0  0  0  0  0  0  0  0
    6.5550   32.1330   22.6970 H   0  0  0  0  0  0  0  0  0  0  0  0
    4.4060   34.9846   27.0673 H   0  0  0  0  0  0  0  0  0  0  0  0
    5.5580   37.4838   27.1776 H   0  0  0  0  0  0  0  0  0  0  0  0
    4.9061   37.3719   29.6904 H   0  0  0  0  0  0  0  0  0  0  0  0
    2.7951   37.1049   27.5708 H   0  0  0  0  0  0  0  0  0  0  0  0
    3.6196   38.5797   28.0156 H   0  0  0  0  0  0  0  0  0  0  0  0
    2.5675   37.7868   29.1633 H   0  0  0  0  0  0  0  0  0  0  0  0
    3.5872   34.8740   28.7234 H   0  0  0  0  0  0  0  0  0  0  0  0
    3.3249   35.6452   30.2691 H   0  0  0  0  0  0  0  0  0  0  0  0
    4.8892   34.9681   29.8849 H   0  0  0  0  0  0  0  0  0  0  0  0
    7.3926   38.2971   28.2407 H   0  0  0  0  0  0  0  0  0  0  0  0
    9.1901   36.3221   29.5280 H   0  0  0  0  0  0  0  0  0  0  0  0
    9.0487   37.9775   30.0689 H   0  0  0  0  0  0  0  0  0  0  0  0
    9.7711   37.6240   28.5178 H   0  0  0  0  0  0  0  0  0  0  0  0
  1  2  1  0  0  0  0
  1 32  1  0  0  0  0
  1 33  1  0  0  0  0
  1 34  1  0  0  0  0
  2  4  1  0  0  0  0
  3  2  2  0  0  0  0
  4  5  1  0  0  0  0
  4 35  1  0  0  0  0
  5  6  1  0  0  0  0
  5  8  1  0  0  0  0
  5 36  1  6  0  0  0
  6  7  2  0  0  0  0
  6 10  1  0  0  0  0
  8  9  1  0  0  0  0
  8 37  1  0  0  0  0
  8 38  1  0  0  0  0
  9 39  1  0  0  0  0
 10 11  1  0  0  0  0
 10 40  1  0  0  0  0
 11 14  1  0  0  0  0
 11 41  1  6  0  0  0
 12 11  1  0  0  0  0
 13 12  2  0  0  0  0
 14 15  1  0  0  0  0
 14 42  1  0  0  0  0
 14 43  1  0  0  0  0
 15 44  1  0  0  0  0
 16 22  1  0  0  0  0
 16 12  1  0  0  0  0
 17 16  1  0  0  0  0
 17 18  1  0  0  0  0
 17 45  1  6  0  0  0
 18 19  2  0  0  0  0
 20 21  1  0  0  0  0
 20 17  1  0  0  0  0
 20 46  1  0  0  0  0
 20 47  1  0  0  0  0
 21 22  1  0  0  0  0
 21 48  1  0  0  0  0
 21 49  1  0  0  0  0
 22 50  1  0  0  0  0
 22 51  1  0  0  0  0
 23 24  1  0  0  0  0
 23 18  1  0  0  0  0
 23 52  1  0  0  0  0
 24 53  1  1  0  0  0
 25 24  1  0  0  0  0
 25 30  1  0  0  0  0
 26 25  2  0  0  0  0
 27 28  1  0  0  0  0
 27 24  1  0  0  0  0
 27 29  1  0  0  0  0
 27 54  1  0  0  0  0
 28 55  1  0  0  0  0
 28 56  1  0  0  0  0
 28 57  1  0  0  0  0
 29 58  1  0  0  0  0
 29 59  1  0  0  0  0
 29 60  1  0  0  0  0
 30 61  1  0  0  0  0
 31 30  1  0  0  0  0
 31 62  1  0  0  0  0
 31 63  1  0  0  0  0
 31 64  1  0  0  0  0
M  END
>  <MODEL>
       0

$$$$
selected_4mers/SSPV/378_noH.pdb
 OpenBabel03042517593D

 64 64  0  0  1  0  0  0  0  0999 V2000
   40.9940   63.1350   37.2000 C   0  0  0  0  0  0  0  0  0  0  0  0
   42.4460   63.5860   37.3480 C   0  0  0  0  0  0  0  0  0  0  0  0
   42.8680   64.5610   36.7110 O   0  0  0  0  0  0  0  0  0  0  0  0
   43.2100   62.8680   38.1650 N   0  0  0  0  0  0  0  0  0  0  0  0
   44.6380   63.1400   38.3500 C   0  0  2  0  0  0  0  0  0  0  0  0
   45.5680   62.5860   37.2430 C   0  0  0  0  0  0  0  0  0  0  0  0
   46.7190   63.0240   37.1400 O   0  0  0  0  0  0  0  0  0  0  0  0
   45.1130   62.5940   39.7130 C   0  0  0  0  0  0  0  0  0  0  0  0
   44.7230   61.2480   39.9070 O   0  0  0  0  0  0  0  0  0  0  0  0
   45.0660   61.6250   36.4560 N   0  0  0  0  0  0  0  0  0  0  0  0
   45.8790   60.8250   35.5150 C   0  0  2  0  0  0  0  0  0  0  0  0
   46.7320   61.7080   34.6020 C   0  0  0  0  0  0  0  0  0  0  0  0
   46.2120   62.6540   34.0020 O   0  0  0  0  0  0  0  0  0  0  0  0
   44.9670   59.9150   34.6860 C   0  0  0  0  0  0  0  0  0  0  0  0
   44.1700   59.0470   35.4990 O   0  0  0  0  0  0  0  0  0  0  0  0
   48.0520   61.4200   34.4710 N   0  0  0  0  0  0  0  0  0  0  0  0
   48.7730   62.1320   33.4040 C   0  0  2  0  0  0  0  0  0  0  0  0
   48.4270   61.6680   31.9510 C   0  0  0  0  0  0  0  0  0  0  0  0
   48.8900   62.2690   30.9670 O   0  0  0  0  0  0  0  0  0  0  0  0
   50.2310   61.7250   33.6220 C   0  0  0  0  0  0  0  0  0  0  0  0
   50.1850   60.5170   34.4460 C   0  0  0  0  0  0  0  0  0  0  0  0
   48.9340   60.5120   35.2350 C   0  0  0  0  0  0  0  0  0  0  0  0
   47.6840   60.5680   31.8470 N   0  0  0  0  0  0  0  0  0  0  0  0
   47.2120   60.0490   30.5530 C   0  0  2  0  0  0  0  0  0  0  0  0
   45.7450   59.6920   30.6530 C   0  0  0  0  0  0  0  0  0  0  0  0
   45.2750   59.0870   31.6180 O   0  0  0  0  0  0  0  0  0  0  0  0
   48.0520   58.7840   30.1340 C   0  0  0  0  0  0  0  0  0  0  0  0
   47.6320   58.2200   28.7410 C   0  0  0  0  0  0  0  0  0  0  0  0
   49.4730   59.1220   30.0690 C   0  0  0  0  0  0  0  0  0  0  0  0
   44.9860   60.1390   29.6680 N   0  0  0  0  0  0  0  0  0  0  0  0
   43.5290   59.8400   29.6050 C   0  0  0  0  0  0  0  0  0  0  0  0
   40.4853   63.7873   36.5212 H   0  0  0  0  0  0  0  0  0  0  0  0
   40.5115   63.1670   38.1545 H   0  0  0  0  0  0  0  0  0  0  0  0
   40.9681   62.1349   36.8206 H   0  0  0  0  0  0  0  0  0  0  0  0
   42.8009   62.1251   38.6649 H   0  0  0  0  0  0  0  0  0  0  0  0
   44.7164   64.2060   38.3001 H   0  0  0  0  0  0  0  0  0  0  0  0
   44.6893   63.1926   40.4921 H   0  0  0  0  0  0  0  0  0  0  0  0
   46.1820   62.6356   39.7326 H   0  0  0  0  0  0  0  0  0  0  0  0
   43.7550   61.1866   39.8929 H   0  0  0  0  0  0  0  0  0  0  0  0
   44.1002   61.4409   36.5071 H   0  0  0  0  0  0  0  0  0  0  0  0
   46.5525   60.2242   36.0898 H   0  0  0  0  0  0  0  0  0  0  0  0
   44.3159   60.5268   34.0973 H   0  0  0  0  0  0  0  0  0  0  0  0
   45.5927   59.3008   34.0726 H   0  0  0  0  0  0  0  0  0  0  0  0
   43.5908   59.5781   36.0676 H   0  0  0  0  0  0  0  0  0  0  0  0
   48.5322   63.1728   33.4650 H   0  0  0  0  0  0  0  0  0  0  0  0
   50.7637   62.5024   34.1288 H   0  0  0  0  0  0  0  0  0  0  0  0
   50.7359   61.5519   32.6946 H   0  0  0  0  0  0  0  0  0  0  0  0
   51.0254   60.5036   35.1081 H   0  0  0  0  0  0  0  0  0  0  0  0
   50.2159   59.6521   33.8168 H   0  0  0  0  0  0  0  0  0  0  0  0
   49.1025   60.8827   36.2245 H   0  0  0  0  0  0  0  0  0  0  0  0
   48.5210   59.5332   35.3624 H   0  0  0  0  0  0  0  0  0  0  0  0
   47.4407   60.0825   32.6682 H   0  0  0  0  0  0  0  0  0  0  0  0
   47.3392   60.8042   29.8057 H   0  0  0  0  0  0  0  0  0  0  0  0
   47.8641   58.0383   30.8780 H   0  0  0  0  0  0  0  0  0  0  0  0
   47.8153   58.9574   27.9877 H   0  0  0  0  0  0  0  0  0  0  0  0
   46.5905   57.9752   28.7546 H   0  0  0  0  0  0  0  0  0  0  0  0
   48.2023   57.3406   28.5256 H   0  0  0  0  0  0  0  0  0  0  0  0
   49.6281   59.8682   29.3179 H   0  0  0  0  0  0  0  0  0  0  0  0
   50.0370   58.2464   29.8238 H   0  0  0  0  0  0  0  0  0  0  0  0
   49.7938   59.4988   31.0177 H   0  0  0  0  0  0  0  0  0  0  0  0
   45.3947   60.6840   28.9572 H   0  0  0  0  0  0  0  0  0  0  0  0
   43.2509   59.2420   30.4475 H   0  0  0  0  0  0  0  0  0  0  0  0
   43.3129   59.3072   28.7026 H   0  0  0  0  0  0  0  0  0  0  0  0
   42.9760   60.7559   29.6196 H   0  0  0  0  0  0  0  0  0  0  0  0
  1  2  1  0  0  0  0
  1 32  1  0  0  0  0
  1 33  1  0  0  0  0
  1 34  1  0  0  0  0
  2  4  1  0  0  0  0
  3  2  2  0  0  0  0
  4  5  1  0  0  0  0
  4 35  1  0  0  0  0
  5  8  1  0  0  0  0
  5 36  1  1  0  0  0
  6  5  1  0  0  0  0
  7  6  2  0  0  0  0
  8  9  1  0  0  0  0
  8 37  1  0  0  0  0
  8 38  1  0  0  0  0
  9 39  1  0  0  0  0
 10  6  1  0  0  0  0
 10 40  1  0  0  0  0
 11 10  1  0  0  0  0
 11 41  1  1  0  0  0
 12 11  1  0  0  0  0
 13 12  2  0  0  0  0
 14 15  1  0  0  0  0
 14 11  1  0  0  0  0
 14 42  1  0  0  0  0
 14 43  1  0  0  0  0
 15 44  1  0  0  0  0
 16 12  1  0  0  0  0
 16 22  1  0  0  0  0
 17 20  1  0  0  0  0
 17 16  1  0  0  0  0
 17 45  1  1  0  0  0
 18 17  1  0  0  0  0
 19 18  2  0  0  0  0
 20 21  1  0  0  0  0
 20 46  1  0  0  0  0
 20 47  1  0  0  0  0
 21 22  1  0  0  0  0
 21 48  1  0  0  0  0
 21 49  1  0  0  0  0
 22 50  1  0  0  0  0
 22 51  1  0  0  0  0
 23 18  1  0  0  0  0
 23 52  1  0  0  0  0
 24 25  1  0  0  0  0
 24 23  1  0  0  0  0
 24 53  1  6  0  0  0
 25 26  2  0  0  0  0
 27 24  1  0  0  0  0
 27 54  1  0  0  0  0
 28 27  1  0  0  0  0
 28 55  1  0  0  0  0
 28 56  1  0  0  0  0
 28 57  1  0  0  0  0
 29 27  1  0  0  0  0
 29 58  1  0  0  0  0
 29 59  1  0  0  0  0
 29 60  1  0  0  0  0
 30 25  1  0  0  0  0
 30 61  1  0  0  0  0
 31 30  1  0  0  0  0
 31 62  1  0  0  0  0
 31 63  1  0  0  0  0
 31 64  1  0  0  0  0
M  END
>  <MODEL>
       0

$$$$
selected_4mers/SSPV/379_noH.pdb
 OpenBabel03042517593D

 64 64  0  0  1  0  0  0  0  0999 V2000
  -14.0550    0.0820  -36.4710 C   0  0  0  0  0  0  0  0  0  0  0  0
  -14.2560    1.2150  -35.4670 C   0  0  0  0  0  0  0  0  0  0  0  0
  -13.4600    1.3770  -34.5330 O   0  0  0  0  0  0  0  0  0  0  0  0
  -15.3190    1.9880  -35.6190 N   0  0  0  0  0  0  0  0  0  0  0  0
  -15.5310    3.0990  -34.7060 C   0  0  2  0  0  0  0  0  0  0  0  0
  -16.6700    2.8380  -33.7340 C   0  0  0  0  0  0  0  0  0  0  0  0
  -16.9770    3.6980  -32.9240 O   0  0  0  0  0  0  0  0  0  0  0  0
  -15.8220    4.3830  -35.4960 C   0  0  0  0  0  0  0  0  0  0  0  0
  -14.6580    4.8410  -36.1770 O   0  0  0  0  0  0  0  0  0  0  0  0
  -17.2860    1.6600  -33.8190 N   0  0  0  0  0  0  0  0  0  0  0  0
  -18.5250    1.3760  -33.0900 C   0  0  2  0  0  0  0  0  0  0  0  0
  -18.2790    0.4670  -31.8970 C   0  0  0  0  0  0  0  0  0  0  0  0
  -17.4060   -0.3770  -31.9430 O   0  0  0  0  0  0  0  0  0  0  0  0
  -19.5330    0.7000  -34.0190 C   0  0  0  0  0  0  0  0  0  0  0  0
  -19.9480    1.5860  -35.0470 O   0  0  0  0  0  0  0  0  0  0  0  0
  -19.0880    0.6060  -30.8330 N   0  0  0  0  0  0  0  0  0  0  0  0
  -18.8330   -0.1800  -29.6200 C   0  0  2  0  0  0  0  0  0  0  0  0
  -19.0280   -1.6500  -29.8510 C   0  0  0  0  0  0  0  0  0  0  0  0
  -19.9490   -2.0350  -30.5610 O   0  0  0  0  0  0  0  0  0  0  0  0
  -19.9420    0.2750  -28.6540 C   0  0  0  0  0  0  0  0  0  0  0  0
  -20.4270    1.5330  -29.1710 C   0  0  0  0  0  0  0  0  0  0  0  0
  -20.2220    1.5250  -30.6690 C   0  0  0  0  0  0  0  0  0  0  0  0
  -18.2010   -2.4640  -29.2180 N   0  0  0  0  0  0  0  0  0  0  0  0
  -18.4560   -3.8920  -29.1500 C   0  0  2  0  0  0  0  0  0  0  0  0
  -18.3380   -4.3010  -27.6930 C   0  0  0  0  0  0  0  0  0  0  0  0
  -17.3480   -3.9830  -27.0280 O   0  0  0  0  0  0  0  0  0  0  0  0
  -17.4610   -4.7150  -29.9940 C   0  0  0  0  0  0  0  0  0  0  0  0
  -16.0750   -4.2220  -29.8090 C   0  0  0  0  0  0  0  0  0  0  0  0
  -17.5160   -6.2020  -29.6240 C   0  0  0  0  0  0  0  0  0  0  0  0
  -19.3620   -4.9830  -27.1930 N   0  0  0  0  0  0  0  0  0  0  0  0
  -19.3030   -5.5050  -25.8320 C   0  0  0  0  0  0  0  0  0  0  0  0
  -14.8399    0.1061  -37.1978 H   0  0  0  0  0  0  0  0  0  0  0  0
  -14.0728   -0.8567  -35.9578 H   0  0  0  0  0  0  0  0  0  0  0  0
  -13.1114    0.2028  -36.9609 H   0  0  0  0  0  0  0  0  0  0  0  0
  -15.9610    1.8122  -36.3444 H   0  0  0  0  0  0  0  0  0  0  0  0
  -14.6326    3.2120  -34.1360 H   0  0  0  0  0  0  0  0  0  0  0  0
  -16.5913    4.1854  -36.2130 H   0  0  0  0  0  0  0  0  0  0  0  0
  -16.1342    5.1414  -34.8088 H   0  0  0  0  0  0  0  0  0  0  0  0
  -14.3627    4.1629  -36.8046 H   0  0  0  0  0  0  0  0  0  0  0  0
  -16.8967    0.9583  -34.3894 H   0  0  0  0  0  0  0  0  0  0  0  0
  -18.9089    2.3101  -32.7365 H   0  0  0  0  0  0  0  0  0  0  0  0
  -19.0784   -0.1616  -34.4616 H   0  0  0  0  0  0  0  0  0  0  0  0
  -20.3905    0.4170  -33.4449 H   0  0  0  0  0  0  0  0  0  0  0  0
  -19.1790    1.8507  -35.5757 H   0  0  0  0  0  0  0  0  0  0  0  0
  -17.8308   -0.0347  -29.2746 H   0  0  0  0  0  0  0  0  0  0  0  0
  -19.5464    0.4056  -27.6684 H   0  0  0  0  0  0  0  0  0  0  0  0
  -20.7259   -0.4502  -28.5870 H   0  0  0  0  0  0  0  0  0  0  0  0
  -21.4674    1.6424  -28.9463 H   0  0  0  0  0  0  0  0  0  0  0  0
  -19.8987    2.3497  -28.7251 H   0  0  0  0  0  0  0  0  0  0  0  0
  -21.0910    1.1603  -31.1757 H   0  0  0  0  0  0  0  0  0  0  0  0
  -20.0443    2.4972  -31.0791 H   0  0  0  0  0  0  0  0  0  0  0  0
  -17.3975   -2.0954  -28.7847 H   0  0  0  0  0  0  0  0  0  0  0  0
  -19.4302   -4.0876  -29.5468 H   0  0  0  0  0  0  0  0  0  0  0  0
  -17.7460   -4.5986  -31.0188 H   0  0  0  0  0  0  0  0  0  0  0  0
  -15.7890   -4.3380  -28.7845 H   0  0  0  0  0  0  0  0  0  0  0  0
  -16.0255   -3.1876  -30.0782 H   0  0  0  0  0  0  0  0  0  0  0  0
  -15.4103   -4.7846  -30.4308 H   0  0  0  0  0  0  0  0  0  0  0  0
  -17.2320   -6.3254  -28.5998 H   0  0  0  0  0  0  0  0  0  0  0  0
  -16.8428   -6.7503  -30.2494 H   0  0  0  0  0  0  0  0  0  0  0  0
  -18.5116   -6.5679  -29.7646 H   0  0  0  0  0  0  0  0  0  0  0  0
  -20.1640   -5.1369  -27.7429 H   0  0  0  0  0  0  0  0  0  0  0  0
  -18.3643   -5.2434  -25.3901 H   0  0  0  0  0  0  0  0  0  0  0  0
  -19.4024   -6.5701  -25.8539 H   0  0  0  0  0  0  0  0  0  0  0  0
  -20.0990   -5.0843  -25.2538 H   0  0  0  0  0  0  0  0  0  0  0  0
  1  2  1  0  0  0  0
  1 32  1  0  0  0  0
  1 33  1  0  0  0  0
  1 34  1  0  0  0  0
  2  3  2  0  0  0  0
  4  2  1  0  0  0  0
  4  5  1  0  0  0  0
  4 35  1  0  0  0  0
  5  6  1  0  0  0  0
  5 36  1  1  0  0  0
  6  7  2  0  0  0  0
  8  5  1  0  0  0  0
  8 37  1  0  0  0  0
  8 38  1  0  0  0  0
  9  8  1  0  0  0  0
  9 39  1  0  0  0  0
 10  6  1  0  0  0  0
 10 11  1  0  0  0  0
 10 40  1  0  0  0  0
 11 12  1  0  0  0  0
 11 41  1  1  0  0  0
 12 16  1  0  0  0  0
 13 12  2  0  0  0  0
 14 11  1  0  0  0  0
 14 42  1  0  0  0  0
 14 43  1  0  0  0  0
 15 14  1  0  0  0  0
 15 44  1  0  0  0  0
 16 22  1  0  0  0  0
 16 17  1  0  0  0  0
 17 20  1  0  0  0  0
 17 45  1  1  0  0  0
 18 17  1  0  0  0  0
 18 23  1  0  0  0  0
 19 18  2  0  0  0  0
 20 46  1  0  0  0  0
 20 47  1  0  0  0  0
 21 20  1  0  0  0  0
 21 48  1  0  0  0  0
 21 49  1  0  0  0  0
 22 21  1  0  0  0  0
 22 50  1  0  0  0  0
 22 51  1  0  0  0  0
 23 24  1  0  0  0  0
 23 52  1  0  0  0  0
 24 25  1  0  0  0  0
 24 53  1  6  0  0  0
 25 30  1  0  0  0  0
 25 26  2  0  0  0  0
 27 28  1  0  0  0  0
 27 29  1  0  0  0  0
 27 24  1  0  0  0  0
 27 54  1  0  0  0  0
 28 55  1  0  0  0  0
 28 56  1  0  0  0  0
 28 57  1  0  0  0  0
 29 58  1  0  0  0  0
 29 59  1  0  0  0  0
 29 60  1  0  0  0  0
 30 31  1  0  0  0  0
 30 61  1  0  0  0  0
 31 62  1  0  0  0  0
 31 63  1  0  0  0  0
 31 64  1  0  0  0  0
M  END
>  <MODEL>
       0

$$$$
