selected_4mers/STLT/625_noH.pdb
 OpenBabel03042518233D

 70 69  0  0  1  0  0  0  0  0999 V2000
   20.5920   52.4330   20.4750 C   0  0  0  0  0  0  0  0  0  0  0  0
   21.6710   53.2580   19.7890 C   0  0  0  0  0  0  0  0  0  0  0  0
   21.4820   54.4570   19.5800 O   0  0  0  0  0  0  0  0  0  0  0  0
   22.7920   52.6190   19.4400 N   0  0  0  0  0  0  0  0  0  0  0  0
   23.9090   53.3310   18.8070 C   0  0  2  0  0  0  0  0  0  0  0  0
   23.5800   53.7870   17.3890 C   0  0  0  0  0  0  0  0  0  0  0  0
   24.0180   54.8550   16.9760 O   0  0  0  0  0  0  0  0  0  0  0  0
   25.1990   52.5090   18.8260 C   0  0  0  0  0  0  0  0  0  0  0  0
   24.9980   51.2360   18.2450 O   0  0  0  0  0  0  0  0  0  0  0  0
   22.8030   52.9780   16.6630 N   0  0  0  0  0  0  0  0  0  0  0  0
   22.2580   53.3640   15.3540 C   0  0  2  0  0  0  0  0  0  0  0  0
   21.4680   54.6660   15.4660 C   0  0  0  0  0  0  0  0  0  0  0  0
   21.7060   55.6130   14.7170 O   0  0  0  0  0  0  0  0  0  0  0  0
   21.3800   52.2340   14.7490 C   0  0  2  0  0  0  0  0  0  0  0  0
   22.2090   51.1100   14.4440 O   0  0  0  0  0  0  0  0  0  0  0  0
   20.6750   52.6810   13.4710 C   0  0  0  0  0  0  0  0  0  0  0  0
   20.5700   54.7260   16.4470 N   0  0  0  0  0  0  0  0  0  0  0  0
   19.7550   55.9150   16.6400 C   0  0  2  0  0  0  0  0  0  0  0  0
   20.5520   57.1240   17.1450 C   0  0  0  0  0  0  0  0  0  0  0  0
   20.3040   58.2500   16.7040 O   0  0  0  0  0  0  0  0  0  0  0  0
   18.5450   55.6110   17.5370 C   0  0  0  0  0  0  0  0  0  0  0  0
   17.4740   54.6590   16.9780 C   0  0  0  0  0  0  0  0  0  0  0  0
   16.6190   54.0640   18.0910 C   0  0  0  0  0  0  0  0  0  0  0  0
   16.6000   55.3610   15.9360 C   0  0  0  0  0  0  0  0  0  0  0  0
   21.5100   56.9090   18.0530 N   0  0  0  0  0  0  0  0  0  0  0  0
   22.3390   58.0400   18.5230 C   0  0  2  0  0  0  0  0  0  0  0  0
   23.2750   58.5880   17.4440 C   0  0  0  0  0  0  0  0  0  0  0  0
   23.4970   59.7980   17.3810 O   0  0  0  0  0  0  0  0  0  0  0  0
   23.1290   57.7450   19.8160 C   0  0  2  0  0  0  0  0  0  0  0  0
   23.9520   56.5960   19.6210 O   0  0  0  0  0  0  0  0  0  0  0  0
   22.1890   57.5130   20.9860 C   0  0  0  0  0  0  0  0  0  0  0  0
   23.7870   57.7130   16.5780 N   0  0  0  0  0  0  0  0  0  0  0  0
   24.5930   58.1510   15.4190 C   0  0  0  0  0  0  0  0  0  0  0  0
   20.9254   51.4210   20.5734 H   0  0  0  0  0  0  0  0  0  0  0  0
   19.6971   52.4583   19.8890 H   0  0  0  0  0  0  0  0  0  0  0  0
   20.3948   52.8395   21.4449 H   0  0  0  0  0  0  0  0  0  0  0  0
   22.8701   51.6526   19.6107 H   0  0  0  0  0  0  0  0  0  0  0  0
   24.0707   54.2090   19.3968 H   0  0  0  0  0  0  0  0  0  0  0  0
   25.9538   53.0299   18.2747 H   0  0  0  0  0  0  0  0  0  0  0  0
   25.5025   52.3750   19.8433 H   0  0  0  0  0  0  0  0  0  0  0  0
   24.7220   51.3422   17.3212 H   0  0  0  0  0  0  0  0  0  0  0  0
   22.5866   52.0863   17.0198 H   0  0  0  0  0  0  0  0  0  0  0  0
   23.0812   53.5229   14.6892 H   0  0  0  0  0  0  0  0  0  0  0  0
   20.6334   51.9784   15.4716 H   0  0  0  0  0  0  0  0  0  0  0  0
   22.8755   51.3683   13.7883 H   0  0  0  0  0  0  0  0  0  0  0  0
   21.4050   52.9418   12.7335 H   0  0  0  0  0  0  0  0  0  0  0  0
   20.0608   53.5316   13.6813 H   0  0  0  0  0  0  0  0  0  0  0  0
   20.0650   51.8830   13.1024 H   0  0  0  0  0  0  0  0  0  0  0  0
   20.4562   53.9557   17.0495 H   0  0  0  0  0  0  0  0  0  0  0  0
   19.3925   56.1962   15.6733 H   0  0  0  0  0  0  0  0  0  0  0  0
   18.0650   56.5420   17.7556 H   0  0  0  0  0  0  0  0  0  0  0  0
   18.9524   55.0993   18.3838 H   0  0  0  0  0  0  0  0  0  0  0  0
   17.9849   53.8530   16.4940 H   0  0  0  0  0  0  0  0  0  0  0  0
   16.0940   54.8481   18.5953 H   0  0  0  0  0  0  0  0  0  0  0  0
   17.2477   53.5501   18.7878 H   0  0  0  0  0  0  0  0  0  0  0  0
   15.9152   53.3761   17.6711 H   0  0  0  0  0  0  0  0  0  0  0  0
   16.0776   56.1730   16.3973 H   0  0  0  0  0  0  0  0  0  0  0  0
   15.8937   54.6643   15.5352 H   0  0  0  0  0  0  0  0  0  0  0  0
   17.2176   55.7365   15.1471 H   0  0  0  0  0  0  0  0  0  0  0  0
   21.6625   56.0029   18.4066 H   0  0  0  0  0  0  0  0  0  0  0  0
   21.6233   58.7997   18.7587 H   0  0  0  0  0  0  0  0  0  0  0  0
   23.7414   58.5930   20.0414 H   0  0  0  0  0  0  0  0  0  0  0  0
   23.3939   55.8294   19.4169 H   0  0  0  0  0  0  0  0  0  0  0  0
   21.5661   56.6675   20.7809 H   0  0  0  0  0  0  0  0  0  0  0  0
   21.5780   58.3795   21.1299 H   0  0  0  0  0  0  0  0  0  0  0  0
   22.7605   57.3285   21.8716 H   0  0  0  0  0  0  0  0  0  0  0  0
   23.6242   56.7516   16.7139 H   0  0  0  0  0  0  0  0  0  0  0  0
   24.6712   59.2181   15.4218 H   0  0  0  0  0  0  0  0  0  0  0  0
   24.1202   57.8304   14.5142 H   0  0  0  0  0  0  0  0  0  0  0  0
   25.5710   57.7215   15.4820 H   0  0  0  0  0  0  0  0  0  0  0  0
  1 34  1  0  0  0  0
  1 35  1  0  0  0  0
  1 36  1  0  0  0  0
  2  1  1  0  0  0  0
  3  2  2  0  0  0  0
  4  2  1  0  0  0  0
  4 37  1  0  0  0  0
  5  8  1  0  0  0  0
  5  4  1  0  0  0  0
  5 38  1  1  0  0  0
  6  5  1  0  0  0  0
  7  6  2  0  0  0  0
  8 39  1  0  0  0  0
  8 40  1  0  0  0  0
  9  8  1  0  0  0  0
  9 41  1  0  0  0  0
 10  6  1  0  0  0  0
 10 42  1  0  0  0  0
 11 12  1  0  0  0  0
 11 10  1  0  0  0  0
 11 43  1  6  0  0  0
 12 17  1  0  0  0  0
 13 12  2  0  0  0  0
 14 11  1  0  0  0  0
 14 44  1  1  0  0  0
 15 14  1  0  0  0  0
 15 45  1  0  0  0  0
 16 14  1  0  0  0  0
 16 46  1  0  0  0  0
 16 47  1  0  0  0  0
 16 48  1  0  0  0  0
 17 18  1  0  0  0  0
 17 49  1  0  0  0  0
 18 19  1  0  0  0  0
 18 21  1  0  0  0  0
 18 50  1  6  0  0  0
 19 25  1  0  0  0  0
 20 19  2  0  0  0  0
 21 51  1  0  0  0  0
 21 52  1  0  0  0  0
 22 21  1  0  0  0  0
 22 23  1  0  0  0  0
 22 53  1  0  0  0  0
 23 54  1  0  0  0  0
 23 55  1  0  0  0  0
 23 56  1  0  0  0  0
 24 22  1  0  0  0  0
 24 57  1  0  0  0  0
 24 58  1  0  0  0  0
 24 59  1  0  0  0  0
 25 26  1  0  0  0  0
 25 60  1  0  0  0  0
 26 29  1  0  0  0  0
 26 61  1  1  0  0  0
 27 26  1  0  0  0  0
 28 27  2  0  0  0  0
 29 31  1  0  0  0  0
 29 62  1  1  0  0  0
 30 29  1  0  0  0  0
 30 63  1  0  0  0  0
 31 64  1  0  0  0  0
 31 65  1  0  0  0  0
 31 66  1  0  0  0  0
 32 27  1  0  0  0  0
 32 67  1  0  0  0  0
 33 32  1  0  0  0  0
 33 68  1  0  0  0  0
 33 69  1  0  0  0  0
 33 70  1  0  0  0  0
M  END
>  <MODEL>
       0

$$$$
selected_4mers/STLT/626_noH.pdb
 OpenBabel03042518233D

 70 69  0  0  1  0  0  0  0  0999 V2000
    4.3860   27.6530   -6.2470 C   0  0  0  0  0  0  0  0  0  0  0  0
    4.7400   28.5200   -7.4340 C   0  0  0  0  0  0  0  0  0  0  0  0
    4.2110   29.6210   -7.5890 O   0  0  0  0  0  0  0  0  0  0  0  0
    5.6710   28.0350   -8.2430 N   0  0  0  0  0  0  0  0  0  0  0  0
    6.0620   28.7370   -9.4490 C   0  0  2  0  0  0  0  0  0  0  0  0
    5.9000   27.6960  -10.5390 C   0  0  0  0  0  0  0  0  0  0  0  0
    6.3690   26.5640  -10.4030 O   0  0  0  0  0  0  0  0  0  0  0  0
    7.5120   29.1960   -9.3890 C   0  0  0  0  0  0  0  0  0  0  0  0
    7.8350   29.8680  -10.5920 O   0  0  0  0  0  0  0  0  0  0  0  0
    5.2190   28.0710  -11.6100 N   0  0  0  0  0  0  0  0  0  0  0  0
    4.9810   27.1400  -12.6950 C   0  0  2  0  0  0  0  0  0  0  0  0
    5.5830   27.6430  -13.9900 C   0  0  0  0  0  0  0  0  0  0  0  0
    5.2510   28.7360  -14.4500 O   0  0  0  0  0  0  0  0  0  0  0  0
    3.4700   26.9200  -12.9070 C   0  0  2  0  0  0  0  0  0  0  0  0
    2.9030   26.3580  -11.7180 O   0  0  0  0  0  0  0  0  0  0  0  0
    3.2260   25.9700  -14.0770 C   0  0  0  0  0  0  0  0  0  0  0  0
    6.4820   26.8420  -14.5560 N   0  0  0  0  0  0  0  0  0  0  0  0
    7.1210   27.1810  -15.8240 C   0  0  2  0  0  0  0  0  0  0  0  0
    6.3510   26.4300  -16.9060 C   0  0  0  0  0  0  0  0  0  0  0  0
    6.2380   25.2030  -16.8470 O   0  0  0  0  0  0  0  0  0  0  0  0
    8.5820   26.7290  -15.8240 C   0  0  0  0  0  0  0  0  0  0  0  0
    9.3500   26.9570  -17.1300 C   0  0  0  0  0  0  0  0  0  0  0  0
    9.5310   28.4470  -17.3670 C   0  0  0  0  0  0  0  0  0  0  0  0
   10.6990   26.2620  -17.0530 C   0  0  0  0  0  0  0  0  0  0  0  0
    5.8160   27.1600  -17.8800 N   0  0  0  0  0  0  0  0  0  0  0  0
    5.0520   26.5460  -18.9590 C   0  0  2  0  0  0  0  0  0  0  0  0
    5.7630   26.6580  -20.3100 C   0  0  0  0  0  0  0  0  0  0  0  0
    6.0570   27.7590  -20.7790 O   0  0  0  0  0  0  0  0  0  0  0  0
    3.6560   27.1910  -19.0940 C   0  0  2  0  0  0  0  0  0  0  0  0
    2.9460   27.0640  -17.8540 O   0  0  0  0  0  0  0  0  0  0  0  0
    2.8530   26.4990  -20.1950 C   0  0  0  0  0  0  0  0  0  0  0  0
    6.0260   25.5100  -20.9280 N   0  0  0  0  0  0  0  0  0  0  0  0
    6.6940   25.4640  -22.2260 C   0  0  0  0  0  0  0  0  0  0  0  0
    4.9471   26.7430   -6.2901 H   0  0  0  0  0  0  0  0  0  0  0  0
    3.3400   27.4285   -6.2686 H   0  0  0  0  0  0  0  0  0  0  0  0
    4.6203   28.1740   -5.3423 H   0  0  0  0  0  0  0  0  0  0  0  0
    6.1059   27.1803   -8.0201 H   0  0  0  0  0  0  0  0  0  0  0  0
    5.4774   29.6197   -9.6039 H   0  0  0  0  0  0  0  0  0  0  0  0
    7.6435   29.8607   -8.5608 H   0  0  0  0  0  0  0  0  0  0  0  0
    8.1536   28.3486   -9.2659 H   0  0  0  0  0  0  0  0  0  0  0  0
    7.2516   30.6354  -10.7004 H   0  0  0  0  0  0  0  0  0  0  0  0
    4.8712   28.9900  -11.6702 H   0  0  0  0  0  0  0  0  0  0  0  0
    5.4460   26.2154  -12.4235 H   0  0  0  0  0  0  0  0  0  0  0  0
    3.0115   27.8620  -13.1246 H   0  0  0  0  0  0  0  0  0  0  0  0
    3.3254   25.5052  -11.5302 H   0  0  0  0  0  0  0  0  0  0  0  0
    3.6810   25.0241  -13.8693 H   0  0  0  0  0  0  0  0  0  0  0  0
    3.6527   26.3833  -14.9670 H   0  0  0  0  0  0  0  0  0  0  0  0
    2.1733   25.8369  -14.2148 H   0  0  0  0  0  0  0  0  0  0  0  0
    6.7225   25.9989  -14.1081 H   0  0  0  0  0  0  0  0  0  0  0  0
    7.1076   28.2381  -15.9892 H   0  0  0  0  0  0  0  0  0  0  0  0
    9.0903   27.2608  -15.0470 H   0  0  0  0  0  0  0  0  0  0  0  0
    8.5584   25.6688  -15.6818 H   0  0  0  0  0  0  0  0  0  0  0  0
    8.7960   26.5469  -17.9485 H   0  0  0  0  0  0  0  0  0  0  0  0
   10.0841   28.8726  -16.5559 H   0  0  0  0  0  0  0  0  0  0  0  0
    8.5719   28.9172  -17.4303 H   0  0  0  0  0  0  0  0  0  0  0  0
   10.0645   28.6004  -18.2818 H   0  0  0  0  0  0  0  0  0  0  0  0
   11.2617   26.6649  -16.2370 H   0  0  0  0  0  0  0  0  0  0  0  0
   11.2335   26.4185  -17.9666 H   0  0  0  0  0  0  0  0  0  0  0  0
   10.5517   25.2131  -16.9012 H   0  0  0  0  0  0  0  0  0  0  0  0
    5.9386   28.1368  -17.8723 H   0  0  0  0  0  0  0  0  0  0  0  0
    4.9565   25.5126  -18.6986 H   0  0  0  0  0  0  0  0  0  0  0  0
    3.7810   28.2240  -19.3433 H   0  0  0  0  0  0  0  0  0  0  0  0
    2.8384   26.1245  -17.6378 H   0  0  0  0  0  0  0  0  0  0  0  0
    2.7265   25.4656  -19.9483 H   0  0  0  0  0  0  0  0  0  0  0  0
    3.3767   26.5823  -21.1244 H   0  0  0  0  0  0  0  0  0  0  0  0
    1.8937   26.9647  -20.2832 H   0  0  0  0  0  0  0  0  0  0  0  0
    5.7622   24.6650  -20.4971 H   0  0  0  0  0  0  0  0  0  0  0  0
    6.9106   26.4601  -22.5512 H   0  0  0  0  0  0  0  0  0  0  0  0
    6.0549   24.9870  -22.9394 H   0  0  0  0  0  0  0  0  0  0  0  0
    7.6059   24.9112  -22.1384 H   0  0  0  0  0  0  0  0  0  0  0  0
  1 34  1  0  0  0  0
  1 35  1  0  0  0  0
  1 36  1  0  0  0  0
  2  1  1  0  0  0  0
  3  2  2  0  0  0  0
  4  2  1  0  0  0  0
  4 37  1  0  0  0  0
  5  8  1  0  0  0  0
  5  4  1  0  0  0  0
  5 38  1  6  0  0  0
  6  7  2  0  0  0  0
  6  5  1  0  0  0  0
  8 39  1  0  0  0  0
  8 40  1  0  0  0  0
  9  8  1  0  0  0  0
  9 41  1  0  0  0  0
 10  6  1  0  0  0  0
 10 42  1  0  0  0  0
 11 10  1  0  0  0  0
 11 43  1  1  0  0  0
 12 11  1  0  0  0  0
 13 12  2  0  0  0  0
 14 11  1  0  0  0  0
 14 15  1  0  0  0  0
 14 44  1  6  0  0  0
 15 45  1  0  0  0  0
 16 14  1  0  0  0  0
 16 46  1  0  0  0  0
 16 47  1  0  0  0  0
 16 48  1  0  0  0  0
 17 12  1  0  0  0  0
 17 49  1  0  0  0  0
 18 17  1  0  0  0  0
 18 50  1  6  0  0  0
 19 20  2  0  0  0  0
 19 18  1  0  0  0  0
 21 18  1  0  0  0  0
 21 51  1  0  0  0  0
 21 52  1  0  0  0  0
 22 24  1  0  0  0  0
 22 21  1  0  0  0  0
 22 53  1  0  0  0  0
 23 22  1  0  0  0  0
 23 54  1  0  0  0  0
 23 55  1  0  0  0  0
 23 56  1  0  0  0  0
 24 57  1  0  0  0  0
 24 58  1  0  0  0  0
 24 59  1  0  0  0  0
 25 19  1  0  0  0  0
 25 60  1  0  0  0  0
 26 25  1  0  0  0  0
 26 61  1  1  0  0  0
 27 26  1  0  0  0  0
 28 27  2  0  0  0  0
 29 26  1  0  0  0  0
 29 30  1  0  0  0  0
 29 62  1  6  0  0  0
 30 63  1  0  0  0  0
 31 29  1  0  0  0  0
 31 64  1  0  0  0  0
 31 65  1  0  0  0  0
 31 66  1  0  0  0  0
 32 27  1  0  0  0  0
 32 67  1  0  0  0  0
 33 32  1  0  0  0  0
 33 68  1  0  0  0  0
 33 69  1  0  0  0  0
 33 70  1  0  0  0  0
M  END
>  <MODEL>
       0

$$$$
selected_4mers/STLT/627_noH.pdb
 OpenBabel03042518233D

 70 69  0  0  1  0  0  0  0  0999 V2000
   55.6870   29.9490  -35.1130 C   0  0  0  0  0  0  0  0  0  0  0  0
   56.1310   30.5260  -33.7690 C   0  0  0  0  0  0  0  0  0  0  0  0
   57.2440   30.2630  -33.3160 O   0  0  0  0  0  0  0  0  0  0  0  0
   55.2260   31.2440  -33.1060 N   0  0  0  0  0  0  0  0  0  0  0  0
   55.4770   31.8470  -31.8050 C   0  0  2  0  0  0  0  0  0  0  0  0
   54.9840   30.9990  -30.6260 C   0  0  0  0  0  0  0  0  0  0  0  0
   55.2230   31.3530  -29.4720 O   0  0  0  0  0  0  0  0  0  0  0  0
   54.7910   33.2130  -31.7170 C   0  0  0  0  0  0  0  0  0  0  0  0
   55.3410   34.1190  -32.6490 O   0  0  0  0  0  0  0  0  0  0  0  0
   54.2520   29.9200  -30.9040 N   0  0  0  0  0  0  0  0  0  0  0  0
   53.7250   29.0540  -29.8350 C   0  0  2  0  0  0  0  0  0  0  0  0
   54.6350   27.8470  -29.6300 C   0  0  0  0  0  0  0  0  0  0  0  0
   55.4750   27.5320  -30.4810 O   0  0  0  0  0  0  0  0  0  0  0  0
   52.3070   28.4800  -30.1930 C   0  0  2  0  0  0  0  0  0  0  0  0
   52.4400   27.5790  -31.3040 O   0  0  0  0  0  0  0  0  0  0  0  0
   51.3430   29.5940  -30.5780 C   0  0  0  0  0  0  0  0  0  0  0  0
   54.4260   27.1440  -28.5200 N   0  0  0  0  0  0  0  0  0  0  0  0
   55.2060   25.9570  -28.2050 C   0  0  2  0  0  0  0  0  0  0  0  0
   55.0100   24.8230  -29.2180 C   0  0  0  0  0  0  0  0  0  0  0  0
   55.9750   24.1960  -29.6510 O   0  0  0  0  0  0  0  0  0  0  0  0
   54.8330   25.4540  -26.8060 C   0  0  0  0  0  0  0  0  0  0  0  0
   55.5200   24.1560  -26.3800 C   0  0  0  0  0  0  0  0  0  0  0  0
   56.9770   24.1300  -26.8680 C   0  0  0  0  0  0  0  0  0  0  0  0
   55.4510   24.0480  -24.8540 C   0  0  0  0  0  0  0  0  0  0  0  0
   53.7560   24.5620  -29.5970 N   0  0  0  0  0  0  0  0  0  0  0  0
   53.4640   23.4940  -30.5620 C   0  0  2  0  0  0  0  0  0  0  0  0
   53.7500   23.8720  -32.0150 C   0  0  0  0  0  0  0  0  0  0  0  0
   53.9090   22.9960  -32.8640 O   0  0  0  0  0  0  0  0  0  0  0  0
   51.9790   23.0580  -30.5000 C   0  0  2  0  0  0  0  0  0  0  0  0
   51.1630   24.1690  -30.8650 O   0  0  0  0  0  0  0  0  0  0  0  0
   51.5820   22.5710  -29.0560 C   0  0  0  0  0  0  0  0  0  0  0  0
   53.8340   25.1720  -32.2970 N   0  0  0  0  0  0  0  0  0  0  0  0
   54.0660   25.6930  -33.6450 C   0  0  0  0  0  0  0  0  0  0  0  0
   56.4934   29.3961  -35.5477 H   0  0  0  0  0  0  0  0  0  0  0  0
   55.4073   30.7469  -35.7688 H   0  0  0  0  0  0  0  0  0  0  0  0
   54.8495   29.3001  -34.9634 H   0  0  0  0  0  0  0  0  0  0  0  0
   54.3410   31.3737  -33.5173 H   0  0  0  0  0  0  0  0  0  0  0  0
   56.5409   31.9317  -31.7288 H   0  0  0  0  0  0  0  0  0  0  0  0
   53.7472   33.0936  -31.9199 H   0  0  0  0  0  0  0  0  0  0  0  0
   54.9404   33.6054  -30.7328 H   0  0  0  0  0  0  0  0  0  0  0  0
   55.2130   33.7762  -33.5474 H   0  0  0  0  0  0  0  0  0  0  0  0
   54.0596   29.6972  -31.8435 H   0  0  0  0  0  0  0  0  0  0  0  0
   53.6696   29.6635  -28.9573 H   0  0  0  0  0  0  0  0  0  0  0  0
   51.9175   27.9746  -29.3341 H   0  0  0  0  0  0  0  0  0  0  0  0
   52.7940   28.0590  -32.0690 H   0  0  0  0  0  0  0  0  0  0  0  0
   51.7188   30.1099  -31.4368 H   0  0  0  0  0  0  0  0  0  0  0  0
   51.2475   30.2806  -29.7629 H   0  0  0  0  0  0  0  0  0  0  0  0
   50.3853   29.1743  -30.8049 H   0  0  0  0  0  0  0  0  0  0  0  0
   53.7239   27.4352  -27.8943 H   0  0  0  0  0  0  0  0  0  0  0  0
   56.2363   26.2431  -28.2453 H   0  0  0  0  0  0  0  0  0  0  0  0
   53.7755   25.2927  -26.7826 H   0  0  0  0  0  0  0  0  0  0  0  0
   55.1641   26.2058  -26.1204 H   0  0  0  0  0  0  0  0  0  0  0  0
   55.0208   23.3183  -26.8205 H   0  0  0  0  0  0  0  0  0  0  0  0
   57.5093   24.9568  -26.4460 H   0  0  0  0  0  0  0  0  0  0  0  0
   56.9969   24.2004  -27.9355 H   0  0  0  0  0  0  0  0  0  0  0  0
   57.4393   23.2147  -26.5623 H   0  0  0  0  0  0  0  0  0  0  0  0
   55.9504   24.8859  -24.4142 H   0  0  0  0  0  0  0  0  0  0  0  0
   55.9272   23.1432  -24.5386 H   0  0  0  0  0  0  0  0  0  0  0  0
   54.4272   24.0394  -24.5430 H   0  0  0  0  0  0  0  0  0  0  0  0
   53.0162   25.0936  -29.2238 H   0  0  0  0  0  0  0  0  0  0  0  0
   54.1201   22.7002  -30.2715 H   0  0  0  0  0  0  0  0  0  0  0  0
   51.8329   22.2410  -31.1753 H   0  0  0  0  0  0  0  0  0  0  0  0
   51.3105   24.8972  -30.2414 H   0  0  0  0  0  0  0  0  0  0  0  0
   51.7193   23.3714  -28.3593 H   0  0  0  0  0  0  0  0  0  0  0  0
   52.2007   21.7442  -28.7758 H   0  0  0  0  0  0  0  0  0  0  0  0
   50.5563   22.2664  -29.0518 H   0  0  0  0  0  0  0  0  0  0  0  0
   53.7347   25.8162  -31.5592 H   0  0  0  0  0  0  0  0  0  0  0  0
   54.1521   24.8777  -34.3326 H   0  0  0  0  0  0  0  0  0  0  0  0
   54.9700   26.2654  -33.6555 H   0  0  0  0  0  0  0  0  0  0  0  0
   53.2455   26.3168  -33.9324 H   0  0  0  0  0  0  0  0  0  0  0  0
  1  2  1  0  0  0  0
  1 34  1  0  0  0  0
  1 35  1  0  0  0  0
  1 36  1  0  0  0  0
  2  3  2  0  0  0  0
  2  4  1  0  0  0  0
  4  5  1  0  0  0  0
  4 37  1  0  0  0  0
  5  8  1  0  0  0  0
  5  6  1  0  0  0  0
  5 38  1  1  0  0  0
  6  7  2  0  0  0  0
  8 39  1  0  0  0  0
  8 40  1  0  0  0  0
  9  8  1  0  0  0  0
  9 41  1  0  0  0  0
 10  6  1  0  0  0  0
 10 11  1  0  0  0  0
 10 42  1  0  0  0  0
 11 12  1  0  0  0  0
 11 43  1  1  0  0  0
 12 17  1  0  0  0  0
 13 12  2  0  0  0  0
 14 11  1  0  0  0  0
 14 44  1  1  0  0  0
 15 14  1  0  0  0  0
 15 45  1  0  0  0  0
 16 14  1  0  0  0  0
 16 46  1  0  0  0  0
 16 47  1  0  0  0  0
 16 48  1  0  0  0  0
 17 18  1  0  0  0  0
 17 49  1  0  0  0  0
 18 21  1  0  0  0  0
 18 50  1  1  0  0  0
 19 18  1  0  0  0  0
 20 19  2  0  0  0  0
 21 22  1  0  0  0  0
 21 51  1  0  0  0  0
 21 52  1  0  0  0  0
 22 24  1  0  0  0  0
 22 53  1  0  0  0  0
 23 22  1  0  0  0  0
 23 54  1  0  0  0  0
 23 55  1  0  0  0  0
 23 56  1  0  0  0  0
 24 57  1  0  0  0  0
 24 58  1  0  0  0  0
 24 59  1  0  0  0  0
 25 19  1  0  0  0  0
 25 60  1  0  0  0  0
 26 29  1  0  0  0  0
 26 25  1  0  0  0  0
 26 61  1  1  0  0  0
 27 26  1  0  0  0  0
 28 27  2  0  0  0  0
 29 31  1  0  0  0  0
 29 62  1  6  0  0  0
 30 29  1  0  0  0  0
 30 63  1  0  0  0  0
 31 64  1  0  0  0  0
 31 65  1  0  0  0  0
 31 66  1  0  0  0  0
 32 27  1  0  0  0  0
 32 67  1  0  0  0  0
 33 32  1  0  0  0  0
 33 68  1  0  0  0  0
 33 69  1  0  0  0  0
 33 70  1  0  0  0  0
M  END
>  <MODEL>
       0

$$$$
selected_4mers/STLT/628_noH.pdb
 OpenBabel03042518233D

 70 69  0  0  1  0  0  0  0  0999 V2000
   -3.6800   24.5940  -31.3130 C   0  0  0  0  0  0  0  0  0  0  0  0
   -5.0750   24.1550  -30.8680 C   0  0  0  0  0  0  0  0  0  0  0  0
   -5.2440   23.0640  -30.3310 O   0  0  0  0  0  0  0  0  0  0  0  0
   -6.0610   25.0220  -31.0580 N   0  0  0  0  0  0  0  0  0  0  0  0
   -7.4190   24.7510  -30.5870 C   0  0  2  0  0  0  0  0  0  0  0  0
   -8.0430   23.5400  -31.2510 C   0  0  0  0  0  0  0  0  0  0  0  0
   -8.8990   22.8990  -30.6700 O   0  0  0  0  0  0  0  0  0  0  0  0
   -8.2940   25.9740  -30.7630 C   0  0  0  0  0  0  0  0  0  0  0  0
   -7.8520   26.9920  -29.8610 O   0  0  0  0  0  0  0  0  0  0  0  0
   -7.5480   23.1940  -32.4300 N   0  0  0  0  0  0  0  0  0  0  0  0
   -7.9990   22.0180  -33.1500 C   0  0  2  0  0  0  0  0  0  0  0  0
   -7.4410   20.6970  -32.5760 C   0  0  0  0  0  0  0  0  0  0  0  0
   -7.9210   19.6240  -32.9260 O   0  0  0  0  0  0  0  0  0  0  0  0
   -7.6370   22.1430  -34.6650 C   0  0  2  0  0  0  0  0  0  0  0  0
   -6.2300   21.9720  -34.8630 O   0  0  0  0  0  0  0  0  0  0  0  0
   -8.0530   23.5110  -35.2230 C   0  0  0  0  0  0  0  0  0  0  0  0
   -6.4630   20.7700  -31.6700 N   0  0  0  0  0  0  0  0  0  0  0  0
   -5.6370   19.5980  -31.3260 C   0  0  2  0  0  0  0  0  0  0  0  0
   -5.9810   18.9900  -29.9730 C   0  0  0  0  0  0  0  0  0  0  0  0
   -6.0760   19.6970  -28.9840 O   0  0  0  0  0  0  0  0  0  0  0  0
   -4.1470   19.9810  -31.3140 C   0  0  0  0  0  0  0  0  0  0  0  0
   -3.5760   20.6350  -32.5830 C   0  0  0  0  0  0  0  0  0  0  0  0
   -2.0820   20.8130  -32.4710 C   0  0  0  0  0  0  0  0  0  0  0  0
   -3.9090   19.8280  -33.8200 C   0  0  0  0  0  0  0  0  0  0  0  0
   -6.1150   17.6770  -29.9400 N   0  0  0  0  0  0  0  0  0  0  0  0
   -6.2690   16.9480  -28.6890 C   0  0  2  0  0  0  0  0  0  0  0  0
   -4.8990   16.5070  -28.1810 C   0  0  0  0  0  0  0  0  0  0  0  0
   -3.9220   16.5980  -28.9010 O   0  0  0  0  0  0  0  0  0  0  0  0
   -7.0920   15.6800  -28.8950 C   0  0  2  0  0  0  0  0  0  0  0  0
   -6.3460   14.7690  -29.7030 O   0  0  0  0  0  0  0  0  0  0  0  0
   -8.4230   15.9910  -29.5710 C   0  0  0  0  0  0  0  0  0  0  0  0
   -4.8540   15.9260  -26.9880 N   0  0  0  0  0  0  0  0  0  0  0  0
   -3.6130   15.3610  -26.4640 C   0  0  0  0  0  0  0  0  0  0  0  0
   -3.7365   25.5664  -31.7559 H   0  0  0  0  0  0  0  0  0  0  0  0
   -3.2985   23.8972  -32.0298 H   0  0  0  0  0  0  0  0  0  0  0  0
   -3.0286   24.6257  -30.4648 H   0  0  0  0  0  0  0  0  0  0  0  0
   -5.8744   25.8673  -31.5268 H   0  0  0  0  0  0  0  0  0  0  0  0
   -7.3462   24.5203  -29.5447 H   0  0  0  0  0  0  0  0  0  0  0  0
   -9.3116   25.7216  -30.5493 H   0  0  0  0  0  0  0  0  0  0  0  0
   -8.2258   26.3272  -31.7707 H   0  0  0  0  0  0  0  0  0  0  0  0
   -7.9160   26.6664  -28.9495 H   0  0  0  0  0  0  0  0  0  0  0  0
   -6.8475   23.7562  -32.8329 H   0  0  0  0  0  0  0  0  0  0  0  0
   -9.0615   21.9764  -33.0305 H   0  0  0  0  0  0  0  0  0  0  0  0
   -8.1706   21.3746  -35.1844 H   0  0  0  0  0  0  0  0  0  0  0  0
   -5.7498   22.6702  -34.3908 H   0  0  0  0  0  0  0  0  0  0  0  0
   -7.5219   24.2832  -34.7067 H   0  0  0  0  0  0  0  0  0  0  0  0
   -9.1051   23.6477  -35.0845 H   0  0  0  0  0  0  0  0  0  0  0  0
   -7.8219   23.5557  -36.2668 H   0  0  0  0  0  0  0  0  0  0  0  0
   -6.2889   21.6282  -31.2202 H   0  0  0  0  0  0  0  0  0  0  0  0
   -5.8441   18.8663  -32.0788 H   0  0  0  0  0  0  0  0  0  0  0  0
   -3.9977   20.6651  -30.5050 H   0  0  0  0  0  0  0  0  0  0  0  0
   -3.6253   19.0509  -31.2262 H   0  0  0  0  0  0  0  0  0  0  0  0
   -4.0331   21.5978  -32.6776 H   0  0  0  0  0  0  0  0  0  0  0  0
   -1.6148   19.8551  -32.3759 H   0  0  0  0  0  0  0  0  0  0  0  0
   -1.8571   21.4066  -31.6096 H   0  0  0  0  0  0  0  0  0  0  0  0
   -1.7145   21.3035  -33.3480 H   0  0  0  0  0  0  0  0  0  0  0  0
   -3.4604   18.8594  -33.7454 H   0  0  0  0  0  0  0  0  0  0  0  0
   -3.5312   20.3303  -34.6859 H   0  0  0  0  0  0  0  0  0  0  0  0
   -4.9707   19.7239  -33.9028 H   0  0  0  0  0  0  0  0  0  0  0  0
   -6.1107   17.1754  -30.7872 H   0  0  0  0  0  0  0  0  0  0  0  0
   -6.7567   17.5991  -27.9939 H   0  0  0  0  0  0  0  0  0  0  0  0
   -7.2987   15.2457  -27.9392 H   0  0  0  0  0  0  0  0  0  0  0  0
   -6.1657   15.1747  -30.5654 H   0  0  0  0  0  0  0  0  0  0  0  0
   -8.2420   16.4273  -30.5311 H   0  0  0  0  0  0  0  0  0  0  0  0
   -8.9784   16.6772  -28.9664 H   0  0  0  0  0  0  0  0  0  0  0  0
   -8.9825   15.0867  -29.6899 H   0  0  0  0  0  0  0  0  0  0  0  0
   -5.6739   15.8749  -26.4454 H   0  0  0  0  0  0  0  0  0  0  0  0
   -2.8278   15.5022  -27.1770 H   0  0  0  0  0  0  0  0  0  0  0  0
   -3.7461   14.3149  -26.2825 H   0  0  0  0  0  0  0  0  0  0  0  0
   -3.3561   15.8520  -25.5487 H   0  0  0  0  0  0  0  0  0  0  0  0
  1  2  1  0  0  0  0
  1 34  1  0  0  0  0
  1 35  1  0  0  0  0
  1 36  1  0  0  0  0
  2  3  2  0  0  0  0
  4  2  1  0  0  0  0
  4  5  1  0  0  0  0
  4 37  1  0  0  0  0
  5 38  1  1  0  0  0
  6  7  2  0  0  0  0
  6  5  1  0  0  0  0
  8  5  1  0  0  0  0
  8  9  1  0  0  0  0
  8 39  1  0  0  0  0
  8 40  1  0  0  0  0
  9 41  1  0  0  0  0
 10  6  1  0  0  0  0
 10 42  1  0  0  0  0
 11 12  1  0  0  0  0
 11 10  1  0  0  0  0
 11 43  1  1  0  0  0
 12 17  1  0  0  0  0
 13 12  2  0  0  0  0
 14 11  1  0  0  0  0
 14 44  1  6  0  0  0
 15 14  1  0  0  0  0
 15 45  1  0  0  0  0
 16 14  1  0  0  0  0
 16 46  1  0  0  0  0
 16 47  1  0  0  0  0
 16 48  1  0  0  0  0
 17 18  1  0  0  0  0
 17 49  1  0  0  0  0
 18 21  1  0  0  0  0
 18 19  1  0  0  0  0
 18 50  1  6  0  0  0
 19 25  1  0  0  0  0
 19 20  2  0  0  0  0
 21 51  1  0  0  0  0
 21 52  1  0  0  0  0
 22 23  1  0  0  0  0
 22 21  1  0  0  0  0
 22 53  1  0  0  0  0
 23 54  1  0  0  0  0
 23 55  1  0  0  0  0
 23 56  1  0  0  0  0
 24 22  1  0  0  0  0
 24 57  1  0  0  0  0
 24 58  1  0  0  0  0
 24 59  1  0  0  0  0
 25 26  1  0  0  0  0
 25 60  1  0  0  0  0
 26 27  1  0  0  0  0
 26 61  1  1  0  0  0
 27 32  1  0  0  0  0
 28 27  2  0  0  0  0
 29 26  1  0  0  0  0
 29 62  1  1  0  0  0
 30 29  1  0  0  0  0
 30 63  1  0  0  0  0
 31 29  1  0  0  0  0
 31 64  1  0  0  0  0
 31 65  1  0  0  0  0
 31 66  1  0  0  0  0
 32 33  1  0  0  0  0
 32 67  1  0  0  0  0
 33 68  1  0  0  0  0
 33 69  1  0  0  0  0
 33 70  1  0  0  0  0
M  END
>  <MODEL>
       0

$$$$
selected_4mers/STLT/629_noH.pdb
 OpenBabel03042518233D

 70 69  0  0  1  0  0  0  0  0999 V2000
    0.8380    0.4960    4.0710 C   0  0  0  0  0  0  0  0  0  0  0  0
    2.2610    0.6890    4.5920 C   0  0  0  0  0  0  0  0  0  0  0  0
    2.6310    1.7910    4.9520 O   0  0  0  0  0  0  0  0  0  0  0  0
    3.0490   -0.3700    4.6210 N   0  0  0  0  0  0  0  0  0  0  0  0
    4.4200   -0.3270    5.1410 C   0  0  2  0  0  0  0  0  0  0  0  0
    4.4830    0.3230    6.5180 C   0  0  0  0  0  0  0  0  0  0  0  0
    5.3670    1.1440    6.7970 O   0  0  0  0  0  0  0  0  0  0  0  0
    5.3600    0.4000    4.1830 C   0  0  0  0  0  0  0  0  0  0  0  0
    5.3190   -0.1830    2.8980 O   0  0  0  0  0  0  0  0  0  0  0  0
    3.5520   -0.0460    7.3760 N   0  0  0  0  0  0  0  0  0  0  0  0
    3.4200    0.5800    8.6730 C   0  0  2  0  0  0  0  0  0  0  0  0
    3.4660   -0.4220    9.8020 C   0  0  0  0  0  0  0  0  0  0  0  0
    2.8100   -1.4630    9.7470 O   0  0  0  0  0  0  0  0  0  0  0  0
    2.0860    1.3120    8.7400 C   0  0  2  0  0  0  0  0  0  0  0  0
    2.0630    2.3200    7.7210 O   0  0  0  0  0  0  0  0  0  0  0  0
    1.8990    1.9880   10.0930 C   0  0  0  0  0  0  0  0  0  0  0  0
    4.2760   -0.1170   10.7930 N   0  0  0  0  0  0  0  0  0  0  0  0
    4.3490   -0.8580   12.0220 C   0  0  2  0  0  0  0  0  0  0  0  0
    3.5360   -0.1320   13.0590 C   0  0  0  0  0  0  0  0  0  0  0  0
    3.8360    1.0150   13.3620 O   0  0  0  0  0  0  0  0  0  0  0  0
    5.7780   -0.9760   12.4940 C   0  0  0  0  0  0  0  0  0  0  0  0
    5.9350   -1.9070   13.6910 C   0  0  0  0  0  0  0  0  0  0  0  0
    5.9430   -3.3670   13.2810 C   0  0  0  0  0  0  0  0  0  0  0  0
    7.1840   -1.5680   14.4650 C   0  0  0  0  0  0  0  0  0  0  0  0
    2.4640   -0.7230   13.5500 N   0  0  0  0  0  0  0  0  0  0  0  0
    1.6520   -0.1300   14.5710 C   0  0  2  0  0  0  0  0  0  0  0  0
    2.0110   -0.7330   15.9120 C   0  0  0  0  0  0  0  0  0  0  0  0
    1.9670   -1.9640   16.0550 O   0  0  0  0  0  0  0  0  0  0  0  0
    0.1790   -0.3480   14.2800 C   0  0  2  0  0  0  0  0  0  0  0  0
   -0.1500    0.2520   13.0160 O   0  0  0  0  0  0  0  0  0  0  0  0
   -0.6820    0.2150   15.3700 C   0  0  0  0  0  0  0  0  0  0  0  0
    2.4460    0.1060   16.8470 N   0  0  0  0  0  0  0  0  0  0  0  0
    2.8250   -0.3300   18.1650 C   0  0  0  0  0  0  0  0  0  0  0  0
    0.6924   -0.5296    3.8030 H   0  0  0  0  0  0  0  0  0  0  0  0
    0.6861    1.1144    3.2111 H   0  0  0  0  0  0  0  0  0  0  0  0
    0.1389    0.7680    4.8340 H   0  0  0  0  0  0  0  0  0  0  0  0
    2.7015   -1.2253    4.2789 H   0  0  0  0  0  0  0  0  0  0  0  0
    4.7427   -1.3431    5.2324 H   0  0  0  0  0  0  0  0  0  0  0  0
    5.0634    1.4256    4.1120 H   0  0  0  0  0  0  0  0  0  0  0  0
    6.3583    0.3250    4.5608 H   0  0  0  0  0  0  0  0  0  0  0  0
    4.4181   -0.1215    2.5437 H   0  0  0  0  0  0  0  0  0  0  0  0
    2.9299   -0.7672    7.1268 H   0  0  0  0  0  0  0  0  0  0  0  0
    4.2440    1.2528    8.7880 H   0  0  0  0  0  0  0  0  0  0  0  0
    1.2992    0.6009    8.5981 H   0  0  0  0  0  0  0  0  0  0  0  0
    2.7847    2.9500    7.8731 H   0  0  0  0  0  0  0  0  0  0  0  0
    2.6810    2.7021   10.2461 H   0  0  0  0  0  0  0  0  0  0  0  0
    1.9326    1.2507   10.8677 H   0  0  0  0  0  0  0  0  0  0  0  0
    0.9521    2.4858   10.1152 H   0  0  0  0  0  0  0  0  0  0  0  0
    4.8660    0.6639   10.6863 H   0  0  0  0  0  0  0  0  0  0  0  0
    3.9676   -1.8453   11.8646 H   0  0  0  0  0  0  0  0  0  0  0  0
    6.1272   -0.0031   12.7706 H   0  0  0  0  0  0  0  0  0  0  0  0
    6.3478   -1.3909   11.6889 H   0  0  0  0  0  0  0  0  0  0  0  0
    5.0841   -1.7588   14.3226 H   0  0  0  0  0  0  0  0  0  0  0  0
    6.7834   -3.5545   12.6458 H   0  0  0  0  0  0  0  0  0  0  0  0
    5.0399   -3.5945   12.7541 H   0  0  0  0  0  0  0  0  0  0  0  0
    6.0113   -3.9822   14.1538 H   0  0  0  0  0  0  0  0  0  0  0  0
    8.0409   -1.7134   13.8409 H   0  0  0  0  0  0  0  0  0  0  0  0
    7.2556   -2.2036   15.3228 H   0  0  0  0  0  0  0  0  0  0  0  0
    7.1418   -0.5465   14.7806 H   0  0  0  0  0  0  0  0  0  0  0  0
    2.2113   -1.6080   13.2006 H   0  0  0  0  0  0  0  0  0  0  0  0
    1.8361    0.9238   14.5912 H   0  0  0  0  0  0  0  0  0  0  0  0
   -0.0092   -1.4004   14.2355 H   0  0  0  0  0  0  0  0  0  0  0  0
    0.0207    1.2060   13.0567 H   0  0  0  0  0  0  0  0  0  0  0  0
   -0.5196    1.2700   15.4438 H   0  0  0  0  0  0  0  0  0  0  0  0
   -0.4301   -0.2505   16.2999 H   0  0  0  0  0  0  0  0  0  0  0  0
   -1.7110    0.0274   15.1445 H   0  0  0  0  0  0  0  0  0  0  0  0
    2.5115    1.0638   16.6290 H   0  0  0  0  0  0  0  0  0  0  0  0
    2.6971   -1.3896   18.2407 H   0  0  0  0  0  0  0  0  0  0  0  0
    2.2092    0.1564   18.8924 H   0  0  0  0  0  0  0  0  0  0  0  0
    3.8505   -0.0810   18.3419 H   0  0  0  0  0  0  0  0  0  0  0  0
  1  2  1  0  0  0  0
  1 34  1  0  0  0  0
  1 35  1  0  0  0  0
  1 36  1  0  0  0  0
  2  4  1  0  0  0  0
  2  3  2  0  0  0  0
  4  5  1  0  0  0  0
  4 37  1  0  0  0  0
  5  6  1  0  0  0  0
  5 38  1  1  0  0  0
  6  7  2  0  0  0  0
  6 10  1  0  0  0  0
  8  5  1  0  0  0  0
  8 39  1  0  0  0  0
  8 40  1  0  0  0  0
  9  8  1  0  0  0  0
  9 41  1  0  0  0  0
 10 11  1  0  0  0  0
 10 42  1  0  0  0  0
 11 14  1  0  0  0  0
 11 12  1  0  0  0  0
 11 43  1  1  0  0  0
 12 17  1  0  0  0  0
 13 12  2  0  0  0  0
 14 16  1  0  0  0  0
 14 44  1  6  0  0  0
 15 14  1  0  0  0  0
 15 45  1  0  0  0  0
 16 46  1  0  0  0  0
 16 47  1  0  0  0  0
 16 48  1  0  0  0  0
 17 18  1  0  0  0  0
 17 49  1  0  0  0  0
 18 21  1  0  0  0  0
 18 19  1  0  0  0  0
 18 50  1  6  0  0  0
 19 20  2  0  0  0  0
 19 25  1  0  0  0  0
 21 22  1  0  0  0  0
 21 51  1  0  0  0  0
 21 52  1  0  0  0  0
 22 24  1  0  0  0  0
 22 53  1  0  0  0  0
 23 22  1  0  0  0  0
 23 54  1  0  0  0  0
 23 55  1  0  0  0  0
 23 56  1  0  0  0  0
 24 57  1  0  0  0  0
 24 58  1  0  0  0  0
 24 59  1  0  0  0  0
 25 26  1  0  0  0  0
 25 60  1  0  0  0  0
 26 27  1  0  0  0  0
 26 61  1  1  0  0  0
 27 28  2  0  0  0  0
 27 32  1  0  0  0  0
 29 26  1  0  0  0  0
 29 31  1  0  0  0  0
 29 62  1  6  0  0  0
 30 29  1  0  0  0  0
 30 63  1  0  0  0  0
 31 64  1  0  0  0  0
 31 65  1  0  0  0  0
 31 66  1  0  0  0  0
 32 33  1  0  0  0  0
 32 67  1  0  0  0  0
 33 68  1  0  0  0  0
 33 69  1  0  0  0  0
 33 70  1  0  0  0  0
M  END
>  <MODEL>
       0

$$$$
