selected_4mers/TAAA/840_noH.pdb
 OpenBabel03042518353D

 56 55  0  0  1  0  0  0  0  0999 V2000
   68.0380   59.4680    1.9730 C   0  0  0  0  0  0  0  0  0  0  0  0
   69.4430   59.2970    2.5430 C   0  0  0  0  0  0  0  0  0  0  0  0
   70.3500   58.8520    1.8430 O   0  0  0  0  0  0  0  0  0  0  0  0
   69.6260   59.6540    3.8100 N   0  0  0  0  0  0  0  0  0  0  0  0
   70.9360   59.5190    4.4310 C   0  0  2  0  0  0  0  0  0  0  0  0
   71.2910   58.0490    4.6260 C   0  0  0  0  0  0  0  0  0  0  0  0
   72.4160   57.6400    4.3460 O   0  0  0  0  0  0  0  0  0  0  0  0
   70.9950   60.2600    5.7740 C   0  0  2  0  0  0  0  0  0  0  0  0
   70.8440   61.6670    5.5400 O   0  0  0  0  0  0  0  0  0  0  0  0
   72.3290   60.0170    6.4620 C   0  0  0  0  0  0  0  0  0  0  0  0
   70.3370   57.2500    5.0950 N   0  0  0  0  0  0  0  0  0  0  0  0
   70.6000   55.8260    5.2770 C   0  0  2  0  0  0  0  0  0  0  0  0
   70.9440   55.2150    3.9140 C   0  0  0  0  0  0  0  0  0  0  0  0
   71.8700   54.4140    3.7960 O   0  0  0  0  0  0  0  0  0  0  0  0
   69.3760   55.1280    5.8790 C   0  0  0  0  0  0  0  0  0  0  0  0
   70.1920   55.6000    2.8870 N   0  0  0  0  0  0  0  0  0  0  0  0
   70.4210   55.0900    1.5350 C   0  0  2  0  0  0  0  0  0  0  0  0
   71.7910   55.4950    0.9990 C   0  0  0  0  0  0  0  0  0  0  0  0
   72.4480   54.7180    0.3100 O   0  0  0  0  0  0  0  0  0  0  0  0
   69.3300   55.5940    0.5920 C   0  0  0  0  0  0  0  0  0  0  0  0
   72.2150   56.7140    1.3190 N   0  0  0  0  0  0  0  0  0  0  0  0
   73.5090   57.2190    0.8700 C   0  0  2  0  0  0  0  0  0  0  0  0
   74.6210   56.3660    1.4660 C   0  0  0  0  0  0  0  0  0  0  0  0
   75.6300   56.0900    0.8150 O   0  0  0  0  0  0  0  0  0  0  0  0
   73.6760   58.6710    1.2920 C   0  0  0  0  0  0  0  0  0  0  0  0
   74.4280   55.9450    2.7110 N   0  0  0  0  0  0  0  0  0  0  0  0
   75.4170   55.1180    3.3810 C   0  0  0  0  0  0  0  0  0  0  0  0
   68.0256   59.1466    0.9525 H   0  0  0  0  0  0  0  0  0  0  0  0
   67.7546   60.4984    2.0259 H   0  0  0  0  0  0  0  0  0  0  0  0
   67.3486   58.8789    2.5409 H   0  0  0  0  0  0  0  0  0  0  0  0
   68.8716   60.0117    4.3316 H   0  0  0  0  0  0  0  0  0  0  0  0
   71.6536   59.9627    3.7730 H   0  0  0  0  0  0  0  0  0  0  0  0
   70.2083   59.8971    6.4019 H   0  0  0  0  0  0  0  0  0  0  0  0
   71.5641   61.9791    4.9700 H   0  0  0  0  0  0  0  0  0  0  0  0
   73.1218   60.3773    5.8403 H   0  0  0  0  0  0  0  0  0  0  0  0
   72.4571   58.9683    6.6315 H   0  0  0  0  0  0  0  0  0  0  0  0
   72.3468   60.5344    7.3984 H   0  0  0  0  0  0  0  0  0  0  0  0
   69.4525   57.6194    5.3196 H   0  0  0  0  0  0  0  0  0  0  0  0
   71.4199   55.6940    5.9518 H   0  0  0  0  0  0  0  0  0  0  0  0
   68.5396   55.2452    5.2221 H   0  0  0  0  0  0  0  0  0  0  0  0
   69.1476   55.5647    6.8287 H   0  0  0  0  0  0  0  0  0  0  0  0
   69.5861   54.0866    6.0066 H   0  0  0  0  0  0  0  0  0  0  0  0
   69.4633   56.2440    3.0402 H   0  0  0  0  0  0  0  0  0  0  0  0
   70.3903   54.0216    1.5853 H   0  0  0  0  0  0  0  0  0  0  0  0
   69.3648   56.6624    0.5450 H   0  0  0  0  0  0  0  0  0  0  0  0
   68.3728   55.2840    0.9560 H   0  0  0  0  0  0  0  0  0  0  0  0
   69.4883   55.1887   -0.3855 H   0  0  0  0  0  0  0  0  0  0  0  0
   71.6413   57.2910    1.8732 H   0  0  0  0  0  0  0  0  0  0  0  0
   73.5598   57.1660   -0.1975 H   0  0  0  0  0  0  0  0  0  0  0  0
   73.6274   58.7403    2.3586 H   0  0  0  0  0  0  0  0  0  0  0  0
   72.8940   59.2601    0.8603 H   0  0  0  0  0  0  0  0  0  0  0  0
   74.6241   59.0339    0.9539 H   0  0  0  0  0  0  0  0  0  0  0  0
   73.6034   56.1968    3.1863 H   0  0  0  0  0  0  0  0  0  0  0  0
   76.2418   54.9438    2.7220 H   0  0  0  0  0  0  0  0  0  0  0  0
   74.9744   54.1827    3.6533 H   0  0  0  0  0  0  0  0  0  0  0  0
   75.7632   55.6184    4.2611 H   0  0  0  0  0  0  0  0  0  0  0  0
  1  2  1  0  0  0  0
  1 28  1  0  0  0  0
  1 29  1  0  0  0  0
  1 30  1  0  0  0  0
  2  4  1  0  0  0  0
  3  2  2  0  0  0  0
  4  5  1  0  0  0  0
  4 31  1  0  0  0  0
  5  6  1  0  0  0  0
  5  8  1  0  0  0  0
  5 32  1  6  0  0  0
  6 11  1  0  0  0  0
  7  6  2  0  0  0  0
  8 10  1  0  0  0  0
  8 33  1  1  0  0  0
  9  8  1  0  0  0  0
  9 34  1  0  0  0  0
 10 35  1  0  0  0  0
 10 36  1  0  0  0  0
 10 37  1  0  0  0  0
 11 12  1  0  0  0  0
 11 38  1  0  0  0  0
 12 15  1  0  0  0  0
 12 39  1  1  0  0  0
 13 12  1  0  0  0  0
 14 13  2  0  0  0  0
 15 40  1  0  0  0  0
 15 41  1  0  0  0  0
 15 42  1  0  0  0  0
 16 13  1  0  0  0  0
 16 43  1  0  0  0  0
 17 16  1  0  0  0  0
 17 44  1  1  0  0  0
 18 21  1  0  0  0  0
 18 17  1  0  0  0  0
 19 18  2  0  0  0  0
 20 17  1  0  0  0  0
 20 45  1  0  0  0  0
 20 46  1  0  0  0  0
 20 47  1  0  0  0  0
 21 48  1  0  0  0  0
 22 25  1  0  0  0  0
 22 21  1  0  0  0  0
 22 23  1  0  0  0  0
 22 49  1  6  0  0  0
 23 26  1  0  0  0  0
 24 23  2  0  0  0  0
 25 50  1  0  0  0  0
 25 51  1  0  0  0  0
 25 52  1  0  0  0  0
 26 27  1  0  0  0  0
 26 53  1  0  0  0  0
 27 54  1  0  0  0  0
 27 55  1  0  0  0  0
 27 56  1  0  0  0  0
M  END
>  <MODEL>
       0

$$$$
selected_4mers/TAAA/841_noH.pdb
 OpenBabel03042518353D

 56 55  0  0  1  0  0  0  0  0999 V2000
  -16.7750  -12.3460   -1.4420 C   0  0  0  0  0  0  0  0  0  0  0  0
  -15.8070  -11.7840   -2.4630 C   0  0  0  0  0  0  0  0  0  0  0  0
  -15.3610  -10.6380   -2.3940 O   0  0  0  0  0  0  0  0  0  0  0  0
  -15.4380  -12.6410   -3.4050 N   0  0  0  0  0  0  0  0  0  0  0  0
  -14.4640  -12.3210   -4.4240 C   0  0  2  0  0  0  0  0  0  0  0  0
  -15.0410  -11.3640   -5.4640 C   0  0  0  0  0  0  0  0  0  0  0  0
  -14.2910  -10.6580   -6.1330 O   0  0  0  0  0  0  0  0  0  0  0  0
  -14.0280  -13.6190   -5.1300 C   0  0  2  0  0  0  0  0  0  0  0  0
  -15.2020  -14.2760   -5.6030 O   0  0  0  0  0  0  0  0  0  0  0  0
  -13.3440  -14.5350   -4.1470 C   0  0  0  0  0  0  0  0  0  0  0  0
  -16.3720  -11.2670   -5.5420 N   0  0  0  0  0  0  0  0  0  0  0  0
  -17.0060  -10.2970   -6.4520 C   0  0  2  0  0  0  0  0  0  0  0  0
  -16.6160   -8.8720   -6.1370 C   0  0  0  0  0  0  0  0  0  0  0  0
  -16.7170   -8.0130   -7.0040 O   0  0  0  0  0  0  0  0  0  0  0  0
  -18.5150  -10.4240   -6.4360 C   0  0  0  0  0  0  0  0  0  0  0  0
  -16.1780   -8.6250   -4.8960 N   0  0  0  0  0  0  0  0  0  0  0  0
  -15.8000   -7.2860   -4.4300 C   0  0  2  0  0  0  0  0  0  0  0  0
  -14.3420   -6.9010   -4.7320 C   0  0  0  0  0  0  0  0  0  0  0  0
  -13.8950   -5.8400   -4.3000 O   0  0  0  0  0  0  0  0  0  0  0  0
  -16.1050   -7.1650   -2.9410 C   0  0  0  0  0  0  0  0  0  0  0  0
  -13.6200   -7.6880   -5.5190 N   0  0  0  0  0  0  0  0  0  0  0  0
  -12.2800   -7.3000   -5.9410 C   0  0  2  0  0  0  0  0  0  0  0  0
  -12.2980   -5.9340   -6.5900 C   0  0  0  0  0  0  0  0  0  0  0  0
  -13.1920   -5.6570   -7.3810 O   0  0  0  0  0  0  0  0  0  0  0  0
  -11.7200   -8.3240   -6.9100 C   0  0  0  0  0  0  0  0  0  0  0  0
  -11.3760   -5.0590   -6.1920 N   0  0  0  0  0  0  0  0  0  0  0  0
  -11.2930   -3.7140   -6.7440 C   0  0  0  0  0  0  0  0  0  0  0  0
  -17.0243  -13.3532   -1.7035 H   0  0  0  0  0  0  0  0  0  0  0  0
  -17.6640  -11.7507   -1.4279 H   0  0  0  0  0  0  0  0  0  0  0  0
  -16.3204  -12.3311   -0.4735 H   0  0  0  0  0  0  0  0  0  0  0  0
  -15.8463  -13.5368   -3.4107 H   0  0  0  0  0  0  0  0  0  0  0  0
  -13.6292  -11.8464   -3.9521 H   0  0  0  0  0  0  0  0  0  0  0  0
  -13.3570  -13.3869   -5.9305 H   0  0  0  0  0  0  0  0  0  0  0  0
  -15.7870  -14.4715   -4.8543 H   0  0  0  0  0  0  0  0  0  0  0  0
  -14.0164  -14.7660   -3.3473 H   0  0  0  0  0  0  0  0  0  0  0  0
  -12.4748  -14.0507   -3.7535 H   0  0  0  0  0  0  0  0  0  0  0  0
  -13.0555  -15.4384   -4.6425 H   0  0  0  0  0  0  0  0  0  0  0  0
  -16.9355  -11.8509   -4.9845 H   0  0  0  0  0  0  0  0  0  0  0  0
  -16.6455  -10.5325   -7.4315 H   0  0  0  0  0  0  0  0  0  0  0  0
  -18.8823  -10.1897   -5.4587 H   0  0  0  0  0  0  0  0  0  0  0  0
  -18.7913  -11.4260   -6.6902 H   0  0  0  0  0  0  0  0  0  0  0  0
  -18.9376   -9.7460   -7.1478 H   0  0  0  0  0  0  0  0  0  0  0  0
  -16.1061   -9.3780   -4.2659 H   0  0  0  0  0  0  0  0  0  0  0  0
  -16.3888   -6.5862   -4.9854 H   0  0  0  0  0  0  0  0  0  0  0  0
  -15.5108   -7.8691   -2.3968 H   0  0  0  0  0  0  0  0  0  0  0  0
  -17.1420   -7.3673   -2.7717 H   0  0  0  0  0  0  0  0  0  0  0  0
  -15.8763   -6.1737   -2.6095 H   0  0  0  0  0  0  0  0  0  0  0  0
  -13.9947   -8.5464   -5.8223 H   0  0  0  0  0  0  0  0  0  0  0  0
  -11.6540   -7.2576   -5.0743 H   0  0  0  0  0  0  0  0  0  0  0  0
  -12.3425   -8.3705   -7.7790 H   0  0  0  0  0  0  0  0  0  0  0  0
  -11.6936   -9.2841   -6.4385 H   0  0  0  0  0  0  0  0  0  0  0  0
  -10.7289   -8.0397   -7.1960 H   0  0  0  0  0  0  0  0  0  0  0  0
  -10.7290   -5.3307   -5.5015 H   0  0  0  0  0  0  0  0  0  0  0  0
  -12.0617   -3.5809   -7.4763 H   0  0  0  0  0  0  0  0  0  0  0  0
  -10.3361   -3.5749   -7.2021 H   0  0  0  0  0  0  0  0  0  0  0  0
  -11.4202   -2.9979   -5.9592 H   0  0  0  0  0  0  0  0  0  0  0  0
  1 28  1  0  0  0  0
  1 29  1  0  0  0  0
  1 30  1  0  0  0  0
  2  3  2  0  0  0  0
  2  1  1  0  0  0  0
  4  2  1  0  0  0  0
  4 31  1  0  0  0  0
  5  4  1  0  0  0  0
  5 32  1  1  0  0  0
  6  5  1  0  0  0  0
  7  6  2  0  0  0  0
  8  5  1  0  0  0  0
  8 10  1  0  0  0  0
  8 33  1  6  0  0  0
  9  8  1  0  0  0  0
  9 34  1  0  0  0  0
 10 35  1  0  0  0  0
 10 36  1  0  0  0  0
 10 37  1  0  0  0  0
 11  6  1  0  0  0  0
 11 38  1  0  0  0  0
 12 15  1  0  0  0  0
 12 13  1  0  0  0  0
 12 11  1  0  0  0  0
 12 39  1  6  0  0  0
 13 16  1  0  0  0  0
 14 13  2  0  0  0  0
 15 40  1  0  0  0  0
 15 41  1  0  0  0  0
 15 42  1  0  0  0  0
 16 17  1  0  0  0  0
 16 43  1  0  0  0  0
 17 20  1  0  0  0  0
 17 44  1  6  0  0  0
 18 17  1  0  0  0  0
 18 19  2  0  0  0  0
 20 45  1  0  0  0  0
 20 46  1  0  0  0  0
 20 47  1  0  0  0  0
 21 18  1  0  0  0  0
 21 48  1  0  0  0  0
 22 21  1  0  0  0  0
 22 49  1  1  0  0  0
 23 26  1  0  0  0  0
 23 22  1  0  0  0  0
 24 23  2  0  0  0  0
 25 22  1  0  0  0  0
 25 50  1  0  0  0  0
 25 51  1  0  0  0  0
 25 52  1  0  0  0  0
 26 53  1  0  0  0  0
 27 26  1  0  0  0  0
 27 54  1  0  0  0  0
 27 55  1  0  0  0  0
 27 56  1  0  0  0  0
M  END
>  <MODEL>
       0

$$$$
selected_4mers/TAAA/842_noH.pdb
 OpenBabel03042518353D

 56 55  0  0  1  0  0  0  0  0999 V2000
  114.7930  -11.3910   32.3780 C   0  0  0  0  0  0  0  0  0  0  0  0
  116.1000  -11.8150   31.7080 C   0  0  0  0  0  0  0  0  0  0  0  0
  117.1040  -11.1120   31.8020 O   0  0  0  0  0  0  0  0  0  0  0  0
  116.0890  -12.9660   31.0380 N   0  0  0  0  0  0  0  0  0  0  0  0
  117.2930  -13.4600   30.3730 C   0  0  2  0  0  0  0  0  0  0  0  0
  117.0870  -13.7900   28.8980 C   0  0  0  0  0  0  0  0  0  0  0  0
  118.0540  -13.9940   28.1610 O   0  0  0  0  0  0  0  0  0  0  0  0
  117.8450  -14.7160   31.0820 C   0  0  2  0  0  0  0  0  0  0  0  0
  116.8630  -15.7580   31.0450 O   0  0  0  0  0  0  0  0  0  0  0  0
  118.1940  -14.4000   32.5320 C   0  0  0  0  0  0  0  0  0  0  0  0
  115.8300  -13.8450   28.4690 N   0  0  0  0  0  0  0  0  0  0  0  0
  115.5110  -14.1490   27.0780 C   0  0  2  0  0  0  0  0  0  0  0  0
  114.4620  -13.1720   26.5610 C   0  0  0  0  0  0  0  0  0  0  0  0
  113.7130  -12.5930   27.3430 O   0  0  0  0  0  0  0  0  0  0  0  0
  114.9990  -15.5810   26.9590 C   0  0  0  0  0  0  0  0  0  0  0  0
  114.4080  -12.9980   25.2430 N   0  0  0  0  0  0  0  0  0  0  0  0
  113.4530  -12.0770   24.6290 C   0  0  2  0  0  0  0  0  0  0  0  0
  112.0080  -12.3630   25.0380 C   0  0  0  0  0  0  0  0  0  0  0  0
  111.2250  -11.4390   25.2530 O   0  0  0  0  0  0  0  0  0  0  0  0
  113.5840  -12.1270   23.1080 C   0  0  0  0  0  0  0  0  0  0  0  0
  111.6550  -13.6410   25.1480 N   0  0  0  0  0  0  0  0  0  0  0  0
  110.3000  -14.0240   25.5280 C   0  0  2  0  0  0  0  0  0  0  0  0
  109.9220  -13.5260   26.9230 C   0  0  0  0  0  0  0  0  0  0  0  0
  108.7370  -13.3540   27.2230 O   0  0  0  0  0  0  0  0  0  0  0  0
  110.1480  -15.5420   25.4590 C   0  0  0  0  0  0  0  0  0  0  0  0
  110.9240  -13.2990   27.7710 N   0  0  0  0  0  0  0  0  0  0  0  0
  110.6790  -12.8270   29.1350 C   0  0  0  0  0  0  0  0  0  0  0  0
  114.0389  -12.1253   32.1854 H   0  0  0  0  0  0  0  0  0  0  0  0
  114.4802  -10.4466   31.9840 H   0  0  0  0  0  0  0  0  0  0  0  0
  114.9451  -11.3043   33.4336 H   0  0  0  0  0  0  0  0  0  0  0  0
  115.2579  -13.4916   30.9900 H   0  0  0  0  0  0  0  0  0  0  0  0
  117.9940  -12.6539   30.4345 H   0  0  0  0  0  0  0  0  0  0  0  0
  118.7313  -15.0351   30.5745 H   0  0  0  0  0  0  0  0  0  0  0  0
  116.0619  -15.4639   31.5062 H   0  0  0  0  0  0  0  0  0  0  0  0
  117.3137  -14.0796   33.0491 H   0  0  0  0  0  0  0  0  0  0  0  0
  118.9277  -13.6217   32.5608 H   0  0  0  0  0  0  0  0  0  0  0  0
  118.5856  -15.2769   33.0039 H   0  0  0  0  0  0  0  0  0  0  0  0
  115.0973  -13.6767   29.1046 H   0  0  0  0  0  0  0  0  0  0  0  0
  116.3980  -14.0507   26.4877 H   0  0  0  0  0  0  0  0  0  0  0  0
  114.1111  -15.6922   27.5457 H   0  0  0  0  0  0  0  0  0  0  0  0
  115.7478  -16.2581   27.3134 H   0  0  0  0  0  0  0  0  0  0  0  0
  114.7789  -15.7971   25.9344 H   0  0  0  0  0  0  0  0  0  0  0  0
  115.0268  -13.5022   24.6667 H   0  0  0  0  0  0  0  0  0  0  0  0
  113.6910  -11.0963   24.9847 H   0  0  0  0  0  0  0  0  0  0  0  0
  113.3444  -13.1106   22.7615 H   0  0  0  0  0  0  0  0  0  0  0  0
  114.5881  -11.8851   22.8283 H   0  0  0  0  0  0  0  0  0  0  0  0
  112.9113  -11.4203   22.6687 H   0  0  0  0  0  0  0  0  0  0  0  0
  112.3221  -14.3426   24.9692 H   0  0  0  0  0  0  0  0  0  0  0  0
  109.6327  -13.5591   24.8326 H   0  0  0  0  0  0  0  0  0  0  0  0
  110.8179  -15.9996   26.1567 H   0  0  0  0  0  0  0  0  0  0  0  0
  110.3783  -15.8789   24.4699 H   0  0  0  0  0  0  0  0  0  0  0  0
  109.1413  -15.8111   25.7021 H   0  0  0  0  0  0  0  0  0  0  0  0
  111.8500  -13.4521   27.4738 H   0  0  0  0  0  0  0  0  0  0  0  0
  109.6263  -12.7144   29.2898 H   0  0  0  0  0  0  0  0  0  0  0  0
  111.1634  -11.8838   29.2784 H   0  0  0  0  0  0  0  0  0  0  0  0
  111.0682  -13.5378   29.8337 H   0  0  0  0  0  0  0  0  0  0  0  0
  1 28  1  0  0  0  0
  1 29  1  0  0  0  0
  1 30  1  0  0  0  0
  2  3  2  0  0  0  0
  2  1  1  0  0  0  0
  4  2  1  0  0  0  0
  4 31  1  0  0  0  0
  5  4  1  0  0  0  0
  5  8  1  0  0  0  0
  5 32  1  1  0  0  0
  6  5  1  0  0  0  0
  7  6  2  0  0  0  0
  8 10  1  0  0  0  0
  8 33  1  6  0  0  0
  9  8  1  0  0  0  0
  9 34  1  0  0  0  0
 10 35  1  0  0  0  0
 10 36  1  0  0  0  0
 10 37  1  0  0  0  0
 11  6  1  0  0  0  0
 11 38  1  0  0  0  0
 12 11  1  0  0  0  0
 12 39  1  6  0  0  0
 13 12  1  0  0  0  0
 13 14  2  0  0  0  0
 15 12  1  0  0  0  0
 15 40  1  0  0  0  0
 15 41  1  0  0  0  0
 15 42  1  0  0  0  0
 16 13  1  0  0  0  0
 16 43  1  0  0  0  0
 17 18  1  0  0  0  0
 17 16  1  0  0  0  0
 17 44  1  1  0  0  0
 18 21  1  0  0  0  0
 18 19  2  0  0  0  0
 20 17  1  0  0  0  0
 20 45  1  0  0  0  0
 20 46  1  0  0  0  0
 20 47  1  0  0  0  0
 21 22  1  0  0  0  0
 21 48  1  0  0  0  0
 22 23  1  0  0  0  0
 22 49  1  6  0  0  0
 23 24  2  0  0  0  0
 23 26  1  0  0  0  0
 25 22  1  0  0  0  0
 25 50  1  0  0  0  0
 25 51  1  0  0  0  0
 25 52  1  0  0  0  0
 26 27  1  0  0  0  0
 26 53  1  0  0  0  0
 27 54  1  0  0  0  0
 27 55  1  0  0  0  0
 27 56  1  0  0  0  0
M  END
>  <MODEL>
       0

$$$$
selected_4mers/TAAA/843_noH.pdb
 OpenBabel03042518353D

 56 55  0  0  1  0  0  0  0  0999 V2000
   -0.4490   13.5440   -7.0740 C   0  0  0  0  0  0  0  0  0  0  0  0
   -0.6230   12.4620   -6.0190 C   0  0  0  0  0  0  0  0  0  0  0  0
   -0.6240   11.2790   -6.3740 O   0  0  0  0  0  0  0  0  0  0  0  0
   -0.8150   12.8250   -4.7480 N   0  0  0  0  0  0  0  0  0  0  0  0
   -1.1450   11.7940   -3.7550 C   0  0  2  0  0  0  0  0  0  0  0  0
   -2.4380   11.0710   -4.0890 C   0  0  0  0  0  0  0  0  0  0  0  0
   -2.6250    9.9610   -3.6210 O   0  0  0  0  0  0  0  0  0  0  0  0
   -1.2160   12.3400   -2.3130 C   0  0  2  0  0  0  0  0  0  0  0  0
   -2.2850   13.2890   -2.1970 O   0  0  0  0  0  0  0  0  0  0  0  0
    0.1040   12.9500   -1.8700 C   0  0  0  0  0  0  0  0  0  0  0  0
   -3.3170   11.7060   -4.8730 N   0  0  0  0  0  0  0  0  0  0  0  0
   -4.6020   11.1150   -5.2170 C   0  0  2  0  0  0  0  0  0  0  0  0
   -4.5330   10.1810   -6.4170 C   0  0  0  0  0  0  0  0  0  0  0  0
   -5.5510    9.5890   -6.7790 O   0  0  0  0  0  0  0  0  0  0  0  0
   -5.6200   12.2260   -5.4600 C   0  0  0  0  0  0  0  0  0  0  0  0
   -3.3700   10.0570   -7.0570 N   0  0  0  0  0  0  0  0  0  0  0  0
   -3.2520    9.2220   -8.2560 C   0  0  2  0  0  0  0  0  0  0  0  0
   -3.5690    7.7630   -7.9540 C   0  0  0  0  0  0  0  0  0  0  0  0
   -3.1480    7.2200   -6.9260 O   0  0  0  0  0  0  0  0  0  0  0  0
   -1.8550    9.3230   -8.8230 C   0  0  0  0  0  0  0  0  0  0  0  0
   -4.2740    7.1140   -8.8770 N   0  0  0  0  0  0  0  0  0  0  0  0
   -4.5370    5.6880   -8.7410 C   0  0  2  0  0  0  0  0  0  0  0  0
   -3.2140    4.9510   -8.6680 C   0  0  0  0  0  0  0  0  0  0  0  0
   -2.2950    5.2370   -9.4240 O   0  0  0  0  0  0  0  0  0  0  0  0
   -5.3570    5.1820   -9.9110 C   0  0  0  0  0  0  0  0  0  0  0  0
   -3.1250    3.9970   -7.7560 N   0  0  0  0  0  0  0  0  0  0  0  0
   -1.9420    3.1630   -7.6530 C   0  0  0  0  0  0  0  0  0  0  0  0
   -0.3062   13.0887   -8.0317 H   0  0  0  0  0  0  0  0  0  0  0  0
    0.4042   14.1431   -6.8332 H   0  0  0  0  0  0  0  0  0  0  0  0
   -1.3226   14.1613   -7.0992 H   0  0  0  0  0  0  0  0  0  0  0  0
   -0.7365   13.7693   -4.4807 H   0  0  0  0  0  0  0  0  0  0  0  0
   -0.3350   11.0964   -3.8011 H   0  0  0  0  0  0  0  0  0  0  0  0
   -1.4124   11.5156   -1.6598 H   0  0  0  0  0  0  0  0  0  0  0  0
   -2.1154   14.0407   -2.7862 H   0  0  0  0  0  0  0  0  0  0  0  0
    0.3411   13.7825   -2.4990 H   0  0  0  0  0  0  0  0  0  0  0  0
    0.8787   12.2156   -1.9433 H   0  0  0  0  0  0  0  0  0  0  0  0
    0.0213   13.2813   -0.8559 H   0  0  0  0  0  0  0  0  0  0  0  0
   -3.0887   12.5961   -5.2264 H   0  0  0  0  0  0  0  0  0  0  0  0
   -4.9060   10.5093   -4.3890 H   0  0  0  0  0  0  0  0  0  0  0  0
   -5.3045   12.8237   -6.2895 H   0  0  0  0  0  0  0  0  0  0  0  0
   -5.6941   12.8392   -4.5863 H   0  0  0  0  0  0  0  0  0  0  0  0
   -6.5751   11.7939   -5.6745 H   0  0  0  0  0  0  0  0  0  0  0  0
   -2.5778   10.5339   -6.7189 H   0  0  0  0  0  0  0  0  0  0  0  0
   -3.9620    9.5808   -8.9716 H   0  0  0  0  0  0  0  0  0  0  0  0
   -1.1507    8.9628   -8.1025 H   0  0  0  0  0  0  0  0  0  0  0  0
   -1.6372   10.3446   -9.0548 H   0  0  0  0  0  0  0  0  0  0  0  0
   -1.7879    8.7331   -9.7132 H   0  0  0  0  0  0  0  0  0  0  0  0
   -4.6209    7.6019   -9.6586 H   0  0  0  0  0  0  0  0  0  0  0  0
   -5.0977    5.5137   -7.8465 H   0  0  0  0  0  0  0  0  0  0  0  0
   -4.8181    5.3444  -10.8210 H   0  0  0  0  0  0  0  0  0  0  0  0
   -6.2876    5.7088   -9.9487 H   0  0  0  0  0  0  0  0  0  0  0  0
   -5.5442    4.1356   -9.7893 H   0  0  0  0  0  0  0  0  0  0  0  0
   -3.8752    3.8501   -7.1357 H   0  0  0  0  0  0  0  0  0  0  0  0
   -1.2322    3.4574   -8.3976 H   0  0  0  0  0  0  0  0  0  0  0  0
   -2.2133    2.1390   -7.8039 H   0  0  0  0  0  0  0  0  0  0  0  0
   -1.5083    3.2777   -6.6816 H   0  0  0  0  0  0  0  0  0  0  0  0
  1  2  1  0  0  0  0
  1 28  1  0  0  0  0
  1 29  1  0  0  0  0
  1 30  1  0  0  0  0
  2  4  1  0  0  0  0
  3  2  2  0  0  0  0
  4  5  1  0  0  0  0
  4 31  1  0  0  0  0
  5  8  1  0  0  0  0
  5 32  1  6  0  0  0
  6  5  1  0  0  0  0
  6  7  2  0  0  0  0
  8  9  1  0  0  0  0
  8 10  1  0  0  0  0
  8 33  1  1  0  0  0
  9 34  1  0  0  0  0
 10 35  1  0  0  0  0
 10 36  1  0  0  0  0
 10 37  1  0  0  0  0
 11  6  1  0  0  0  0
 11 38  1  0  0  0  0
 12 11  1  0  0  0  0
 12 39  1  1  0  0  0
 13 12  1  0  0  0  0
 14 13  2  0  0  0  0
 15 12  1  0  0  0  0
 15 40  1  0  0  0  0
 15 41  1  0  0  0  0
 15 42  1  0  0  0  0
 16 13  1  0  0  0  0
 16 43  1  0  0  0  0
 17 18  1  0  0  0  0
 17 16  1  0  0  0  0
 17 44  1  6  0  0  0
 18 19  2  0  0  0  0
 20 17  1  0  0  0  0
 20 45  1  0  0  0  0
 20 46  1  0  0  0  0
 20 47  1  0  0  0  0
 21 22  1  0  0  0  0
 21 18  1  0  0  0  0
 21 48  1  0  0  0  0
 22 23  1  0  0  0  0
 22 49  1  1  0  0  0
 23 26  1  0  0  0  0
 24 23  2  0  0  0  0
 25 22  1  0  0  0  0
 25 50  1  0  0  0  0
 25 51  1  0  0  0  0
 25 52  1  0  0  0  0
 26 27  1  0  0  0  0
 26 53  1  0  0  0  0
 27 54  1  0  0  0  0
 27 55  1  0  0  0  0
 27 56  1  0  0  0  0
M  END
>  <MODEL>
       0

$$$$
selected_4mers/TAAA/844_noH.pdb
 OpenBabel03042518353D

 56 55  0  0  1  0  0  0  0  0999 V2000
   29.3190   50.1260   55.6430 C   0  0  0  0  0  0  0  0  0  0  0  0
   29.4890   49.0650   54.5490 C   0  0  0  0  0  0  0  0  0  0  0  0
   29.7110   49.4410   53.3900 O   0  0  0  0  0  0  0  0  0  0  0  0
   29.3660   47.7740   54.9000 N   0  0  0  0  0  0  0  0  0  0  0  0
   29.4440   46.7200   53.8850 C   0  0  2  0  0  0  0  0  0  0  0  0
   28.0450   46.3720   53.4040 C   0  0  0  0  0  0  0  0  0  0  0  0
   27.2220   45.8330   54.1520 O   0  0  0  0  0  0  0  0  0  0  0  0
   30.1190   45.4500   54.4120 C   0  0  2  0  0  0  0  0  0  0  0  0
   31.3640   45.6990   55.0240 O   0  0  0  0  0  0  0  0  0  0  0  0
   30.2850   44.4260   53.2650 C   0  0  0  0  0  0  0  0  0  0  0  0
   27.7380   46.7480   52.1570 N   0  0  0  0  0  0  0  0  0  0  0  0
   26.4600   46.4130   51.5460 C   0  0  2  0  0  0  0  0  0  0  0  0
   26.5160   45.0000   50.9600 C   0  0  0  0  0  0  0  0  0  0  0  0
   27.5940   44.5130   50.5590 O   0  0  0  0  0  0  0  0  0  0  0  0
   26.1220   47.4050   50.4420 C   0  0  0  0  0  0  0  0  0  0  0  0
   25.3330   44.3690   50.8630 N   0  0  0  0  0  0  0  0  0  0  0  0
   25.1820   43.0770   50.2200 C   0  0  2  0  0  0  0  0  0  0  0  0
   23.9590   43.1250   49.3190 C   0  0  0  0  0  0  0  0  0  0  0  0
   22.8940   43.5400   49.7110 O   0  0  0  0  0  0  0  0  0  0  0  0
   25.0420   41.9490   51.2230 C   0  0  0  0  0  0  0  0  0  0  0  0
   24.1650   42.6340   48.0880 N   0  0  0  0  0  0  0  0  0  0  0  0
   23.1130   42.5170   47.0780 C   0  0  2  0  0  0  0  0  0  0  0  0
   22.9410   41.0180   46.7580 C   0  0  0  0  0  0  0  0  0  0  0  0
   23.9330   40.3130   46.5550 O   0  0  0  0  0  0  0  0  0  0  0  0
   23.4720   43.2810   45.8240 C   0  0  0  0  0  0  0  0  0  0  0  0
   21.7000   40.5540   46.6970 N   0  0  0  0  0  0  0  0  0  0  0  0
   21.3760   39.1510   46.4980 C   0  0  0  0  0  0  0  0  0  0  0  0
   29.4433   51.0999   55.2177 H   0  0  0  0  0  0  0  0  0  0  0  0
   30.0542   49.9733   56.4053 H   0  0  0  0  0  0  0  0  0  0  0  0
   28.3410   50.0451   56.0694 H   0  0  0  0  0  0  0  0  0  0  0  0
   29.2227   47.5348   55.8442 H   0  0  0  0  0  0  0  0  0  0  0  0
   30.0394   47.0984   53.0806 H   0  0  0  0  0  0  0  0  0  0  0  0
   29.4788   45.0500   55.1703 H   0  0  0  0  0  0  0  0  0  0  0  0
   31.9789   46.0646   54.3689 H   0  0  0  0  0  0  0  0  0  0  0  0
   30.9262   44.8346   52.5121 H   0  0  0  0  0  0  0  0  0  0  0  0
   29.3277   44.2093   52.8390 H   0  0  0  0  0  0  0  0  0  0  0  0
   30.7160   43.5256   53.6503 H   0  0  0  0  0  0  0  0  0  0  0  0
   28.3951   47.2659   51.6381 H   0  0  0  0  0  0  0  0  0  0  0  0
   25.7018   46.4582   52.2996 H   0  0  0  0  0  0  0  0  0  0  0  0
   26.8762   47.3657   49.6840 H   0  0  0  0  0  0  0  0  0  0  0  0
   26.0786   48.3928   50.8511 H   0  0  0  0  0  0  0  0  0  0  0  0
   25.1736   47.1538   50.0149 H   0  0  0  0  0  0  0  0  0  0  0  0
   24.5352   44.8018   51.2444 H   0  0  0  0  0  0  0  0  0  0  0  0
   26.0654   42.8788   49.6497 H   0  0  0  0  0  0  0  0  0  0  0  0
   24.1668   42.1073   51.8179 H   0  0  0  0  0  0  0  0  0  0  0  0
   25.9042   41.9257   51.8562 H   0  0  0  0  0  0  0  0  0  0  0  0
   24.9561   41.0179   50.7029 H   0  0  0  0  0  0  0  0  0  0  0  0
   25.0731   42.3363   47.8513 H   0  0  0  0  0  0  0  0  0  0  0  0
   22.2013   42.9340   47.4520 H   0  0  0  0  0  0  0  0  0  0  0  0
   24.3823   42.8921   45.4178 H   0  0  0  0  0  0  0  0  0  0  0  0
   23.6011   44.3162   46.0617 H   0  0  0  0  0  0  0  0  0  0  0  0
   22.6867   43.1754   45.1049 H   0  0  0  0  0  0  0  0  0  0  0  0
   20.9582   41.1944   46.7916 H   0  0  0  0  0  0  0  0  0  0  0  0
   22.2799   38.5847   46.4133 H   0  0  0  0  0  0  0  0  0  0  0  0
   20.8011   39.0413   45.6022 H   0  0  0  0  0  0  0  0  0  0  0  0
   20.8085   38.7942   47.3320 H   0  0  0  0  0  0  0  0  0  0  0  0
  1 28  1  0  0  0  0
  1 29  1  0  0  0  0
  1 30  1  0  0  0  0
  2  4  1  0  0  0  0
  2  1  1  0  0  0  0
  3  2  2  0  0  0  0
  4 31  1  0  0  0  0
  5  8  1  0  0  0  0
  5  4  1  0  0  0  0
  5 32  1  6  0  0  0
  6  5  1  0  0  0  0
  6  7  2  0  0  0  0
  8  9  1  0  0  0  0
  8 33  1  1  0  0  0
  9 34  1  0  0  0  0
 10  8  1  0  0  0  0
 10 35  1  0  0  0  0
 10 36  1  0  0  0  0
 10 37  1  0  0  0  0
 11  6  1  0  0  0  0
 11 38  1  0  0  0  0
 12 11  1  0  0  0  0
 12 39  1  1  0  0  0
 13 12  1  0  0  0  0
 14 13  2  0  0  0  0
 15 12  1  0  0  0  0
 15 40  1  0  0  0  0
 15 41  1  0  0  0  0
 15 42  1  0  0  0  0
 16 13  1  0  0  0  0
 16 43  1  0  0  0  0
 17 16  1  0  0  0  0
 17 20  1  0  0  0  0
 17 44  1  6  0  0  0
 18 19  2  0  0  0  0
 18 17  1  0  0  0  0
 20 45  1  0  0  0  0
 20 46  1  0  0  0  0
 20 47  1  0  0  0  0
 21 18  1  0  0  0  0
 21 48  1  0  0  0  0
 22 21  1  0  0  0  0
 22 49  1  1  0  0  0
 23 22  1  0  0  0  0
 24 23  2  0  0  0  0
 25 22  1  0  0  0  0
 25 50  1  0  0  0  0
 25 51  1  0  0  0  0
 25 52  1  0  0  0  0
 26 23  1  0  0  0  0
 26 53  1  0  0  0  0
 27 26  1  0  0  0  0
 27 54  1  0  0  0  0
 27 55  1  0  0  0  0
 27 56  1  0  0  0  0
M  END
>  <MODEL>
       0

$$$$
