selected_4mers/TAAL/865_noH.pdb
 OpenBabel03042518353D

 65 64  0  0  1  0  0  0  0  0999 V2000
   60.2120   19.9100   15.7740 C   0  0  0  0  0  0  0  0  0  0  0  0
   60.5690   21.3290   16.2050 C   0  0  0  0  0  0  0  0  0  0  0  0
   59.6890   22.1420   16.5010 O   0  0  0  0  0  0  0  0  0  0  0  0
   61.8600   21.6310   16.2310 N   0  0  0  0  0  0  0  0  0  0  0  0
   62.3040   22.9870   16.5230 C   0  0  2  0  0  0  0  0  0  0  0  0
   61.7780   23.9890   15.4960 C   0  0  0  0  0  0  0  0  0  0  0  0
   61.3110   25.0690   15.8570 O   0  0  0  0  0  0  0  0  0  0  0  0
   63.8330   23.0580   16.5750 C   0  0  2  0  0  0  0  0  0  0  0  0
   64.2910   22.3160   17.7110 O   0  0  0  0  0  0  0  0  0  0  0  0
   64.3050   24.5040   16.6870 C   0  0  0  0  0  0  0  0  0  0  0  0
   61.8590   23.6270   14.2180 N   0  0  0  0  0  0  0  0  0  0  0  0
   61.3410   24.4710   13.1450 C   0  0  2  0  0  0  0  0  0  0  0  0
   59.8210   24.6400   13.2380 C   0  0  0  0  0  0  0  0  0  0  0  0
   59.2990   25.7240   12.9770 O   0  0  0  0  0  0  0  0  0  0  0  0
   61.7300   23.8980   11.7800 C   0  0  0  0  0  0  0  0  0  0  0  0
   59.1120   23.5700   13.5970 N   0  0  0  0  0  0  0  0  0  0  0  0
   57.6570   23.6380   13.7230 C   0  0  2  0  0  0  0  0  0  0  0  0
   57.2720   24.6500   14.8000 C   0  0  0  0  0  0  0  0  0  0  0  0
   56.3450   25.4460   14.6260 O   0  0  0  0  0  0  0  0  0  0  0  0
   57.0640   22.2480   14.0460 C   0  0  0  0  0  0  0  0  0  0  0  0
   57.9840   24.6130   15.9210 N   0  0  0  0  0  0  0  0  0  0  0  0
   57.7370   25.5640   16.9980 C   0  0  2  0  0  0  0  0  0  0  0  0
   58.1000   26.9950   16.6110 C   0  0  0  0  0  0  0  0  0  0  0  0
   57.3880   27.9400   16.9620 O   0  0  0  0  0  0  0  0  0  0  0  0
   58.4810   25.1460   18.2670 C   0  0  0  0  0  0  0  0  0  0  0  0
   57.7430   24.0610   19.0420 C   0  0  0  0  0  0  0  0  0  0  0  0
   58.5850   23.5580   20.2050 C   0  0  0  0  0  0  0  0  0  0  0  0
   56.4080   24.6020   19.5280 C   0  0  0  0  0  0  0  0  0  0  0  0
   59.2050   27.1670   15.8940 N   0  0  0  0  0  0  0  0  0  0  0  0
   59.5770   28.5140   15.4720 C   0  0  0  0  0  0  0  0  0  0  0  0
   61.1084   19.3655   15.5619 H   0  0  0  0  0  0  0  0  0  0  0  0
   59.6010   19.9469   14.8964 H   0  0  0  0  0  0  0  0  0  0  0  0
   59.6763   19.4222   16.5614 H   0  0  0  0  0  0  0  0  0  0  0  0
   62.5269   20.9296   16.0506 H   0  0  0  0  0  0  0  0  0  0  0  0
   61.9051   23.2486   17.4808 H   0  0  0  0  0  0  0  0  0  0  0  0
   64.2326   22.6427   15.6734 H   0  0  0  0  0  0  0  0  0  0  0  0
   63.9216   22.7029   18.5202 H   0  0  0  0  0  0  0  0  0  0  0  0
   63.9152   24.9380   17.5840 H   0  0  0  0  0  0  0  0  0  0  0  0
   63.9566   25.0594   15.8414 H   0  0  0  0  0  0  0  0  0  0  0  0
   65.3744   24.5290   16.7141 H   0  0  0  0  0  0  0  0  0  0  0  0
   62.2797   22.7667   13.9898 H   0  0  0  0  0  0  0  0  0  0  0  0
   61.7818   25.4397   13.2557 H   0  0  0  0  0  0  0  0  0  0  0  0
   61.2925   22.9287   11.6623 H   0  0  0  0  0  0  0  0  0  0  0  0
   62.7952   23.8186   11.7170 H   0  0  0  0  0  0  0  0  0  0  0  0
   61.3743   24.5462   11.0066 H   0  0  0  0  0  0  0  0  0  0  0  0
   59.5752   22.7208   13.7801 H   0  0  0  0  0  0  0  0  0  0  0  0
   57.2506   23.9584   12.7865 H   0  0  0  0  0  0  0  0  0  0  0  0
   57.4544   21.9020   14.9802 H   0  0  0  0  0  0  0  0  0  0  0  0
   57.3286   21.5586   13.2716 H   0  0  0  0  0  0  0  0  0  0  0  0
   55.9984   22.3209   14.1098 H   0  0  0  0  0  0  0  0  0  0  0  0
   58.6886   23.9335   16.0259 H   0  0  0  0  0  0  0  0  0  0  0  0
   56.6844   25.5499   17.1894 H   0  0  0  0  0  0  0  0  0  0  0  0
   58.5931   26.0030   18.8977 H   0  0  0  0  0  0  0  0  0  0  0  0
   59.4301   24.7489   17.9731 H   0  0  0  0  0  0  0  0  0  0  0  0
   57.5631   23.2296   18.3929 H   0  0  0  0  0  0  0  0  0  0  0  0
   58.7847   24.3666   20.8767 H   0  0  0  0  0  0  0  0  0  0  0  0
   59.5089   23.1666   19.8334 H   0  0  0  0  0  0  0  0  0  0  0  0
   58.0536   22.7871   20.7229 H   0  0  0  0  0  0  0  0  0  0  0  0
   56.5761   25.4346   20.1786 H   0  0  0  0  0  0  0  0  0  0  0  0
   55.8841   23.8347   20.0588 H   0  0  0  0  0  0  0  0  0  0  0  0
   55.8241   24.9174   18.6887 H   0  0  0  0  0  0  0  0  0  0  0  0
   59.7661   26.3956   15.6503 H   0  0  0  0  0  0  0  0  0  0  0  0
   58.8504   29.2133   15.8297 H   0  0  0  0  0  0  0  0  0  0  0  0
   59.6158   28.5551   14.4035 H   0  0  0  0  0  0  0  0  0  0  0  0
   60.5376   28.7610   15.8735 H   0  0  0  0  0  0  0  0  0  0  0  0
  1  2  1  0  0  0  0
  1 31  1  0  0  0  0
  1 32  1  0  0  0  0
  1 33  1  0  0  0  0
  2  4  1  0  0  0  0
  2  3  2  0  0  0  0
  4  5  1  0  0  0  0
  4 34  1  0  0  0  0
  5  8  1  0  0  0  0
  5 35  1  1  0  0  0
  6  7  2  0  0  0  0
  6  5  1  0  0  0  0
  8 10  1  0  0  0  0
  8  9  1  0  0  0  0
  8 36  1  6  0  0  0
  9 37  1  0  0  0  0
 10 38  1  0  0  0  0
 10 39  1  0  0  0  0
 10 40  1  0  0  0  0
 11  6  1  0  0  0  0
 11 41  1  0  0  0  0
 12 13  1  0  0  0  0
 12 11  1  0  0  0  0
 12 42  1  1  0  0  0
 13 16  1  0  0  0  0
 14 13  2  0  0  0  0
 15 12  1  0  0  0  0
 15 43  1  0  0  0  0
 15 44  1  0  0  0  0
 15 45  1  0  0  0  0
 16 17  1  0  0  0  0
 16 46  1  0  0  0  0
 17 20  1  0  0  0  0
 17 18  1  0  0  0  0
 17 47  1  6  0  0  0
 18 21  1  0  0  0  0
 19 18  2  0  0  0  0
 20 48  1  0  0  0  0
 20 49  1  0  0  0  0
 20 50  1  0  0  0  0
 21 22  1  0  0  0  0
 21 51  1  0  0  0  0
 22 25  1  0  0  0  0
 22 52  1  1  0  0  0
 23 24  2  0  0  0  0
 23 22  1  0  0  0  0
 25 26  1  0  0  0  0
 25 53  1  0  0  0  0
 25 54  1  0  0  0  0
 26 28  1  0  0  0  0
 26 27  1  0  0  0  0
 26 55  1  0  0  0  0
 27 56  1  0  0  0  0
 27 57  1  0  0  0  0
 27 58  1  0  0  0  0
 28 59  1  0  0  0  0
 28 60  1  0  0  0  0
 28 61  1  0  0  0  0
 29 23  1  0  0  0  0
 29 62  1  0  0  0  0
 30 29  1  0  0  0  0
 30 63  1  0  0  0  0
 30 64  1  0  0  0  0
 30 65  1  0  0  0  0
M  END
>  <MODEL>
       0

$$$$
selected_4mers/TAAL/866_noH.pdb
 OpenBabel03042518353D

 65 64  0  0  1  0  0  0  0  0999 V2000
   85.1820   21.0050  -13.9180 C   0  0  0  0  0  0  0  0  0  0  0  0
   85.2780   22.4840  -14.2870 C   0  0  0  0  0  0  0  0  0  0  0  0
   86.1150   22.8600  -15.0980 O   0  0  0  0  0  0  0  0  0  0  0  0
   84.4360   23.3200  -13.6860 N   0  0  0  0  0  0  0  0  0  0  0  0
   84.4360   24.7490  -14.0070 C   0  0  2  0  0  0  0  0  0  0  0  0
   85.7540   25.4190  -13.6110 C   0  0  0  0  0  0  0  0  0  0  0  0
   86.3350   26.1610  -14.3970 O   0  0  0  0  0  0  0  0  0  0  0  0
   83.2560   25.4950  -13.3480 C   0  0  2  0  0  0  0  0  0  0  0  0
   82.0230   24.9250  -13.7950 O   0  0  0  0  0  0  0  0  0  0  0  0
   83.2770   26.9630  -13.7230 C   0  0  0  0  0  0  0  0  0  0  0  0
   86.2260   25.1530  -12.3960 N   0  0  0  0  0  0  0  0  0  0  0  0
   87.4860   25.7220  -11.9280 C   0  0  2  0  0  0  0  0  0  0  0  0
   88.6610   25.3240  -12.8220 C   0  0  0  0  0  0  0  0  0  0  0  0
   89.6360   26.0570  -12.9340 O   0  0  0  0  0  0  0  0  0  0  0  0
   87.7590   25.2950  -10.4920 C   0  0  0  0  0  0  0  0  0  0  0  0
   88.5620   24.1550  -13.4500 N   0  0  0  0  0  0  0  0  0  0  0  0
   89.6540   23.6220  -14.2670 C   0  0  2  0  0  0  0  0  0  0  0  0
   89.6880   24.1850  -15.6880 C   0  0  0  0  0  0  0  0  0  0  0  0
   90.6510   23.9580  -16.4180 O   0  0  0  0  0  0  0  0  0  0  0  0
   89.5680   22.1000  -14.3130 C   0  0  0  0  0  0  0  0  0  0  0  0
   88.6450   24.9050  -16.0900 N   0  0  0  0  0  0  0  0  0  0  0  0
   88.5940   25.4810  -17.4350 C   0  0  2  0  0  0  0  0  0  0  0  0
   89.7350   26.4760  -17.6240 C   0  0  0  0  0  0  0  0  0  0  0  0
   89.9950   27.2970  -16.7350 O   0  0  0  0  0  0  0  0  0  0  0  0
   87.2670   26.1900  -17.6760 C   0  0  0  0  0  0  0  0  0  0  0  0
   86.0010   25.3390  -17.6590 C   0  0  0  0  0  0  0  0  0  0  0  0
   84.7810   26.2340  -17.8100 C   0  0  0  0  0  0  0  0  0  0  0  0
   86.0280   24.2730  -18.7630 C   0  0  0  0  0  0  0  0  0  0  0  0
   90.4380   26.4070  -18.7760 N   0  0  0  0  0  0  0  0  0  0  0  0
   91.5250   27.3460  -18.9830 C   0  0  0  0  0  0  0  0  0  0  0  0
   85.9115   20.4513  -14.4713 H   0  0  0  0  0  0  0  0  0  0  0  0
   84.2038   20.6413  -14.1540 H   0  0  0  0  0  0  0  0  0  0  0  0
   85.3634   20.8863  -12.8702 H   0  0  0  0  0  0  0  0  0  0  0  0
   83.8037   22.9733  -13.0158 H   0  0  0  0  0  0  0  0  0  0  0  0
   84.3225   24.8132  -15.0690 H   0  0  0  0  0  0  0  0  0  0  0  0
   83.3464   25.4014  -12.2859 H   0  0  0  0  0  0  0  0  0  0  0  0
   81.9547   25.0169  -14.7582 H   0  0  0  0  0  0  0  0  0  0  0  0
   83.1868   27.0612  -14.7847 H   0  0  0  0  0  0  0  0  0  0  0  0
   84.1992   27.4001  -13.4014 H   0  0  0  0  0  0  0  0  0  0  0  0
   82.4598   27.4643  -13.2477 H   0  0  0  0  0  0  0  0  0  0  0  0
   85.7145   24.5597  -11.7998 H   0  0  0  0  0  0  0  0  0  0  0  0
   87.3894   26.7868  -11.9712 H   0  0  0  0  0  0  0  0  0  0  0  0
   87.8556   24.2302  -10.4488 H   0  0  0  0  0  0  0  0  0  0  0  0
   86.9476   25.6052   -9.8673 H   0  0  0  0  0  0  0  0  0  0  0  0
   88.6656   25.7495  -10.1510 H   0  0  0  0  0  0  0  0  0  0  0  0
   87.7313   23.6339  -13.3629 H   0  0  0  0  0  0  0  0  0  0  0  0
   90.5644   23.9322  -13.7981 H   0  0  0  0  0  0  0  0  0  0  0  0
   88.6527   21.8086  -14.7844 H   0  0  0  0  0  0  0  0  0  0  0  0
   89.5957   21.7109  -13.3166 H   0  0  0  0  0  0  0  0  0  0  0  0
   90.3952   21.7127  -14.8703 H   0  0  0  0  0  0  0  0  0  0  0  0
   87.8933   25.0535  -15.4719 H   0  0  0  0  0  0  0  0  0  0  0  0
   88.6915   24.6808  -18.1386 H   0  0  0  0  0  0  0  0  0  0  0  0
   87.1608   26.9378  -16.9181 H   0  0  0  0  0  0  0  0  0  0  0  0
   87.3335   26.5601  -18.6777 H   0  0  0  0  0  0  0  0  0  0  0  0
   85.9499   24.8278  -16.7204 H   0  0  0  0  0  0  0  0  0  0  0  0
   84.8288   26.7469  -18.7478 H   0  0  0  0  0  0  0  0  0  0  0  0
   84.7618   26.9482  -17.0134 H   0  0  0  0  0  0  0  0  0  0  0  0
   83.8939   25.6367  -17.7750 H   0  0  0  0  0  0  0  0  0  0  0  0
   86.0792   24.7508  -19.7190 H   0  0  0  0  0  0  0  0  0  0  0  0
   85.1392   23.6798  -18.7079 H   0  0  0  0  0  0  0  0  0  0  0  0
   86.8845   23.6452  -18.6317 H   0  0  0  0  0  0  0  0  0  0  0  0
   90.2175   25.7342  -19.4601 H   0  0  0  0  0  0  0  0  0  0  0  0
   91.6060   27.9908  -18.1330 H   0  0  0  0  0  0  0  0  0  0  0  0
   91.3293   27.9311  -19.8572 H   0  0  0  0  0  0  0  0  0  0  0  0
   92.4412   26.8084  -19.1114 H   0  0  0  0  0  0  0  0  0  0  0  0
  1 31  1  0  0  0  0
  1 32  1  0  0  0  0
  1 33  1  0  0  0  0
  2  1  1  0  0  0  0
  2  4  1  0  0  0  0
  3  2  2  0  0  0  0
  4 34  1  0  0  0  0
  5  4  1  0  0  0  0
  5  6  1  0  0  0  0
  5  8  1  0  0  0  0
  5 35  1  6  0  0  0
  6 11  1  0  0  0  0
  7  6  2  0  0  0  0
  8 36  1  1  0  0  0
  9  8  1  0  0  0  0
  9 37  1  0  0  0  0
 10  8  1  0  0  0  0
 10 38  1  0  0  0  0
 10 39  1  0  0  0  0
 10 40  1  0  0  0  0
 11 12  1  0  0  0  0
 11 41  1  0  0  0  0
 12 15  1  0  0  0  0
 12 42  1  6  0  0  0
 13 12  1  0  0  0  0
 14 13  2  0  0  0  0
 15 43  1  0  0  0  0
 15 44  1  0  0  0  0
 15 45  1  0  0  0  0
 16 13  1  0  0  0  0
 16 46  1  0  0  0  0
 17 16  1  0  0  0  0
 17 47  1  1  0  0  0
 18 17  1  0  0  0  0
 19 18  2  0  0  0  0
 20 17  1  0  0  0  0
 20 48  1  0  0  0  0
 20 49  1  0  0  0  0
 20 50  1  0  0  0  0
 21 18  1  0  0  0  0
 21 51  1  0  0  0  0
 22 21  1  0  0  0  0
 22 52  1  6  0  0  0
 23 22  1  0  0  0  0
 23 24  2  0  0  0  0
 25 26  1  0  0  0  0
 25 22  1  0  0  0  0
 25 53  1  0  0  0  0
 25 54  1  0  0  0  0
 26 55  1  0  0  0  0
 27 26  1  0  0  0  0
 27 56  1  0  0  0  0
 27 57  1  0  0  0  0
 27 58  1  0  0  0  0
 28 26  1  0  0  0  0
 28 59  1  0  0  0  0
 28 60  1  0  0  0  0
 28 61  1  0  0  0  0
 29 23  1  0  0  0  0
 29 62  1  0  0  0  0
 30 29  1  0  0  0  0
 30 63  1  0  0  0  0
 30 64  1  0  0  0  0
 30 65  1  0  0  0  0
M  END
>  <MODEL>
       0

$$$$
selected_4mers/TAAL/867_noH.pdb
 OpenBabel03042518353D

 65 64  0  0  1  0  0  0  0  0999 V2000
   31.5750   29.0290   52.6390 C   0  0  0  0  0  0  0  0  0  0  0  0
   32.4020   28.6350   53.8810 C   0  0  0  0  0  0  0  0  0  0  0  0
   33.0040   27.5640   53.9220 O   0  0  0  0  0  0  0  0  0  0  0  0
   32.3850   29.4750   54.9180 N   0  0  0  0  0  0  0  0  0  0  0  0
   33.0840   29.1480   56.1890 C   0  0  2  0  0  0  0  0  0  0  0  0
   32.6060   27.8180   56.7550 C   0  0  0  0  0  0  0  0  0  0  0  0
   33.4310   26.9520   57.1520 O   0  0  0  0  0  0  0  0  0  0  0  0
   32.8990   30.2900   57.2170 C   0  0  2  0  0  0  0  0  0  0  0  0
   33.4360   31.4900   56.6580 O   0  0  0  0  0  0  0  0  0  0  0  0
   33.6110   30.0030   58.5270 C   0  0  0  0  0  0  0  0  0  0  0  0
   31.2860   27.6550   56.8200 N   0  0  0  0  0  0  0  0  0  0  0  0
   30.7090   26.4410   57.3730 C   0  0  2  0  0  0  0  0  0  0  0  0
   31.1050   25.2450   56.5130 C   0  0  0  0  0  0  0  0  0  0  0  0
   31.4820   24.2010   57.0360 O   0  0  0  0  0  0  0  0  0  0  0  0
   29.1690   26.5970   57.3720 C   0  0  0  0  0  0  0  0  0  0  0  0
   31.0250   25.3920   55.1800 N   0  0  0  0  0  0  0  0  0  0  0  0
   31.3230   24.2760   54.2890 C   0  0  2  0  0  0  0  0  0  0  0  0
   32.7630   23.8270   54.4250 C   0  0  0  0  0  0  0  0  0  0  0  0
   33.0720   22.6600   54.3790 O   0  0  0  0  0  0  0  0  0  0  0  0
   31.0500   24.6840   52.8620 C   0  0  0  0  0  0  0  0  0  0  0  0
   33.6510   24.8010   54.6050 N   0  0  0  0  0  0  0  0  0  0  0  0
   35.0550   24.4480   54.7770 C   0  0  2  0  0  0  0  0  0  0  0  0
   35.3240   23.7230   56.1040 C   0  0  0  0  0  0  0  0  0  0  0  0
   36.3850   23.1080   56.2050 O   0  0  0  0  0  0  0  0  0  0  0  0
   35.9430   25.6610   54.6740 C   0  0  0  0  0  0  0  0  0  0  0  0
   36.1010   26.2290   53.2540 C   0  0  0  0  0  0  0  0  0  0  0  0
   36.7100   27.6400   53.2120 C   0  0  0  0  0  0  0  0  0  0  0  0
   36.9870   25.2390   52.4400 C   0  0  0  0  0  0  0  0  0  0  0  0
   34.4110   23.7900   57.0800 N   0  0  0  0  0  0  0  0  0  0  0  0
   34.5170   23.0270   58.3180 C   0  0  0  0  0  0  0  0  0  0  0  0
   31.6767   28.2733   51.8884 H   0  0  0  0  0  0  0  0  0  0  0  0
   31.9301   29.9627   52.2555 H   0  0  0  0  0  0  0  0  0  0  0  0
   30.5448   29.1242   52.9120 H   0  0  0  0  0  0  0  0  0  0  0  0
   31.9000   30.3282   54.8399 H   0  0  0  0  0  0  0  0  0  0  0  0
   34.1288   29.0506   55.9795 H   0  0  0  0  0  0  0  0  0  0  0  0
   31.8538   30.3842   57.4259 H   0  0  0  0  0  0  0  0  0  0  0  0
   34.3822   31.3694   56.4817 H   0  0  0  0  0  0  0  0  0  0  0  0
   34.6612   29.9036   58.3478 H   0  0  0  0  0  0  0  0  0  0  0  0
   33.2332   29.0941   58.9466 H   0  0  0  0  0  0  0  0  0  0  0  0
   33.4404   30.8090   59.2097 H   0  0  0  0  0  0  0  0  0  0  0  0
   30.6923   28.3671   56.4887 H   0  0  0  0  0  0  0  0  0  0  0  0
   31.0656   26.2808   58.3690 H   0  0  0  0  0  0  0  0  0  0  0  0
   28.8273   26.7564   56.3706 H   0  0  0  0  0  0  0  0  0  0  0  0
   28.8949   27.4339   57.9798 H   0  0  0  0  0  0  0  0  0  0  0  0
   28.7203   25.7086   57.7649 H   0  0  0  0  0  0  0  0  0  0  0  0
   30.7626   26.2617   54.8006 H   0  0  0  0  0  0  0  0  0  0  0  0
   30.6940   23.4544   54.5615 H   0  0  0  0  0  0  0  0  0  0  0  0
   31.6830   25.5055   52.5986 H   0  0  0  0  0  0  0  0  0  0  0  0
   30.0257   24.9775   52.7647 H   0  0  0  0  0  0  0  0  0  0  0  0
   31.2478   23.8583   52.2109 H   0  0  0  0  0  0  0  0  0  0  0  0
   33.3653   25.7430   54.6218 H   0  0  0  0  0  0  0  0  0  0  0  0
   35.2883   23.7723   53.9808 H   0  0  0  0  0  0  0  0  0  0  0  0
   35.5305   26.4286   55.2950 H   0  0  0  0  0  0  0  0  0  0  0  0
   36.9183   25.3459   54.9814 H   0  0  0  0  0  0  0  0  0  0  0  0
   35.1235   26.3277   52.8301 H   0  0  0  0  0  0  0  0  0  0  0  0
   37.6970   27.6149   53.6245 H   0  0  0  0  0  0  0  0  0  0  0  0
   36.1012   28.3084   53.7842 H   0  0  0  0  0  0  0  0  0  0  0  0
   36.7557   27.9787   52.1981 H   0  0  0  0  0  0  0  0  0  0  0  0
   37.9530   25.1684   52.8947 H   0  0  0  0  0  0  0  0  0  0  0  0
   37.0904   25.5954   51.4364 H   0  0  0  0  0  0  0  0  0  0  0  0
   36.5261   24.2734   52.4299 H   0  0  0  0  0  0  0  0  0  0  0  0
   33.6331   24.3807   56.9567 H   0  0  0  0  0  0  0  0  0  0  0  0
   35.4104   22.4384   58.2988 H   0  0  0  0  0  0  0  0  0  0  0  0
   33.6677   22.3832   58.4140 H   0  0  0  0  0  0  0  0  0  0  0  0
   34.5507   23.6994   59.1496 H   0  0  0  0  0  0  0  0  0  0  0  0
  1  2  1  0  0  0  0
  1 31  1  0  0  0  0
  1 32  1  0  0  0  0
  1 33  1  0  0  0  0
  2  3  2  0  0  0  0
  2  4  1  0  0  0  0
  4  5  1  0  0  0  0
  4 34  1  0  0  0  0
  5  6  1  0  0  0  0
  5  8  1  0  0  0  0
  5 35  1  6  0  0  0
  6 11  1  0  0  0  0
  6  7  2  0  0  0  0
  8 10  1  0  0  0  0
  8 36  1  1  0  0  0
  9  8  1  0  0  0  0
  9 37  1  0  0  0  0
 10 38  1  0  0  0  0
 10 39  1  0  0  0  0
 10 40  1  0  0  0  0
 11 12  1  0  0  0  0
 11 41  1  0  0  0  0
 12 42  1  1  0  0  0
 13 14  2  0  0  0  0
 13 12  1  0  0  0  0
 15 12  1  0  0  0  0
 15 43  1  0  0  0  0
 15 44  1  0  0  0  0
 15 45  1  0  0  0  0
 16 13  1  0  0  0  0
 16 46  1  0  0  0  0
 17 18  1  0  0  0  0
 17 16  1  0  0  0  0
 17 47  1  1  0  0  0
 18 21  1  0  0  0  0
 19 18  2  0  0  0  0
 20 17  1  0  0  0  0
 20 48  1  0  0  0  0
 20 49  1  0  0  0  0
 20 50  1  0  0  0  0
 21 22  1  0  0  0  0
 21 51  1  0  0  0  0
 22 23  1  0  0  0  0
 22 52  1  6  0  0  0
 23 24  2  0  0  0  0
 23 29  1  0  0  0  0
 25 22  1  0  0  0  0
 25 53  1  0  0  0  0
 25 54  1  0  0  0  0
 26 25  1  0  0  0  0
 26 55  1  0  0  0  0
 27 26  1  0  0  0  0
 27 56  1  0  0  0  0
 27 57  1  0  0  0  0
 27 58  1  0  0  0  0
 28 26  1  0  0  0  0
 28 59  1  0  0  0  0
 28 60  1  0  0  0  0
 28 61  1  0  0  0  0
 29 30  1  0  0  0  0
 29 62  1  0  0  0  0
 30 63  1  0  0  0  0
 30 64  1  0  0  0  0
 30 65  1  0  0  0  0
M  END
>  <MODEL>
       0

$$$$
selected_4mers/TAAL/868_noH.pdb
 OpenBabel03042518353D

 65 64  0  0  1  0  0  0  0  0999 V2000
  -23.3260    0.5430  -22.1510 C   0  0  0  0  0  0  0  0  0  0  0  0
  -23.2450   -0.9730  -22.2430 C   0  0  0  0  0  0  0  0  0  0  0  0
  -22.1860   -1.5040  -22.5570 O   0  0  0  0  0  0  0  0  0  0  0  0
  -24.3320   -1.6750  -21.9580 N   0  0  0  0  0  0  0  0  0  0  0  0
  -24.2540   -3.1240  -22.0120 C   0  0  2  0  0  0  0  0  0  0  0  0
  -25.0310   -3.6270  -23.2180 C   0  0  0  0  0  0  0  0  0  0  0  0
  -25.2730   -4.8160  -23.3490 O   0  0  0  0  0  0  0  0  0  0  0  0
  -24.7880   -3.8110  -20.7250 C   0  0  2  0  0  0  0  0  0  0  0  0
  -26.1850   -3.5300  -20.5730 O   0  0  0  0  0  0  0  0  0  0  0  0
  -24.0120   -3.3510  -19.4720 C   0  0  0  0  0  0  0  0  0  0  0  0
  -25.4270   -2.7180  -24.1010 N   0  0  0  0  0  0  0  0  0  0  0  0
  -26.2500   -3.1000  -25.2590 C   0  0  2  0  0  0  0  0  0  0  0  0
  -25.6400   -4.2550  -26.0590 C   0  0  0  0  0  0  0  0  0  0  0  0
  -24.4230   -4.3280  -26.2490 O   0  0  0  0  0  0  0  0  0  0  0  0
  -26.4810   -1.9040  -26.1620 C   0  0  0  0  0  0  0  0  0  0  0  0
  -26.4950   -5.1520  -26.5310 N   0  0  0  0  0  0  0  0  0  0  0  0
  -26.0600   -6.2620  -27.3790 C   0  0  2  0  0  0  0  0  0  0  0  0
  -25.5780   -5.7530  -28.7370 C   0  0  0  0  0  0  0  0  0  0  0  0
  -25.9920   -4.6890  -29.1840 O   0  0  0  0  0  0  0  0  0  0  0  0
  -27.1950   -7.2480  -27.5690 C   0  0  0  0  0  0  0  0  0  0  0  0
  -24.6990   -6.5090  -29.3900 N   0  0  0  0  0  0  0  0  0  0  0  0
  -24.1930   -6.0860  -30.6910 C   0  0  2  0  0  0  0  0  0  0  0  0
  -25.3580   -5.9970  -31.6700 C   0  0  0  0  0  0  0  0  0  0  0  0
  -25.3130   -5.2420  -32.6390 O   0  0  0  0  0  0  0  0  0  0  0  0
  -23.0700   -6.9970  -31.2060 C   0  0  0  0  0  0  0  0  0  0  0  0
  -21.8610   -7.1180  -30.2640 C   0  0  0  0  0  0  0  0  0  0  0  0
  -20.5600   -7.6800  -30.8670 C   0  0  0  0  0  0  0  0  0  0  0  0
  -21.6110   -5.8980  -29.3760 C   0  0  0  0  0  0  0  0  0  0  0  0
  -26.4180   -6.7470  -31.3890 N   0  0  0  0  0  0  0  0  0  0  0  0
  -27.6340   -6.6780  -32.1770 C   0  0  0  0  0  0  0  0  0  0  0  0
  -22.3779    0.9671  -22.4081 H   0  0  0  0  0  0  0  0  0  0  0  0
  -23.5844    0.8264  -21.1521 H   0  0  0  0  0  0  0  0  0  0  0  0
  -24.0727    0.9020  -22.8281 H   0  0  0  0  0  0  0  0  0  0  0  0
  -25.1731   -1.2246  -21.7152 H   0  0  0  0  0  0  0  0  0  0  0  0
  -23.2184   -3.3802  -22.0944 H   0  0  0  0  0  0  0  0  0  0  0  0
  -24.6432   -4.8664  -20.8255 H   0  0  0  0  0  0  0  0  0  0  0  0
  -26.3143   -2.5730  -20.4820 H   0  0  0  0  0  0  0  0  0  0  0  0
  -24.1367   -2.2962  -19.3425 H   0  0  0  0  0  0  0  0  0  0  0  0
  -22.9728   -3.5750  -19.5938 H   0  0  0  0  0  0  0  0  0  0  0  0
  -24.3887   -3.8630  -18.6113 H   0  0  0  0  0  0  0  0  0  0  0  0
  -25.1666   -1.7764  -23.9793 H   0  0  0  0  0  0  0  0  0  0  0  0
  -27.1877   -3.4427  -24.8740 H   0  0  0  0  0  0  0  0  0  0  0  0
  -25.5433   -1.5613  -26.5469 H   0  0  0  0  0  0  0  0  0  0  0  0
  -26.9451   -1.1189  -25.6024 H   0  0  0  0  0  0  0  0  0  0  0  0
  -27.1176   -2.1877  -26.9739 H   0  0  0  0  0  0  0  0  0  0  0  0
  -27.4494   -5.0687  -26.3044 H   0  0  0  0  0  0  0  0  0  0  0  0
  -25.2435   -6.7548  -26.8938 H   0  0  0  0  0  0  0  0  0  0  0  0
  -28.0142   -6.7597  -28.0541 H   0  0  0  0  0  0  0  0  0  0  0  0
  -27.5124   -7.6146  -26.6152 H   0  0  0  0  0  0  0  0  0  0  0  0
  -26.8597   -8.0659  -28.1719 H   0  0  0  0  0  0  0  0  0  0  0  0
  -24.3895   -7.3556  -28.9942 H   0  0  0  0  0  0  0  0  0  0  0  0
  -23.7478   -5.1182  -30.5904 H   0  0  0  0  0  0  0  0  0  0  0  0
  -22.7265   -6.6071  -32.1414 H   0  0  0  0  0  0  0  0  0  0  0  0
  -23.4893   -7.9780  -31.2886 H   0  0  0  0  0  0  0  0  0  0  0  0
  -22.1999   -7.8996  -29.6166 H   0  0  0  0  0  0  0  0  0  0  0  0
  -20.1385   -6.9613  -31.5383 H   0  0  0  0  0  0  0  0  0  0  0  0
  -20.7747   -8.5828  -31.3998 H   0  0  0  0  0  0  0  0  0  0  0  0
  -19.8630   -7.8864  -30.0818 H   0  0  0  0  0  0  0  0  0  0  0  0
  -21.2682   -5.0827  -29.9783 H   0  0  0  0  0  0  0  0  0  0  0  0
  -20.8690   -6.1365  -28.6429 H   0  0  0  0  0  0  0  0  0  0  0  0
  -22.5209   -5.6213  -28.8857 H   0  0  0  0  0  0  0  0  0  0  0  0
  -26.3771   -7.3666  -30.6250 H   0  0  0  0  0  0  0  0  0  0  0  0
  -27.5103   -5.9611  -32.9617 H   0  0  0  0  0  0  0  0  0  0  0  0
  -28.4492   -6.3832  -31.5498 H   0  0  0  0  0  0  0  0  0  0  0  0
  -27.8394   -7.6388  -32.6008 H   0  0  0  0  0  0  0  0  0  0  0  0
  1 31  1  0  0  0  0
  1 32  1  0  0  0  0
  1 33  1  0  0  0  0
  2  1  1  0  0  0  0
  2  4  1  0  0  0  0
  3  2  2  0  0  0  0
  4 34  1  0  0  0  0
  5  4  1  0  0  0  0
  5  8  1  0  0  0  0
  5 35  1  6  0  0  0
  6  5  1  0  0  0  0
  7  6  2  0  0  0  0
  8  9  1  0  0  0  0
  8 10  1  0  0  0  0
  8 36  1  6  0  0  0
  9 37  1  0  0  0  0
 10 38  1  0  0  0  0
 10 39  1  0  0  0  0
 10 40  1  0  0  0  0
 11  6  1  0  0  0  0
 11 41  1  0  0  0  0
 12 11  1  0  0  0  0
 12 42  1  1  0  0  0
 13 12  1  0  0  0  0
 14 13  2  0  0  0  0
 15 12  1  0  0  0  0
 15 43  1  0  0  0  0
 15 44  1  0  0  0  0
 15 45  1  0  0  0  0
 16 13  1  0  0  0  0
 16 46  1  0  0  0  0
 17 16  1  0  0  0  0
 17 47  1  1  0  0  0
 18 17  1  0  0  0  0
 19 18  2  0  0  0  0
 20 17  1  0  0  0  0
 20 48  1  0  0  0  0
 20 49  1  0  0  0  0
 20 50  1  0  0  0  0
 21 18  1  0  0  0  0
 21 51  1  0  0  0  0
 22 21  1  0  0  0  0
 22 52  1  1  0  0  0
 23 29  1  0  0  0  0
 23 22  1  0  0  0  0
 24 23  2  0  0  0  0
 25 22  1  0  0  0  0
 25 26  1  0  0  0  0
 25 53  1  0  0  0  0
 25 54  1  0  0  0  0
 26 28  1  0  0  0  0
 26 55  1  0  0  0  0
 27 26  1  0  0  0  0
 27 56  1  0  0  0  0
 27 57  1  0  0  0  0
 27 58  1  0  0  0  0
 28 59  1  0  0  0  0
 28 60  1  0  0  0  0
 28 61  1  0  0  0  0
 29 62  1  0  0  0  0
 30 29  1  0  0  0  0
 30 63  1  0  0  0  0
 30 64  1  0  0  0  0
 30 65  1  0  0  0  0
M  END
>  <MODEL>
       0

$$$$
selected_4mers/TAAL/869_noH.pdb
 OpenBabel03042518353D

 65 64  0  0  1  0  0  0  0  0999 V2000
   44.6960   98.2950  -32.3360 C   0  0  0  0  0  0  0  0  0  0  0  0
   44.5820   97.0090  -31.5350 C   0  0  0  0  0  0  0  0  0  0  0  0
   45.4600   96.1490  -31.6190 O   0  0  0  0  0  0  0  0  0  0  0  0
   43.5130   96.8720  -30.7570 N   0  0  0  0  0  0  0  0  0  0  0  0
   43.3100   95.6680  -29.9560 C   0  0  2  0  0  0  0  0  0  0  0  0
   42.0030   94.9830  -30.3480 C   0  0  0  0  0  0  0  0  0  0  0  0
   41.0160   95.6430  -30.6640 O   0  0  0  0  0  0  0  0  0  0  0  0
   43.2480   95.9880  -28.4480 C   0  0  2  0  0  0  0  0  0  0  0  0
   42.0420   96.7030  -28.1590 O   0  0  0  0  0  0  0  0  0  0  0  0
   44.4440   96.8350  -28.0260 C   0  0  0  0  0  0  0  0  0  0  0  0
   42.0070   93.6550  -30.3310 N   0  0  0  0  0  0  0  0  0  0  0  0
   40.8190   92.8860  -30.6710 C   0  0  2  0  0  0  0  0  0  0  0  0
   40.4300   92.0290  -29.4740 C   0  0  0  0  0  0  0  0  0  0  0  0
   41.2690   91.7040  -28.6360 O   0  0  0  0  0  0  0  0  0  0  0  0
   41.0950   92.0020  -31.8780 C   0  0  0  0  0  0  0  0  0  0  0  0
   39.1530   91.6800  -29.3860 N   0  0  0  0  0  0  0  0  0  0  0  0
   38.6740   90.8380  -28.2980 C   0  0  2  0  0  0  0  0  0  0  0  0
   38.1520   89.5380  -28.8890 C   0  0  0  0  0  0  0  0  0  0  0  0
   37.4140   89.5440  -29.8710 O   0  0  0  0  0  0  0  0  0  0  0  0
   37.5590   91.5500  -27.5240 C   0  0  0  0  0  0  0  0  0  0  0  0
   38.5590   88.4190  -28.3000 N   0  0  0  0  0  0  0  0  0  0  0  0
   38.1110   87.1090  -28.7500 C   0  0  2  0  0  0  0  0  0  0  0  0
   37.8260   86.3170  -27.4860 C   0  0  0  0  0  0  0  0  0  0  0  0
   38.2640   86.6980  -26.4060 O   0  0  0  0  0  0  0  0  0  0  0  0
   39.1960   86.4260  -29.5930 C   0  0  0  0  0  0  0  0  0  0  0  0
   40.6060   86.3030  -29.0030 C   0  0  0  0  0  0  0  0  0  0  0  0
   40.7040   85.0770  -28.0940 C   0  0  0  0  0  0  0  0  0  0  0  0
   41.6100   86.1830  -30.1430 C   0  0  0  0  0  0  0  0  0  0  0  0
   37.0820   85.2270  -27.6060 N   0  0  0  0  0  0  0  0  0  0  0  0
   36.7920   84.4580  -26.4150 C   0  0  0  0  0  0  0  0  0  0  0  0
   45.5957   98.2760  -32.9149 H   0  0  0  0  0  0  0  0  0  0  0  0
   44.7193   99.1305  -31.6679 H   0  0  0  0  0  0  0  0  0  0  0  0
   43.8533   98.3842  -32.9893 H   0  0  0  0  0  0  0  0  0  0  0  0
   42.8461   97.5953  -30.7201 H   0  0  0  0  0  0  0  0  0  0  0  0
   44.1443   95.0254  -30.1457 H   0  0  0  0  0  0  0  0  0  0  0  0
   43.2677   95.0660  -27.9053 H   0  0  0  0  0  0  0  0  0  0  0  0
   42.0335   97.5365  -28.6551 H   0  0  0  0  0  0  0  0  0  0  0  0
   44.4334   97.7601  -28.5636 H   0  0  0  0  0  0  0  0  0  0  0  0
   45.3491   96.3070  -28.2425 H   0  0  0  0  0  0  0  0  0  0  0  0
   44.3886   97.0322  -26.9758 H   0  0  0  0  0  0  0  0  0  0  0  0
   42.8327   93.1798  -30.0827 H   0  0  0  0  0  0  0  0  0  0  0  0
   40.0172   93.5510  -30.9155 H   0  0  0  0  0  0  0  0  0  0  0  0
   41.8955   91.3291  -31.6517 H   0  0  0  0  0  0  0  0  0  0  0  0
   41.3681   92.6132  -32.7127 H   0  0  0  0  0  0  0  0  0  0  0  0
   40.2155   91.4420  -32.1185 H   0  0  0  0  0  0  0  0  0  0  0  0
   38.5176   91.9958  -30.0684 H   0  0  0  0  0  0  0  0  0  0  0  0
   39.4746   90.6357  -27.6176 H   0  0  0  0  0  0  0  0  0  0  0  0
   36.7455   91.7630  -28.1856 H   0  0  0  0  0  0  0  0  0  0  0  0
   37.9359   92.4646  -27.1161 H   0  0  0  0  0  0  0  0  0  0  0  0
   37.2172   90.9194  -26.7300 H   0  0  0  0  0  0  0  0  0  0  0  0
   39.1804   88.4772  -27.5386 H   0  0  0  0  0  0  0  0  0  0  0  0
   37.2428   87.1791  -29.3714 H   0  0  0  0  0  0  0  0  0  0  0  0
   38.8543   85.4347  -29.8060 H   0  0  0  0  0  0  0  0  0  0  0  0
   39.3189   87.0713  -30.4377 H   0  0  0  0  0  0  0  0  0  0  0  0
   40.8197   87.1728  -28.4176 H   0  0  0  0  0  0  0  0  0  0  0  0
   40.4933   84.1946  -28.6613 H   0  0  0  0  0  0  0  0  0  0  0  0
   39.9955   85.1663  -27.2971 H   0  0  0  0  0  0  0  0  0  0  0  0
   41.6917   85.0124  -27.6876 H   0  0  0  0  0  0  0  0  0  0  0  0
   41.3889   85.3112  -30.7227 H   0  0  0  0  0  0  0  0  0  0  0  0
   42.5983   86.1028  -29.7409 H   0  0  0  0  0  0  0  0  0  0  0  0
   41.5477   87.0507  -30.7659 H   0  0  0  0  0  0  0  0  0  0  0  0
   36.7351   84.9473  -28.4839 H   0  0  0  0  0  0  0  0  0  0  0  0
   37.2550   84.9220  -25.5693 H   0  0  0  0  0  0  0  0  0  0  0  0
   37.1732   83.4649  -26.5301 H   0  0  0  0  0  0  0  0  0  0  0  0
   35.7333   84.4185  -26.2649 H   0  0  0  0  0  0  0  0  0  0  0  0
  1  2  1  0  0  0  0
  1 31  1  0  0  0  0
  1 32  1  0  0  0  0
  1 33  1  0  0  0  0
  2  4  1  0  0  0  0
  3  2  2  0  0  0  0
  4  5  1  0  0  0  0
  4 34  1  0  0  0  0
  5  8  1  0  0  0  0
  5 35  1  6  0  0  0
  6 11  1  0  0  0  0
  6  5  1  0  0  0  0
  7  6  2  0  0  0  0
  8  9  1  0  0  0  0
  8 10  1  0  0  0  0
  8 36  1  1  0  0  0
  9 37  1  0  0  0  0
 10 38  1  0  0  0  0
 10 39  1  0  0  0  0
 10 40  1  0  0  0  0
 11 41  1  0  0  0  0
 12 11  1  0  0  0  0
 12 13  1  0  0  0  0
 12 42  1  6  0  0  0
 13 16  1  0  0  0  0
 13 14  2  0  0  0  0
 15 12  1  0  0  0  0
 15 43  1  0  0  0  0
 15 44  1  0  0  0  0
 15 45  1  0  0  0  0
 16 17  1  0  0  0  0
 16 46  1  0  0  0  0
 17 20  1  0  0  0  0
 17 47  1  1  0  0  0
 18 21  1  0  0  0  0
 18 17  1  0  0  0  0
 19 18  2  0  0  0  0
 20 48  1  0  0  0  0
 20 49  1  0  0  0  0
 20 50  1  0  0  0  0
 21 51  1  0  0  0  0
 22 21  1  0  0  0  0
 22 23  1  0  0  0  0
 22 52  1  6  0  0  0
 23 24  2  0  0  0  0
 25 26  1  0  0  0  0
 25 22  1  0  0  0  0
 25 53  1  0  0  0  0
 25 54  1  0  0  0  0
 26 27  1  0  0  0  0
 26 55  1  0  0  0  0
 27 56  1  0  0  0  0
 27 57  1  0  0  0  0
 27 58  1  0  0  0  0
 28 26  1  0  0  0  0
 28 59  1  0  0  0  0
 28 60  1  0  0  0  0
 28 61  1  0  0  0  0
 29 23  1  0  0  0  0
 29 30  1  0  0  0  0
 29 62  1  0  0  0  0
 30 63  1  0  0  0  0
 30 64  1  0  0  0  0
 30 65  1  0  0  0  0
M  END
>  <MODEL>
       0

$$$$
