selected_4mers/TFPA/905_noH.pdb
 OpenBabel03042518353D

 70 71  0  0  1  0  0  0  0  0999 V2000
    9.6680   65.2130   16.6430 C   0  0  0  0  0  0  0  0  0  0  0  0
    9.7230   66.6960   16.3630 C   0  0  0  0  0  0  0  0  0  0  0  0
   10.7680   67.3160   16.5070 O   0  0  0  0  0  0  0  0  0  0  0  0
    8.5810   67.2650   16.0080 N   0  0  0  0  0  0  0  0  0  0  0  0
    8.4760   68.7200   15.8710 C   0  0  2  0  0  0  0  0  0  0  0  0
    7.8500   69.2190   17.1550 C   0  0  0  0  0  0  0  0  0  0  0  0
    6.7150   68.8560   17.5000 O   0  0  0  0  0  0  0  0  0  0  0  0
    7.6630   69.1510   14.6530 C   0  0  2  0  0  0  0  0  0  0  0  0
    8.3380   68.7220   13.4700 O   0  0  0  0  0  0  0  0  0  0  0  0
    7.5130   70.6800   14.5950 C   0  0  0  0  0  0  0  0  0  0  0  0
    8.5840   70.0420   17.8850 N   0  0  0  0  0  0  0  0  0  0  0  0
    8.0700   70.4900   19.1720 C   0  0  2  0  0  0  0  0  0  0  0  0
    6.9550   71.4880   18.9580 C   0  0  0  0  0  0  0  0  0  0  0  0
    7.0730   72.3400   18.0970 O   0  0  0  0  0  0  0  0  0  0  0  0
    9.1630   71.1150   20.0250 C   0  0  0  0  0  0  0  0  0  0  0  0
    9.9440   70.0830   20.8260 C   0  0  0  0  0  0  0  0  0  0  0  0
    9.8620   70.0310   22.2080 C   0  0  0  0  0  0  0  0  0  0  0  0
   10.7410   69.1620   20.1670 C   0  0  0  0  0  0  0  0  0  0  0  0
   10.5680   69.0870   22.9170 C   0  0  0  0  0  0  0  0  0  0  0  0
   11.4400   68.1950   20.8580 C   0  0  0  0  0  0  0  0  0  0  0  0
   11.3690   68.1550   22.2390 C   0  0  0  0  0  0  0  0  0  0  0  0
    5.8950   71.4260   19.7860 N   0  0  0  0  0  0  0  0  0  0  0  0
    4.8280   72.4210   19.7280 C   0  0  2  0  0  0  0  0  0  0  0  0
    5.3710   73.8520   19.7370 C   0  0  0  0  0  0  0  0  0  0  0  0
    6.4360   74.1170   20.3050 O   0  0  0  0  0  0  0  0  0  0  0  0
    4.0130   72.1590   20.9980 C   0  0  0  0  0  0  0  0  0  0  0  0
    4.2940   70.7730   21.3520 C   0  0  0  0  0  0  0  0  0  0  0  0
    5.6620   70.4400   20.8620 C   0  0  0  0  0  0  0  0  0  0  0  0
    4.6280   74.7630   19.1210 N   0  0  0  0  0  0  0  0  0  0  0  0
    5.0250   76.1740   19.0360 C   0  0  2  0  0  0  0  0  0  0  0  0
    5.0090   76.8180   20.4010 C   0  0  0  0  0  0  0  0  0  0  0  0
    5.7230   77.7940   20.6220 O   0  0  0  0  0  0  0  0  0  0  0  0
    4.1330   76.9230   18.0810 C   0  0  0  0  0  0  0  0  0  0  0  0
    4.2150   76.2590   21.3140 N   0  0  0  0  0  0  0  0  0  0  0  0
    4.1560   76.7220   22.6970 C   0  0  0  0  0  0  0  0  0  0  0  0
    8.6771   64.8523   16.4614 H   0  0  0  0  0  0  0  0  0  0  0  0
    9.9316   65.0328   17.6643 H   0  0  0  0  0  0  0  0  0  0  0  0
   10.3563   64.7032   16.0017 H   0  0  0  0  0  0  0  0  0  0  0  0
    7.7919   66.7027   15.8338 H   0  0  0  0  0  0  0  0  0  0  0  0
    9.4460   69.1424   15.7111 H   0  0  0  0  0  0  0  0  0  0  0  0
    6.6908   68.7100   14.7261 H   0  0  0  0  0  0  0  0  0  0  0  0
    9.2143   69.1360   13.4296 H   0  0  0  0  0  0  0  0  0  0  0  0
    8.4806   71.1308   14.5217 H   0  0  0  0  0  0  0  0  0  0  0  0
    7.0254   71.0245   15.4830 H   0  0  0  0  0  0  0  0  0  0  0  0
    6.9286   70.9489   13.7400 H   0  0  0  0  0  0  0  0  0  0  0  0
    9.4633   70.3468   17.5638 H   0  0  0  0  0  0  0  0  0  0  0  0
    7.6954   69.6336   19.6928 H   0  0  0  0  0  0  0  0  0  0  0  0
    8.7127   71.8074   20.7053 H   0  0  0  0  0  0  0  0  0  0  0  0
    9.8510   71.6004   19.3647 H   0  0  0  0  0  0  0  0  0  0  0  0
    9.2656   70.7069   22.7104 H   0  0  0  0  0  0  0  0  0  0  0  0
   10.8132   69.2002   19.1382 H   0  0  0  0  0  0  0  0  0  0  0  0
   10.5087   69.0641   23.9470 H   0  0  0  0  0  0  0  0  0  0  0  0
   12.0130   67.5048   20.3478 H   0  0  0  0  0  0  0  0  0  0  0  0
   11.9009   67.4453   22.7666 H   0  0  0  0  0  0  0  0  0  0  0  0
    4.2578   72.3361   18.8266 H   0  0  0  0  0  0  0  0  0  0  0  0
    2.9686   72.2937   20.8083 H   0  0  0  0  0  0  0  0  0  0  0  0
    4.2724   72.8341   21.7866 H   0  0  0  0  0  0  0  0  0  0  0  0
    4.2499   70.6536   22.4144 H   0  0  0  0  0  0  0  0  0  0  0  0
    3.5711   70.1219   20.9065 H   0  0  0  0  0  0  0  0  0  0  0  0
    6.3848   70.5492   21.6434 H   0  0  0  0  0  0  0  0  0  0  0  0
    5.7481   69.4282   20.5247 H   0  0  0  0  0  0  0  0  0  0  0  0
    3.7803   74.4826   18.7062 H   0  0  0  0  0  0  0  0  0  0  0  0
    6.0258   76.2165   18.6598 H   0  0  0  0  0  0  0  0  0  0  0  0
    3.1246   76.8939   18.4376 H   0  0  0  0  0  0  0  0  0  0  0  0
    4.1828   76.4670   17.1143 H   0  0  0  0  0  0  0  0  0  0  0  0
    4.4579   77.9402   18.0127 H   0  0  0  0  0  0  0  0  0  0  0  0
    3.6450   75.5029   21.0445 H   0  0  0  0  0  0  0  0  0  0  0  0
    4.8295   77.5432   22.8272 H   0  0  0  0  0  0  0  0  0  0  0  0
    4.4357   75.9239   23.3525 H   0  0  0  0  0  0  0  0  0  0  0  0
    3.1596   77.0383   22.9250 H   0  0  0  0  0  0  0  0  0  0  0  0
  1 36  1  0  0  0  0
  1 37  1  0  0  0  0
  1 38  1  0  0  0  0
  2  3  2  0  0  0  0
  2  1  1  0  0  0  0
  4  2  1  0  0  0  0
  4 39  1  0  0  0  0
  5  4  1  0  0  0  0
  5  6  1  0  0  0  0
  5 40  1  6  0  0  0
  6  7  2  0  0  0  0
  6 11  1  0  0  0  0
  8  5  1  0  0  0  0
  8 41  1  1  0  0  0
  9  8  1  0  0  0  0
  9 42  1  0  0  0  0
 10  8  1  0  0  0  0
 10 43  1  0  0  0  0
 10 44  1  0  0  0  0
 10 45  1  0  0  0  0
 11 12  1  0  0  0  0
 11 46  1  0  0  0  0
 12 15  1  0  0  0  0
 12 47  1  1  0  0  0
 13 12  1  0  0  0  0
 13 22  1  0  0  0  0
 14 13  2  0  0  0  0
 15 16  1  0  0  0  0
 15 48  1  0  0  0  0
 15 49  1  0  0  0  0
 16 17  1  0  0  0  0
 17 19  2  0  0  0  0
 17 50  1  0  0  0  0
 18 16  2  0  0  0  0
 18 20  1  0  0  0  0
 18 51  1  0  0  0  0
 19 52  1  0  0  0  0
 20 21  2  0  0  0  0
 20 53  1  0  0  0  0
 21 19  1  0  0  0  0
 21 54  1  0  0  0  0
 22 28  1  0  0  0  0
 23 24  1  0  0  0  0
 23 22  1  0  0  0  0
 23 26  1  0  0  0  0
 23 55  1  6  0  0  0
 24 25  2  0  0  0  0
 26 27  1  0  0  0  0
 26 56  1  0  0  0  0
 26 57  1  0  0  0  0
 27 58  1  0  0  0  0
 27 59  1  0  0  0  0
 28 27  1  0  0  0  0
 28 60  1  0  0  0  0
 28 61  1  0  0  0  0
 29 24  1  0  0  0  0
 29 62  1  0  0  0  0
 30 29  1  0  0  0  0
 30 31  1  0  0  0  0
 30 63  1  6  0  0  0
 31 32  2  0  0  0  0
 31 34  1  0  0  0  0
 33 30  1  0  0  0  0
 33 64  1  0  0  0  0
 33 65  1  0  0  0  0
 33 66  1  0  0  0  0
 34 35  1  0  0  0  0
 34 67  1  0  0  0  0
 35 68  1  0  0  0  0
 35 69  1  0  0  0  0
 35 70  1  0  0  0  0
M  END
>  <MODEL>
       0

$$$$
selected_4mers/TFPA/906_noH.pdb
 OpenBabel03042518353D

 70 71  0  0  1  0  0  0  0  0999 V2000
   -6.9020    3.6940   27.4310 C   0  0  0  0  0  0  0  0  0  0  0  0
   -5.6390    4.5500   27.3990 C   0  0  0  0  0  0  0  0  0  0  0  0
   -5.1100    4.8460   26.3290 O   0  0  0  0  0  0  0  0  0  0  0  0
   -5.1530    4.9660   28.5610 N   0  0  0  0  0  0  0  0  0  0  0  0
   -3.9320    5.7460   28.5790 C   0  0  2  0  0  0  0  0  0  0  0  0
   -2.8540    4.8040   29.0720 C   0  0  0  0  0  0  0  0  0  0  0  0
   -2.9300    4.2850   30.1900 O   0  0  0  0  0  0  0  0  0  0  0  0
   -4.0530    6.9700   29.4910 C   0  0  2  0  0  0  0  0  0  0  0  0
   -5.1250    7.7970   29.0190 O   0  0  0  0  0  0  0  0  0  0  0  0
   -2.7570    7.7760   29.4740 C   0  0  0  0  0  0  0  0  0  0  0  0
   -1.8630    4.5720   28.2140 N   0  0  0  0  0  0  0  0  0  0  0  0
   -0.7670    3.6530   28.4990 C   0  0  2  0  0  0  0  0  0  0  0  0
    0.3770    4.2140   29.3410 C   0  0  0  0  0  0  0  0  0  0  0  0
    0.6490    5.4140   29.3290 O   0  0  0  0  0  0  0  0  0  0  0  0
   -0.2120    3.1290   27.1740 C   0  0  0  0  0  0  0  0  0  0  0  0
   -1.2420    2.4620   26.3160 C   0  0  0  0  0  0  0  0  0  0  0  0
   -2.0240    3.2080   25.4420 C   0  0  0  0  0  0  0  0  0  0  0  0
   -1.4490    1.0860   26.3970 C   0  0  0  0  0  0  0  0  0  0  0  0
   -2.9960    2.6040   24.6630 C   0  0  0  0  0  0  0  0  0  0  0  0
   -2.4230    0.4680   25.6160 C   0  0  0  0  0  0  0  0  0  0  0  0
   -3.1960    1.2280   24.7490 C   0  0  0  0  0  0  0  0  0  0  0  0
    1.0440    3.3440   30.1120 N   0  0  0  0  0  0  0  0  0  0  0  0
    2.1670    3.7500   30.9580 C   0  0  2  0  0  0  0  0  0  0  0  0
    3.2880    4.2650   30.0580 C   0  0  0  0  0  0  0  0  0  0  0  0
    3.5850    3.6700   29.0220 O   0  0  0  0  0  0  0  0  0  0  0  0
    2.5550    2.4550   31.6580 C   0  0  0  0  0  0  0  0  0  0  0  0
    1.2580    1.7110   31.7400 C   0  0  0  0  0  0  0  0  0  0  0  0
    0.6730    1.9410   30.3730 C   0  0  0  0  0  0  0  0  0  0  0  0
    3.9010    5.3750   30.4390 N   0  0  0  0  0  0  0  0  0  0  0  0
    4.9780    5.9340   29.6380 C   0  0  2  0  0  0  0  0  0  0  0  0
    6.1550    4.9680   29.6120 C   0  0  0  0  0  0  0  0  0  0  0  0
    6.3580    4.2010   30.5510 O   0  0  0  0  0  0  0  0  0  0  0  0
    5.4190    7.2760   30.2200 C   0  0  0  0  0  0  0  0  0  0  0  0
    6.9150    4.9990   28.5250 N   0  0  0  0  0  0  0  0  0  0  0  0
    8.0920    4.1510   28.3950 C   0  0  0  0  0  0  0  0  0  0  0  0
   -7.1802    3.4312   26.4318 H   0  0  0  0  0  0  0  0  0  0  0  0
   -7.6958    4.2465   27.8886 H   0  0  0  0  0  0  0  0  0  0  0  0
   -6.7155    2.8041   27.9950 H   0  0  0  0  0  0  0  0  0  0  0  0
   -5.6166    4.7473   29.4016 H   0  0  0  0  0  0  0  0  0  0  0  0
   -3.7076    6.1323   27.6067 H   0  0  0  0  0  0  0  0  0  0  0  0
   -4.2460    6.6434   30.4915 H   0  0  0  0  0  0  0  0  0  0  0  0
   -4.9361    8.0849   28.1122 H   0  0  0  0  0  0  0  0  0  0  0  0
   -2.5559    8.1070   28.4765 H   0  0  0  0  0  0  0  0  0  0  0  0
   -1.9503    7.1615   29.8154 H   0  0  0  0  0  0  0  0  0  0  0  0
   -2.8562    8.6246   30.1182 H   0  0  0  0  0  0  0  0  0  0  0  0
   -1.8703    5.0416   27.3487 H   0  0  0  0  0  0  0  0  0  0  0  0
   -1.1932    2.8790   29.1025 H   0  0  0  0  0  0  0  0  0  0  0  0
    0.1997    3.9532   26.6298 H   0  0  0  0  0  0  0  0  0  0  0  0
    0.5249    2.3906   27.4119 H   0  0  0  0  0  0  0  0  0  0  0  0
   -1.8779    4.2273   25.3728 H   0  0  0  0  0  0  0  0  0  0  0  0
   -0.8754    0.5198   27.0415 H   0  0  0  0  0  0  0  0  0  0  0  0
   -3.5707    3.1714   24.0205 H   0  0  0  0  0  0  0  0  0  0  0  0
   -2.5694   -0.5514   25.6818 H   0  0  0  0  0  0  0  0  0  0  0  0
   -3.9184    0.7740   24.1685 H   0  0  0  0  0  0  0  0  0  0  0  0
    1.9483    4.5305   31.6564 H   0  0  0  0  0  0  0  0  0  0  0  0
    2.9488    2.6490   32.6338 H   0  0  0  0  0  0  0  0  0  0  0  0
    3.3196    1.9116   31.1432 H   0  0  0  0  0  0  0  0  0  0  0  0
    1.4192    0.6691   31.9228 H   0  0  0  0  0  0  0  0  0  0  0  0
    0.6252    2.0375   32.5386 H   0  0  0  0  0  0  0  0  0  0  0  0
    1.1066    1.2832   29.6490 H   0  0  0  0  0  0  0  0  0  0  0  0
   -0.3794    1.7559   30.3177 H   0  0  0  0  0  0  0  0  0  0  0  0
    3.6257    5.8249   31.2703 H   0  0  0  0  0  0  0  0  0  0  0  0
    4.6276    6.0874   28.6387 H   0  0  0  0  0  0  0  0  0  0  0  0
    5.7714    7.1325   31.2201 H   0  0  0  0  0  0  0  0  0  0  0  0
    4.5892    7.9514   30.2277 H   0  0  0  0  0  0  0  0  0  0  0  0
    6.2053    7.6839   29.6199 H   0  0  0  0  0  0  0  0  0  0  0  0
    6.6780    5.6091   27.7895 H   0  0  0  0  0  0  0  0  0  0  0  0
    8.2020    3.5558   29.2774 H   0  0  0  0  0  0  0  0  0  0  0  0
    8.9603    4.7631   28.2672 H   0  0  0  0  0  0  0  0  0  0  0  0
    7.9784    3.5111   27.5450 H   0  0  0  0  0  0  0  0  0  0  0  0
  1 36  1  0  0  0  0
  1 37  1  0  0  0  0
  1 38  1  0  0  0  0
  2  1  1  0  0  0  0
  2  4  1  0  0  0  0
  3  2  2  0  0  0  0
  4  5  1  0  0  0  0
  4 39  1  0  0  0  0
  5  6  1  0  0  0  0
  5  8  1  0  0  0  0
  5 40  1  6  0  0  0
  6  7  2  0  0  0  0
  8 41  1  1  0  0  0
  9  8  1  0  0  0  0
  9 42  1  0  0  0  0
 10  8  1  0  0  0  0
 10 43  1  0  0  0  0
 10 44  1  0  0  0  0
 10 45  1  0  0  0  0
 11 12  1  0  0  0  0
 11  6  1  0  0  0  0
 11 46  1  0  0  0  0
 12 13  1  0  0  0  0
 12 47  1  1  0  0  0
 13 22  1  0  0  0  0
 14 13  2  0  0  0  0
 15 12  1  0  0  0  0
 15 48  1  0  0  0  0
 15 49  1  0  0  0  0
 16 18  1  0  0  0  0
 16 15  1  0  0  0  0
 17 16  2  0  0  0  0
 17 50  1  0  0  0  0
 18 51  1  0  0  0  0
 19 21  2  0  0  0  0
 19 17  1  0  0  0  0
 19 52  1  0  0  0  0
 20 18  2  0  0  0  0
 20 53  1  0  0  0  0
 21 20  1  0  0  0  0
 21 54  1  0  0  0  0
 22 28  1  0  0  0  0
 22 23  1  0  0  0  0
 23 26  1  0  0  0  0
 23 55  1  1  0  0  0
 24 29  1  0  0  0  0
 24 23  1  0  0  0  0
 25 24  2  0  0  0  0
 26 27  1  0  0  0  0
 26 56  1  0  0  0  0
 26 57  1  0  0  0  0
 27 58  1  0  0  0  0
 27 59  1  0  0  0  0
 28 27  1  0  0  0  0
 28 60  1  0  0  0  0
 28 61  1  0  0  0  0
 29 62  1  0  0  0  0
 30 33  1  0  0  0  0
 30 29  1  0  0  0  0
 30 63  1  6  0  0  0
 31 30  1  0  0  0  0
 31 32  2  0  0  0  0
 33 64  1  0  0  0  0
 33 65  1  0  0  0  0
 33 66  1  0  0  0  0
 34 31  1  0  0  0  0
 34 67  1  0  0  0  0
 35 34  1  0  0  0  0
 35 68  1  0  0  0  0
 35 69  1  0  0  0  0
 35 70  1  0  0  0  0
M  END
>  <MODEL>
       0

$$$$
selected_4mers/TFPA/907_noH.pdb
 OpenBabel03042518353D

 70 71  0  0  1  0  0  0  0  0999 V2000
   27.1110   39.1490   28.0580 C   0  0  0  0  0  0  0  0  0  0  0  0
   27.6090   40.2370   29.0210 C   0  0  0  0  0  0  0  0  0  0  0  0
   27.8160   39.9790   30.2160 O   0  0  0  0  0  0  0  0  0  0  0  0
   27.8190   41.4340   28.4920 N   0  0  0  0  0  0  0  0  0  0  0  0
   28.3440   42.5390   29.2770 C   0  0  2  0  0  0  0  0  0  0  0  0
   27.2230   43.5280   29.5610 C   0  0  0  0  0  0  0  0  0  0  0  0
   26.1680   43.4840   28.9130 O   0  0  0  0  0  0  0  0  0  0  0  0
   29.4790   43.2490   28.5170 C   0  0  2  0  0  0  0  0  0  0  0  0
   28.9840   43.6380   27.2230 O   0  0  0  0  0  0  0  0  0  0  0  0
   30.6850   42.3090   28.3610 C   0  0  0  0  0  0  0  0  0  0  0  0
   27.4560   44.4220   30.5260 N   0  0  0  0  0  0  0  0  0  0  0  0
   26.4780   45.4430   30.9090 C   0  0  2  0  0  0  0  0  0  0  0  0
   26.8700   46.8040   30.3420 C   0  0  0  0  0  0  0  0  0  0  0  0
   27.9840   47.2880   30.5860 O   0  0  0  0  0  0  0  0  0  0  0  0
   26.3420   45.5070   32.4480 C   0  0  0  0  0  0  0  0  0  0  0  0
   25.9420   44.2050   33.0600 C   0  0  0  0  0  0  0  0  0  0  0  0
   24.6030   43.8250   33.0860 C   0  0  0  0  0  0  0  0  0  0  0  0
   26.8990   43.3410   33.6020 C   0  0  0  0  0  0  0  0  0  0  0  0
   24.2040   42.6070   33.6490 C   0  0  0  0  0  0  0  0  0  0  0  0
   26.5170   42.1130   34.1410 C   0  0  0  0  0  0  0  0  0  0  0  0
   25.1630   41.7490   34.1540 C   0  0  0  0  0  0  0  0  0  0  0  0
   25.9720   47.4280   29.5630 N   0  0  0  0  0  0  0  0  0  0  0  0
   26.3150   48.7350   28.9880 C   0  0  2  0  0  0  0  0  0  0  0  0
   26.2620   49.9220   29.9630 C   0  0  0  0  0  0  0  0  0  0  0  0
   26.9920   50.8900   29.7660 O   0  0  0  0  0  0  0  0  0  0  0  0
   25.3000   48.9160   27.8630 C   0  0  0  0  0  0  0  0  0  0  0  0
   24.1710   48.0090   28.1720 C   0  0  0  0  0  0  0  0  0  0  0  0
   24.6480   46.9450   29.1240 C   0  0  0  0  0  0  0  0  0  0  0  0
   25.4350   49.8410   31.0030 N   0  0  0  0  0  0  0  0  0  0  0  0
   25.2740   50.9570   31.9320 C   0  0  2  0  0  0  0  0  0  0  0  0
   24.6530   50.4270   33.2220 C   0  0  0  0  0  0  0  0  0  0  0  0
   23.8930   49.4580   33.1880 O   0  0  0  0  0  0  0  0  0  0  0  0
   24.3810   52.0380   31.3310 C   0  0  0  0  0  0  0  0  0  0  0  0
   24.9770   51.0850   34.3290 N   0  0  0  0  0  0  0  0  0  0  0  0
   24.3640   50.8090   35.6130 C   0  0  0  0  0  0  0  0  0  0  0  0
   26.9939   39.5654   27.0793 H   0  0  0  0  0  0  0  0  0  0  0  0
   26.1696   38.7731   28.4007 H   0  0  0  0  0  0  0  0  0  0  0  0
   27.8226   38.3506   28.0232 H   0  0  0  0  0  0  0  0  0  0  0  0
   27.6135   41.5788   27.5401 H   0  0  0  0  0  0  0  0  0  0  0  0
   28.7356   42.1579   30.1969 H   0  0  0  0  0  0  0  0  0  0  0  0
   29.7981   44.1124   29.0625 H   0  0  0  0  0  0  0  0  0  0  0  0
   28.6973   42.8496   26.7361 H   0  0  0  0  0  0  0  0  0  0  0  0
   30.3890   41.4364   27.8171 H   0  0  0  0  0  0  0  0  0  0  0  0
   31.0414   42.0225   29.3284 H   0  0  0  0  0  0  0  0  0  0  0  0
   31.4641   42.8137   27.8289 H   0  0  0  0  0  0  0  0  0  0  0  0
   28.3193   44.3935   30.9985 H   0  0  0  0  0  0  0  0  0  0  0  0
   25.5275   45.1744   30.4976 H   0  0  0  0  0  0  0  0  0  0  0  0
   25.6015   46.2394   32.6934 H   0  0  0  0  0  0  0  0  0  0  0  0
   27.3046   45.7596   32.8411 H   0  0  0  0  0  0  0  0  0  0  0  0
   23.8907   44.4534   32.6824 H   0  0  0  0  0  0  0  0  0  0  0  0
   27.8942   43.6140   33.6030 H   0  0  0  0  0  0  0  0  0  0  0  0
   23.2046   42.3524   33.6866 H   0  0  0  0  0  0  0  0  0  0  0  0
   27.2285   41.4742   34.5291 H   0  0  0  0  0  0  0  0  0  0  0  0
   24.8808   40.8356   34.5427 H   0  0  0  0  0  0  0  0  0  0  0  0
   27.3372   48.7340   28.6718 H   0  0  0  0  0  0  0  0  0  0  0  0
   24.9616   49.9305   27.8290 H   0  0  0  0  0  0  0  0  0  0  0  0
   25.7311   48.6898   26.9102 H   0  0  0  0  0  0  0  0  0  0  0  0
   23.8193   47.5529   27.2702 H   0  0  0  0  0  0  0  0  0  0  0  0
   23.3718   48.5633   28.6181 H   0  0  0  0  0  0  0  0  0  0  0  0
   24.7327   46.0007   28.6279 H   0  0  0  0  0  0  0  0  0  0  0  0
   23.9741   46.7901   29.9405 H   0  0  0  0  0  0  0  0  0  0  0  0
   24.9222   49.0134   31.1489 H   0  0  0  0  0  0  0  0  0  0  0  0
   26.2302   51.3933   32.1324 H   0  0  0  0  0  0  0  0  0  0  0  0
   23.4158   51.6270   31.1205 H   0  0  0  0  0  0  0  0  0  0  0  0
   24.8198   52.4000   30.4248 H   0  0  0  0  0  0  0  0  0  0  0  0
   24.2810   52.8452   32.0262 H   0  0  0  0  0  0  0  0  0  0  0  0
   25.6623   51.7898   34.2753 H   0  0  0  0  0  0  0  0  0  0  0  0
   23.6460   50.0232   35.5039 H   0  0  0  0  0  0  0  0  0  0  0  0
   23.8758   51.6908   35.9721 H   0  0  0  0  0  0  0  0  0  0  0  0
   25.1176   50.5092   36.3109 H   0  0  0  0  0  0  0  0  0  0  0  0
  1  2  1  0  0  0  0
  1 36  1  0  0  0  0
  1 37  1  0  0  0  0
  1 38  1  0  0  0  0
  2  3  2  0  0  0  0
  4  2  1  0  0  0  0
  4  5  1  0  0  0  0
  4 39  1  0  0  0  0
  5  6  1  0  0  0  0
  5 40  1  1  0  0  0
  6 11  1  0  0  0  0
  7  6  2  0  0  0  0
  8  5  1  0  0  0  0
  8 41  1  1  0  0  0
  9  8  1  0  0  0  0
  9 42  1  0  0  0  0
 10  8  1  0  0  0  0
 10 43  1  0  0  0  0
 10 44  1  0  0  0  0
 10 45  1  0  0  0  0
 11 12  1  0  0  0  0
 11 46  1  0  0  0  0
 12 15  1  0  0  0  0
 12 47  1  6  0  0  0
 13 14  2  0  0  0  0
 13 12  1  0  0  0  0
 15 16  1  0  0  0  0
 15 48  1  0  0  0  0
 15 49  1  0  0  0  0
 16 17  2  0  0  0  0
 16 18  1  0  0  0  0
 17 19  1  0  0  0  0
 17 50  1  0  0  0  0
 18 20  2  0  0  0  0
 18 51  1  0  0  0  0
 19 21  2  0  0  0  0
 19 52  1  0  0  0  0
 20 21  1  0  0  0  0
 20 53  1  0  0  0  0
 21 54  1  0  0  0  0
 22 13  1  0  0  0  0
 23 22  1  0  0  0  0
 23 24  1  0  0  0  0
 23 55  1  6  0  0  0
 24 29  1  0  0  0  0
 25 24  2  0  0  0  0
 26 27  1  0  0  0  0
 26 23  1  0  0  0  0
 26 56  1  0  0  0  0
 26 57  1  0  0  0  0
 27 28  1  0  0  0  0
 27 58  1  0  0  0  0
 27 59  1  0  0  0  0
 28 22  1  0  0  0  0
 28 60  1  0  0  0  0
 28 61  1  0  0  0  0
 29 30  1  0  0  0  0
 29 62  1  0  0  0  0
 30 31  1  0  0  0  0
 30 63  1  1  0  0  0
 31 34  1  0  0  0  0
 32 31  2  0  0  0  0
 33 30  1  0  0  0  0
 33 64  1  0  0  0  0
 33 65  1  0  0  0  0
 33 66  1  0  0  0  0
 34 35  1  0  0  0  0
 34 67  1  0  0  0  0
 35 68  1  0  0  0  0
 35 69  1  0  0  0  0
 35 70  1  0  0  0  0
M  END
>  <MODEL>
       0

$$$$
selected_4mers/TFPA/908_noH.pdb
 OpenBabel03042518353D

 70 71  0  0  1  0  0  0  0  0999 V2000
   28.3800   20.3990   15.0980 C   0  0  0  0  0  0  0  0  0  0  0  0
   28.9460   20.8500   16.4390 C   0  0  0  0  0  0  0  0  0  0  0  0
   28.4350   20.4430   17.5220 O   0  0  0  0  0  0  0  0  0  0  0  0
   29.8830   21.7880   16.3920 N   0  0  0  0  0  0  0  0  0  0  0  0
   30.3160   22.5290   17.5700 C   0  0  2  0  0  0  0  0  0  0  0  0
   29.4240   23.7220   17.9210 C   0  0  0  0  0  0  0  0  0  0  0  0
   29.4160   24.1510   19.0940 O   0  0  0  0  0  0  0  0  0  0  0  0
   31.8080   22.8940   17.4760 C   0  0  2  0  0  0  0  0  0  0  0  0
   32.0850   23.8820   16.5130 O   0  0  0  0  0  0  0  0  0  0  0  0
   32.7080   21.6990   17.1550 C   0  0  0  0  0  0  0  0  0  0  0  0
   28.6220   24.2290   16.9940 N   0  0  0  0  0  0  0  0  0  0  0  0
   27.7120   25.3900   17.2290 C   0  0  2  0  0  0  0  0  0  0  0  0
   26.8830   25.1930   18.5190 C   0  0  0  0  0  0  0  0  0  0  0  0
   26.8520   26.1530   19.3020 O   0  0  0  0  0  0  0  0  0  0  0  0
   26.9260   25.6140   15.9290 C   0  0  0  0  0  0  0  0  0  0  0  0
   25.7720   26.6410   15.9440 C   0  0  0  0  0  0  0  0  0  0  0  0
   24.5850   26.3970   16.5650 C   0  0  0  0  0  0  0  0  0  0  0  0
   25.9050   27.7990   15.1700 C   0  0  0  0  0  0  0  0  0  0  0  0
   23.5060   27.2690   16.4480 C   0  0  0  0  0  0  0  0  0  0  0  0
   24.8290   28.6770   15.0340 C   0  0  0  0  0  0  0  0  0  0  0  0
   23.6050   28.4170   15.6580 C   0  0  0  0  0  0  0  0  0  0  0  0
   26.2430   24.0440   18.7200 N   0  0  0  0  0  0  0  0  0  0  0  0
   25.4310   23.8420   19.9620 C   0  0  2  0  0  0  0  0  0  0  0  0
   26.1730   23.0450   21.0450 C   0  0  0  0  0  0  0  0  0  0  0  0
   25.5280   22.6860   22.0520 O   0  0  0  0  0  0  0  0  0  0  0  0
   24.2580   22.9820   19.4410 C   0  0  0  0  0  0  0  0  0  0  0  0
   24.9200   22.0900   18.4150 C   0  0  0  0  0  0  0  0  0  0  0  0
   25.9470   22.9630   17.7490 C   0  0  0  0  0  0  0  0  0  0  0  0
   27.4410   22.7320   20.8630 N   0  0  0  0  0  0  0  0  0  0  0  0
   28.1210   21.8760   21.8550 C   0  0  2  0  0  0  0  0  0  0  0  0
   28.0170   22.4370   23.2720 C   0  0  0  0  0  0  0  0  0  0  0  0
   27.8470   21.5980   24.2060 O   0  0  0  0  0  0  0  0  0  0  0  0
   29.5570   21.6090   21.4280 C   0  0  0  0  0  0  0  0  0  0  0  0
   28.1090   23.7270   23.5360 N   0  0  0  0  0  0  0  0  0  0  0  0
   28.0040   24.1970   24.9400 C   0  0  0  0  0  0  0  0  0  0  0  0
   28.9419   20.8466   14.3050 H   0  0  0  0  0  0  0  0  0  0  0  0
   27.3560   20.7002   15.0236 H   0  0  0  0  0  0  0  0  0  0  0  0
   28.4447   19.3335   15.0237 H   0  0  0  0  0  0  0  0  0  0  0  0
   30.3033   21.9920   15.5254 H   0  0  0  0  0  0  0  0  0  0  0  0
   30.1994   21.8675   18.4029 H   0  0  0  0  0  0  0  0  0  0  0  0
   32.0249   23.2657   18.4556 H   0  0  0  0  0  0  0  0  0  0  0  0
   31.8856   23.5366   15.6288 H   0  0  0  0  0  0  0  0  0  0  0  0
   32.4825   21.3360   16.1741 H   0  0  0  0  0  0  0  0  0  0  0  0
   32.5379   20.9220   17.8707 H   0  0  0  0  0  0  0  0  0  0  0  0
   33.7330   22.0033   17.1957 H   0  0  0  0  0  0  0  0  0  0  0  0
   28.6268   23.8165   16.1001 H   0  0  0  0  0  0  0  0  0  0  0  0
   28.2380   26.2994   17.4322 H   0  0  0  0  0  0  0  0  0  0  0  0
   27.6260   25.9336   15.1856 H   0  0  0  0  0  0  0  0  0  0  0  0
   26.4452   24.6762   15.7438 H   0  0  0  0  0  0  0  0  0  0  0  0
   24.4826   25.5441   17.1369 H   0  0  0  0  0  0  0  0  0  0  0  0
   26.8001   28.0040   14.6991 H   0  0  0  0  0  0  0  0  0  0  0  0
   22.6266   27.0659   16.9485 H   0  0  0  0  0  0  0  0  0  0  0  0
   24.9382   29.5307   14.4645 H   0  0  0  0  0  0  0  0  0  0  0  0
   22.8007   29.0526   15.5388 H   0  0  0  0  0  0  0  0  0  0  0  0
   25.1676   24.7731   20.4187 H   0  0  0  0  0  0  0  0  0  0  0  0
   23.8244   22.4043   20.2304 H   0  0  0  0  0  0  0  0  0  0  0  0
   23.4548   23.5634   19.0389 H   0  0  0  0  0  0  0  0  0  0  0  0
   25.3881   21.2531   18.8897 H   0  0  0  0  0  0  0  0  0  0  0  0
   24.2165   21.6898   17.7151 H   0  0  0  0  0  0  0  0  0  0  0  0
   25.5562   23.3732   16.8413 H   0  0  0  0  0  0  0  0  0  0  0  0
   26.8269   22.4118   17.4904 H   0  0  0  0  0  0  0  0  0  0  0  0
   27.9283   23.0652   20.0751 H   0  0  0  0  0  0  0  0  0  0  0  0
   27.6145   20.9340   21.8855 H   0  0  0  0  0  0  0  0  0  0  0  0
   30.0946   22.5332   21.3869 H   0  0  0  0  0  0  0  0  0  0  0  0
   29.5622   21.1501   20.4614 H   0  0  0  0  0  0  0  0  0  0  0  0
   30.0239   20.9560   22.1354 H   0  0  0  0  0  0  0  0  0  0  0  0
   28.2464   24.3734   22.8062 H   0  0  0  0  0  0  0  0  0  0  0  0
   27.8574   23.3576   25.5871 H   0  0  0  0  0  0  0  0  0  0  0  0
   27.1744   24.8666   25.0309 H   0  0  0  0  0  0  0  0  0  0  0  0
   28.9046   24.7057   25.2141 H   0  0  0  0  0  0  0  0  0  0  0  0
  1  2  1  0  0  0  0
  1 36  1  0  0  0  0
  1 37  1  0  0  0  0
  1 38  1  0  0  0  0
  2  3  2  0  0  0  0
  4  2  1  0  0  0  0
  4  5  1  0  0  0  0
  4 39  1  0  0  0  0
  5  6  1  0  0  0  0
  5 40  1  1  0  0  0
  6  7  2  0  0  0  0
  8  5  1  0  0  0  0
  8 41  1  1  0  0  0
  9  8  1  0  0  0  0
  9 42  1  0  0  0  0
 10  8  1  0  0  0  0
 10 43  1  0  0  0  0
 10 44  1  0  0  0  0
 10 45  1  0  0  0  0
 11 12  1  0  0  0  0
 11  6  1  0  0  0  0
 11 46  1  0  0  0  0
 12 13  1  0  0  0  0
 12 47  1  1  0  0  0
 13 22  1  0  0  0  0
 13 14  2  0  0  0  0
 15 16  1  0  0  0  0
 15 12  1  0  0  0  0
 15 48  1  0  0  0  0
 15 49  1  0  0  0  0
 16 17  1  0  0  0  0
 17 50  1  0  0  0  0
 18 16  2  0  0  0  0
 18 51  1  0  0  0  0
 19 17  2  0  0  0  0
 19 52  1  0  0  0  0
 20 18  1  0  0  0  0
 20 21  2  0  0  0  0
 20 53  1  0  0  0  0
 21 19  1  0  0  0  0
 21 54  1  0  0  0  0
 22 23  1  0  0  0  0
 23 24  1  0  0  0  0
 23 55  1  1  0  0  0
 24 25  2  0  0  0  0
 26 23  1  0  0  0  0
 26 56  1  0  0  0  0
 26 57  1  0  0  0  0
 27 26  1  0  0  0  0
 27 58  1  0  0  0  0
 27 59  1  0  0  0  0
 28 27  1  0  0  0  0
 28 22  1  0  0  0  0
 28 60  1  0  0  0  0
 28 61  1  0  0  0  0
 29 24  1  0  0  0  0
 29 30  1  0  0  0  0
 29 62  1  0  0  0  0
 30 31  1  0  0  0  0
 30 63  1  6  0  0  0
 31 34  1  0  0  0  0
 31 32  2  0  0  0  0
 33 30  1  0  0  0  0
 33 64  1  0  0  0  0
 33 65  1  0  0  0  0
 33 66  1  0  0  0  0
 34 35  1  0  0  0  0
 34 67  1  0  0  0  0
 35 68  1  0  0  0  0
 35 69  1  0  0  0  0
 35 70  1  0  0  0  0
M  END
>  <MODEL>
       0

$$$$
selected_4mers/TFPA/909_noH.pdb
 OpenBabel03042518353D

 70 71  0  0  1  0  0  0  0  0999 V2000
   29.9450   10.5290   39.3010 C   0  0  0  0  0  0  0  0  0  0  0  0
   31.0420   10.2070   40.3270 C   0  0  0  0  0  0  0  0  0  0  0  0
   32.1980   10.6080   40.1510 O   0  0  0  0  0  0  0  0  0  0  0  0
   30.6810    9.4950   41.3930 N   0  0  0  0  0  0  0  0  0  0  0  0
   31.6470    9.1410   42.4360 C   0  0  2  0  0  0  0  0  0  0  0  0
   32.1950    7.7160   42.3500 C   0  0  0  0  0  0  0  0  0  0  0  0
   33.1320    7.3680   43.0730 O   0  0  0  0  0  0  0  0  0  0  0  0
   31.0430    9.3250   43.8370 C   0  0  2  0  0  0  0  0  0  0  0  0
   29.8260    8.5720   43.9290 O   0  0  0  0  0  0  0  0  0  0  0  0
   30.7630   10.7950   44.1040 C   0  0  0  0  0  0  0  0  0  0  0  0
   31.6110    6.9010   41.4750 N   0  0  0  0  0  0  0  0  0  0  0  0
   32.0330    5.5140   41.2900 C   0  0  2  0  0  0  0  0  0  0  0  0
   32.2380    4.8000   42.6270 C   0  0  0  0  0  0  0  0  0  0  0  0
   33.3720    4.5200   43.0240 O   0  0  0  0  0  0  0  0  0  0  0  0
   33.3350    5.4580   40.4810 C   0  0  0  0  0  0  0  0  0  0  0  0
   33.2650    6.1820   39.1640 C   0  0  0  0  0  0  0  0  0  0  0  0
   32.4900    5.6860   38.1190 C   0  0  0  0  0  0  0  0  0  0  0  0
   33.9760    7.3640   38.9700 C   0  0  0  0  0  0  0  0  0  0  0  0
   32.4190    6.3630   36.8990 C   0  0  0  0  0  0  0  0  0  0  0  0
   33.9110    8.0470   37.7560 C   0  0  0  0  0  0  0  0  0  0  0  0
   33.1340    7.5440   36.7180 C   0  0  0  0  0  0  0  0  0  0  0  0
   31.1410    4.4940   43.3380 N   0  0  0  0  0  0  0  0  0  0  0  0
   31.2280    3.8080   44.6330 C   0  0  2  0  0  0  0  0  0  0  0  0
   31.8370    2.4140   44.4950 C   0  0  0  0  0  0  0  0  0  0  0  0
   31.4950    1.6620   43.5790 O   0  0  0  0  0  0  0  0  0  0  0  0
   29.7730    3.7490   45.0990 C   0  0  0  0  0  0  0  0  0  0  0  0
   29.1430    4.9190   44.4130 C   0  0  0  0  0  0  0  0  0  0  0  0
   29.7500    4.8640   43.0370 C   0  0  0  0  0  0  0  0  0  0  0  0
   32.7280    2.0770   45.4210 N   0  0  0  0  0  0  0  0  0  0  0  0
   33.4130    0.7930   45.4140 C   0  0  2  0  0  0  0  0  0  0  0  0
   32.4760   -0.4090   45.4530 C   0  0  0  0  0  0  0  0  0  0  0  0
   32.7170   -1.4110   44.7800 O   0  0  0  0  0  0  0  0  0  0  0  0
   34.3950    0.7340   46.5830 C   0  0  0  0  0  0  0  0  0  0  0  0
   31.4030   -0.3110   46.2280 N   0  0  0  0  0  0  0  0  0  0  0  0
   30.4660   -1.4210   46.3410 C   0  0  0  0  0  0  0  0  0  0  0  0
   30.3632   11.1013   38.4994 H   0  0  0  0  0  0  0  0  0  0  0  0
   29.1683   11.0926   39.7743 H   0  0  0  0  0  0  0  0  0  0  0  0
   29.5394    9.6174   38.9146 H   0  0  0  0  0  0  0  0  0  0  0  0
   29.7458    9.2005   41.4820 H   0  0  0  0  0  0  0  0  0  0  0  0
   32.4632    9.8120   42.2672 H   0  0  0  0  0  0  0  0  0  0  0  0
   31.7400    8.9739   44.5690 H   0  0  0  0  0  0  0  0  0  0  0  0
   29.1964    8.8926   43.2644 H   0  0  0  0  0  0  0  0  0  0  0  0
   30.0665   11.1627   43.3797 H   0  0  0  0  0  0  0  0  0  0  0  0
   31.6752   11.3500   44.0355 H   0  0  0  0  0  0  0  0  0  0  0  0
   30.3502   10.9070   45.0848 H   0  0  0  0  0  0  0  0  0  0  0  0
   30.8660    7.2456   40.9314 H   0  0  0  0  0  0  0  0  0  0  0  0
   31.2520    5.0126   40.7575 H   0  0  0  0  0  0  0  0  0  0  0  0
   34.1149    5.8982   41.0666 H   0  0  0  0  0  0  0  0  0  0  0  0
   33.5197    4.4275   40.2599 H   0  0  0  0  0  0  0  0  0  0  0  0
   31.9622    4.8085   38.2471 H   0  0  0  0  0  0  0  0  0  0  0  0
   34.5585    7.7392   39.7348 H   0  0  0  0  0  0  0  0  0  0  0  0
   31.8375    5.9884   36.1331 H   0  0  0  0  0  0  0  0  0  0  0  0
   34.4388    8.9246   37.6280 H   0  0  0  0  0  0  0  0  0  0  0  0
   33.0875    8.0444   35.8166 H   0  0  0  0  0  0  0  0  0  0  0  0
   31.8658    4.3122   45.3286 H   0  0  0  0  0  0  0  0  0  0  0  0
   29.3106    2.8328   44.7962 H   0  0  0  0  0  0  0  0  0  0  0  0
   29.6731    3.7849   46.1637 H   0  0  0  0  0  0  0  0  0  0  0  0
   28.0791    4.8135   44.3696 H   0  0  0  0  0  0  0  0  0  0  0  0
   29.3148    5.8480   44.9154 H   0  0  0  0  0  0  0  0  0  0  0  0
   29.2724    4.1238   42.4296 H   0  0  0  0  0  0  0  0  0  0  0  0
   29.6533    5.7746   42.4834 H   0  0  0  0  0  0  0  0  0  0  0  0
   32.9324    2.7195   46.1384 H   0  0  0  0  0  0  0  0  0  0  0  0
   33.9322    0.7282   44.4807 H   0  0  0  0  0  0  0  0  0  0  0  0
   33.8562    0.8003   47.5051 H   0  0  0  0  0  0  0  0  0  0  0  0
   35.0830    1.5505   46.5124 H   0  0  0  0  0  0  0  0  0  0  0  0
   34.9335   -0.1900   46.5502 H   0  0  0  0  0  0  0  0  0  0  0  0
   31.2387    0.5192   46.7310 H   0  0  0  0  0  0  0  0  0  0  0  0
   30.8005   -2.2337   45.7306 H   0  0  0  0  0  0  0  0  0  0  0  0
   29.4974   -1.1048   46.0144 H   0  0  0  0  0  0  0  0  0  0  0  0
   30.4120   -1.7397   47.3610 H   0  0  0  0  0  0  0  0  0  0  0  0
  1  2  1  0  0  0  0
  1 36  1  0  0  0  0
  1 37  1  0  0  0  0
  1 38  1  0  0  0  0
  2  4  1  0  0  0  0
  3  2  2  0  0  0  0
  4  5  1  0  0  0  0
  4 39  1  0  0  0  0
  5  8  1  0  0  0  0
  5 40  1  6  0  0  0
  6  5  1  0  0  0  0
  6  7  2  0  0  0  0
  8  9  1  0  0  0  0
  8 10  1  0  0  0  0
  8 41  1  1  0  0  0
  9 42  1  0  0  0  0
 10 43  1  0  0  0  0
 10 44  1  0  0  0  0
 10 45  1  0  0  0  0
 11  6  1  0  0  0  0
 11 46  1  0  0  0  0
 12 11  1  0  0  0  0
 12 13  1  0  0  0  0
 12 47  1  6  0  0  0
 13 14  2  0  0  0  0
 13 22  1  0  0  0  0
 15 12  1  0  0  0  0
 15 48  1  0  0  0  0
 15 49  1  0  0  0  0
 16 15  1  0  0  0  0
 17 16  2  0  0  0  0
 17 50  1  0  0  0  0
 18 16  1  0  0  0  0
 18 51  1  0  0  0  0
 19 17  1  0  0  0  0
 19 52  1  0  0  0  0
 20 18  2  0  0  0  0
 20 53  1  0  0  0  0
 21 19  2  0  0  0  0
 21 20  1  0  0  0  0
 21 54  1  0  0  0  0
 22 23  1  0  0  0  0
 23 26  1  0  0  0  0
 23 55  1  1  0  0  0
 24 23  1  0  0  0  0
 24 29  1  0  0  0  0
 25 24  2  0  0  0  0
 26 56  1  0  0  0  0
 26 57  1  0  0  0  0
 27 26  1  0  0  0  0
 27 58  1  0  0  0  0
 27 59  1  0  0  0  0
 28 22  1  0  0  0  0
 28 27  1  0  0  0  0
 28 60  1  0  0  0  0
 28 61  1  0  0  0  0
 29 62  1  0  0  0  0
 30 29  1  0  0  0  0
 30 31  1  0  0  0  0
 30 33  1  0  0  0  0
 30 63  1  6  0  0  0
 31 34  1  0  0  0  0
 32 31  2  0  0  0  0
 33 64  1  0  0  0  0
 33 65  1  0  0  0  0
 33 66  1  0  0  0  0
 34 35  1  0  0  0  0
 34 67  1  0  0  0  0
 35 68  1  0  0  0  0
 35 69  1  0  0  0  0
 35 70  1  0  0  0  0
M  END
>  <MODEL>
       0

$$$$
