selected_4mers/TGAL/935_noH.pdb
 OpenBabel03042518353D

 62 61  0  0  1  0  0  0  0  0999 V2000
   -0.7830   68.4260    7.4760 C   0  0  0  0  0  0  0  0  0  0  0  0
   -2.3030   68.1990    7.4460 C   0  0  0  0  0  0  0  0  0  0  0  0
   -2.8040   67.3130    6.7120 O   0  0  0  0  0  0  0  0  0  0  0  0
   -3.0340   69.0620    8.1320 N   0  0  0  0  0  0  0  0  0  0  0  0
   -4.4730   68.9830    8.2000 C   0  0  2  0  0  0  0  0  0  0  0  0
   -5.1480   70.1910    7.5700 C   0  0  0  0  0  0  0  0  0  0  0  0
   -4.9550   71.3250    8.0340 O   0  0  0  0  0  0  0  0  0  0  0  0
   -4.9250   68.8580    9.6780 C   0  0  2  0  0  0  0  0  0  0  0  0
   -4.3760   67.6770   10.2540 O   0  0  0  0  0  0  0  0  0  0  0  0
   -6.4280   68.6940    9.7800 C   0  0  0  0  0  0  0  0  0  0  0  0
   -5.9420   69.9530    6.5260 N   0  0  0  0  0  0  0  0  0  0  0  0
   -6.7220   70.9700    5.8420 C   0  0  0  0  0  0  0  0  0  0  0  0
   -6.2430   71.3290    4.4580 C   0  0  0  0  0  0  0  0  0  0  0  0
   -5.0990   71.0860    4.0610 O   0  0  0  0  0  0  0  0  0  0  0  0
   -7.1390   71.9840    3.7030 N   0  0  0  0  0  0  0  0  0  0  0  0
   -6.8560   72.6190    2.4300 C   0  0  2  0  0  0  0  0  0  0  0  0
   -6.0550   71.7190    1.4850 C   0  0  0  0  0  0  0  0  0  0  0  0
   -5.0980   72.1350    0.8520 O   0  0  0  0  0  0  0  0  0  0  0  0
   -6.1630   73.9770    2.6280 C   0  0  0  0  0  0  0  0  0  0  0  0
   -6.5460   70.4700    1.3510 N   0  0  0  0  0  0  0  0  0  0  0  0
   -5.9260   69.4820    0.4910 C   0  0  2  0  0  0  0  0  0  0  0  0
   -4.4170   69.3570    0.8090 C   0  0  0  0  0  0  0  0  0  0  0  0
   -3.5640   69.2550   -0.0830 O   0  0  0  0  0  0  0  0  0  0  0  0
   -6.1640   69.7600   -1.0080 C   0  0  0  0  0  0  0  0  0  0  0  0
   -7.6270   69.7980   -1.4330 C   0  0  0  0  0  0  0  0  0  0  0  0
   -7.6950   70.1290   -2.9060 C   0  0  0  0  0  0  0  0  0  0  0  0
   -8.3440   68.4960   -1.1350 C   0  0  0  0  0  0  0  0  0  0  0  0
   -4.1200   69.3000    2.1040 N   0  0  0  0  0  0  0  0  0  0  0  0
   -2.7710   69.1250    2.6000 C   0  0  0  0  0  0  0  0  0  0  0  0
   -0.2983   67.6728    6.8907 H   0  0  0  0  0  0  0  0  0  0  0  0
   -0.4342   68.3722    8.4861 H   0  0  0  0  0  0  0  0  0  0  0  0
   -0.5585   69.3910    7.0720 H   0  0  0  0  0  0  0  0  0  0  0  0
   -2.5775   69.7878    8.6159 H   0  0  0  0  0  0  0  0  0  0  0  0
   -4.7682   68.1166    7.6458 H   0  0  0  0  0  0  0  0  0  0  0  0
   -4.5986   69.7464   10.1771 H   0  0  0  0  0  0  0  0  0  0  0  0
   -4.6991   66.9009    9.7701 H   0  0  0  0  0  0  0  0  0  0  0  0
   -6.7244   67.7995    9.2732 H   0  0  0  0  0  0  0  0  0  0  0  0
   -6.9101   69.5360    9.3288 H   0  0  0  0  0  0  0  0  0  0  0  0
   -6.7108   68.6307   10.8100 H   0  0  0  0  0  0  0  0  0  0  0  0
   -6.0039   69.0272    6.1969 H   0  0  0  0  0  0  0  0  0  0  0  0
   -7.7285   70.6159    5.7617 H   0  0  0  0  0  0  0  0  0  0  0  0
   -6.6254   71.8600    6.4280 H   0  0  0  0  0  0  0  0  0  0  0  0
   -8.0623   72.0377    4.0404 H   0  0  0  0  0  0  0  0  0  0  0  0
   -7.8006   72.7915    1.9578 H   0  0  0  0  0  0  0  0  0  0  0  0
   -5.2143   73.8279    3.0998 H   0  0  0  0  0  0  0  0  0  0  0  0
   -6.7738   74.6025    3.2449 H   0  0  0  0  0  0  0  0  0  0  0  0
   -6.0186   74.4458    1.6770 H   0  0  0  0  0  0  0  0  0  0  0  0
   -7.3540   70.2207    1.8552 H   0  0  0  0  0  0  0  0  0  0  0  0
   -6.3980   68.5443    0.6981 H   0  0  0  0  0  0  0  0  0  0  0  0
   -5.7255   70.7072   -1.2434 H   0  0  0  0  0  0  0  0  0  0  0  0
   -5.7206   68.9425   -1.5372 H   0  0  0  0  0  0  0  0  0  0  0  0
   -8.1293   70.5535   -0.8657 H   0  0  0  0  0  0  0  0  0  0  0  0
   -7.1908   69.3693   -3.4659 H   0  0  0  0  0  0  0  0  0  0  0  0
   -7.2237   71.0735   -3.0815 H   0  0  0  0  0  0  0  0  0  0  0  0
   -8.7187   70.1786   -3.2135 H   0  0  0  0  0  0  0  0  0  0  0  0
   -7.8801   67.7005   -1.6799 H   0  0  0  0  0  0  0  0  0  0  0  0
   -9.3697   68.5785   -1.4282 H   0  0  0  0  0  0  0  0  0  0  0  0
   -8.2882   68.2900   -0.0865 H   0  0  0  0  0  0  0  0  0  0  0  0
   -4.8525   69.3807    2.7568 H   0  0  0  0  0  0  0  0  0  0  0  0
   -2.0939   69.0539    1.7745 H   0  0  0  0  0  0  0  0  0  0  0  0
   -2.7186   68.2290    3.1825 H   0  0  0  0  0  0  0  0  0  0  0  0
   -2.5036   69.9628    3.2095 H   0  0  0  0  0  0  0  0  0  0  0  0
  1 30  1  0  0  0  0
  1 31  1  0  0  0  0
  1 32  1  0  0  0  0
  2  1  1  0  0  0  0
  2  4  1  0  0  0  0
  3  2  2  0  0  0  0
  4  5  1  0  0  0  0
  4 33  1  0  0  0  0
  5  8  1  0  0  0  0
  5 34  1  6  0  0  0
  6  7  2  0  0  0  0
  6  5  1  0  0  0  0
  8 10  1  0  0  0  0
  8  9  1  0  0  0  0
  8 35  1  1  0  0  0
  9 36  1  0  0  0  0
 10 37  1  0  0  0  0
 10 38  1  0  0  0  0
 10 39  1  0  0  0  0
 11  6  1  0  0  0  0
 11 40  1  0  0  0  0
 12 11  1  0  0  0  0
 12 41  1  0  0  0  0
 12 42  1  0  0  0  0
 13 12  1  0  0  0  0
 14 13  2  0  0  0  0
 15 13  1  0  0  0  0
 15 43  1  0  0  0  0
 16 19  1  0  0  0  0
 16 15  1  0  0  0  0
 16 44  1  6  0  0  0
 17 16  1  0  0  0  0
 18 17  2  0  0  0  0
 19 45  1  0  0  0  0
 19 46  1  0  0  0  0
 19 47  1  0  0  0  0
 20 17  1  0  0  0  0
 20 48  1  0  0  0  0
 21 22  1  0  0  0  0
 21 20  1  0  0  0  0
 21 49  1  1  0  0  0
 22 28  1  0  0  0  0
 23 22  2  0  0  0  0
 24 21  1  0  0  0  0
 24 50  1  0  0  0  0
 24 51  1  0  0  0  0
 25 27  1  0  0  0  0
 25 24  1  0  0  0  0
 25 52  1  0  0  0  0
 26 25  1  0  0  0  0
 26 53  1  0  0  0  0
 26 54  1  0  0  0  0
 26 55  1  0  0  0  0
 27 56  1  0  0  0  0
 27 57  1  0  0  0  0
 27 58  1  0  0  0  0
 28 29  1  0  0  0  0
 28 59  1  0  0  0  0
 29 60  1  0  0  0  0
 29 61  1  0  0  0  0
 29 62  1  0  0  0  0
M  END
>  <MODEL>
       0

$$$$
selected_4mers/TGAL/936_noH.pdb
 OpenBabel03042518353D

 62 61  0  0  1  0  0  0  0  0999 V2000
   68.5020   42.5630   38.4730 C   0  0  0  0  0  0  0  0  0  0  0  0
   67.8490   41.7030   37.3960 C   0  0  0  0  0  0  0  0  0  0  0  0
   67.6130   42.1700   36.2820 O   0  0  0  0  0  0  0  0  0  0  0  0
   67.5410   40.4540   37.7320 N   0  0  0  0  0  0  0  0  0  0  0  0
   66.9380   39.5370   36.7690 C   0  0  2  0  0  0  0  0  0  0  0  0
   65.4510   39.7600   36.5680 C   0  0  0  0  0  0  0  0  0  0  0  0
   64.8980   39.3760   35.5380 O   0  0  0  0  0  0  0  0  0  0  0  0
   67.1090   38.0740   37.1980 C   0  0  2  0  0  0  0  0  0  0  0  0
   66.4070   37.8570   38.4290 O   0  0  0  0  0  0  0  0  0  0  0  0
   68.5820   37.7370   37.3850 C   0  0  0  0  0  0  0  0  0  0  0  0
   64.8030   40.3650   37.5580 N   0  0  0  0  0  0  0  0  0  0  0  0
   63.3730   40.5910   37.4620 C   0  0  0  0  0  0  0  0  0  0  0  0
   62.6020   39.4750   38.1500 C   0  0  0  0  0  0  0  0  0  0  0  0
   61.3720   39.4510   38.1200 O   0  0  0  0  0  0  0  0  0  0  0  0
   63.3210   38.5390   38.7650 N   0  0  0  0  0  0  0  0  0  0  0  0
   62.6770   37.4380   39.4690 C   0  0  2  0  0  0  0  0  0  0  0  0
   61.8140   37.9970   40.6010 C   0  0  0  0  0  0  0  0  0  0  0  0
   60.7270   37.4900   40.8740 O   0  0  0  0  0  0  0  0  0  0  0  0
   63.7270   36.4790   40.0310 C   0  0  0  0  0  0  0  0  0  0  0  0
   62.3060   39.0410   41.2600 N   0  0  0  0  0  0  0  0  0  0  0  0
   61.5570   39.6580   42.3470 C   0  0  2  0  0  0  0  0  0  0  0  0
   60.1960   40.1230   41.8360 C   0  0  0  0  0  0  0  0  0  0  0  0
   59.1590   39.8220   42.4310 O   0  0  0  0  0  0  0  0  0  0  0  0
   62.3430   40.8490   42.9140 C   0  0  0  0  0  0  0  0  0  0  0  0
   61.7300   41.6770   44.0520 C   0  0  0  0  0  0  0  0  0  0  0  0
   60.6400   42.5910   43.5230 C   0  0  0  0  0  0  0  0  0  0  0  0
   61.1940   40.7440   45.1270 C   0  0  0  0  0  0  0  0  0  0  0  0
   60.2080   40.8460   40.7200 N   0  0  0  0  0  0  0  0  0  0  0  0
   58.9810   41.3750   40.1300 C   0  0  0  0  0  0  0  0  0  0  0  0
   68.6985   43.5386   38.0799 H   0  0  0  0  0  0  0  0  0  0  0  0
   69.4214   42.1109   38.7816 H   0  0  0  0  0  0  0  0  0  0  0  0
   67.8442   42.6429   39.3131 H   0  0  0  0  0  0  0  0  0  0  0  0
   67.7230   40.1415   38.6477 H   0  0  0  0  0  0  0  0  0  0  0  0
   67.4548   39.7395   35.8542 H   0  0  0  0  0  0  0  0  0  0  0  0
   66.7099   37.4410   36.4332 H   0  0  0  0  0  0  0  0  0  0  0  0
   66.7744   38.4340   39.1168 H   0  0  0  0  0  0  0  0  0  0  0  0
   68.9969   38.3623   38.1477 H   0  0  0  0  0  0  0  0  0  0  0  0
   69.1048   37.9008   36.4659 H   0  0  0  0  0  0  0  0  0  0  0  0
   68.6794   36.7110   37.6727 H   0  0  0  0  0  0  0  0  0  0  0  0
   65.2943   40.6605   38.3583 H   0  0  0  0  0  0  0  0  0  0  0  0
   63.0921   40.6269   36.4302 H   0  0  0  0  0  0  0  0  0  0  0  0
   63.1392   41.5171   37.9443 H   0  0  0  0  0  0  0  0  0  0  0  0
   64.3039   38.5915   38.7439 H   0  0  0  0  0  0  0  0  0  0  0  0
   62.0583   36.8964   38.7844 H   0  0  0  0  0  0  0  0  0  0  0  0
   64.3568   37.0031   40.7192 H   0  0  0  0  0  0  0  0  0  0  0  0
   64.3201   36.0902   39.2298 H   0  0  0  0  0  0  0  0  0  0  0  0
   63.2389   35.6726   40.5373 H   0  0  0  0  0  0  0  0  0  0  0  0
   63.1874   39.4019   41.0107 H   0  0  0  0  0  0  0  0  0  0  0  0
   61.4101   38.9391   43.1257 H   0  0  0  0  0  0  0  0  0  0  0  0
   62.5230   41.5205   42.1006 H   0  0  0  0  0  0  0  0  0  0  0  0
   63.2024   40.3964   43.3629 H   0  0  0  0  0  0  0  0  0  0  0  0
   62.4869   42.2978   44.4840 H   0  0  0  0  0  0  0  0  0  0  0  0
   59.8633   42.0018   43.0821 H   0  0  0  0  0  0  0  0  0  0  0  0
   61.0519   43.2476   42.7853 H   0  0  0  0  0  0  0  0  0  0  0  0
   60.2363   43.1681   44.3286 H   0  0  0  0  0  0  0  0  0  0  0  0
   60.4351   40.1164   44.7085 H   0  0  0  0  0  0  0  0  0  0  0  0
   60.7784   41.3218   45.9259 H   0  0  0  0  0  0  0  0  0  0  0  0
   61.9914   40.1374   45.5028 H   0  0  0  0  0  0  0  0  0  0  0  0
   61.0686   41.0300   40.2788 H   0  0  0  0  0  0  0  0  0  0  0  0
   58.1433   41.0855   40.7295 H   0  0  0  0  0  0  0  0  0  0  0  0
   58.8636   40.9843   39.1408 H   0  0  0  0  0  0  0  0  0  0  0  0
   59.0372   42.4427   40.0875 H   0  0  0  0  0  0  0  0  0  0  0  0
  1 30  1  0  0  0  0
  1 31  1  0  0  0  0
  1 32  1  0  0  0  0
  2  4  1  0  0  0  0
  2  1  1  0  0  0  0
  3  2  2  0  0  0  0
  4 33  1  0  0  0  0
  5  8  1  0  0  0  0
  5  4  1  0  0  0  0
  5 34  1  6  0  0  0
  6  5  1  0  0  0  0
  6 11  1  0  0  0  0
  7  6  2  0  0  0  0
  8 10  1  0  0  0  0
  8  9  1  0  0  0  0
  8 35  1  6  0  0  0
  9 36  1  0  0  0  0
 10 37  1  0  0  0  0
 10 38  1  0  0  0  0
 10 39  1  0  0  0  0
 11 40  1  0  0  0  0
 12 11  1  0  0  0  0
 12 13  1  0  0  0  0
 12 41  1  0  0  0  0
 12 42  1  0  0  0  0
 13 15  1  0  0  0  0
 14 13  2  0  0  0  0
 15 16  1  0  0  0  0
 15 43  1  0  0  0  0
 16 19  1  0  0  0  0
 16 17  1  0  0  0  0
 16 44  1  6  0  0  0
 17 18  2  0  0  0  0
 17 20  1  0  0  0  0
 19 45  1  0  0  0  0
 19 46  1  0  0  0  0
 19 47  1  0  0  0  0
 20 21  1  0  0  0  0
 20 48  1  0  0  0  0
 21 24  1  0  0  0  0
 21 49  1  1  0  0  0
 22 21  1  0  0  0  0
 22 23  2  0  0  0  0
 24 25  1  0  0  0  0
 24 50  1  0  0  0  0
 24 51  1  0  0  0  0
 25 27  1  0  0  0  0
 25 52  1  0  0  0  0
 26 25  1  0  0  0  0
 26 53  1  0  0  0  0
 26 54  1  0  0  0  0
 26 55  1  0  0  0  0
 27 56  1  0  0  0  0
 27 57  1  0  0  0  0
 27 58  1  0  0  0  0
 28 22  1  0  0  0  0
 28 59  1  0  0  0  0
 29 28  1  0  0  0  0
 29 60  1  0  0  0  0
 29 61  1  0  0  0  0
 29 62  1  0  0  0  0
M  END
>  <MODEL>
       0

$$$$
selected_4mers/TGAL/937_noH.pdb
 OpenBabel03042518353D

 62 61  0  0  1  0  0  0  0  0999 V2000
   -4.8310   -7.7800   -7.1250 C   0  0  0  0  0  0  0  0  0  0  0  0
   -4.5340   -7.3040   -8.5390 C   0  0  0  0  0  0  0  0  0  0  0  0
   -3.6490   -7.8500   -9.2090 O   0  0  0  0  0  0  0  0  0  0  0  0
   -5.2840   -6.3110   -9.0200 N   0  0  0  0  0  0  0  0  0  0  0  0
   -5.0830   -5.8150  -10.3830 C   0  0  2  0  0  0  0  0  0  0  0  0
   -3.6910   -5.1890  -10.5320 C   0  0  0  0  0  0  0  0  0  0  0  0
   -3.0200   -5.3580  -11.5380 O   0  0  0  0  0  0  0  0  0  0  0  0
   -6.1830   -4.8520  -10.8390 C   0  0  2  0  0  0  0  0  0  0  0  0
   -6.2550   -3.7480   -9.9510 O   0  0  0  0  0  0  0  0  0  0  0  0
   -7.5300   -5.5210  -10.9380 C   0  0  0  0  0  0  0  0  0  0  0  0
   -3.2220   -4.4640   -9.5160 N   0  0  0  0  0  0  0  0  0  0  0  0
   -1.9080   -3.9170   -9.5860 C   0  0  0  0  0  0  0  0  0  0  0  0
   -0.7870   -4.9560   -9.6170 C   0  0  0  0  0  0  0  0  0  0  0  0
    0.1390   -4.8510  -10.4680 O   0  0  0  0  0  0  0  0  0  0  0  0
   -0.8970   -5.9840   -8.7700 N   0  0  0  0  0  0  0  0  0  0  0  0
    0.0900   -7.0560   -8.7310 C   0  0  2  0  0  0  0  0  0  0  0  0
    0.0830   -7.8770  -10.0410 C   0  0  0  0  0  0  0  0  0  0  0  0
    1.1530   -8.2300  -10.5830 O   0  0  0  0  0  0  0  0  0  0  0  0
   -0.1710   -7.9730   -7.6070 C   0  0  0  0  0  0  0  0  0  0  0  0
   -1.1210   -8.1920  -10.5080 N   0  0  0  0  0  0  0  0  0  0  0  0
   -1.2430   -8.9960  -11.7510 C   0  0  2  0  0  0  0  0  0  0  0  0
   -0.7450   -8.2230  -12.9780 C   0  0  0  0  0  0  0  0  0  0  0  0
   -0.0870   -8.8110  -13.8910 O   0  0  0  0  0  0  0  0  0  0  0  0
   -2.6550   -9.4730  -11.9430 C   0  0  0  0  0  0  0  0  0  0  0  0
   -3.1090  -10.6050  -11.0170 C   0  0  0  0  0  0  0  0  0  0  0  0
   -4.6110  -10.6930  -11.0840 C   0  0  0  0  0  0  0  0  0  0  0  0
   -2.4290  -11.9550  -11.3450 C   0  0  0  0  0  0  0  0  0  0  0  0
   -1.0090   -6.9210  -12.9940 N   0  0  0  0  0  0  0  0  0  0  0  0
   -0.5230   -6.0840  -14.0740 C   0  0  0  0  0  0  0  0  0  0  0  0
   -4.1610   -8.5736   -6.8677 H   0  0  0  0  0  0  0  0  0  0  0  0
   -5.8396   -8.1334   -7.0721 H   0  0  0  0  0  0  0  0  0  0  0  0
   -4.7013   -6.9678   -6.4406 H   0  0  0  0  0  0  0  0  0  0  0  0
   -5.9800   -5.9074   -8.4525 H   0  0  0  0  0  0  0  0  0  0  0  0
   -5.1463   -6.6624  -11.0333 H   0  0  0  0  0  0  0  0  0  0  0  0
   -5.9242   -4.5150  -11.8210 H   0  0  0  0  0  0  0  0  0  0  0  0
   -6.4899   -4.0616   -9.0637 H   0  0  0  0  0  0  0  0  0  0  0  0
   -7.8251   -5.8733   -9.9717 H   0  0  0  0  0  0  0  0  0  0  0  0
   -7.4691   -6.3469  -11.6155 H   0  0  0  0  0  0  0  0  0  0  0  0
   -8.2520   -4.8177  -11.2970 H   0  0  0  0  0  0  0  0  0  0  0  0
   -3.7811   -4.3073   -8.7209 H   0  0  0  0  0  0  0  0  0  0  0  0
   -1.8396   -3.3256  -10.4751 H   0  0  0  0  0  0  0  0  0  0  0  0
   -1.7687   -3.3471   -8.6912 H   0  0  0  0  0  0  0  0  0  0  0  0
   -1.6656   -6.0182   -8.1557 H   0  0  0  0  0  0  0  0  0  0  0  0
    1.0457   -6.5910   -8.6069 H   0  0  0  0  0  0  0  0  0  0  0  0
   -1.1277   -8.4341   -7.7376 H   0  0  0  0  0  0  0  0  0  0  0  0
   -0.1623   -7.4235   -6.6889 H   0  0  0  0  0  0  0  0  0  0  0  0
    0.5875   -8.7272   -7.5784 H   0  0  0  0  0  0  0  0  0  0  0  0
   -1.9292   -7.8934  -10.0316 H   0  0  0  0  0  0  0  0  0  0  0  0
   -0.6143   -9.8551  -11.6434 H   0  0  0  0  0  0  0  0  0  0  0  0
   -2.7511   -9.8160  -12.9520 H   0  0  0  0  0  0  0  0  0  0  0  0
   -3.2786   -8.6365  -11.7058 H   0  0  0  0  0  0  0  0  0  0  0  0
   -2.8053  -10.3818  -10.0156 H   0  0  0  0  0  0  0  0  0  0  0  0
   -4.9108  -10.9163  -12.0866 H   0  0  0  0  0  0  0  0  0  0  0  0
   -5.0368   -9.7583  -10.7842 H   0  0  0  0  0  0  0  0  0  0  0  0
   -4.9525  -11.4670  -10.4288 H   0  0  0  0  0  0  0  0  0  0  0  0
   -2.6857  -12.2511  -12.3407 H   0  0  0  0  0  0  0  0  0  0  0  0
   -2.7636  -12.7001  -10.6538 H   0  0  0  0  0  0  0  0  0  0  0  0
   -1.3672  -11.8477  -11.2674 H   0  0  0  0  0  0  0  0  0  0  0  0
   -1.5388   -6.5212  -12.2669 H   0  0  0  0  0  0  0  0  0  0  0  0
    0.0286   -6.6825  -14.7686 H   0  0  0  0  0  0  0  0  0  0  0  0
    0.1136   -5.3218  -13.6757 H   0  0  0  0  0  0  0  0  0  0  0  0
   -1.3527   -5.6301  -14.5746 H   0  0  0  0  0  0  0  0  0  0  0  0
  1 30  1  0  0  0  0
  1 31  1  0  0  0  0
  1 32  1  0  0  0  0
  2  1  1  0  0  0  0
  3  2  2  0  0  0  0
  4  2  1  0  0  0  0
  4 33  1  0  0  0  0
  5  4  1  0  0  0  0
  5 34  1  6  0  0  0
  6  5  1  0  0  0  0
  6 11  1  0  0  0  0
  7  6  2  0  0  0  0
  8  5  1  0  0  0  0
  8  9  1  0  0  0  0
  8 35  1  6  0  0  0
  9 36  1  0  0  0  0
 10  8  1  0  0  0  0
 10 37  1  0  0  0  0
 10 38  1  0  0  0  0
 10 39  1  0  0  0  0
 11 40  1  0  0  0  0
 12 11  1  0  0  0  0
 12 41  1  0  0  0  0
 12 42  1  0  0  0  0
 13 12  1  0  0  0  0
 13 15  1  0  0  0  0
 14 13  2  0  0  0  0
 15 16  1  0  0  0  0
 15 43  1  0  0  0  0
 16 19  1  0  0  0  0
 16 44  1  1  0  0  0
 17 16  1  0  0  0  0
 18 17  2  0  0  0  0
 19 45  1  0  0  0  0
 19 46  1  0  0  0  0
 19 47  1  0  0  0  0
 20 17  1  0  0  0  0
 20 48  1  0  0  0  0
 21 20  1  0  0  0  0
 21 49  1  1  0  0  0
 22 21  1  0  0  0  0
 23 22  2  0  0  0  0
 24 21  1  0  0  0  0
 24 25  1  0  0  0  0
 24 50  1  0  0  0  0
 24 51  1  0  0  0  0
 25 52  1  0  0  0  0
 26 25  1  0  0  0  0
 26 53  1  0  0  0  0
 26 54  1  0  0  0  0
 26 55  1  0  0  0  0
 27 25  1  0  0  0  0
 27 56  1  0  0  0  0
 27 57  1  0  0  0  0
 27 58  1  0  0  0  0
 28 22  1  0  0  0  0
 28 59  1  0  0  0  0
 29 28  1  0  0  0  0
 29 60  1  0  0  0  0
 29 61  1  0  0  0  0
 29 62  1  0  0  0  0
M  END
>  <MODEL>
       0

$$$$
selected_4mers/TGAL/938_noH.pdb
 OpenBabel03042518353D

 62 61  0  0  1  0  0  0  0  0999 V2000
   39.2840   63.9620   -7.8310 C   0  0  0  0  0  0  0  0  0  0  0  0
   39.6240   65.1670   -8.7040 C   0  0  0  0  0  0  0  0  0  0  0  0
   38.9540   66.2010   -8.6210 O   0  0  0  0  0  0  0  0  0  0  0  0
   40.6600   65.0460   -9.5320 N   0  0  0  0  0  0  0  0  0  0  0  0
   41.0420   66.1370  -10.4240 C   0  0  2  0  0  0  0  0  0  0  0  0
   40.3660   65.9740  -11.7870 C   0  0  0  0  0  0  0  0  0  0  0  0
   40.4900   66.8380  -12.6560 O   0  0  0  0  0  0  0  0  0  0  0  0
   42.5780   66.2090  -10.6280 C   0  0  2  0  0  0  0  0  0  0  0  0
   43.0390   65.0140  -11.2720 O   0  0  0  0  0  0  0  0  0  0  0  0
   43.2830   66.3670   -9.2920 C   0  0  0  0  0  0  0  0  0  0  0  0
   39.6640   64.8550  -11.9700 N   0  0  0  0  0  0  0  0  0  0  0  0
   38.9570   64.6120  -13.2190 C   0  0  0  0  0  0  0  0  0  0  0  0
   39.4490   63.4940  -14.1240 C   0  0  0  0  0  0  0  0  0  0  0  0
   38.7070   63.0350  -14.9950 O   0  0  0  0  0  0  0  0  0  0  0  0
   40.6820   63.0420  -13.9320 N   0  0  0  0  0  0  0  0  0  0  0  0
   41.2260   61.9840  -14.7850 C   0  0  2  0  0  0  0  0  0  0  0  0
   40.4230   60.6860  -14.7450 C   0  0  0  0  0  0  0  0  0  0  0  0
   40.0670   60.1970  -13.6720 O   0  0  0  0  0  0  0  0  0  0  0  0
   42.6760   61.6990  -14.4010 C   0  0  0  0  0  0  0  0  0  0  0  0
   40.1380   60.1300  -15.9200 N   0  0  0  0  0  0  0  0  0  0  0  0
   39.4150   58.8640  -15.9950 C   0  0  2  0  0  0  0  0  0  0  0  0
   40.3840   57.7610  -15.5700 C   0  0  0  0  0  0  0  0  0  0  0  0
   41.5090   57.6800  -16.0720 O   0  0  0  0  0  0  0  0  0  0  0  0
   38.9250   58.6040  -17.4220 C   0  0  0  0  0  0  0  0  0  0  0  0
   38.2150   57.2650  -17.6480 C   0  0  0  0  0  0  0  0  0  0  0  0
   36.8910   57.2330  -16.8810 C   0  0  0  0  0  0  0  0  0  0  0  0
   37.9650   57.0740  -19.1350 C   0  0  0  0  0  0  0  0  0  0  0  0
   39.9450   56.9180  -14.6430 N   0  0  0  0  0  0  0  0  0  0  0  0
   40.7730   55.8330  -14.1320 C   0  0  0  0  0  0  0  0  0  0  0  0
   39.9676   63.1659   -8.0401 H   0  0  0  0  0  0  0  0  0  0  0  0
   38.2857   63.6394   -8.0415 H   0  0  0  0  0  0  0  0  0  0  0  0
   39.3603   64.2360   -6.7995 H   0  0  0  0  0  0  0  0  0  0  0  0
   41.1764   64.2078   -9.5428 H   0  0  0  0  0  0  0  0  0  0  0  0
   40.7191   67.0459   -9.9609 H   0  0  0  0  0  0  0  0  0  0  0  0
   42.8014   67.0565  -11.2418 H   0  0  0  0  0  0  0  0  0  0  0  0
   42.8356   64.2470  -10.7141 H   0  0  0  0  0  0  0  0  0  0  0  0
   43.0648   65.5230   -8.6716 H   0  0  0  0  0  0  0  0  0  0  0  0
   42.9416   67.2603   -8.8120 H   0  0  0  0  0  0  0  0  0  0  0  0
   44.3393   66.4290   -9.4512 H   0  0  0  0  0  0  0  0  0  0  0  0
   39.6234   64.1842  -11.2506 H   0  0  0  0  0  0  0  0  0  0  0  0
   37.9402   64.3919  -12.9690 H   0  0  0  0  0  0  0  0  0  0  0  0
   39.1191   65.5023  -13.7899 H   0  0  0  0  0  0  0  0  0  0  0  0
   41.2347   63.4209  -13.2108 H   0  0  0  0  0  0  0  0  0  0  0  0
   41.1652   62.3503  -15.7885 H   0  0  0  0  0  0  0  0  0  0  0  0
   42.7137   61.3344  -13.3957 H   0  0  0  0  0  0  0  0  0  0  0  0
   43.2483   62.6000  -14.4753 H   0  0  0  0  0  0  0  0  0  0  0  0
   43.0821   60.9628  -15.0628 H   0  0  0  0  0  0  0  0  0  0  0  0
   40.4186   60.5787  -16.7502 H   0  0  0  0  0  0  0  0  0  0  0  0
   38.5571   58.8897  -15.3561 H   0  0  0  0  0  0  0  0  0  0  0  0
   38.2426   59.3859  -17.6827 H   0  0  0  0  0  0  0  0  0  0  0  0
   39.8043   58.5739  -18.0310 H   0  0  0  0  0  0  0  0  0  0  0  0
   38.8339   56.4701  -17.2876 H   0  0  0  0  0  0  0  0  0  0  0  0
   36.2581   58.0225  -17.2288 H   0  0  0  0  0  0  0  0  0  0  0  0
   37.0810   57.3623  -15.8360 H   0  0  0  0  0  0  0  0  0  0  0  0
   36.4082   56.2918  -17.0419 H   0  0  0  0  0  0  0  0  0  0  0  0
   37.3461   57.8680  -19.4975 H   0  0  0  0  0  0  0  0  0  0  0  0
   37.4742   56.1370  -19.2967 H   0  0  0  0  0  0  0  0  0  0  0  0
   38.8986   57.0825  -19.6576 H   0  0  0  0  0  0  0  0  0  0  0  0
   39.0326   57.0292  -14.2902 H   0  0  0  0  0  0  0  0  0  0  0  0
   41.7268   55.8536  -14.6165 H   0  0  0  0  0  0  0  0  0  0  0  0
   40.2940   54.8964  -14.3273 H   0  0  0  0  0  0  0  0  0  0  0  0
   40.9062   55.9524  -13.0771 H   0  0  0  0  0  0  0  0  0  0  0  0
  1 30  1  0  0  0  0
  1 31  1  0  0  0  0
  1 32  1  0  0  0  0
  2  3  2  0  0  0  0
  2  1  1  0  0  0  0
  4  2  1  0  0  0  0
  4 33  1  0  0  0  0
  5  4  1  0  0  0  0
  5 34  1  1  0  0  0
  6  5  1  0  0  0  0
  7  6  2  0  0  0  0
  8  5  1  0  0  0  0
  8 10  1  0  0  0  0
  8 35  1  6  0  0  0
  9  8  1  0  0  0  0
  9 36  1  0  0  0  0
 10 37  1  0  0  0  0
 10 38  1  0  0  0  0
 10 39  1  0  0  0  0
 11  6  1  0  0  0  0
 11 40  1  0  0  0  0
 12 11  1  0  0  0  0
 12 41  1  0  0  0  0
 12 42  1  0  0  0  0
 13 15  1  0  0  0  0
 13 12  1  0  0  0  0
 14 13  2  0  0  0  0
 15 43  1  0  0  0  0
 16 17  1  0  0  0  0
 16 19  1  0  0  0  0
 16 15  1  0  0  0  0
 16 44  1  6  0  0  0
 17 18  2  0  0  0  0
 19 45  1  0  0  0  0
 19 46  1  0  0  0  0
 19 47  1  0  0  0  0
 20 17  1  0  0  0  0
 20 48  1  0  0  0  0
 21 20  1  0  0  0  0
 21 22  1  0  0  0  0
 21 49  1  1  0  0  0
 22 28  1  0  0  0  0
 23 22  2  0  0  0  0
 24 21  1  0  0  0  0
 24 50  1  0  0  0  0
 24 51  1  0  0  0  0
 25 24  1  0  0  0  0
 25 26  1  0  0  0  0
 25 52  1  0  0  0  0
 26 53  1  0  0  0  0
 26 54  1  0  0  0  0
 26 55  1  0  0  0  0
 27 25  1  0  0  0  0
 27 56  1  0  0  0  0
 27 57  1  0  0  0  0
 27 58  1  0  0  0  0
 28 29  1  0  0  0  0
 28 59  1  0  0  0  0
 29 60  1  0  0  0  0
 29 61  1  0  0  0  0
 29 62  1  0  0  0  0
M  END
>  <MODEL>
       0

$$$$
selected_4mers/TGAL/939_noH.pdb
 OpenBabel03042518353D

 62 61  0  0  1  0  0  0  0  0999 V2000
   27.4230   34.9670  101.2200 C   0  0  0  0  0  0  0  0  0  0  0  0
   27.8320   33.7090  100.4570 C   0  0  0  0  0  0  0  0  0  0  0  0
   28.6050   32.8740  100.9480 O   0  0  0  0  0  0  0  0  0  0  0  0
   27.3240   33.5780   99.2380 N   0  0  0  0  0  0  0  0  0  0  0  0
   27.6930   32.4260   98.4170 C   0  0  2  0  0  0  0  0  0  0  0  0
   29.1440   32.5420   97.9620 C   0  0  0  0  0  0  0  0  0  0  0  0
   29.6840   33.6410   97.8480 O   0  0  0  0  0  0  0  0  0  0  0  0
   26.7670   32.2780   97.1980 C   0  0  2  0  0  0  0  0  0  0  0  0
   26.9680   33.3840   96.3070 O   0  0  0  0  0  0  0  0  0  0  0  0
   25.3070   32.2070   97.6340 C   0  0  0  0  0  0  0  0  0  0  0  0
   29.7780   31.3970   97.7060 N   0  0  0  0  0  0  0  0  0  0  0  0
   31.1700   31.3820   97.2410 C   0  0  0  0  0  0  0  0  0  0  0  0
   32.1520   31.9160   98.2740 C   0  0  0  0  0  0  0  0  0  0  0  0
   33.1860   32.5130   97.9300 O   0  0  0  0  0  0  0  0  0  0  0  0
   31.8030   31.7270   99.5430 N   0  0  0  0  0  0  0  0  0  0  0  0
   32.6110   32.1770  100.6610 C   0  0  2  0  0  0  0  0  0  0  0  0
   32.6230   31.0980  101.7250 C   0  0  0  0  0  0  0  0  0  0  0  0
   31.6650   30.3060  101.8510 O   0  0  0  0  0  0  0  0  0  0  0  0
   32.0530   33.4680  101.2410 C   0  0  0  0  0  0  0  0  0  0  0  0
   33.7070   31.0820  102.4960 N   0  0  0  0  0  0  0  0  0  0  0  0
   33.8660   30.1040  103.5720 C   0  0  2  0  0  0  0  0  0  0  0  0
   32.6690   30.1130  104.5150 C   0  0  0  0  0  0  0  0  0  0  0  0
   32.2020   29.0460  104.9350 O   0  0  0  0  0  0  0  0  0  0  0  0
   35.1470   30.3750  104.3630 C   0  0  0  0  0  0  0  0  0  0  0  0
   36.4620   30.2690  103.5890 C   0  0  0  0  0  0  0  0  0  0  0  0
   37.6170   30.7710  104.4170 C   0  0  0  0  0  0  0  0  0  0  0  0
   36.6710   28.8150  103.1660 C   0  0  0  0  0  0  0  0  0  0  0  0
   32.1700   31.3110  104.8250 N   0  0  0  0  0  0  0  0  0  0  0  0
   31.0450   31.4880  105.7490 C   0  0  0  0  0  0  0  0  0  0  0  0
   26.7549   35.5475  100.6187 H   0  0  0  0  0  0  0  0  0  0  0  0
   28.2939   35.5461  101.4460 H   0  0  0  0  0  0  0  0  0  0  0  0
   26.9336   34.6889  102.1300 H   0  0  0  0  0  0  0  0  0  0  0  0
   26.7005   34.2546   98.8876 H   0  0  0  0  0  0  0  0  0  0  0  0
   27.5824   31.5498   99.0211 H   0  0  0  0  0  0  0  0  0  0  0  0
   27.0056   31.3668   96.6903 H   0  0  0  0  0  0  0  0  0  0  0  0
   26.7523   34.2115   96.7649 H   0  0  0  0  0  0  0  0  0  0  0  0
   25.0432   33.1091   98.1455 H   0  0  0  0  0  0  0  0  0  0  0  0
   25.1707   31.3724   98.2896 H   0  0  0  0  0  0  0  0  0  0  0  0
   24.6829   32.0897   96.7728 H   0  0  0  0  0  0  0  0  0  0  0  0
   29.3025   30.5442   97.8315 H   0  0  0  0  0  0  0  0  0  0  0  0
   31.2410   31.9854   96.3602 H   0  0  0  0  0  0  0  0  0  0  0  0
   31.4312   30.3619   97.0509 H   0  0  0  0  0  0  0  0  0  0  0  0
   30.9573   31.2602   99.7328 H   0  0  0  0  0  0  0  0  0  0  0  0
   33.6076   32.3659  100.3205 H   0  0  0  0  0  0  0  0  0  0  0  0
   31.0548   33.3009  101.5882 H   0  0  0  0  0  0  0  0  0  0  0  0
   32.0456   34.2249  100.4847 H   0  0  0  0  0  0  0  0  0  0  0  0
   32.6662   33.7863  102.0581 H   0  0  0  0  0  0  0  0  0  0  0  0
   34.4187   31.7438  102.3387 H   0  0  0  0  0  0  0  0  0  0  0  0
   33.9305   29.1374  103.1177 H   0  0  0  0  0  0  0  0  0  0  0  0
   35.1864   29.6721  105.1688 H   0  0  0  0  0  0  0  0  0  0  0  0
   35.0800   31.3982  104.6689 H   0  0  0  0  0  0  0  0  0  0  0  0
   36.4134   30.8848  102.7153 H   0  0  0  0  0  0  0  0  0  0  0  0
   37.7025   30.1804  105.3051 H   0  0  0  0  0  0  0  0  0  0  0  0
   37.4471   31.7933  104.6835 H   0  0  0  0  0  0  0  0  0  0  0  0
   38.5214   30.6958  103.8502 H   0  0  0  0  0  0  0  0  0  0  0  0
   36.7204   28.1940  104.0360 H   0  0  0  0  0  0  0  0  0  0  0  0
   37.5849   28.7315  102.6158 H   0  0  0  0  0  0  0  0  0  0  0  0
   35.8540   28.5017  102.5502 H   0  0  0  0  0  0  0  0  0  0  0  0
   32.5742   32.1101  104.4160 H   0  0  0  0  0  0  0  0  0  0  0  0
   30.7216   30.5320  106.1044 H   0  0  0  0  0  0  0  0  0  0  0  0
   30.2375   31.9709  105.2394 H   0  0  0  0  0  0  0  0  0  0  0  0
   31.3551   32.0902  106.5773 H   0  0  0  0  0  0  0  0  0  0  0  0
  1 30  1  0  0  0  0
  1 31  1  0  0  0  0
  1 32  1  0  0  0  0
  2  3  2  0  0  0  0
  2  1  1  0  0  0  0
  4  2  1  0  0  0  0
  4 33  1  0  0  0  0
  5  4  1  0  0  0  0
  5 34  1  1  0  0  0
  6  5  1  0  0  0  0
  7  6  2  0  0  0  0
  8 10  1  0  0  0  0
  8  5  1  0  0  0  0
  8 35  1  6  0  0  0
  9  8  1  0  0  0  0
  9 36  1  0  0  0  0
 10 37  1  0  0  0  0
 10 38  1  0  0  0  0
 10 39  1  0  0  0  0
 11  6  1  0  0  0  0
 11 40  1  0  0  0  0
 12 11  1  0  0  0  0
 12 13  1  0  0  0  0
 12 41  1  0  0  0  0
 12 42  1  0  0  0  0
 13 15  1  0  0  0  0
 14 13  2  0  0  0  0
 15 16  1  0  0  0  0
 15 43  1  0  0  0  0
 16 19  1  0  0  0  0
 16 17  1  0  0  0  0
 16 44  1  6  0  0  0
 17 18  2  0  0  0  0
 17 20  1  0  0  0  0
 19 45  1  0  0  0  0
 19 46  1  0  0  0  0
 19 47  1  0  0  0  0
 20 21  1  0  0  0  0
 20 48  1  0  0  0  0
 21 24  1  0  0  0  0
 21 22  1  0  0  0  0
 21 49  1  6  0  0  0
 22 28  1  0  0  0  0
 22 23  2  0  0  0  0
 24 50  1  0  0  0  0
 24 51  1  0  0  0  0
 25 24  1  0  0  0  0
 25 26  1  0  0  0  0
 25 52  1  0  0  0  0
 26 53  1  0  0  0  0
 26 54  1  0  0  0  0
 26 55  1  0  0  0  0
 27 25  1  0  0  0  0
 27 56  1  0  0  0  0
 27 57  1  0  0  0  0
 27 58  1  0  0  0  0
 28 29  1  0  0  0  0
 28 59  1  0  0  0  0
 29 60  1  0  0  0  0
 29 61  1  0  0  0  0
 29 62  1  0  0  0  0
M  END
>  <MODEL>
       0

$$$$
