selected_4mers/TGKV/940_noH.pdb
 OpenBabel03042518353D

 70 69  0  0  1  0  0  0  0  0999 V2000
   18.7210   24.3480    8.3860 C   0  0  0  0  0  0  0  0  0  0  0  0
   18.9220   23.4700    7.1460 C   0  0  0  0  0  0  0  0  0  0  0  0
   19.0900   23.9510    6.0330 O   0  0  0  0  0  0  0  0  0  0  0  0
   18.8500   22.1590    7.3310 N   0  0  0  0  0  0  0  0  0  0  0  0
   18.9720   21.2230    6.2080 C   0  0  2  0  0  0  0  0  0  0  0  0
   17.9920   21.5490    5.0880 C   0  0  0  0  0  0  0  0  0  0  0  0
   18.3320   21.5520    3.9120 O   0  0  0  0  0  0  0  0  0  0  0  0
   18.6960   19.8000    6.6940 C   0  0  2  0  0  0  0  0  0  0  0  0
   19.4700   19.5540    7.8700 O   0  0  0  0  0  0  0  0  0  0  0  0
   19.1000   18.7920    5.6140 C   0  0  0  0  0  0  0  0  0  0  0  0
   16.7400   21.7950    5.4630 N   0  0  0  0  0  0  0  0  0  0  0  0
   15.7150   22.0950    4.4790 C   0  0  0  0  0  0  0  0  0  0  0  0
   16.0960   23.2060    3.5180 C   0  0  0  0  0  0  0  0  0  0  0  0
   16.0200   23.0400    2.3000 O   0  0  0  0  0  0  0  0  0  0  0  0
   16.5040   24.3510    4.0540 N   0  0  0  0  0  0  0  0  0  0  0  0
   16.8770   25.4900    3.2140 C   0  0  2  0  0  0  0  0  0  0  0  0
   18.0530   25.1540    2.2770 C   0  0  0  0  0  0  0  0  0  0  0  0
   18.1110   25.5890    1.1340 O   0  0  0  0  0  0  0  0  0  0  0  0
   17.2450   26.6640    4.1330 C   0  0  0  0  0  0  0  0  0  0  0  0
   16.0510   27.1780    4.9490 C   0  0  0  0  0  0  0  0  0  0  0  0
   16.3160   28.5510    5.5790 C   0  0  0  0  0  0  0  0  0  0  0  0
   15.6460   28.7130    6.9520 C   0  0  0  0  0  0  0  0  0  0  0  0
   15.7170   30.1080    7.3940 N   0  0  0  0  0  0  0  0  0  0  0  0
   19.0150   24.3760    2.7660 N   0  0  0  0  0  0  0  0  0  0  0  0
   20.1610   24.0210    1.9240 C   0  0  2  0  0  0  0  0  0  0  0  0
   19.7500   23.1600    0.7540 C   0  0  0  0  0  0  0  0  0  0  0  0
   20.1590   23.3710   -0.3800 O   0  0  0  0  0  0  0  0  0  0  0  0
   21.1460   23.2050    2.7360 C   0  0  0  0  0  0  0  0  0  0  0  0
   22.2470   22.6640    1.8260 C   0  0  0  0  0  0  0  0  0  0  0  0
   21.7700   24.0700    3.8150 C   0  0  0  0  0  0  0  0  0  0  0  0
   18.9270   22.1470    1.0060 N   0  0  0  0  0  0  0  0  0  0  0  0
   18.4680   21.2650   -0.0580 C   0  0  0  0  0  0  0  0  0  0  0  0
   18.8014   25.3787    8.1101 H   0  0  0  0  0  0  0  0  0  0  0  0
   19.4697   24.1141    9.1138 H   0  0  0  0  0  0  0  0  0  0  0  0
   17.7515   24.1642    8.7998 H   0  0  0  0  0  0  0  0  0  0  0  0
   18.7119   21.8068    8.2399 H   0  0  0  0  0  0  0  0  0  0  0  0
   19.9676   21.3095    5.8257 H   0  0  0  0  0  0  0  0  0  0  0  0
   17.6526   19.6936    6.9059 H   0  0  0  0  0  0  0  0  0  0  0  0
   20.4125   19.6538    7.6635 H   0  0  0  0  0  0  0  0  0  0  0  0
   20.1433   18.8968    5.4007 H   0  0  0  0  0  0  0  0  0  0  0  0
   18.5339   18.9759    4.7248 H   0  0  0  0  0  0  0  0  0  0  0  0
   18.9051   17.7991    5.9620 H   0  0  0  0  0  0  0  0  0  0  0  0
   16.5053   21.7735    6.4189 H   0  0  0  0  0  0  0  0  0  0  0  0
   15.5226   21.2088    3.9111 H   0  0  0  0  0  0  0  0  0  0  0  0
   14.8537   22.4305    5.0181 H   0  0  0  0  0  0  0  0  0  0  0  0
   16.5564   24.4349    5.0335 H   0  0  0  0  0  0  0  0  0  0  0  0
   16.0477   25.7470    2.5885 H   0  0  0  0  0  0  0  0  0  0  0  0
   17.6178   27.4658    3.5305 H   0  0  0  0  0  0  0  0  0  0  0  0
   17.9809   26.3123    4.8256 H   0  0  0  0  0  0  0  0  0  0  0  0
   15.8421   26.4770    5.7299 H   0  0  0  0  0  0  0  0  0  0  0  0
   15.2219   27.2821    4.2807 H   0  0  0  0  0  0  0  0  0  0  0  0
   15.9388   29.3072    4.9227 H   0  0  0  0  0  0  0  0  0  0  0  0
   17.3724   28.6422    5.7223 H   0  0  0  0  0  0  0  0  0  0  0  0
   16.1473   28.0916    7.6644 H   0  0  0  0  0  0  0  0  0  0  0  0
   14.6182   28.4262    6.8725 H   0  0  0  0  0  0  0  0  0  0  0  0
   16.6940   30.3904    7.4727 H   0  0  0  0  0  0  0  0  0  0  0  0
   15.2621   30.2005    8.3023 H   0  0  0  0  0  0  0  0  0  0  0  0
   18.9574   24.0401    3.6896 H   0  0  0  0  0  0  0  0  0  0  0  0
   20.5876   24.9362    1.5698 H   0  0  0  0  0  0  0  0  0  0  0  0
   20.6246   22.3888    3.1909 H   0  0  0  0  0  0  0  0  0  0  0  0
   22.7677   23.4809    1.3717 H   0  0  0  0  0  0  0  0  0  0  0  0
   21.8114   22.0511    1.0648 H   0  0  0  0  0  0  0  0  0  0  0  0
   22.9332   22.0810    2.4041 H   0  0  0  0  0  0  0  0  0  0  0  0
   22.2915   24.8863    3.3605 H   0  0  0  0  0  0  0  0  0  0  0  0
   22.4565   23.4838    4.3894 H   0  0  0  0  0  0  0  0  0  0  0  0
   21.0021   24.4499    4.4560 H   0  0  0  0  0  0  0  0  0  0  0  0
   18.6222   21.9901    1.9289 H   0  0  0  0  0  0  0  0  0  0  0  0
   18.8932   21.5777   -0.9888 H   0  0  0  0  0  0  0  0  0  0  0  0
   17.4007   21.3078   -0.1212 H   0  0  0  0  0  0  0  0  0  0  0  0
   18.7728   20.2615    0.1542 H   0  0  0  0  0  0  0  0  0  0  0  0
  1 33  1  0  0  0  0
  1 34  1  0  0  0  0
  1 35  1  0  0  0  0
  2  4  1  0  0  0  0
  2  1  1  0  0  0  0
  3  2  2  0  0  0  0
  4 36  1  0  0  0  0
  5  8  1  0  0  0  0
  5  4  1  0  0  0  0
  5 37  1  6  0  0  0
  6 11  1  0  0  0  0
  6  5  1  0  0  0  0
  7  6  2  0  0  0  0
  8  9  1  0  0  0  0
  8 38  1  1  0  0  0
  9 39  1  0  0  0  0
 10  8  1  0  0  0  0
 10 40  1  0  0  0  0
 10 41  1  0  0  0  0
 10 42  1  0  0  0  0
 11 43  1  0  0  0  0
 12 11  1  0  0  0  0
 12 44  1  0  0  0  0
 12 45  1  0  0  0  0
 13 15  1  0  0  0  0
 13 12  1  0  0  0  0
 14 13  2  0  0  0  0
 15 46  1  0  0  0  0
 16 15  1  0  0  0  0
 16 19  1  0  0  0  0
 16 47  1  6  0  0  0
 17 24  1  0  0  0  0
 17 16  1  0  0  0  0
 18 17  2  0  0  0  0
 19 20  1  0  0  0  0
 19 48  1  0  0  0  0
 19 49  1  0  0  0  0
 20 21  1  0  0  0  0
 20 50  1  0  0  0  0
 20 51  1  0  0  0  0
 21 22  1  0  0  0  0
 21 52  1  0  0  0  0
 21 53  1  0  0  0  0
 22 23  1  0  0  0  0
 22 54  1  0  0  0  0
 22 55  1  0  0  0  0
 23 56  1  0  0  0  0
 23 57  1  0  0  0  0
 24 58  1  0  0  0  0
 25 28  1  0  0  0  0
 25 24  1  0  0  0  0
 25 59  1  6  0  0  0
 26 31  1  0  0  0  0
 26 25  1  0  0  0  0
 27 26  2  0  0  0  0
 28 30  1  0  0  0  0
 28 60  1  0  0  0  0
 29 28  1  0  0  0  0
 29 61  1  0  0  0  0
 29 62  1  0  0  0  0
 29 63  1  0  0  0  0
 30 64  1  0  0  0  0
 30 65  1  0  0  0  0
 30 66  1  0  0  0  0
 31 67  1  0  0  0  0
 32 31  1  0  0  0  0
 32 68  1  0  0  0  0
 32 69  1  0  0  0  0
 32 70  1  0  0  0  0
M  END
>  <MODEL>
       0

$$$$
selected_4mers/TGKV/941_noH.pdb
 OpenBabel03042518353D

 70 69  0  0  1  0  0  0  0  0999 V2000
   46.1710    5.5560   -6.2040 C   0  0  0  0  0  0  0  0  0  0  0  0
   46.0620    6.1810   -4.8130 C   0  0  0  0  0  0  0  0  0  0  0  0
   47.0230    6.7650   -4.3120 O   0  0  0  0  0  0  0  0  0  0  0  0
   44.8740    6.0740   -4.2080 N   0  0  0  0  0  0  0  0  0  0  0  0
   44.6290    6.5780   -2.8730 C   0  0  2  0  0  0  0  0  0  0  0  0
   45.0420    5.4970   -1.8770 C   0  0  0  0  0  0  0  0  0  0  0  0
   44.6310    4.3330   -1.9730 O   0  0  0  0  0  0  0  0  0  0  0  0
   43.1660    7.0060   -2.7180 C   0  0  2  0  0  0  0  0  0  0  0  0
   42.8550    7.9450   -3.7500 O   0  0  0  0  0  0  0  0  0  0  0  0
   42.8880    7.6320   -1.3480 C   0  0  0  0  0  0  0  0  0  0  0  0
   45.8690    5.9140   -0.9340 N   0  0  0  0  0  0  0  0  0  0  0  0
   46.3600    5.0650    0.1340 C   0  0  0  0  0  0  0  0  0  0  0  0
   45.8090    5.5320    1.4570 C   0  0  0  0  0  0  0  0  0  0  0  0
   45.3750    6.6740    1.5810 O   0  0  0  0  0  0  0  0  0  0  0  0
   45.7960    4.6370    2.4450 N   0  0  0  0  0  0  0  0  0  0  0  0
   45.2690    4.9280    3.7710 C   0  0  2  0  0  0  0  0  0  0  0  0
   46.3480    4.6080    4.7970 C   0  0  0  0  0  0  0  0  0  0  0  0
   46.8440    3.4880    4.8190 O   0  0  0  0  0  0  0  0  0  0  0  0
   44.0090    4.0550    4.0010 C   0  0  0  0  0  0  0  0  0  0  0  0
   43.1800    4.3990    5.2240 C   0  0  0  0  0  0  0  0  0  0  0  0
   42.1370    3.3160    5.5150 C   0  0  0  0  0  0  0  0  0  0  0  0
   40.9090    3.4070    4.6400 C   0  0  0  0  0  0  0  0  0  0  0  0
   39.9000    2.3650    4.9930 N   0  0  0  0  0  0  0  0  0  0  0  0
   46.7200    5.5900    5.6390 N   0  0  0  0  0  0  0  0  0  0  0  0
   47.6910    5.3820    6.7110 C   0  0  2  0  0  0  0  0  0  0  0  0
   47.0220    4.5160    7.7980 C   0  0  0  0  0  0  0  0  0  0  0  0
   45.9280    4.8500    8.2520 O   0  0  0  0  0  0  0  0  0  0  0  0
   48.2420    6.7100    7.2920 C   0  0  0  0  0  0  0  0  0  0  0  0
   49.2280    6.4310    8.4240 C   0  0  0  0  0  0  0  0  0  0  0  0
   48.9110    7.5530    6.2020 C   0  0  0  0  0  0  0  0  0  0  0  0
   47.6330    3.3760    8.1450 N   0  0  0  0  0  0  0  0  0  0  0  0
   47.0530    2.4740    9.1540 C   0  0  0  0  0  0  0  0  0  0  0  0
   47.1600    5.7035   -6.5848 H   0  0  0  0  0  0  0  0  0  0  0  0
   45.4636    6.0193   -6.8596 H   0  0  0  0  0  0  0  0  0  0  0  0
   45.9657    4.5078   -6.1411 H   0  0  0  0  0  0  0  0  0  0  0  0
   44.1363    5.6348   -4.6899 H   0  0  0  0  0  0  0  0  0  0  0  0
   45.2109    7.4555   -2.6826 H   0  0  0  0  0  0  0  0  0  0  0  0
   42.5500    6.1347   -2.7971 H   0  0  0  0  0  0  0  0  0  0  0  0
   43.4240    8.7253   -3.6593 H   0  0  0  0  0  0  0  0  0  0  0  0
   43.4873    8.5104   -1.2290 H   0  0  0  0  0  0  0  0  0  0  0  0
   43.1295    6.9285   -0.5788 H   0  0  0  0  0  0  0  0  0  0  0  0
   41.8530    7.8944   -1.2792 H   0  0  0  0  0  0  0  0  0  0  0  0
   46.1678    6.8518   -0.9581 H   0  0  0  0  0  0  0  0  0  0  0  0
   47.4288    5.1096    0.1594 H   0  0  0  0  0  0  0  0  0  0  0  0
   46.0434    4.0584   -0.0432 H   0  0  0  0  0  0  0  0  0  0  0  0
   46.1591    3.7387    2.2703 H   0  0  0  0  0  0  0  0  0  0  0  0
   44.9963    5.9584    3.8647 H   0  0  0  0  0  0  0  0  0  0  0  0
   44.3275    3.0379    4.0961 H   0  0  0  0  0  0  0  0  0  0  0  0
   43.3733    4.2359    3.1595 H   0  0  0  0  0  0  0  0  0  0  0  0
   42.6783    5.3287    5.0542 H   0  0  0  0  0  0  0  0  0  0  0  0
   43.8360    4.4697    6.0664 H   0  0  0  0  0  0  0  0  0  0  0  0
   42.5912    2.3594    5.3618 H   0  0  0  0  0  0  0  0  0  0  0  0
   41.8131    3.4562    6.5251 H   0  0  0  0  0  0  0  0  0  0  0  0
   40.4667    4.3735    4.7629 H   0  0  0  0  0  0  0  0  0  0  0  0
   41.2103    3.2489    3.6255 H   0  0  0  0  0  0  0  0  0  0  0  0
   39.5982    2.4971    5.9583 H   0  0  0  0  0  0  0  0  0  0  0  0
   40.3168    1.4397    4.8907 H   0  0  0  0  0  0  0  0  0  0  0  0
   46.3222    6.4837    5.5283 H   0  0  0  0  0  0  0  0  0  0  0  0
   48.5468    4.8783    6.3127 H   0  0  0  0  0  0  0  0  0  0  0  0
   47.4157    7.2654    7.6839 H   0  0  0  0  0  0  0  0  0  0  0  0
   50.0597    5.8754    8.0438 H   0  0  0  0  0  0  0  0  0  0  0  0
   48.7408    5.8644    9.1898 H   0  0  0  0  0  0  0  0  0  0  0  0
   49.5745    7.3576    8.8317 H   0  0  0  0  0  0  0  0  0  0  0  0
   49.7420    7.0156    5.7952 H   0  0  0  0  0  0  0  0  0  0  0  0
   49.2542    8.4744    6.6240 H   0  0  0  0  0  0  0  0  0  0  0  0
   48.2041    7.7579    5.4253 H   0  0  0  0  0  0  0  0  0  0  0  0
   48.4866    3.1363    7.7171 H   0  0  0  0  0  0  0  0  0  0  0  0
   46.1324    2.8849    9.5126 H   0  0  0  0  0  0  0  0  0  0  0  0
   47.7366    2.3648    9.9698 H   0  0  0  0  0  0  0  0  0  0  0  0
   46.8685    1.5168    8.7128 H   0  0  0  0  0  0  0  0  0  0  0  0
  1  2  1  0  0  0  0
  1 33  1  0  0  0  0
  1 34  1  0  0  0  0
  1 35  1  0  0  0  0
  2  3  2  0  0  0  0
  2  4  1  0  0  0  0
  4  5  1  0  0  0  0
  4 36  1  0  0  0  0
  5  8  1  0  0  0  0
  5  6  1  0  0  0  0
  5 37  1  1  0  0  0
  6 11  1  0  0  0  0
  7  6  2  0  0  0  0
  8 10  1  0  0  0  0
  8 38  1  6  0  0  0
  9  8  1  0  0  0  0
  9 39  1  0  0  0  0
 10 40  1  0  0  0  0
 10 41  1  0  0  0  0
 10 42  1  0  0  0  0
 11 12  1  0  0  0  0
 11 43  1  0  0  0  0
 12 13  1  0  0  0  0
 12 44  1  0  0  0  0
 12 45  1  0  0  0  0
 13 14  2  0  0  0  0
 13 15  1  0  0  0  0
 15 16  1  0  0  0  0
 15 46  1  0  0  0  0
 16 19  1  0  0  0  0
 16 17  1  0  0  0  0
 16 47  1  1  0  0  0
 17 18  2  0  0  0  0
 17 24  1  0  0  0  0
 19 20  1  0  0  0  0
 19 48  1  0  0  0  0
 19 49  1  0  0  0  0
 20 21  1  0  0  0  0
 20 50  1  0  0  0  0
 20 51  1  0  0  0  0
 21 52  1  0  0  0  0
 21 53  1  0  0  0  0
 22 23  1  0  0  0  0
 22 21  1  0  0  0  0
 22 54  1  0  0  0  0
 22 55  1  0  0  0  0
 23 56  1  0  0  0  0
 23 57  1  0  0  0  0
 24 25  1  0  0  0  0
 24 58  1  0  0  0  0
 25 28  1  0  0  0  0
 25 26  1  0  0  0  0
 25 59  1  6  0  0  0
 26 31  1  0  0  0  0
 26 27  2  0  0  0  0
 28 29  1  0  0  0  0
 28 60  1  0  0  0  0
 29 61  1  0  0  0  0
 29 62  1  0  0  0  0
 29 63  1  0  0  0  0
 30 28  1  0  0  0  0
 30 64  1  0  0  0  0
 30 65  1  0  0  0  0
 30 66  1  0  0  0  0
 31 32  1  0  0  0  0
 31 67  1  0  0  0  0
 32 68  1  0  0  0  0
 32 69  1  0  0  0  0
 32 70  1  0  0  0  0
M  END
>  <MODEL>
       0

$$$$
selected_4mers/TGKV/942_noH.pdb
 OpenBabel03042518353D

 70 69  0  0  1  0  0  0  0  0999 V2000
   -5.4140   29.4530   79.0880 C   0  0  0  0  0  0  0  0  0  0  0  0
   -5.8290   30.0340   80.4390 C   0  0  0  0  0  0  0  0  0  0  0  0
   -6.8240   29.6130   81.0330 O   0  0  0  0  0  0  0  0  0  0  0  0
   -5.0570   31.0070   80.9160 N   0  0  0  0  0  0  0  0  0  0  0  0
   -5.3340   31.6680   82.1880 C   0  0  2  0  0  0  0  0  0  0  0  0
   -6.7540   32.2250   82.2080 C   0  0  0  0  0  0  0  0  0  0  0  0
   -7.1930   32.8640   81.2500 O   0  0  0  0  0  0  0  0  0  0  0  0
   -4.3480   32.8420   82.4310 C   0  0  2  0  0  0  0  0  0  0  0  0
   -3.0100   32.3380   82.5190 O   0  0  0  0  0  0  0  0  0  0  0  0
   -4.6930   33.5810   83.7180 C   0  0  0  0  0  0  0  0  0  0  0  0
   -7.4680   31.9660   83.3020 N   0  0  0  0  0  0  0  0  0  0  0  0
   -8.8230   32.4660   83.4490 C   0  0  0  0  0  0  0  0  0  0  0  0
   -9.8910   31.7430   82.6550 C   0  0  0  0  0  0  0  0  0  0  0  0
  -11.0720   32.0670   82.7660 O   0  0  0  0  0  0  0  0  0  0  0  0
   -9.4870   30.7590   81.8600 N   0  0  0  0  0  0  0  0  0  0  0  0
  -10.4270   30.0000   81.0440 C   0  0  2  0  0  0  0  0  0  0  0  0
  -11.0120   28.7950   81.7750 C   0  0  0  0  0  0  0  0  0  0  0  0
  -10.3400   28.1570   82.5860 O   0  0  0  0  0  0  0  0  0  0  0  0
   -9.7340   29.4940   79.7720 C   0  0  0  0  0  0  0  0  0  0  0  0
   -9.3120   30.5680   78.7810 C   0  0  0  0  0  0  0  0  0  0  0  0
  -10.4820   31.0400   77.9340 C   0  0  0  0  0  0  0  0  0  0  0  0
  -10.0010   31.9040   76.7740 C   0  0  0  0  0  0  0  0  0  0  0  0
   -9.2340   33.0930   77.2340 N   0  0  0  0  0  0  0  0  0  0  0  0
  -12.2720   28.4950   81.4770 N   0  0  0  0  0  0  0  0  0  0  0  0
  -12.9500   27.3350   82.0450 C   0  0  2  0  0  0  0  0  0  0  0  0
  -13.4150   26.5320   80.8370 C   0  0  0  0  0  0  0  0  0  0  0  0
  -14.0250   27.0810   79.9150 O   0  0  0  0  0  0  0  0  0  0  0  0
  -14.1800   27.7270   82.8870 C   0  0  0  0  0  0  0  0  0  0  0  0
  -14.8410   26.4680   83.4490 C   0  0  0  0  0  0  0  0  0  0  0  0
  -13.7600   28.6510   84.0240 C   0  0  0  0  0  0  0  0  0  0  0  0
  -13.1130   25.2400   80.8350 N   0  0  0  0  0  0  0  0  0  0  0  0
  -13.4880   24.3810   79.7200 C   0  0  0  0  0  0  0  0  0  0  0  0
   -4.5319   29.9500   78.7418 H   0  0  0  0  0  0  0  0  0  0  0  0
   -6.2042   29.5951   78.3807 H   0  0  0  0  0  0  0  0  0  0  0  0
   -5.2153   28.4071   79.1954 H   0  0  0  0  0  0  0  0  0  0  0  0
   -4.2724   31.2909   80.3935 H   0  0  0  0  0  0  0  0  0  0  0  0
   -5.2177   30.9341   82.9579 H   0  0  0  0  0  0  0  0  0  0  0  0
   -4.4273   33.5241   81.6105 H   0  0  0  0  0  0  0  0  0  0  0  0
   -2.9454   31.7207   83.2644 H   0  0  0  0  0  0  0  0  0  0  0  0
   -4.6172   32.9084   84.5467 H   0  0  0  0  0  0  0  0  0  0  0  0
   -5.6921   33.9588   83.6555 H   0  0  0  0  0  0  0  0  0  0  0  0
   -4.0120   34.3947   83.8556 H   0  0  0  0  0  0  0  0  0  0  0  0
   -7.0703   31.4265   84.0231 H   0  0  0  0  0  0  0  0  0  0  0  0
   -9.0850   32.4003   84.4844 H   0  0  0  0  0  0  0  0  0  0  0  0
   -8.8042   33.4636   83.0626 H   0  0  0  0  0  0  0  0  0  0  0  0
   -8.5288   30.5365   81.8207 H   0  0  0  0  0  0  0  0  0  0  0  0
  -11.2264   30.6713   80.8089 H   0  0  0  0  0  0  0  0  0  0  0  0
   -8.8576   28.9556   80.0667 H   0  0  0  0  0  0  0  0  0  0  0  0
  -10.4594   28.8948   79.2625 H   0  0  0  0  0  0  0  0  0  0  0  0
   -8.9158   31.4023   79.3212 H   0  0  0  0  0  0  0  0  0  0  0  0
   -8.5745   30.1494   78.1285 H   0  0  0  0  0  0  0  0  0  0  0  0
  -10.9990   30.1878   77.5450 H   0  0  0  0  0  0  0  0  0  0  0  0
  -11.1342   31.6251   78.5482 H   0  0  0  0  0  0  0  0  0  0  0  0
   -9.3719   31.3123   76.1423 H   0  0  0  0  0  0  0  0  0  0  0  0
  -10.8642   32.2553   76.2483 H   0  0  0  0  0  0  0  0  0  0  0  0
   -8.4030   32.7866   77.7399 H   0  0  0  0  0  0  0  0  0  0  0  0
   -9.8188   33.6571   77.8506 H   0  0  0  0  0  0  0  0  0  0  0  0
  -12.7642   29.0750   80.8521 H   0  0  0  0  0  0  0  0  0  0  0  0
  -12.2942   26.7985   82.6984 H   0  0  0  0  0  0  0  0  0  0  0  0
  -14.8820   28.2432   82.2660 H   0  0  0  0  0  0  0  0  0  0  0  0
  -14.1440   25.9467   84.0714 H   0  0  0  0  0  0  0  0  0  0  0  0
  -15.1429   25.8332   82.6423 H   0  0  0  0  0  0  0  0  0  0  0  0
  -15.6987   26.7430   84.0267 H   0  0  0  0  0  0  0  0  0  0  0  0
  -13.0571   28.1458   84.6530 H   0  0  0  0  0  0  0  0  0  0  0  0
  -14.6206   28.9239   84.5982 H   0  0  0  0  0  0  0  0  0  0  0  0
  -13.3074   29.5319   83.6190 H   0  0  0  0  0  0  0  0  0  0  0  0
  -12.6272   24.8554   81.6001 H   0  0  0  0  0  0  0  0  0  0  0  0
  -14.0048   24.9590   78.9826 H   0  0  0  0  0  0  0  0  0  0  0  0
  -14.1271   23.5983   80.0720 H   0  0  0  0  0  0  0  0  0  0  0  0
  -12.6076   23.9547   79.2864 H   0  0  0  0  0  0  0  0  0  0  0  0
  1  2  1  0  0  0  0
  1 33  1  0  0  0  0
  1 34  1  0  0  0  0
  1 35  1  0  0  0  0
  2  4  1  0  0  0  0
  2  3  2  0  0  0  0
  4  5  1  0  0  0  0
  4 36  1  0  0  0  0
  5  6  1  0  0  0  0
  5  8  1  0  0  0  0
  5 37  1  1  0  0  0
  6 11  1  0  0  0  0
  7  6  2  0  0  0  0
  8  9  1  0  0  0  0
  8 10  1  0  0  0  0
  8 38  1  6  0  0  0
  9 39  1  0  0  0  0
 10 40  1  0  0  0  0
 10 41  1  0  0  0  0
 10 42  1  0  0  0  0
 11 12  1  0  0  0  0
 11 43  1  0  0  0  0
 12 44  1  0  0  0  0
 12 45  1  0  0  0  0
 13 14  2  0  0  0  0
 13 12  1  0  0  0  0
 15 13  1  0  0  0  0
 15 46  1  0  0  0  0
 16 17  1  0  0  0  0
 16 15  1  0  0  0  0
 16 47  1  6  0  0  0
 17 18  2  0  0  0  0
 19 16  1  0  0  0  0
 19 48  1  0  0  0  0
 19 49  1  0  0  0  0
 20 19  1  0  0  0  0
 20 50  1  0  0  0  0
 20 51  1  0  0  0  0
 21 20  1  0  0  0  0
 21 52  1  0  0  0  0
 21 53  1  0  0  0  0
 22 23  1  0  0  0  0
 22 21  1  0  0  0  0
 22 54  1  0  0  0  0
 22 55  1  0  0  0  0
 23 56  1  0  0  0  0
 23 57  1  0  0  0  0
 24 17  1  0  0  0  0
 24 25  1  0  0  0  0
 24 58  1  0  0  0  0
 25 28  1  0  0  0  0
 25 59  1  1  0  0  0
 26 25  1  0  0  0  0
 27 26  2  0  0  0  0
 28 29  1  0  0  0  0
 28 30  1  0  0  0  0
 28 60  1  0  0  0  0
 29 61  1  0  0  0  0
 29 62  1  0  0  0  0
 29 63  1  0  0  0  0
 30 64  1  0  0  0  0
 30 65  1  0  0  0  0
 30 66  1  0  0  0  0
 31 26  1  0  0  0  0
 31 67  1  0  0  0  0
 32 31  1  0  0  0  0
 32 68  1  0  0  0  0
 32 69  1  0  0  0  0
 32 70  1  0  0  0  0
M  END
>  <MODEL>
       0

$$$$
selected_4mers/TGKV/943_noH.pdb
 OpenBabel03042518353D

 70 69  0  0  1  0  0  0  0  0999 V2000
   17.4010   91.3320  143.5800 C   0  0  0  0  0  0  0  0  0  0  0  0
   16.6470   90.1090  143.0410 C   0  0  0  0  0  0  0  0  0  0  0  0
   15.6580   90.2440  142.3160 O   0  0  0  0  0  0  0  0  0  0  0  0
   17.1070   88.9120  143.3930 N   0  0  0  0  0  0  0  0  0  0  0  0
   16.4540   87.7050  142.8950 C   0  0  2  0  0  0  0  0  0  0  0  0
   15.6280   87.0020  143.9690 C   0  0  0  0  0  0  0  0  0  0  0  0
   14.8100   86.1480  143.6600 O   0  0  0  0  0  0  0  0  0  0  0  0
   17.4890   86.6770  142.3950 C   0  0  2  0  0  0  0  0  0  0  0  0
   18.3430   86.3020  143.4850 O   0  0  0  0  0  0  0  0  0  0  0  0
   18.3220   87.2490  141.2680 C   0  0  0  0  0  0  0  0  0  0  0  0
   15.8640   87.3490  145.2260 N   0  0  0  0  0  0  0  0  0  0  0  0
   15.1810   86.7010  146.3280 C   0  0  0  0  0  0  0  0  0  0  0  0
   15.8140   85.3630  146.7190 C   0  0  0  0  0  0  0  0  0  0  0  0
   15.3140   84.6620  147.6170 O   0  0  0  0  0  0  0  0  0  0  0  0
   16.9300   85.0020  146.0890 N   0  0  0  0  0  0  0  0  0  0  0  0
   17.5400   83.7080  146.3830 C   0  0  2  0  0  0  0  0  0  0  0  0
   18.2480   83.6390  147.7190 C   0  0  0  0  0  0  0  0  0  0  0  0
   19.0560   84.5130  148.0570 O   0  0  0  0  0  0  0  0  0  0  0  0
   18.5210   83.2920  145.2630 C   0  0  0  0  0  0  0  0  0  0  0  0
   19.1970   81.9340  145.5370 C   0  0  0  0  0  0  0  0  0  0  0  0
   19.1610   80.9630  144.3630 C   0  0  0  0  0  0  0  0  0  0  0  0
   20.0140   81.4450  143.2250 C   0  0  0  0  0  0  0  0  0  0  0  0
   20.2230   80.3800  142.2280 N   0  0  0  0  0  0  0  0  0  0  0  0
   17.9510   82.5820  148.4720 N   0  0  0  0  0  0  0  0  0  0  0  0
   18.5810   82.3270  149.7440 C   0  0  2  0  0  0  0  0  0  0  0  0
   19.7000   81.3170  149.4830 C   0  0  0  0  0  0  0  0  0  0  0  0
   19.4690   80.3040  148.8040 O   0  0  0  0  0  0  0  0  0  0  0  0
   17.5910   81.6780  150.7330 C   0  0  0  0  0  0  0  0  0  0  0  0
   18.3000   81.3300  152.0500 C   0  0  0  0  0  0  0  0  0  0  0  0
   16.4010   82.6300  150.9500 C   0  0  0  0  0  0  0  0  0  0  0  0
   20.9060   81.6070  149.9910 N   0  0  0  0  0  0  0  0  0  0  0  0
   22.0410   80.6850  149.8550 C   0  0  0  0  0  0  0  0  0  0  0  0
   16.9316   92.2255  143.2247 H   0  0  0  0  0  0  0  0  0  0  0  0
   18.4156   91.3032  143.2414 H   0  0  0  0  0  0  0  0  0  0  0  0
   17.3816   91.3200  144.6498 H   0  0  0  0  0  0  0  0  0  0  0  0
   17.8873   88.8398  143.9890 H   0  0  0  0  0  0  0  0  0  0  0  0
   15.8177   88.0361  142.1010 H   0  0  0  0  0  0  0  0  0  0  0  0
   16.9692   85.8189  142.0230 H   0  0  0  0  0  0  0  0  0  0  0  0
   18.8093   87.0860  143.8149 H   0  0  0  0  0  0  0  0  0  0  0  0
   18.8520   88.1102  141.6178 H   0  0  0  0  0  0  0  0  0  0  0  0
   17.6817   87.5291  140.4578 H   0  0  0  0  0  0  0  0  0  0  0  0
   19.0212   86.5121  140.9317 H   0  0  0  0  0  0  0  0  0  0  0  0
   16.5166   88.0615  145.4152 H   0  0  0  0  0  0  0  0  0  0  0  0
   14.1640   86.5273  146.0443 H   0  0  0  0  0  0  0  0  0  0  0  0
   15.2534   87.3497  147.1758 H   0  0  0  0  0  0  0  0  0  0  0  0
   17.3420   85.6044  145.4282 H   0  0  0  0  0  0  0  0  0  0  0  0
   16.7194   83.0233  146.4347 H   0  0  0  0  0  0  0  0  0  0  0  0
   17.9804   83.2254  144.3420 H   0  0  0  0  0  0  0  0  0  0  0  0
   19.2917   84.0328  145.2174 H   0  0  0  0  0  0  0  0  0  0  0  0
   20.2208   82.1151  145.7899 H   0  0  0  0  0  0  0  0  0  0  0  0
   18.6458   81.4737  146.3302 H   0  0  0  0  0  0  0  0  0  0  0  0
   19.5218   80.0098  144.6888 H   0  0  0  0  0  0  0  0  0  0  0  0
   18.1507   80.8898  144.0182 H   0  0  0  0  0  0  0  0  0  0  0  0
   19.5304   82.2748  142.7533 H   0  0  0  0  0  0  0  0  0  0  0  0
   20.9669   81.7360  143.6151 H   0  0  0  0  0  0  0  0  0  0  0  0
   19.3227   80.0908  141.8457 H   0  0  0  0  0  0  0  0  0  0  0  0
   20.6757   79.5816  142.6731 H   0  0  0  0  0  0  0  0  0  0  0  0
   17.2723   81.9473  148.1466 H   0  0  0  0  0  0  0  0  0  0  0  0
   18.9340   83.2464  150.1624 H   0  0  0  0  0  0  0  0  0  0  0  0
   17.2178   80.7601  150.3292 H   0  0  0  0  0  0  0  0  0  0  0  0
   18.6911   82.2229  152.4912 H   0  0  0  0  0  0  0  0  0  0  0  0
   19.1012   80.6483  151.8544 H   0  0  0  0  0  0  0  0  0  0  0  0
   17.6017   80.8764  152.7220 H   0  0  0  0  0  0  0  0  0  0  0  0
   16.7539   83.5557  151.3542 H   0  0  0  0  0  0  0  0  0  0  0  0
   15.7075   82.1843  151.6321 H   0  0  0  0  0  0  0  0  0  0  0  0
   15.9144   82.8117  150.0145 H   0  0  0  0  0  0  0  0  0  0  0  0
   21.0341   82.4592  150.4671 H   0  0  0  0  0  0  0  0  0  0  0  0
   21.7308   79.8147  149.3154 H   0  0  0  0  0  0  0  0  0  0  0  0
   22.3860   80.3983  150.8264 H   0  0  0  0  0  0  0  0  0  0  0  0
   22.8331   81.1703  149.3241 H   0  0  0  0  0  0  0  0  0  0  0  0
  1 33  1  0  0  0  0
  1 34  1  0  0  0  0
  1 35  1  0  0  0  0
  2  4  1  0  0  0  0
  2  1  1  0  0  0  0
  3  2  2  0  0  0  0
  4 36  1  0  0  0  0
  5  4  1  0  0  0  0
  5  6  1  0  0  0  0
  5 37  1  6  0  0  0
  6 11  1  0  0  0  0
  7  6  2  0  0  0  0
  8  5  1  0  0  0  0
  8  9  1  0  0  0  0
  8 38  1  6  0  0  0
  9 39  1  0  0  0  0
 10  8  1  0  0  0  0
 10 40  1  0  0  0  0
 10 41  1  0  0  0  0
 10 42  1  0  0  0  0
 11 12  1  0  0  0  0
 11 43  1  0  0  0  0
 12 13  1  0  0  0  0
 12 44  1  0  0  0  0
 12 45  1  0  0  0  0
 13 14  2  0  0  0  0
 15 16  1  0  0  0  0
 15 13  1  0  0  0  0
 15 46  1  0  0  0  0
 16 17  1  0  0  0  0
 16 47  1  1  0  0  0
 17 18  2  0  0  0  0
 17 24  1  0  0  0  0
 19 20  1  0  0  0  0
 19 16  1  0  0  0  0
 19 48  1  0  0  0  0
 19 49  1  0  0  0  0
 20 50  1  0  0  0  0
 20 51  1  0  0  0  0
 21 20  1  0  0  0  0
 21 52  1  0  0  0  0
 21 53  1  0  0  0  0
 22 21  1  0  0  0  0
 22 54  1  0  0  0  0
 22 55  1  0  0  0  0
 23 22  1  0  0  0  0
 23 56  1  0  0  0  0
 23 57  1  0  0  0  0
 24 25  1  0  0  0  0
 24 58  1  0  0  0  0
 25 28  1  0  0  0  0
 25 59  1  1  0  0  0
 26 25  1  0  0  0  0
 26 31  1  0  0  0  0
 27 26  2  0  0  0  0
 28 30  1  0  0  0  0
 28 29  1  0  0  0  0
 28 60  1  0  0  0  0
 29 61  1  0  0  0  0
 29 62  1  0  0  0  0
 29 63  1  0  0  0  0
 30 64  1  0  0  0  0
 30 65  1  0  0  0  0
 30 66  1  0  0  0  0
 31 67  1  0  0  0  0
 32 31  1  0  0  0  0
 32 68  1  0  0  0  0
 32 69  1  0  0  0  0
 32 70  1  0  0  0  0
M  END
>  <MODEL>
       0

$$$$
selected_4mers/TGKV/944_noH.pdb
 OpenBabel03042518353D

 70 69  0  0  1  0  0  0  0  0999 V2000
  -26.7980  -11.3010    4.2000 C   0  0  0  0  0  0  0  0  0  0  0  0
  -27.9160  -11.4300    3.1610 C   0  0  0  0  0  0  0  0  0  0  0  0
  -27.7020  -11.0990    1.9830 O   0  0  0  0  0  0  0  0  0  0  0  0
  -29.0760  -11.8960    3.6110 N   0  0  0  0  0  0  0  0  0  0  0  0
  -30.2910  -11.9300    2.7990 C   0  0  2  0  0  0  0  0  0  0  0  0
  -31.4250  -11.2160    3.5330 C   0  0  0  0  0  0  0  0  0  0  0  0
  -31.2280  -10.6680    4.6320 O   0  0  0  0  0  0  0  0  0  0  0  0
  -30.7060  -13.3910    2.5060 C   0  0  2  0  0  0  0  0  0  0  0  0
  -30.9190  -14.0890    3.7380 O   0  0  0  0  0  0  0  0  0  0  0  0
  -29.5800  -14.1590    1.8270 C   0  0  0  0  0  0  0  0  0  0  0  0
  -32.6040  -11.2170    2.9200 N   0  0  0  0  0  0  0  0  0  0  0  0
  -33.7970  -10.6830    3.5510 C   0  0  0  0  0  0  0  0  0  0  0  0
  -33.6780   -9.2150    3.9380 C   0  0  0  0  0  0  0  0  0  0  0  0
  -33.0720   -8.4230    3.2150 O   0  0  0  0  0  0  0  0  0  0  0  0
  -34.2430   -8.8890    5.0990 N   0  0  0  0  0  0  0  0  0  0  0  0
  -34.3720   -7.5310    5.6220 C   0  0  2  0  0  0  0  0  0  0  0  0
  -33.0400   -6.7920    5.6940 C   0  0  0  0  0  0  0  0  0  0  0  0
  -32.9320   -5.6370    5.2900 O   0  0  0  0  0  0  0  0  0  0  0  0
  -34.9530   -7.5960    7.0450 C   0  0  0  0  0  0  0  0  0  0  0  0
  -36.0740   -6.6320    7.3260 C   0  0  0  0  0  0  0  0  0  0  0  0
  -36.3010   -6.4330    8.8300 C   0  0  0  0  0  0  0  0  0  0  0  0
  -36.2840   -7.7470    9.6160 C   0  0  0  0  0  0  0  0  0  0  0  0
  -36.9200   -7.5920   10.9670 N   0  0  0  0  0  0  0  0  0  0  0  0
  -32.0320   -7.4700    6.2290 N   0  0  0  0  0  0  0  0  0  0  0  0
  -30.7230   -6.8610    6.4410 C   0  0  2  0  0  0  0  0  0  0  0  0
  -30.0910   -6.4970    5.0960 C   0  0  0  0  0  0  0  0  0  0  0  0
  -29.5040   -5.4280    4.9490 O   0  0  0  0  0  0  0  0  0  0  0  0
  -29.7960   -7.7930    7.2330 C   0  0  0  0  0  0  0  0  0  0  0  0
  -28.3810   -7.2060    7.3140 C   0  0  0  0  0  0  0  0  0  0  0  0
  -30.3430   -8.0390    8.6300 C   0  0  0  0  0  0  0  0  0  0  0  0
  -30.2170   -7.3930    4.1170 N   0  0  0  0  0  0  0  0  0  0  0  0
  -29.7380   -7.1260    2.7720 C   0  0  0  0  0  0  0  0  0  0  0  0
  -25.9162  -10.9189    3.7295 H   0  0  0  0  0  0  0  0  0  0  0  0
  -26.5896  -12.2624    4.6209 H   0  0  0  0  0  0  0  0  0  0  0  0
  -27.1072  -10.6316    4.9754 H   0  0  0  0  0  0  0  0  0  0  0  0
  -29.1193  -12.2342    4.5346 H   0  0  0  0  0  0  0  0  0  0  0  0
  -30.0947  -11.4329    1.8721 H   0  0  0  0  0  0  0  0  0  0  0  0
  -31.5804  -13.3429    1.8912 H   0  0  0  0  0  0  0  0  0  0  0  0
  -30.0952  -14.0999    4.2500 H   0  0  0  0  0  0  0  0  0  0  0  0
  -28.7264  -14.1846    2.4717 H   0  0  0  0  0  0  0  0  0  0  0  0
  -29.3197  -13.6736    0.9097 H   0  0  0  0  0  0  0  0  0  0  0  0
  -29.9027  -15.1585    1.6226 H   0  0  0  0  0  0  0  0  0  0  0  0
  -32.6702  -11.5907    2.0116 H   0  0  0  0  0  0  0  0  0  0  0  0
  -33.9945  -11.2510    4.4360 H   0  0  0  0  0  0  0  0  0  0  0  0
  -34.5891  -10.7552    2.8353 H   0  0  0  0  0  0  0  0  0  0  0  0
  -34.6027   -9.6220    5.6491 H   0  0  0  0  0  0  0  0  0  0  0  0
  -35.0113   -6.9978    4.9498 H   0  0  0  0  0  0  0  0  0  0  0  0
  -34.1610   -7.3925    7.7351 H   0  0  0  0  0  0  0  0  0  0  0  0
  -35.3713   -8.5753    7.1496 H   0  0  0  0  0  0  0  0  0  0  0  0
  -36.9736   -7.0121    6.8887 H   0  0  0  0  0  0  0  0  0  0  0  0
  -35.8074   -5.6851    6.9050 H   0  0  0  0  0  0  0  0  0  0  0  0
  -37.2516   -5.9628    8.9722 H   0  0  0  0  0  0  0  0  0  0  0  0
  -35.4980   -5.8292    9.1980 H   0  0  0  0  0  0  0  0  0  0  0  0
  -35.2694   -8.0618    9.7441 H   0  0  0  0  0  0  0  0  0  0  0  0
  -36.8432   -8.4737    9.0646 H   0  0  0  0  0  0  0  0  0  0  0  0
  -36.4009   -6.9020   11.5100 H   0  0  0  0  0  0  0  0  0  0  0  0
  -36.9064   -8.4881   11.4540 H   0  0  0  0  0  0  0  0  0  0  0  0
  -32.1713   -8.4091    6.4898 H   0  0  0  0  0  0  0  0  0  0  0  0
  -30.8590   -5.9695    7.0169 H   0  0  0  0  0  0  0  0  0  0  0  0
  -29.7491   -8.7296    6.7177 H   0  0  0  0  0  0  0  0  0  0  0  0
  -28.4129   -6.2679    7.8276 H   0  0  0  0  0  0  0  0  0  0  0  0
  -27.9989   -7.0586    6.3255 H   0  0  0  0  0  0  0  0  0  0  0  0
  -27.7443   -7.8821    7.8454 H   0  0  0  0  0  0  0  0  0  0  0  0
  -30.3968   -7.1113    9.1605 H   0  0  0  0  0  0  0  0  0  0  0  0
  -29.6960   -8.7119    9.1530 H   0  0  0  0  0  0  0  0  0  0  0  0
  -31.3212   -8.4669    8.5598 H   0  0  0  0  0  0  0  0  0  0  0  0
  -30.6457   -8.2579    4.3106 H   0  0  0  0  0  0  0  0  0  0  0  0
  -29.3029   -6.1491    2.7357 H   0  0  0  0  0  0  0  0  0  0  0  0
  -30.5567   -7.1776    2.0850 H   0  0  0  0  0  0  0  0  0  0  0  0
  -29.0015   -7.8546    2.5045 H   0  0  0  0  0  0  0  0  0  0  0  0
  1 33  1  0  0  0  0
  1 34  1  0  0  0  0
  1 35  1  0  0  0  0
  2  4  1  0  0  0  0
  2  1  1  0  0  0  0
  3  2  2  0  0  0  0
  4 36  1  0  0  0  0
  5  6  1  0  0  0  0
  5  4  1  0  0  0  0
  5 37  1  6  0  0  0
  6  7  2  0  0  0  0
  8  5  1  0  0  0  0
  8  9  1  0  0  0  0
  8 38  1  6  0  0  0
  9 39  1  0  0  0  0
 10  8  1  0  0  0  0
 10 40  1  0  0  0  0
 10 41  1  0  0  0  0
 10 42  1  0  0  0  0
 11  6  1  0  0  0  0
 11 12  1  0  0  0  0
 11 43  1  0  0  0  0
 12 13  1  0  0  0  0
 12 44  1  0  0  0  0
 12 45  1  0  0  0  0
 13 15  1  0  0  0  0
 14 13  2  0  0  0  0
 15 16  1  0  0  0  0
 15 46  1  0  0  0  0
 16 17  1  0  0  0  0
 16 19  1  0  0  0  0
 16 47  1  6  0  0  0
 17 24  1  0  0  0  0
 18 17  2  0  0  0  0
 19 20  1  0  0  0  0
 19 48  1  0  0  0  0
 19 49  1  0  0  0  0
 20 21  1  0  0  0  0
 20 50  1  0  0  0  0
 20 51  1  0  0  0  0
 21 22  1  0  0  0  0
 21 52  1  0  0  0  0
 21 53  1  0  0  0  0
 22 23  1  0  0  0  0
 22 54  1  0  0  0  0
 22 55  1  0  0  0  0
 23 56  1  0  0  0  0
 23 57  1  0  0  0  0
 24 25  1  0  0  0  0
 24 58  1  0  0  0  0
 25 28  1  0  0  0  0
 25 59  1  1  0  0  0
 26 25  1  0  0  0  0
 27 26  2  0  0  0  0
 28 29  1  0  0  0  0
 28 30  1  0  0  0  0
 28 60  1  0  0  0  0
 29 61  1  0  0  0  0
 29 62  1  0  0  0  0
 29 63  1  0  0  0  0
 30 64  1  0  0  0  0
 30 65  1  0  0  0  0
 30 66  1  0  0  0  0
 31 26  1  0  0  0  0
 31 67  1  0  0  0  0
 32 31  1  0  0  0  0
 32 68  1  0  0  0  0
 32 69  1  0  0  0  0
 32 70  1  0  0  0  0
M  END
>  <MODEL>
       0

$$$$
