selected_4mers/TLTL/910_noH.pdb
 OpenBabel03042518353D

 78 77  0  0  1  0  0  0  0  0999 V2000
   18.9560   18.1900   -1.2500 C   0  0  0  0  0  0  0  0  0  0  0  0
   18.6160   17.0520   -0.2460 C   0  0  0  0  0  0  0  0  0  0  0  0
   19.4600   16.2220    0.0900 O   0  0  0  0  0  0  0  0  0  0  0  0
   17.3400   16.9740    0.0870 N   0  0  0  0  0  0  0  0  0  0  0  0
   16.8480   15.9420    1.0290 C   0  0  2  0  0  0  0  0  0  0  0  0
   17.0410   14.5830    0.3850 C   0  0  0  0  0  0  0  0  0  0  0  0
   17.4540   13.5980    1.0140 O   0  0  0  0  0  0  0  0  0  0  0  0
   15.4440   16.1900    1.3450 C   0  0  2  0  0  0  0  0  0  0  0  0
   15.3150   17.4400    2.0930 O   0  0  0  0  0  0  0  0  0  0  0  0
   14.8750   15.0660    2.2200 C   0  0  0  0  0  0  0  0  0  0  0  0
   16.8270   14.4800   -0.9290 N   0  0  0  0  0  0  0  0  0  0  0  0
   17.0470   13.1630   -1.5850 C   0  0  2  0  0  0  0  0  0  0  0  0
   18.5230   12.7250   -1.5220 C   0  0  0  0  0  0  0  0  0  0  0  0
   18.8210   11.5590   -1.4850 O   0  0  0  0  0  0  0  0  0  0  0  0
   16.6300   13.2520   -3.1130 C   0  0  0  0  0  0  0  0  0  0  0  0
   15.1070   13.2300   -3.3480 C   0  0  0  0  0  0  0  0  0  0  0  0
   14.7330   13.5080   -4.8070 C   0  0  0  0  0  0  0  0  0  0  0  0
   14.4180   11.8890   -2.9820 C   0  0  0  0  0  0  0  0  0  0  0  0
   19.4970   13.6420   -1.6710 N   0  0  0  0  0  0  0  0  0  0  0  0
   20.9030   13.2190   -1.6560 C   0  0  2  0  0  0  0  0  0  0  0  0
   21.1890   12.5430   -0.2980 C   0  0  0  0  0  0  0  0  0  0  0  0
   21.8720   11.5050   -0.2800 O   0  0  0  0  0  0  0  0  0  0  0  0
   21.9330   14.3630   -1.8850 C   0  0  2  0  0  0  0  0  0  0  0  0
   21.8120   15.3370   -0.8450 O   0  0  0  0  0  0  0  0  0  0  0  0
   21.5860   15.0290   -3.2570 C   0  0  0  0  0  0  0  0  0  0  0  0
   20.7050   13.1310    0.7730 N   0  0  0  0  0  0  0  0  0  0  0  0
   20.9700   12.5340    2.1060 C   0  0  2  0  0  0  0  0  0  0  0  0
   20.1570   11.2390    2.2700 C   0  0  0  0  0  0  0  0  0  0  0  0
   20.6030   10.2910    2.8990 O   0  0  0  0  0  0  0  0  0  0  0  0
   20.5710   13.4820    3.2490 C   0  0  0  0  0  0  0  0  0  0  0  0
   21.0970   14.9300    3.3740 C   0  0  0  0  0  0  0  0  0  0  0  0
   21.1270   15.4110    4.8300 C   0  0  0  0  0  0  0  0  0  0  0  0
   22.3390   15.2230    2.6370 C   0  0  0  0  0  0  0  0  0  0  0  0
   18.9310   11.2280    1.7440 N   0  0  0  0  0  0  0  0  0  0  0  0
   18.0700   10.0680    1.8960 C   0  0  0  0  0  0  0  0  0  0  0  0
   18.0897   18.7983   -1.4064 H   0  0  0  0  0  0  0  0  0  0  0  0
   19.2651   17.7634   -2.1813 H   0  0  0  0  0  0  0  0  0  0  0  0
   19.7471   18.7913   -0.8531 H   0  0  0  0  0  0  0  0  0  0  0  0
   16.7017   17.6162   -0.2996 H   0  0  0  0  0  0  0  0  0  0  0  0
   17.3946   15.9745    1.9483 H   0  0  0  0  0  0  0  0  0  0  0  0
   14.9076   16.2411    0.4206 H   0  0  0  0  0  0  0  0  0  0  0  0
   15.8081   17.3710    2.9255 H   0  0  0  0  0  0  0  0  0  0  0  0
   15.4170   15.0223    3.1415 H   0  0  0  0  0  0  0  0  0  0  0  0
   14.9688   14.1320    1.7064 H   0  0  0  0  0  0  0  0  0  0  0  0
   13.8423   15.2596    2.4224 H   0  0  0  0  0  0  0  0  0  0  0  0
   16.5299   15.2590   -1.4526 H   0  0  0  0  0  0  0  0  0  0  0  0
   16.4504   12.4465   -1.0601 H   0  0  0  0  0  0  0  0  0  0  0  0
   17.0197   14.1634   -3.5159 H   0  0  0  0  0  0  0  0  0  0  0  0
   17.0308   12.3848   -3.5949 H   0  0  0  0  0  0  0  0  0  0  0  0
   14.7600   14.0035   -2.6952 H   0  0  0  0  0  0  0  0  0  0  0  0
   15.0965   12.7144   -5.4258 H   0  0  0  0  0  0  0  0  0  0  0  0
   15.1726   14.4327   -5.1179 H   0  0  0  0  0  0  0  0  0  0  0  0
   13.6686   13.5712   -4.8965 H   0  0  0  0  0  0  0  0  0  0  0  0
   14.7674   11.1182   -3.6367 H   0  0  0  0  0  0  0  0  0  0  0  0
   13.3581   11.9924   -3.0865 H   0  0  0  0  0  0  0  0  0  0  0  0
   14.6533   11.6316   -1.9704 H   0  0  0  0  0  0  0  0  0  0  0  0
   19.2677   14.5921   -1.7895 H   0  0  0  0  0  0  0  0  0  0  0  0
   21.0292   12.5501   -2.4816 H   0  0  0  0  0  0  0  0  0  0  0  0
   22.9319   13.9794   -1.8821 H   0  0  0  0  0  0  0  0  0  0  0  0
   20.9094   15.6921   -0.8380 H   0  0  0  0  0  0  0  0  0  0  0  0
   20.5835   15.4020   -3.2290 H   0  0  0  0  0  0  0  0  0  0  0  0
   21.6749   14.3034   -4.0383 H   0  0  0  0  0  0  0  0  0  0  0  0
   22.2622   15.8373   -3.4423 H   0  0  0  0  0  0  0  0  0  0  0  0
   20.1740   13.9561    0.6924 H   0  0  0  0  0  0  0  0  0  0  0  0
   22.0213   12.3419    2.1582 H   0  0  0  0  0  0  0  0  0  0  0  0
   20.8567   12.9871    4.1536 H   0  0  0  0  0  0  0  0  0  0  0  0
   19.5373   13.6516    3.0308 H   0  0  0  0  0  0  0  0  0  0  0  0
   20.3687   15.5220    2.8602 H   0  0  0  0  0  0  0  0  0  0  0  0
   21.8466   14.8406    5.3793 H   0  0  0  0  0  0  0  0  0  0  0  0
   20.1595   15.2816    5.2684 H   0  0  0  0  0  0  0  0  0  0  0  0
   21.3957   16.4463    4.8581 H   0  0  0  0  0  0  0  0  0  0  0  0
   23.1491   14.6753    3.0713 H   0  0  0  0  0  0  0  0  0  0  0  0
   22.5473   16.2711    2.6915 H   0  0  0  0  0  0  0  0  0  0  0  0
   22.2224   14.9353    1.6130 H   0  0  0  0  0  0  0  0  0  0  0  0
   18.6066   12.0140    1.2478 H   0  0  0  0  0  0  0  0  0  0  0  0
   18.5818    9.3152    2.4583 H   0  0  0  0  0  0  0  0  0  0  0  0
   17.8177    9.6821    0.9304 H   0  0  0  0  0  0  0  0  0  0  0  0
   17.1763   10.3522    2.4112 H   0  0  0  0  0  0  0  0  0  0  0  0
  1  2  1  0  0  0  0
  1 36  1  0  0  0  0
  1 37  1  0  0  0  0
  1 38  1  0  0  0  0
  2  4  1  0  0  0  0
  2  3  2  0  0  0  0
  4  5  1  0  0  0  0
  4 39  1  0  0  0  0
  5  8  1  0  0  0  0
  5 40  1  1  0  0  0
  6  7  2  0  0  0  0
  6  5  1  0  0  0  0
  8  9  1  0  0  0  0
  8 10  1  0  0  0  0
  8 41  1  6  0  0  0
  9 42  1  0  0  0  0
 10 43  1  0  0  0  0
 10 44  1  0  0  0  0
 10 45  1  0  0  0  0
 11  6  1  0  0  0  0
 11 46  1  0  0  0  0
 12 13  1  0  0  0  0
 12 11  1  0  0  0  0
 12 47  1  1  0  0  0
 13 14  2  0  0  0  0
 15 12  1  0  0  0  0
 15 48  1  0  0  0  0
 15 49  1  0  0  0  0
 16 15  1  0  0  0  0
 16 18  1  0  0  0  0
 16 50  1  0  0  0  0
 17 16  1  0  0  0  0
 17 51  1  0  0  0  0
 17 52  1  0  0  0  0
 17 53  1  0  0  0  0
 18 54  1  0  0  0  0
 18 55  1  0  0  0  0
 18 56  1  0  0  0  0
 19 20  1  0  0  0  0
 19 13  1  0  0  0  0
 19 57  1  0  0  0  0
 20 21  1  0  0  0  0
 20 58  1  6  0  0  0
 21 22  2  0  0  0  0
 21 26  1  0  0  0  0
 23 20  1  0  0  0  0
 23 24  1  0  0  0  0
 23 59  1  6  0  0  0
 24 60  1  0  0  0  0
 25 23  1  0  0  0  0
 25 61  1  0  0  0  0
 25 62  1  0  0  0  0
 25 63  1  0  0  0  0
 26 27  1  0  0  0  0
 26 64  1  0  0  0  0
 27 28  1  0  0  0  0
 27 30  1  0  0  0  0
 27 65  1  1  0  0  0
 28 29  2  0  0  0  0
 30 31  1  0  0  0  0
 30 66  1  0  0  0  0
 30 67  1  0  0  0  0
 31 32  1  0  0  0  0
 31 68  1  0  0  0  0
 32 69  1  0  0  0  0
 32 70  1  0  0  0  0
 32 71  1  0  0  0  0
 33 31  1  0  0  0  0
 33 72  1  0  0  0  0
 33 73  1  0  0  0  0
 33 74  1  0  0  0  0
 34 35  1  0  0  0  0
 34 28  1  0  0  0  0
 34 75  1  0  0  0  0
 35 76  1  0  0  0  0
 35 77  1  0  0  0  0
 35 78  1  0  0  0  0
M  END
>  <MODEL>
       0

$$$$
selected_4mers/TLTL/911_noH.pdb
 OpenBabel03042518353D

 78 77  0  0  1  0  0  0  0  0999 V2000
    5.5500   20.7510   20.5050 C   0  0  0  0  0  0  0  0  0  0  0  0
    5.6580   20.2110   21.9120 C   0  0  0  0  0  0  0  0  0  0  0  0
    5.6770   21.0370   22.8470 O   0  0  0  0  0  0  0  0  0  0  0  0
    5.8590   18.9260   22.0740 N   0  0  0  0  0  0  0  0  0  0  0  0
    5.9630   18.2950   23.3790 C   0  0  2  0  0  0  0  0  0  0  0  0
    7.3900   18.2610   23.9080 C   0  0  0  0  0  0  0  0  0  0  0  0
    7.6300   17.7370   24.9930 O   0  0  0  0  0  0  0  0  0  0  0  0
    5.4050   16.8660   23.3910 C   0  0  2  0  0  0  0  0  0  0  0  0
    6.1000   15.9830   22.4960 O   0  0  0  0  0  0  0  0  0  0  0  0
    3.9240   16.8990   22.9680 C   0  0  0  0  0  0  0  0  0  0  0  0
    8.3420   18.6890   23.0770 N   0  0  0  0  0  0  0  0  0  0  0  0
    9.7470   18.6040   23.5310 C   0  0  2  0  0  0  0  0  0  0  0  0
   10.0330   19.5610   24.6530 C   0  0  0  0  0  0  0  0  0  0  0  0
    9.8540   20.7760   24.5630 O   0  0  0  0  0  0  0  0  0  0  0  0
   10.6620   18.8570   22.3190 C   0  0  0  0  0  0  0  0  0  0  0  0
   12.1730   18.8910   22.6170 C   0  0  0  0  0  0  0  0  0  0  0  0
   12.6510   17.5670   23.1990 C   0  0  0  0  0  0  0  0  0  0  0  0
   12.9190   19.1260   21.2930 C   0  0  0  0  0  0  0  0  0  0  0  0
   10.5140   19.0400   25.7980 N   0  0  0  0  0  0  0  0  0  0  0  0
   10.8990   19.9020   26.9060 C   0  0  2  0  0  0  0  0  0  0  0  0
   12.3300   19.5070   27.3490 C   0  0  0  0  0  0  0  0  0  0  0  0
   12.6130   18.3170   27.4890 O   0  0  0  0  0  0  0  0  0  0  0  0
    9.9980   19.8130   28.1450 C   0  0  2  0  0  0  0  0  0  0  0  0
    9.9440   18.4550   28.5820 O   0  0  0  0  0  0  0  0  0  0  0  0
    8.6090   20.3390   27.8570 C   0  0  0  0  0  0  0  0  0  0  0  0
   13.1520   20.5030   27.4760 N   0  0  0  0  0  0  0  0  0  0  0  0
   14.5740   20.3530   27.8490 C   0  0  2  0  0  0  0  0  0  0  0  0
   14.8990   21.4370   28.8670 C   0  0  0  0  0  0  0  0  0  0  0  0
   15.3070   22.5460   28.5410 O   0  0  0  0  0  0  0  0  0  0  0  0
   15.4270   20.5820   26.5830 C   0  0  0  0  0  0  0  0  0  0  0  0
   15.2630   19.5820   25.4500 C   0  0  0  0  0  0  0  0  0  0  0  0
   16.0430   20.0390   24.2120 C   0  0  0  0  0  0  0  0  0  0  0  0
   15.6750   18.1850   25.8660 C   0  0  0  0  0  0  0  0  0  0  0  0
   14.5950   21.1620   30.1400 N   0  0  0  0  0  0  0  0  0  0  0  0
   14.6850   22.1280   31.1920 C   0  0  0  0  0  0  0  0  0  0  0  0
    5.5448   19.9374   19.8101 H   0  0  0  0  0  0  0  0  0  0  0  0
    6.3856   21.3878   20.3023 H   0  0  0  0  0  0  0  0  0  0  0  0
    4.6431   21.3102   20.4062 H   0  0  0  0  0  0  0  0  0  0  0  0
    5.9437   18.3606   21.2725 H   0  0  0  0  0  0  0  0  0  0  0  0
    5.3684   18.9103   24.0215 H   0  0  0  0  0  0  0  0  0  0  0  0
    5.5301   16.4941   24.3865 H   0  0  0  0  0  0  0  0  0  0  0  0
    6.0000   16.3014   21.5852 H   0  0  0  0  0  0  0  0  0  0  0  0
    3.8465   17.2762   21.9697 H   0  0  0  0  0  0  0  0  0  0  0  0
    3.3773   17.5346   23.6328 H   0  0  0  0  0  0  0  0  0  0  0  0
    3.5196   15.9092   23.0077 H   0  0  0  0  0  0  0  0  0  0  0  0
    8.1163   19.0501   22.1894 H   0  0  0  0  0  0  0  0  0  0  0  0
    9.9349   17.6274   23.9259 H   0  0  0  0  0  0  0  0  0  0  0  0
   10.4852   18.0792   21.6058 H   0  0  0  0  0  0  0  0  0  0  0  0
   10.4128   19.8356   21.9653 H   0  0  0  0  0  0  0  0  0  0  0  0
   12.3648   19.6694   23.3257 H   0  0  0  0  0  0  0  0  0  0  0  0
   12.4638   16.7808   22.4977 H   0  0  0  0  0  0  0  0  0  0  0  0
   12.1244   17.3664   24.1086 H   0  0  0  0  0  0  0  0  0  0  0  0
   13.7005   17.6237   23.3995 H   0  0  0  0  0  0  0  0  0  0  0  0
   12.7010   18.3280   20.6143 H   0  0  0  0  0  0  0  0  0  0  0  0
   13.9723   19.1591   21.4781 H   0  0  0  0  0  0  0  0  0  0  0  0
   12.6027   20.0544   20.8653 H   0  0  0  0  0  0  0  0  0  0  0  0
   10.6064   18.0639   25.8867 H   0  0  0  0  0  0  0  0  0  0  0  0
   10.8192   20.9037   26.5384 H   0  0  0  0  0  0  0  0  0  0  0  0
   10.4112   20.4243   28.9199 H   0  0  0  0  0  0  0  0  0  0  0  0
    9.5691   17.9034   27.8777 H   0  0  0  0  0  0  0  0  0  0  0  0
    8.1587   19.7523   27.0838 H   0  0  0  0  0  0  0  0  0  0  0  0
    8.6725   21.3589   27.5397 H   0  0  0  0  0  0  0  0  0  0  0  0
    8.0135   20.2778   28.7438 H   0  0  0  0  0  0  0  0  0  0  0  0
   12.8083   21.4113   27.3145 H   0  0  0  0  0  0  0  0  0  0  0  0
   14.7717   19.3834   28.2560 H   0  0  0  0  0  0  0  0  0  0  0  0
   15.1800   21.5493   26.1980 H   0  0  0  0  0  0  0  0  0  0  0  0
   16.4406   20.4708   26.9071 H   0  0  0  0  0  0  0  0  0  0  0  0
   14.2230   19.5425   25.2014 H   0  0  0  0  0  0  0  0  0  0  0  0
   17.0865   20.0837   24.4443 H   0  0  0  0  0  0  0  0  0  0  0  0
   15.7022   21.0084   23.9135 H   0  0  0  0  0  0  0  0  0  0  0  0
   15.8847   19.3439   23.4141 H   0  0  0  0  0  0  0  0  0  0  0  0
   16.7135   18.1813   26.1239 H   0  0  0  0  0  0  0  0  0  0  0  0
   15.5064   17.5072   25.0554 H   0  0  0  0  0  0  0  0  0  0  0  0
   15.0962   17.8797   26.7126 H   0  0  0  0  0  0  0  0  0  0  0  0
   14.2950   20.2515   30.3641 H   0  0  0  0  0  0  0  0  0  0  0  0
   15.0227   23.0610   30.7916 H   0  0  0  0  0  0  0  0  0  0  0  0
   15.3779   21.7858   31.9321 H   0  0  0  0  0  0  0  0  0  0  0  0
   13.7217   22.2594   31.6389 H   0  0  0  0  0  0  0  0  0  0  0  0
  1  2  1  0  0  0  0
  1 36  1  0  0  0  0
  1 37  1  0  0  0  0
  1 38  1  0  0  0  0
  2  4  1  0  0  0  0
  2  3  2  0  0  0  0
  4  5  1  0  0  0  0
  4 39  1  0  0  0  0
  5  8  1  0  0  0  0
  5  6  1  0  0  0  0
  5 40  1  1  0  0  0
  6  7  2  0  0  0  0
  8 41  1  1  0  0  0
  9  8  1  0  0  0  0
  9 42  1  0  0  0  0
 10  8  1  0  0  0  0
 10 43  1  0  0  0  0
 10 44  1  0  0  0  0
 10 45  1  0  0  0  0
 11 12  1  0  0  0  0
 11  6  1  0  0  0  0
 11 46  1  0  0  0  0
 12 13  1  0  0  0  0
 12 47  1  1  0  0  0
 13 19  1  0  0  0  0
 14 13  2  0  0  0  0
 15 16  1  0  0  0  0
 15 12  1  0  0  0  0
 15 48  1  0  0  0  0
 15 49  1  0  0  0  0
 16 17  1  0  0  0  0
 16 50  1  0  0  0  0
 17 51  1  0  0  0  0
 17 52  1  0  0  0  0
 17 53  1  0  0  0  0
 18 16  1  0  0  0  0
 18 54  1  0  0  0  0
 18 55  1  0  0  0  0
 18 56  1  0  0  0  0
 19 20  1  0  0  0  0
 19 57  1  0  0  0  0
 20 21  1  0  0  0  0
 20 23  1  0  0  0  0
 20 58  1  6  0  0  0
 21 26  1  0  0  0  0
 21 22  2  0  0  0  0
 23 24  1  0  0  0  0
 23 59  1  1  0  0  0
 24 60  1  0  0  0  0
 25 23  1  0  0  0  0
 25 61  1  0  0  0  0
 25 62  1  0  0  0  0
 25 63  1  0  0  0  0
 26 27  1  0  0  0  0
 26 64  1  0  0  0  0
 27 28  1  0  0  0  0
 27 65  1  1  0  0  0
 28 34  1  0  0  0  0
 29 28  2  0  0  0  0
 30 27  1  0  0  0  0
 30 66  1  0  0  0  0
 30 67  1  0  0  0  0
 31 33  1  0  0  0  0
 31 30  1  0  0  0  0
 31 68  1  0  0  0  0
 32 31  1  0  0  0  0
 32 69  1  0  0  0  0
 32 70  1  0  0  0  0
 32 71  1  0  0  0  0
 33 72  1  0  0  0  0
 33 73  1  0  0  0  0
 33 74  1  0  0  0  0
 34 35  1  0  0  0  0
 34 75  1  0  0  0  0
 35 76  1  0  0  0  0
 35 77  1  0  0  0  0
 35 78  1  0  0  0  0
M  END
>  <MODEL>
       0

$$$$
selected_4mers/TLTL/912_noH.pdb
 OpenBabel03042518353D

 78 77  0  0  1  0  0  0  0  0999 V2000
   -7.4190   24.7510  -30.5870 C   0  0  0  0  0  0  0  0  0  0  0  0
   -8.0430   23.5400  -31.2510 C   0  0  0  0  0  0  0  0  0  0  0  0
   -8.8990   22.8990  -30.6700 O   0  0  0  0  0  0  0  0  0  0  0  0
   -7.5480   23.1940  -32.4300 N   0  0  0  0  0  0  0  0  0  0  0  0
   -7.9990   22.0180  -33.1500 C   0  0  2  0  0  0  0  0  0  0  0  0
   -7.4410   20.6970  -32.5760 C   0  0  0  0  0  0  0  0  0  0  0  0
   -7.9210   19.6240  -32.9260 O   0  0  0  0  0  0  0  0  0  0  0  0
   -7.6370   22.1430  -34.6650 C   0  0  2  0  0  0  0  0  0  0  0  0
   -6.2300   21.9720  -34.8630 O   0  0  0  0  0  0  0  0  0  0  0  0
   -8.0530   23.5110  -35.2230 C   0  0  0  0  0  0  0  0  0  0  0  0
   -6.4630   20.7700  -31.6700 N   0  0  0  0  0  0  0  0  0  0  0  0
   -5.6370   19.5980  -31.3260 C   0  0  2  0  0  0  0  0  0  0  0  0
   -5.9810   18.9900  -29.9730 C   0  0  0  0  0  0  0  0  0  0  0  0
   -6.0760   19.6970  -28.9840 O   0  0  0  0  0  0  0  0  0  0  0  0
   -4.1470   19.9810  -31.3140 C   0  0  0  0  0  0  0  0  0  0  0  0
   -3.5760   20.6350  -32.5830 C   0  0  0  0  0  0  0  0  0  0  0  0
   -2.0820   20.8130  -32.4710 C   0  0  0  0  0  0  0  0  0  0  0  0
   -3.9090   19.8280  -33.8200 C   0  0  0  0  0  0  0  0  0  0  0  0
   -6.1150   17.6770  -29.9400 N   0  0  0  0  0  0  0  0  0  0  0  0
   -6.2690   16.9480  -28.6890 C   0  0  2  0  0  0  0  0  0  0  0  0
   -4.8990   16.5070  -28.1810 C   0  0  0  0  0  0  0  0  0  0  0  0
   -3.9220   16.5980  -28.9010 O   0  0  0  0  0  0  0  0  0  0  0  0
   -7.0920   15.6800  -28.8950 C   0  0  2  0  0  0  0  0  0  0  0  0
   -6.3460   14.7690  -29.7030 O   0  0  0  0  0  0  0  0  0  0  0  0
   -8.4230   15.9910  -29.5710 C   0  0  0  0  0  0  0  0  0  0  0  0
   -4.8540   15.9260  -26.9880 N   0  0  0  0  0  0  0  0  0  0  0  0
   -3.6130   15.3610  -26.4640 C   0  0  2  0  0  0  0  0  0  0  0  0
   -3.0320   14.2660  -27.3870 C   0  0  0  0  0  0  0  0  0  0  0  0
   -1.8040   14.1500  -27.5530 O   0  0  0  0  0  0  0  0  0  0  0  0
   -3.8320   14.8370  -25.0360 C   0  0  0  0  0  0  0  0  0  0  0  0
   -2.5730   14.4920  -24.2500 C   0  0  0  0  0  0  0  0  0  0  0  0
   -1.6050   15.6600  -24.1700 C   0  0  0  0  0  0  0  0  0  0  0  0
   -2.9440   13.9990  -22.8600 C   0  0  0  0  0  0  0  0  0  0  0  0
   -3.9120   13.5140  -28.0500 N   0  0  0  0  0  0  0  0  0  0  0  0
   -3.4760   12.4630  -28.9450 C   0  0  0  0  0  0  0  0  0  0  0  0
   -6.6928   25.1830  -31.2434 H   0  0  0  0  0  0  0  0  0  0  0  0
   -6.9437   24.4529  -29.6759 H   0  0  0  0  0  0  0  0  0  0  0  0
   -8.1800   25.4721  -30.3729 H   0  0  0  0  0  0  0  0  0  0  0  0
   -6.8475   23.7562  -32.8329 H   0  0  0  0  0  0  0  0  0  0  0  0
   -9.0615   21.9764  -33.0305 H   0  0  0  0  0  0  0  0  0  0  0  0
   -8.1706   21.3746  -35.1844 H   0  0  0  0  0  0  0  0  0  0  0  0
   -5.7498   22.6702  -34.3908 H   0  0  0  0  0  0  0  0  0  0  0  0
   -7.5219   24.2832  -34.7067 H   0  0  0  0  0  0  0  0  0  0  0  0
   -9.1051   23.6477  -35.0845 H   0  0  0  0  0  0  0  0  0  0  0  0
   -7.8219   23.5557  -36.2668 H   0  0  0  0  0  0  0  0  0  0  0  0
   -6.2889   21.6282  -31.2202 H   0  0  0  0  0  0  0  0  0  0  0  0
   -5.8441   18.8663  -32.0788 H   0  0  0  0  0  0  0  0  0  0  0  0
   -3.9977   20.6651  -30.5050 H   0  0  0  0  0  0  0  0  0  0  0  0
   -3.6253   19.0509  -31.2262 H   0  0  0  0  0  0  0  0  0  0  0  0
   -4.0331   21.5978  -32.6776 H   0  0  0  0  0  0  0  0  0  0  0  0
   -1.6148   19.8551  -32.3759 H   0  0  0  0  0  0  0  0  0  0  0  0
   -1.8571   21.4066  -31.6096 H   0  0  0  0  0  0  0  0  0  0  0  0
   -1.7145   21.3035  -33.3480 H   0  0  0  0  0  0  0  0  0  0  0  0
   -3.4604   18.8594  -33.7454 H   0  0  0  0  0  0  0  0  0  0  0  0
   -3.5312   20.3303  -34.6859 H   0  0  0  0  0  0  0  0  0  0  0  0
   -4.9707   19.7239  -33.9028 H   0  0  0  0  0  0  0  0  0  0  0  0
   -6.1107   17.1754  -30.7872 H   0  0  0  0  0  0  0  0  0  0  0  0
   -6.7567   17.5991  -27.9939 H   0  0  0  0  0  0  0  0  0  0  0  0
   -7.2987   15.2457  -27.9392 H   0  0  0  0  0  0  0  0  0  0  0  0
   -6.1657   15.1747  -30.5654 H   0  0  0  0  0  0  0  0  0  0  0  0
   -8.2420   16.4273  -30.5311 H   0  0  0  0  0  0  0  0  0  0  0  0
   -8.9784   16.6772  -28.9664 H   0  0  0  0  0  0  0  0  0  0  0  0
   -8.9825   15.0867  -29.6899 H   0  0  0  0  0  0  0  0  0  0  0  0
   -5.6739   15.8749  -26.4454 H   0  0  0  0  0  0  0  0  0  0  0  0
   -2.8848   16.1443  -26.4324 H   0  0  0  0  0  0  0  0  0  0  0  0
   -4.4304   13.9523  -25.1002 H   0  0  0  0  0  0  0  0  0  0  0  0
   -4.2941   15.6407  -24.5018 H   0  0  0  0  0  0  0  0  0  0  0  0
   -2.0679   13.7090  -24.7760 H   0  0  0  0  0  0  0  0  0  0  0  0
   -2.0681   16.4720  -23.6494 H   0  0  0  0  0  0  0  0  0  0  0  0
   -1.3422   15.9738  -25.1586 H   0  0  0  0  0  0  0  0  0  0  0  0
   -0.7229   15.3569  -23.6457 H   0  0  0  0  0  0  0  0  0  0  0  0
   -3.4498   14.7779  -22.3285 H   0  0  0  0  0  0  0  0  0  0  0  0
   -2.0559   13.7242  -22.3302 H   0  0  0  0  0  0  0  0  0  0  0  0
   -3.5873   13.1481  -22.9433 H   0  0  0  0  0  0  0  0  0  0  0  0
   -4.8753   13.6767  -27.9285 H   0  0  0  0  0  0  0  0  0  0  0  0
   -2.4067   12.4255  -28.9570 H   0  0  0  0  0  0  0  0  0  0  0  0
   -3.8369   12.6627  -29.9323 H   0  0  0  0  0  0  0  0  0  0  0  0
   -3.8621   11.5240  -28.6073 H   0  0  0  0  0  0  0  0  0  0  0  0
  1 36  1  0  0  0  0
  1 37  1  0  0  0  0
  1 38  1  0  0  0  0
  2  3  2  0  0  0  0
  2  1  1  0  0  0  0
  4  2  1  0  0  0  0
  4 39  1  0  0  0  0
  5  6  1  0  0  0  0
  5  4  1  0  0  0  0
  5 40  1  1  0  0  0
  6 11  1  0  0  0  0
  7  6  2  0  0  0  0
  8  5  1  0  0  0  0
  8 41  1  6  0  0  0
  9  8  1  0  0  0  0
  9 42  1  0  0  0  0
 10  8  1  0  0  0  0
 10 43  1  0  0  0  0
 10 44  1  0  0  0  0
 10 45  1  0  0  0  0
 11 12  1  0  0  0  0
 11 46  1  0  0  0  0
 12 15  1  0  0  0  0
 12 13  1  0  0  0  0
 12 47  1  6  0  0  0
 13 19  1  0  0  0  0
 13 14  2  0  0  0  0
 15 48  1  0  0  0  0
 15 49  1  0  0  0  0
 16 17  1  0  0  0  0
 16 15  1  0  0  0  0
 16 50  1  0  0  0  0
 17 51  1  0  0  0  0
 17 52  1  0  0  0  0
 17 53  1  0  0  0  0
 18 16  1  0  0  0  0
 18 54  1  0  0  0  0
 18 55  1  0  0  0  0
 18 56  1  0  0  0  0
 19 20  1  0  0  0  0
 19 57  1  0  0  0  0
 20 21  1  0  0  0  0
 20 58  1  1  0  0  0
 21 26  1  0  0  0  0
 22 21  2  0  0  0  0
 23 20  1  0  0  0  0
 23 59  1  1  0  0  0
 24 23  1  0  0  0  0
 24 60  1  0  0  0  0
 25 23  1  0  0  0  0
 25 61  1  0  0  0  0
 25 62  1  0  0  0  0
 25 63  1  0  0  0  0
 26 27  1  0  0  0  0
 26 64  1  0  0  0  0
 27 30  1  0  0  0  0
 27 65  1  1  0  0  0
 28 27  1  0  0  0  0
 29 28  2  0  0  0  0
 30 31  1  0  0  0  0
 30 66  1  0  0  0  0
 30 67  1  0  0  0  0
 31 32  1  0  0  0  0
 31 33  1  0  0  0  0
 31 68  1  0  0  0  0
 32 69  1  0  0  0  0
 32 70  1  0  0  0  0
 32 71  1  0  0  0  0
 33 72  1  0  0  0  0
 33 73  1  0  0  0  0
 33 74  1  0  0  0  0
 34 28  1  0  0  0  0
 34 75  1  0  0  0  0
 35 34  1  0  0  0  0
 35 76  1  0  0  0  0
 35 77  1  0  0  0  0
 35 78  1  0  0  0  0
M  END
>  <MODEL>
       0

$$$$
selected_4mers/TLTL/913_noH.pdb
 OpenBabel03042518353D

 78 77  0  0  1  0  0  0  0  0999 V2000
    7.9530   13.2750   21.5210 C   0  0  0  0  0  0  0  0  0  0  0  0
    9.4310   13.6710   21.5440 C   0  0  0  0  0  0  0  0  0  0  0  0
   10.1390   13.3210   22.4810 O   0  0  0  0  0  0  0  0  0  0  0  0
    9.8750   14.4120   20.5310 N   0  0  0  0  0  0  0  0  0  0  0  0
   11.2650   14.8450   20.4520 C   0  0  2  0  0  0  0  0  0  0  0  0
   11.3560   16.3710   20.4280 C   0  0  0  0  0  0  0  0  0  0  0  0
   10.7200   17.0450   19.5890 O   0  0  0  0  0  0  0  0  0  0  0  0
   11.9540   14.3160   19.1860 C   0  0  2  0  0  0  0  0  0  0  0  0
   11.9300   12.8900   19.2160 O   0  0  0  0  0  0  0  0  0  0  0  0
   13.4150   14.7710   19.1330 C   0  0  0  0  0  0  0  0  0  0  0  0
   12.1200   16.8970   21.3640 N   0  0  0  0  0  0  0  0  0  0  0  0
   12.3580   18.3400   21.4550 C   0  0  2  0  0  0  0  0  0  0  0  0
   13.7200   18.5280   20.7940 C   0  0  0  0  0  0  0  0  0  0  0  0
   14.6760   17.8440   21.1470 O   0  0  0  0  0  0  0  0  0  0  0  0
   12.4540   18.7740   22.9190 C   0  0  0  0  0  0  0  0  0  0  0  0
   12.8920   20.2350   23.1110 C   0  0  0  0  0  0  0  0  0  0  0  0
   11.7150   21.1770   22.8880 C   0  0  0  0  0  0  0  0  0  0  0  0
   13.4140   20.3930   24.5530 C   0  0  0  0  0  0  0  0  0  0  0  0
   13.8220   19.4360   19.8450 N   0  0  0  0  0  0  0  0  0  0  0  0
   15.0960   19.6500   19.1660 C   0  0  2  0  0  0  0  0  0  0  0  0
   15.6420   21.0340   19.4700 C   0  0  0  0  0  0  0  0  0  0  0  0
   14.9180   22.0090   19.3680 O   0  0  0  0  0  0  0  0  0  0  0  0
   14.9080   19.5250   17.6540 C   0  0  2  0  0  0  0  0  0  0  0  0
   14.5500   18.1810   17.3450 O   0  0  0  0  0  0  0  0  0  0  0  0
   16.1920   19.8750   16.9170 C   0  0  0  0  0  0  0  0  0  0  0  0
   16.9030   21.1080   19.8860 N   0  0  0  0  0  0  0  0  0  0  0  0
   17.5300   22.4040   20.1860 C   0  0  2  0  0  0  0  0  0  0  0  0
   18.9290   22.3680   19.6060 C   0  0  0  0  0  0  0  0  0  0  0  0
   19.4540   21.3010   19.3170 O   0  0  0  0  0  0  0  0  0  0  0  0
   17.7580   22.5900   21.6810 C   0  0  0  0  0  0  0  0  0  0  0  0
   16.7270   22.3370   22.7410 C   0  0  0  0  0  0  0  0  0  0  0  0
   17.4600   22.4370   24.0860 C   0  0  0  0  0  0  0  0  0  0  0  0
   15.5960   23.3840   22.6240 C   0  0  0  0  0  0  0  0  0  0  0  0
   19.5720   23.5280   19.5090 N   0  0  0  0  0  0  0  0  0  0  0  0
   20.9280   23.5050   19.0230 C   0  0  0  0  0  0  0  0  0  0  0  0
    7.4934   13.6634   20.6362 H   0  0  0  0  0  0  0  0  0  0  0  0
    7.4627   13.6764   22.3832 H   0  0  0  0  0  0  0  0  0  0  0  0
    7.8694   12.2083   21.5275 H   0  0  0  0  0  0  0  0  0  0  0  0
    9.2493   14.6741   19.8176 H   0  0  0  0  0  0  0  0  0  0  0  0
   11.7554   14.4521   21.3181 H   0  0  0  0  0  0  0  0  0  0  0  0
   11.4375   14.6944   18.3287 H   0  0  0  0  0  0  0  0  0  0  0  0
   12.4042   12.5751   20.0014 H   0  0  0  0  0  0  0  0  0  0  0  0
   13.9368   14.3954   19.9883 H   0  0  0  0  0  0  0  0  0  0  0  0
   13.4557   15.8402   19.1315 H   0  0  0  0  0  0  0  0  0  0  0  0
   13.8735   14.3954   18.2421 H   0  0  0  0  0  0  0  0  0  0  0  0
   12.5444   16.3015   22.0232 H   0  0  0  0  0  0  0  0  0  0  0  0
   11.5754   18.9102   20.9996 H   0  0  0  0  0  0  0  0  0  0  0  0
   13.1639   18.1425   23.4112 H   0  0  0  0  0  0  0  0  0  0  0  0
   11.4706   18.6890   23.3321 H   0  0  0  0  0  0  0  0  0  0  0  0
   13.6570   20.4796   22.4040 H   0  0  0  0  0  0  0  0  0  0  0  0
   10.9377   20.9482   23.5868 H   0  0  0  0  0  0  0  0  0  0  0  0
   11.3454   21.0562   21.8911 H   0  0  0  0  0  0  0  0  0  0  0  0
   12.0355   22.1880   23.0295 H   0  0  0  0  0  0  0  0  0  0  0  0
   12.6354   20.1442   25.2434 H   0  0  0  0  0  0  0  0  0  0  0  0
   13.7216   21.4054   24.7120 H   0  0  0  0  0  0  0  0  0  0  0  0
   14.2473   19.7391   24.7043 H   0  0  0  0  0  0  0  0  0  0  0  0
   13.0358   19.9723   19.5929 H   0  0  0  0  0  0  0  0  0  0  0  0
   15.7852   18.9103   19.5164 H   0  0  0  0  0  0  0  0  0  0  0  0
   14.1398   20.2028   17.3452 H   0  0  0  0  0  0  0  0  0  0  0  0
   15.2581   17.5836   17.6323 H   0  0  0  0  0  0  0  0  0  0  0  0
   16.9696   19.2040   17.2169 H   0  0  0  0  0  0  0  0  0  0  0  0
   16.4765   20.8790   17.1533 H   0  0  0  0  0  0  0  0  0  0  0  0
   16.0330   19.7882   15.8625 H   0  0  0  0  0  0  0  0  0  0  0  0
   17.4258   20.2809   19.9950 H   0  0  0  0  0  0  0  0  0  0  0  0
   16.8947   23.1730   19.7987 H   0  0  0  0  0  0  0  0  0  0  0  0
   18.0478   23.6129   21.8015 H   0  0  0  0  0  0  0  0  0  0  0  0
   18.4398   21.7887   21.8761 H   0  0  0  0  0  0  0  0  0  0  0  0
   16.2697   21.3747   22.6418 H   0  0  0  0  0  0  0  0  0  0  0  0
   17.9130   23.4023   24.1744 H   0  0  0  0  0  0  0  0  0  0  0  0
   18.2165   21.6820   24.1369 H   0  0  0  0  0  0  0  0  0  0  0  0
   16.7614   22.2964   24.8842 H   0  0  0  0  0  0  0  0  0  0  0  0
   16.0086   24.3668   22.7178 H   0  0  0  0  0  0  0  0  0  0  0  0
   14.8788   23.2226   23.4014 H   0  0  0  0  0  0  0  0  0  0  0  0
   15.1177   23.2874   21.6718 H   0  0  0  0  0  0  0  0  0  0  0  0
   19.1360   24.3740   19.7608 H   0  0  0  0  0  0  0  0  0  0  0  0
   21.2123   22.4964   18.8067 H   0  0  0  0  0  0  0  0  0  0  0  0
   21.5811   23.9075   19.7689 H   0  0  0  0  0  0  0  0  0  0  0  0
   20.9977   24.0940   18.1324 H   0  0  0  0  0  0  0  0  0  0  0  0
  1  2  1  0  0  0  0
  1 36  1  0  0  0  0
  1 37  1  0  0  0  0
  1 38  1  0  0  0  0
  2  3  2  0  0  0  0
  4  2  1  0  0  0  0
  4 39  1  0  0  0  0
  5  4  1  0  0  0  0
  5 40  1  1  0  0  0
  6  5  1  0  0  0  0
  6 11  1  0  0  0  0
  7  6  2  0  0  0  0
  8  9  1  0  0  0  0
  8  5  1  0  0  0  0
  8 41  1  6  0  0  0
  9 42  1  0  0  0  0
 10  8  1  0  0  0  0
 10 43  1  0  0  0  0
 10 44  1  0  0  0  0
 10 45  1  0  0  0  0
 11 12  1  0  0  0  0
 11 46  1  0  0  0  0
 12 15  1  0  0  0  0
 12 47  1  6  0  0  0
 13 14  2  0  0  0  0
 13 12  1  0  0  0  0
 15 16  1  0  0  0  0
 15 48  1  0  0  0  0
 15 49  1  0  0  0  0
 16 18  1  0  0  0  0
 16 50  1  0  0  0  0
 17 16  1  0  0  0  0
 17 51  1  0  0  0  0
 17 52  1  0  0  0  0
 17 53  1  0  0  0  0
 18 54  1  0  0  0  0
 18 55  1  0  0  0  0
 18 56  1  0  0  0  0
 19 13  1  0  0  0  0
 19 57  1  0  0  0  0
 20 21  1  0  0  0  0
 20 19  1  0  0  0  0
 20 58  1  1  0  0  0
 21 26  1  0  0  0  0
 22 21  2  0  0  0  0
 23 20  1  0  0  0  0
 23 59  1  6  0  0  0
 24 23  1  0  0  0  0
 24 60  1  0  0  0  0
 25 23  1  0  0  0  0
 25 61  1  0  0  0  0
 25 62  1  0  0  0  0
 25 63  1  0  0  0  0
 26 27  1  0  0  0  0
 26 64  1  0  0  0  0
 27 30  1  0  0  0  0
 27 65  1  6  0  0  0
 28 27  1  0  0  0  0
 29 28  2  0  0  0  0
 30 31  1  0  0  0  0
 30 66  1  0  0  0  0
 30 67  1  0  0  0  0
 31 32  1  0  0  0  0
 31 68  1  0  0  0  0
 32 69  1  0  0  0  0
 32 70  1  0  0  0  0
 32 71  1  0  0  0  0
 33 31  1  0  0  0  0
 33 72  1  0  0  0  0
 33 73  1  0  0  0  0
 33 74  1  0  0  0  0
 34 28  1  0  0  0  0
 34 75  1  0  0  0  0
 35 34  1  0  0  0  0
 35 76  1  0  0  0  0
 35 77  1  0  0  0  0
 35 78  1  0  0  0  0
M  END
>  <MODEL>
       0

$$$$
selected_4mers/TLTL/914_noH.pdb
 OpenBabel03042518353D

 78 77  0  0  1  0  0  0  0  0999 V2000
   42.6480   56.0580   -2.7120 C   0  0  0  0  0  0  0  0  0  0  0  0
   42.3540   54.5710   -2.9210 C   0  0  0  0  0  0  0  0  0  0  0  0
   42.8400   53.9780   -3.8830 O   0  0  0  0  0  0  0  0  0  0  0  0
   41.5430   53.9630   -2.0480 N   0  0  0  0  0  0  0  0  0  0  0  0
   41.1160   52.5740   -2.2620 C   0  0  2  0  0  0  0  0  0  0  0  0
   39.6090   52.4450   -2.0620 C   0  0  0  0  0  0  0  0  0  0  0  0
   39.0030   53.2260   -1.3170 O   0  0  0  0  0  0  0  0  0  0  0  0
   41.8310   51.5490   -1.3370 C   0  0  2  0  0  0  0  0  0  0  0  0
   41.5860   51.8720    0.0440 O   0  0  0  0  0  0  0  0  0  0  0  0
   43.3280   51.5130   -1.5740 C   0  0  0  0  0  0  0  0  0  0  0  0
   39.0150   51.4580   -2.7260 N   0  0  0  0  0  0  0  0  0  0  0  0
   37.5740   51.2140   -2.6340 C   0  0  2  0  0  0  0  0  0  0  0  0
   37.3220   49.7640   -2.9640 C   0  0  0  0  0  0  0  0  0  0  0  0
   37.5150   49.3510   -4.1190 O   0  0  0  0  0  0  0  0  0  0  0  0
   36.8040   52.1220   -3.6170 C   0  0  0  0  0  0  0  0  0  0  0  0
   35.2750   51.9650   -3.6780 C   0  0  0  0  0  0  0  0  0  0  0  0
   34.5970   52.2840   -2.3370 C   0  0  0  0  0  0  0  0  0  0  0  0
   34.7170   52.9190   -4.7480 C   0  0  0  0  0  0  0  0  0  0  0  0
   36.9090   48.9830   -1.9570 N   0  0  0  0  0  0  0  0  0  0  0  0
   36.7170   47.5500   -2.1140 C   0  0  2  0  0  0  0  0  0  0  0  0
   35.4020   47.1230   -1.4980 C   0  0  0  0  0  0  0  0  0  0  0  0
   34.8830   47.7770   -0.5660 O   0  0  0  0  0  0  0  0  0  0  0  0
   37.8600   46.7340   -1.4300 C   0  0  2  0  0  0  0  0  0  0  0  0
   37.8750   47.0600   -0.0480 O   0  0  0  0  0  0  0  0  0  0  0  0
   39.2140   47.0960   -2.0090 C   0  0  0  0  0  0  0  0  0  0  0  0
   34.8530   46.0440   -2.0420 N   0  0  0  0  0  0  0  0  0  0  0  0
   33.6850   45.3820   -1.4790 C   0  0  2  0  0  0  0  0  0  0  0  0
   34.0760   43.9190   -1.2380 C   0  0  0  0  0  0  0  0  0  0  0  0
   34.4800   43.2070   -2.1760 O   0  0  0  0  0  0  0  0  0  0  0  0
   32.4880   45.5010   -2.4270 C   0  0  0  0  0  0  0  0  0  0  0  0
   31.2550   44.6360   -2.1000 C   0  0  0  0  0  0  0  0  0  0  0  0
   30.6040   45.0480   -0.7860 C   0  0  0  0  0  0  0  0  0  0  0  0
   30.2260   44.6060   -3.2670 C   0  0  0  0  0  0  0  0  0  0  0  0
   33.9920   43.4920    0.0210 N   0  0  0  0  0  0  0  0  0  0  0  0
   34.4320   42.1480    0.4230 C   0  0  0  0  0  0  0  0  0  0  0  0
   43.3061   56.4031   -3.4819 H   0  0  0  0  0  0  0  0  0  0  0  0
   43.1105   56.1994   -1.7576 H   0  0  0  0  0  0  0  0  0  0  0  0
   41.7330   56.6113   -2.7504 H   0  0  0  0  0  0  0  0  0  0  0  0
   41.2289   54.4519   -1.2533 H   0  0  0  0  0  0  0  0  0  0  0  0
   41.3902   52.3407   -3.2696 H   0  0  0  0  0  0  0  0  0  0  0  0
   41.4303   50.5847   -1.5705 H   0  0  0  0  0  0  0  0  0  0  0  0
   41.9540   52.7475    0.2415 H   0  0  0  0  0  0  0  0  0  0  0  0
   43.7484   52.4701   -1.3456 H   0  0  0  0  0  0  0  0  0  0  0  0
   43.5212   51.2740   -2.5989 H   0  0  0  0  0  0  0  0  0  0  0  0
   43.7710   50.7695   -0.9447 H   0  0  0  0  0  0  0  0  0  0  0  0
   39.5617   50.8722   -3.2981 H   0  0  0  0  0  0  0  0  0  0  0  0
   37.2313   51.4365   -1.6451 H   0  0  0  0  0  0  0  0  0  0  0  0
   37.0117   53.1362   -3.3466 H   0  0  0  0  0  0  0  0  0  0  0  0
   37.1476   51.8279   -4.5867 H   0  0  0  0  0  0  0  0  0  0  0  0
   35.0663   50.9430   -3.9165 H   0  0  0  0  0  0  0  0  0  0  0  0
   34.7899   53.3029   -2.0733 H   0  0  0  0  0  0  0  0  0  0  0  0
   34.9873   51.6390   -1.5777 H   0  0  0  0  0  0  0  0  0  0  0  0
   33.5416   52.1323   -2.4260 H   0  0  0  0  0  0  0  0  0  0  0  0
   34.9432   53.9293   -4.4779 H   0  0  0  0  0  0  0  0  0  0  0  0
   33.6562   52.7971   -4.8163 H   0  0  0  0  0  0  0  0  0  0  0  0
   35.1635   52.6942   -5.6941 H   0  0  0  0  0  0  0  0  0  0  0  0
   36.7292   49.3933   -1.0803 H   0  0  0  0  0  0  0  0  0  0  0  0
   36.7226   47.3504   -3.1652 H   0  0  0  0  0  0  0  0  0  0  0  0
   37.6793   45.6918   -1.5915 H   0  0  0  0  0  0  0  0  0  0  0  0
   38.0409   48.0098    0.0584 H   0  0  0  0  0  0  0  0  0  0  0  0
   39.4024   48.1374   -1.8514 H   0  0  0  0  0  0  0  0  0  0  0  0
   39.2206   46.8871   -3.0584 H   0  0  0  0  0  0  0  0  0  0  0  0
   39.9744   46.5189   -1.5257 H   0  0  0  0  0  0  0  0  0  0  0  0
   35.2532   45.6751   -2.8623 H   0  0  0  0  0  0  0  0  0  0  0  0
   33.3860   45.8392   -0.5590 H   0  0  0  0  0  0  0  0  0  0  0  0
   32.1751   46.5242   -2.4267 H   0  0  0  0  0  0  0  0  0  0  0  0
   32.8409   45.1408   -3.3707 H   0  0  0  0  0  0  0  0  0  0  0  0
   31.6108   43.6344   -1.9774 H   0  0  0  0  0  0  0  0  0  0  0  0
   30.2341   46.0486   -0.8695 H   0  0  0  0  0  0  0  0  0  0  0  0
   31.3273   44.9997    0.0010 H   0  0  0  0  0  0  0  0  0  0  0  0
   29.7932   44.3852   -0.5664 H   0  0  0  0  0  0  0  0  0  0  0  0
   29.8403   45.5910   -3.4278 H   0  0  0  0  0  0  0  0  0  0  0  0
   29.4227   43.9448   -3.0173 H   0  0  0  0  0  0  0  0  0  0  0  0
   30.7075   44.2616   -4.1583 H   0  0  0  0  0  0  0  0  0  0  0  0
   33.6231   44.0964    0.7050 H   0  0  0  0  0  0  0  0  0  0  0  0
   34.8039   41.6237   -0.4324 H   0  0  0  0  0  0  0  0  0  0  0  0
   33.6048   41.6113    0.8385 H   0  0  0  0  0  0  0  0  0  0  0  0
   35.2075   42.2308    1.1555 H   0  0  0  0  0  0  0  0  0  0  0  0
  1 36  1  0  0  0  0
  1 37  1  0  0  0  0
  1 38  1  0  0  0  0
  2  1  1  0  0  0  0
  2  4  1  0  0  0  0
  3  2  2  0  0  0  0
  4 39  1  0  0  0  0
  5  6  1  0  0  0  0
  5  4  1  0  0  0  0
  5  8  1  0  0  0  0
  5 40  1  6  0  0  0
  6  7  2  0  0  0  0
  8  9  1  0  0  0  0
  8 41  1  6  0  0  0
  9 42  1  0  0  0  0
 10  8  1  0  0  0  0
 10 43  1  0  0  0  0
 10 44  1  0  0  0  0
 10 45  1  0  0  0  0
 11 12  1  0  0  0  0
 11  6  1  0  0  0  0
 11 46  1  0  0  0  0
 12 47  1  1  0  0  0
 13 12  1  0  0  0  0
 13 19  1  0  0  0  0
 14 13  2  0  0  0  0
 15 12  1  0  0  0  0
 15 48  1  0  0  0  0
 15 49  1  0  0  0  0
 16 15  1  0  0  0  0
 16 17  1  0  0  0  0
 16 50  1  0  0  0  0
 17 51  1  0  0  0  0
 17 52  1  0  0  0  0
 17 53  1  0  0  0  0
 18 16  1  0  0  0  0
 18 54  1  0  0  0  0
 18 55  1  0  0  0  0
 18 56  1  0  0  0  0
 19 57  1  0  0  0  0
 20 19  1  0  0  0  0
 20 21  1  0  0  0  0
 20 23  1  0  0  0  0
 20 58  1  6  0  0  0
 21 22  2  0  0  0  0
 23 24  1  0  0  0  0
 23 59  1  6  0  0  0
 24 60  1  0  0  0  0
 25 23  1  0  0  0  0
 25 61  1  0  0  0  0
 25 62  1  0  0  0  0
 25 63  1  0  0  0  0
 26 21  1  0  0  0  0
 26 27  1  0  0  0  0
 26 64  1  0  0  0  0
 27 28  1  0  0  0  0
 27 65  1  1  0  0  0
 28 34  1  0  0  0  0
 29 28  2  0  0  0  0
 30 31  1  0  0  0  0
 30 27  1  0  0  0  0
 30 66  1  0  0  0  0
 30 67  1  0  0  0  0
 31 32  1  0  0  0  0
 31 68  1  0  0  0  0
 32 69  1  0  0  0  0
 32 70  1  0  0  0  0
 32 71  1  0  0  0  0
 33 31  1  0  0  0  0
 33 72  1  0  0  0  0
 33 73  1  0  0  0  0
 33 74  1  0  0  0  0
 34 35  1  0  0  0  0
 34 75  1  0  0  0  0
 35 76  1  0  0  0  0
 35 77  1  0  0  0  0
 35 78  1  0  0  0  0
M  END
>  <MODEL>
       0

$$$$
