selected_4mers/TPEE/950_noH.pdb
 OpenBabel03042518353D

 70 70  0  0  1  0  0  0  0  0999 V2000
  -22.6570   21.9120   -6.2630 C   0  0  0  0  0  0  0  0  0  0  0  0
  -21.3460   22.6650   -6.1070 C   0  0  0  0  0  0  0  0  0  0  0  0
  -21.0750   23.2280   -5.0460 O   0  0  0  0  0  0  0  0  0  0  0  0
  -20.5310   22.6770   -7.1540 N   0  0  0  0  0  0  0  0  0  0  0  0
  -19.2840   23.4270   -7.1020 C   0  0  2  0  0  0  0  0  0  0  0  0
  -19.6920   24.8490   -7.4700 C   0  0  0  0  0  0  0  0  0  0  0  0
  -20.7850   25.0690   -7.9920 O   0  0  0  0  0  0  0  0  0  0  0  0
  -18.2710   22.9340   -8.1430 C   0  0  2  0  0  0  0  0  0  0  0  0
  -18.7920   23.1650   -9.4570 O   0  0  0  0  0  0  0  0  0  0  0  0
  -17.9910   21.4520   -7.9580 C   0  0  0  0  0  0  0  0  0  0  0  0
  -18.8300   25.8370   -7.1990 N   0  0  0  0  0  0  0  0  0  0  0  0
  -19.2000   27.2110   -7.5470 C   0  0  2  0  0  0  0  0  0  0  0  0
  -19.5560   27.3440   -9.0290 C   0  0  0  0  0  0  0  0  0  0  0  0
  -20.4860   28.0640   -9.3950 O   0  0  0  0  0  0  0  0  0  0  0  0
  -17.9500   28.0030   -7.1750 C   0  0  0  0  0  0  0  0  0  0  0  0
  -17.4210   27.2360   -5.9980 C   0  0  0  0  0  0  0  0  0  0  0  0
  -17.5550   25.8040   -6.4610 C   0  0  0  0  0  0  0  0  0  0  0  0
  -18.8120   26.6360   -9.8730 N   0  0  0  0  0  0  0  0  0  0  0  0
  -19.0340   26.6680  -11.3140 C   0  0  2  0  0  0  0  0  0  0  0  0
  -20.3840   26.0660  -11.7010 C   0  0  0  0  0  0  0  0  0  0  0  0
  -21.0760   26.5880  -12.5730 O   0  0  0  0  0  0  0  0  0  0  0  0
  -17.9140   25.9150  -12.0380 C   0  0  0  0  0  0  0  0  0  0  0  0
  -16.5340   26.5500  -11.9090 C   0  0  0  0  0  0  0  0  0  0  0  0
  -16.0850   26.6990  -10.4670 C   0  0  0  0  0  0  0  0  0  0  0  0
  -16.0990   25.6910   -9.7270 O   0  0  0  0  0  0  0  0  0  0  0  0
  -15.7150   27.8270  -10.0750 O   0  0  0  0  0  0  0  0  0  0  0  0
  -20.7550   24.9690  -11.0510 N   0  0  0  0  0  0  0  0  0  0  0  0
  -22.0230   24.3120  -11.3480 C   0  0  2  0  0  0  0  0  0  0  0  0
  -23.2060   25.1790  -10.9290 C   0  0  0  0  0  0  0  0  0  0  0  0
  -24.2210   25.2300  -11.6250 O   0  0  0  0  0  0  0  0  0  0  0  0
  -22.0890   22.9520  -10.6510 C   0  0  0  0  0  0  0  0  0  0  0  0
  -20.9740   22.0070  -11.0720 C   0  0  0  0  0  0  0  0  0  0  0  0
  -21.0040   20.6890  -10.3250 C   0  0  0  0  0  0  0  0  0  0  0  0
  -21.3260   20.6920   -9.1200 O   0  0  0  0  0  0  0  0  0  0  0  0
  -20.6900   19.6500  -10.9420 O   0  0  0  0  0  0  0  0  0  0  0  0
  -23.0750   25.8590   -9.7940 N   0  0  0  0  0  0  0  0  0  0  0  0
  -24.1340   26.7360   -9.3070 C   0  0  0  0  0  0  0  0  0  0  0  0
  -22.7130   21.4932   -7.2461 H   0  0  0  0  0  0  0  0  0  0  0  0
  -23.4750   22.5857   -6.1152 H   0  0  0  0  0  0  0  0  0  0  0  0
  -22.7059   21.1270   -5.5376 H   0  0  0  0  0  0  0  0  0  0  0  0
  -20.7700   22.1776   -7.9680 H   0  0  0  0  0  0  0  0  0  0  0  0
  -18.8189   23.3304   -6.1432 H   0  0  0  0  0  0  0  0  0  0  0  0
  -17.3546   23.4715   -8.0153 H   0  0  0  0  0  0  0  0  0  0  0  0
  -19.6222   22.6753   -9.5664 H   0  0  0  0  0  0  0  0  0  0  0  0
  -18.8987   20.8993   -8.0827 H   0  0  0  0  0  0  0  0  0  0  0  0
  -17.6022   21.2824   -6.9757 H   0  0  0  0  0  0  0  0  0  0  0  0
  -17.2750   21.1308   -8.6854 H   0  0  0  0  0  0  0  0  0  0  0  0
  -20.0755   27.5573   -7.0386 H   0  0  0  0  0  0  0  0  0  0  0  0
  -18.1954   29.0084   -6.9033 H   0  0  0  0  0  0  0  0  0  0  0  0
  -17.2473   28.0942   -7.9767 H   0  0  0  0  0  0  0  0  0  0  0  0
  -18.0083   27.4167   -5.1220 H   0  0  0  0  0  0  0  0  0  0  0  0
  -16.4226   27.5062   -5.7239 H   0  0  0  0  0  0  0  0  0  0  0  0
  -16.7434   25.5247   -7.0999 H   0  0  0  0  0  0  0  0  0  0  0  0
  -17.5368   25.0901   -5.6642 H   0  0  0  0  0  0  0  0  0  0  0  0
  -18.0888   26.0726   -9.5142 H   0  0  0  0  0  0  0  0  0  0  0  0
  -19.0340   27.6960  -11.6109 H   0  0  0  0  0  0  0  0  0  0  0  0
  -17.8642   24.9245  -11.6363 H   0  0  0  0  0  0  0  0  0  0  0  0
  -18.1600   25.9345  -13.0791 H   0  0  0  0  0  0  0  0  0  0  0  0
  -16.5609   27.5199  -12.3602 H   0  0  0  0  0  0  0  0  0  0  0  0
  -15.8358   25.9029  -12.3975 H   0  0  0  0  0  0  0  0  0  0  0  0
  -20.1651   24.5934  -10.3580 H   0  0  0  0  0  0  0  0  0  0  0  0
  -22.0803   24.1650  -12.4063 H   0  0  0  0  0  0  0  0  0  0  0  0
  -23.0280   22.4954  -10.8850 H   0  0  0  0  0  0  0  0  0  0  0  0
  -21.9772   23.1274   -9.6014 H   0  0  0  0  0  0  0  0  0  0  0  0
  -20.0342   22.4835  -10.8859 H   0  0  0  0  0  0  0  0  0  0  0  0
  -21.1121   21.7904  -12.1107 H   0  0  0  0  0  0  0  0  0  0  0  0
  -22.2457   25.7687   -9.2712 H   0  0  0  0  0  0  0  0  0  0  0  0
  -24.9564   26.7162   -9.9913 H   0  0  0  0  0  0  0  0  0  0  0  0
  -23.7607   27.7356   -9.2269 H   0  0  0  0  0  0  0  0  0  0  0  0
  -24.4618   26.3996   -8.3456 H   0  0  0  0  0  0  0  0  0  0  0  0
  1  2  1  0  0  0  0
  1 38  1  0  0  0  0
  1 39  1  0  0  0  0
  1 40  1  0  0  0  0
  2  3  2  0  0  0  0
  4  5  1  0  0  0  0
  4  2  1  0  0  0  0
  4 41  1  0  0  0  0
  5 42  1  1  0  0  0
  6 11  1  0  0  0  0
  6  5  1  0  0  0  0
  7  6  2  0  0  0  0
  8 10  1  0  0  0  0
  8  5  1  0  0  0  0
  8 43  1  1  0  0  0
  9  8  1  0  0  0  0
  9 44  1  0  0  0  0
 10 45  1  0  0  0  0
 10 46  1  0  0  0  0
 10 47  1  0  0  0  0
 11 17  1  0  0  0  0
 12 11  1  0  0  0  0
 12 15  1  0  0  0  0
 12 48  1  1  0  0  0
 13 12  1  0  0  0  0
 14 13  2  0  0  0  0
 15 16  1  0  0  0  0
 15 49  1  0  0  0  0
 15 50  1  0  0  0  0
 16 51  1  0  0  0  0
 16 52  1  0  0  0  0
 17 16  1  0  0  0  0
 17 53  1  0  0  0  0
 17 54  1  0  0  0  0
 18 13  1  0  0  0  0
 18 55  1  0  0  0  0
 19 18  1  0  0  0  0
 19 56  1  6  0  0  0
 20 19  1  0  0  0  0
 20 27  1  0  0  0  0
 21 20  2  0  0  0  0
 22 23  1  0  0  0  0
 22 19  1  0  0  0  0
 22 57  1  0  0  0  0
 22 58  1  0  0  0  0
 23 24  1  0  0  0  0
 23 59  1  0  0  0  0
 23 60  1  0  0  0  0
 24 26  2  0  0  0  0
 24 25  1  0  0  0  0
 27 61  1  0  0  0  0
 28 27  1  0  0  0  0
 28 29  1  0  0  0  0
 28 31  1  0  0  0  0
 28 62  1  6  0  0  0
 29 36  1  0  0  0  0
 30 29  2  0  0  0  0
 31 63  1  0  0  0  0
 31 64  1  0  0  0  0
 32 31  1  0  0  0  0
 32 33  1  0  0  0  0
 32 65  1  0  0  0  0
 32 66  1  0  0  0  0
 33 34  1  0  0  0  0
 35 33  2  0  0  0  0
 36 37  1  0  0  0  0
 36 67  1  0  0  0  0
 37 68  1  0  0  0  0
 37 69  1  0  0  0  0
 37 70  1  0  0  0  0
M  CHG  1  25  -1
M  CHG  1  34  -1
M  END
>  <MODEL>
       0

$$$$
selected_4mers/TPEE/951_noH.pdb
 OpenBabel03042518353D

 70 70  0  0  1  0  0  0  0  0999 V2000
   52.6320   26.2330   17.7700 C   0  0  0  0  0  0  0  0  0  0  0  0
   52.5810   27.4360   18.7110 C   0  0  0  0  0  0  0  0  0  0  0  0
   51.6000   27.6430   19.4250 O   0  0  0  0  0  0  0  0  0  0  0  0
   53.6460   28.2310   18.6930 N   0  0  0  0  0  0  0  0  0  0  0  0
   53.6960   29.5040   19.4090 C   0  0  2  0  0  0  0  0  0  0  0  0
   52.8440   30.5500   18.6710 C   0  0  0  0  0  0  0  0  0  0  0  0
   52.5340   30.3650   17.4860 O   0  0  0  0  0  0  0  0  0  0  0  0
   55.1400   30.0150   19.4950 C   0  0  2  0  0  0  0  0  0  0  0  0
   55.5920   30.3420   18.1800 O   0  0  0  0  0  0  0  0  0  0  0  0
   56.0660   28.9550   20.1060 C   0  0  0  0  0  0  0  0  0  0  0  0
   52.4490   31.6440   19.3580 N   0  0  0  0  0  0  0  0  0  0  0  0
   51.7500   32.7310   18.6650 C   0  0  2  0  0  0  0  0  0  0  0  0
   52.5060   33.2540   17.4350 C   0  0  0  0  0  0  0  0  0  0  0  0
   51.8900   33.5090   16.4040 O   0  0  0  0  0  0  0  0  0  0  0  0
   51.6080   33.8080   19.7470 C   0  0  0  0  0  0  0  0  0  0  0  0
   51.6100   33.0400   21.0270 C   0  0  0  0  0  0  0  0  0  0  0  0
   52.5710   31.9110   20.8030 C   0  0  0  0  0  0  0  0  0  0  0  0
   53.8290   33.3790   17.5290 N   0  0  0  0  0  0  0  0  0  0  0  0
   54.6300   33.8680   16.3980 C   0  0  2  0  0  0  0  0  0  0  0  0
   54.6410   32.9020   15.2100 C   0  0  0  0  0  0  0  0  0  0  0  0
   54.5430   33.3330   14.0510 O   0  0  0  0  0  0  0  0  0  0  0  0
   56.0550   34.2340   16.8340 C   0  0  0  0  0  0  0  0  0  0  0  0
   56.5280   33.5610   18.1060 C   0  0  0  0  0  0  0  0  0  0  0  0
   55.9780   34.2010   19.3680 C   0  0  0  0  0  0  0  0  0  0  0  0
   56.1490   35.4220   19.5620 O   0  0  0  0  0  0  0  0  0  0  0  0
   55.3840   33.4730   20.1750 O   0  0  0  0  0  0  0  0  0  0  0  0
   54.7200   31.6010   15.4980 N   0  0  0  0  0  0  0  0  0  0  0  0
   54.6210   30.5780   14.4540 C   0  0  2  0  0  0  0  0  0  0  0  0
   53.2500   30.6300   13.7800 C   0  0  0  0  0  0  0  0  0  0  0  0
   53.1500   30.5810   12.5550 O   0  0  0  0  0  0  0  0  0  0  0  0
   54.8860   29.1790   15.0210 C   0  0  0  0  0  0  0  0  0  0  0  0
   56.3610   28.8920   15.3400 C   0  0  0  0  0  0  0  0  0  0  0  0
   56.5570   27.6080   16.1260 C   0  0  0  0  0  0  0  0  0  0  0  0
   57.5980   26.9420   15.9450 O   0  0  0  0  0  0  0  0  0  0  0  0
   55.6750   27.2540   16.9330 O   0  0  0  0  0  0  0  0  0  0  0  0
   52.1980   30.7480   14.5870 N   0  0  0  0  0  0  0  0  0  0  0  0
   50.8360   30.8460   14.0750 C   0  0  0  0  0  0  0  0  0  0  0  0
   53.5624   26.2328   17.2415 H   0  0  0  0  0  0  0  0  0  0  0  0
   51.8245   26.2928   17.0705 H   0  0  0  0  0  0  0  0  0  0  0  0
   52.5448   25.3311   18.3391 H   0  0  0  0  0  0  0  0  0  0  0  0
   54.4349   27.9503   18.1752 H   0  0  0  0  0  0  0  0  0  0  0  0
   53.3145   29.3503   20.3968 H   0  0  0  0  0  0  0  0  0  0  0  0
   55.1632   30.8800   20.1244 H   0  0  0  0  0  0  0  0  0  0  0  0
   55.5652   29.5488   17.6223 H   0  0  0  0  0  0  0  0  0  0  0  0
   56.0589   28.0787   19.4921 H   0  0  0  0  0  0  0  0  0  0  0  0
   55.7229   28.7052   21.0882 H   0  0  0  0  0  0  0  0  0  0  0  0
   57.0619   29.3420   20.1637 H   0  0  0  0  0  0  0  0  0  0  0  0
   50.8129   32.4083   18.2616 H   0  0  0  0  0  0  0  0  0  0  0  0
   50.6912   34.3468   19.6287 H   0  0  0  0  0  0  0  0  0  0  0  0
   52.3889   34.5382   19.7048 H   0  0  0  0  0  0  0  0  0  0  0  0
   50.6315   32.6637   21.2409 H   0  0  0  0  0  0  0  0  0  0  0  0
   51.8937   33.6490   21.8598 H   0  0  0  0  0  0  0  0  0  0  0  0
   53.5692   32.2013   21.0563 H   0  0  0  0  0  0  0  0  0  0  0  0
   52.3582   31.0537   21.4068 H   0  0  0  0  0  0  0  0  0  0  0  0
   54.2784   33.1394   18.3716 H   0  0  0  0  0  0  0  0  0  0  0  0
   54.1490   34.7605   16.0560 H   0  0  0  0  0  0  0  0  0  0  0  0
   56.0946   35.2927   16.9841 H   0  0  0  0  0  0  0  0  0  0  0  0
   56.7035   33.8908   16.0552 H   0  0  0  0  0  0  0  0  0  0  0  0
   57.5964   33.6105   18.1387 H   0  0  0  0  0  0  0  0  0  0  0  0
   56.1700   32.5530   18.0816 H   0  0  0  0  0  0  0  0  0  0  0  0
   54.8477   31.3225   16.4336 H   0  0  0  0  0  0  0  0  0  0  0  0
   55.3718   30.7845   13.7201 H   0  0  0  0  0  0  0  0  0  0  0  0
   54.5525   28.4586   14.3036 H   0  0  0  0  0  0  0  0  0  0  0  0
   54.3561   29.1203   15.9487 H   0  0  0  0  0  0  0  0  0  0  0  0
   56.7508   29.7065   15.9141 H   0  0  0  0  0  0  0  0  0  0  0  0
   56.8748   28.7794   14.4082 H   0  0  0  0  0  0  0  0  0  0  0  0
   52.3440   30.7698   15.5604 H   0  0  0  0  0  0  0  0  0  0  0  0
   50.8532   30.8069   13.0059 H   0  0  0  0  0  0  0  0  0  0  0  0
   50.4018   31.7715   14.3911 H   0  0  0  0  0  0  0  0  0  0  0  0
   50.2536   30.0315   14.4524 H   0  0  0  0  0  0  0  0  0  0  0  0
  1  2  1  0  0  0  0
  1 38  1  0  0  0  0
  1 39  1  0  0  0  0
  1 40  1  0  0  0  0
  2  3  2  0  0  0  0
  4  2  1  0  0  0  0
  4  5  1  0  0  0  0
  4 41  1  0  0  0  0
  5  8  1  0  0  0  0
  5 42  1  1  0  0  0
  6 11  1  0  0  0  0
  6  5  1  0  0  0  0
  7  6  2  0  0  0  0
  8 10  1  0  0  0  0
  8 43  1  1  0  0  0
  9  8  1  0  0  0  0
  9 44  1  0  0  0  0
 10 45  1  0  0  0  0
 10 46  1  0  0  0  0
 10 47  1  0  0  0  0
 11 17  1  0  0  0  0
 12 11  1  0  0  0  0
 12 15  1  0  0  0  0
 12 48  1  6  0  0  0
 13 18  1  0  0  0  0
 13 12  1  0  0  0  0
 14 13  2  0  0  0  0
 15 16  1  0  0  0  0
 15 49  1  0  0  0  0
 15 50  1  0  0  0  0
 16 51  1  0  0  0  0
 16 52  1  0  0  0  0
 17 16  1  0  0  0  0
 17 53  1  0  0  0  0
 17 54  1  0  0  0  0
 18 55  1  0  0  0  0
 19 22  1  0  0  0  0
 19 18  1  0  0  0  0
 19 56  1  6  0  0  0
 20 27  1  0  0  0  0
 20 19  1  0  0  0  0
 21 20  2  0  0  0  0
 22 23  1  0  0  0  0
 22 57  1  0  0  0  0
 22 58  1  0  0  0  0
 23 24  1  0  0  0  0
 23 59  1  0  0  0  0
 23 60  1  0  0  0  0
 24 25  2  0  0  0  0
 24 26  1  0  0  0  0
 27 61  1  0  0  0  0
 28 31  1  0  0  0  0
 28 27  1  0  0  0  0
 28 62  1  6  0  0  0
 29 28  1  0  0  0  0
 29 36  1  0  0  0  0
 30 29  2  0  0  0  0
 31 32  1  0  0  0  0
 31 63  1  0  0  0  0
 31 64  1  0  0  0  0
 32 33  1  0  0  0  0
 32 65  1  0  0  0  0
 32 66  1  0  0  0  0
 33 35  1  0  0  0  0
 34 33  2  0  0  0  0
 36 67  1  0  0  0  0
 37 36  1  0  0  0  0
 37 68  1  0  0  0  0
 37 69  1  0  0  0  0
 37 70  1  0  0  0  0
M  CHG  1  26  -1
M  CHG  1  35  -1
M  END
>  <MODEL>
       0

$$$$
selected_4mers/TPEE/952_noH.pdb
 OpenBabel03042518353D

 70 70  0  0  1  0  0  0  0  0999 V2000
   32.3380   20.8590   38.3880 C   0  0  0  0  0  0  0  0  0  0  0  0
   33.6370   21.4470   38.9140 C   0  0  0  0  0  0  0  0  0  0  0  0
   33.8820   21.4180   40.1230 O   0  0  0  0  0  0  0  0  0  0  0  0
   34.4900   21.9280   38.0140 N   0  0  0  0  0  0  0  0  0  0  0  0
   35.7860   22.4930   38.4500 C   0  0  2  0  0  0  0  0  0  0  0  0
   35.5880   23.9250   38.9260 C   0  0  0  0  0  0  0  0  0  0  0  0
   34.5480   24.5280   38.6590 O   0  0  0  0  0  0  0  0  0  0  0  0
   36.8320   22.4960   37.3390 C   0  0  2  0  0  0  0  0  0  0  0  0
   36.4760   23.4900   36.3660 O   0  0  0  0  0  0  0  0  0  0  0  0
   37.0040   21.1120   36.6970 C   0  0  0  0  0  0  0  0  0  0  0  0
   36.5740   24.4780   39.6740 N   0  0  0  0  0  0  0  0  0  0  0  0
   36.4780   25.8880   40.0960 C   0  0  2  0  0  0  0  0  0  0  0  0
   36.1930   26.8700   38.9480 C   0  0  0  0  0  0  0  0  0  0  0  0
   35.3220   27.7340   39.0810 O   0  0  0  0  0  0  0  0  0  0  0  0
   37.8620   26.1730   40.7150 C   0  0  0  0  0  0  0  0  0  0  0  0
   38.3060   24.8200   41.2480 C   0  0  0  0  0  0  0  0  0  0  0  0
   37.7650   23.8030   40.2370 C   0  0  0  0  0  0  0  0  0  0  0  0
   36.9190   26.7470   37.8400 N   0  0  0  0  0  0  0  0  0  0  0  0
   36.6970   27.6430   36.6830 C   0  0  2  0  0  0  0  0  0  0  0  0
   35.3350   27.4530   36.0090 C   0  0  0  0  0  0  0  0  0  0  0  0
   34.6970   28.4180   35.5960 O   0  0  0  0  0  0  0  0  0  0  0  0
   37.8410   27.5700   35.6450 C   0  0  0  0  0  0  0  0  0  0  0  0
   38.5080   26.1780   35.5070 C   0  0  0  0  0  0  0  0  0  0  0  0
   39.5370   25.9020   36.6910 C   0  0  0  0  0  0  0  0  0  0  0  0
   40.5300   26.7290   36.8550 O   0  0  0  0  0  0  0  0  0  0  0  0
   39.3530   24.8700   37.4420 O   0  0  0  0  0  0  0  0  0  0  0  0
   34.8970   26.2040   35.8980 N   0  0  0  0  0  0  0  0  0  0  0  0
   33.5360   25.9290   35.4580 C   0  0  2  0  0  0  0  0  0  0  0  0
   32.5160   26.5310   36.4220 C   0  0  0  0  0  0  0  0  0  0  0  0
   31.5290   27.1210   35.9980 O   0  0  0  0  0  0  0  0  0  0  0  0
   33.3250   24.4290   35.3330 C   0  0  0  0  0  0  0  0  0  0  0  0
   34.0190   23.8180   34.1230 C   0  0  0  0  0  0  0  0  0  0  0  0
   33.8330   22.3170   34.0510 C   0  0  0  0  0  0  0  0  0  0  0  0
   33.4100   21.7220   35.0760 O   0  0  0  0  0  0  0  0  0  0  0  0
   34.1270   21.7350   32.9850 O   0  0  0  0  0  0  0  0  0  0  0  0
   32.7600   26.4090   37.7220 N   0  0  0  0  0  0  0  0  0  0  0  0
   31.7930   26.9170   38.6850 C   0  0  0  0  0  0  0  0  0  0  0  0
   32.2994   20.9736   37.3249 H   0  0  0  0  0  0  0  0  0  0  0  0
   31.5095   21.3701   38.8322 H   0  0  0  0  0  0  0  0  0  0  0  0
   32.2906   19.8194   38.6367 H   0  0  0  0  0  0  0  0  0  0  0  0
   34.2589   21.9081   37.0572 H   0  0  0  0  0  0  0  0  0  0  0  0
   36.1433   21.8678   39.2414 H   0  0  0  0  0  0  0  0  0  0  0  0
   37.7828   22.7404   37.7647 H   0  0  0  0  0  0  0  0  0  0  0  0
   35.6142   23.2697   35.9792 H   0  0  0  0  0  0  0  0  0  0  0  0
   36.0802   20.8088   36.2503 H   0  0  0  0  0  0  0  0  0  0  0  0
   37.2869   20.4035   37.4472 H   0  0  0  0  0  0  0  0  0  0  0  0
   37.7648   21.1592   35.9461 H   0  0  0  0  0  0  0  0  0  0  0  0
   35.6549   26.0284   40.7652 H   0  0  0  0  0  0  0  0  0  0  0  0
   37.7854   26.8883   41.5070 H   0  0  0  0  0  0  0  0  0  0  0  0
   38.5529   26.5876   40.0110 H   0  0  0  0  0  0  0  0  0  0  0  0
   39.3734   24.7676   41.3006 H   0  0  0  0  0  0  0  0  0  0  0  0
   37.9428   24.6373   42.2378 H   0  0  0  0  0  0  0  0  0  0  0  0
   38.4870   23.6010   39.4736 H   0  0  0  0  0  0  0  0  0  0  0  0
   37.5378   22.8554   40.6790 H   0  0  0  0  0  0  0  0  0  0  0  0
   37.6132   26.0507   37.7890 H   0  0  0  0  0  0  0  0  0  0  0  0
   36.6965   28.6280   37.1010 H   0  0  0  0  0  0  0  0  0  0  0  0
   37.4420   27.8436   34.6906 H   0  0  0  0  0  0  0  0  0  0  0  0
   38.6038   28.2356   35.9914 H   0  0  0  0  0  0  0  0  0  0  0  0
   39.0313   26.1344   34.5747 H   0  0  0  0  0  0  0  0  0  0  0  0
   37.7409   25.4332   35.5493 H   0  0  0  0  0  0  0  0  0  0  0  0
   35.4989   25.4559   36.1155 H   0  0  0  0  0  0  0  0  0  0  0  0
   33.3923   26.3836   34.5001 H   0  0  0  0  0  0  0  0  0  0  0  0
   33.7056   23.9585   36.2154 H   0  0  0  0  0  0  0  0  0  0  0  0
   32.2746   24.2676   35.2088 H   0  0  0  0  0  0  0  0  0  0  0  0
   33.6141   24.2579   33.2356 H   0  0  0  0  0  0  0  0  0  0  0  0
   35.0670   24.0140   34.2132 H   0  0  0  0  0  0  0  0  0  0  0  0
   33.5890   25.9781   38.0323 H   0  0  0  0  0  0  0  0  0  0  0  0
   30.9633   27.3475   38.1642 H   0  0  0  0  0  0  0  0  0  0  0  0
   32.2564   27.6631   39.2961 H   0  0  0  0  0  0  0  0  0  0  0  0
   31.4487   26.1137   39.3023 H   0  0  0  0  0  0  0  0  0  0  0  0
  1  2  1  0  0  0  0
  1 38  1  0  0  0  0
  1 39  1  0  0  0  0
  1 40  1  0  0  0  0
  2  3  2  0  0  0  0
  4  5  1  0  0  0  0
  4  2  1  0  0  0  0
  4 41  1  0  0  0  0
  5  6  1  0  0  0  0
  5 42  1  1  0  0  0
  6 11  1  0  0  0  0
  7  6  2  0  0  0  0
  8  5  1  0  0  0  0
  8 43  1  1  0  0  0
  9  8  1  0  0  0  0
  9 44  1  0  0  0  0
 10  8  1  0  0  0  0
 10 45  1  0  0  0  0
 10 46  1  0  0  0  0
 10 47  1  0  0  0  0
 11 12  1  0  0  0  0
 11 17  1  0  0  0  0
 12 15  1  0  0  0  0
 12 48  1  1  0  0  0
 13 14  2  0  0  0  0
 13 12  1  0  0  0  0
 15 16  1  0  0  0  0
 15 49  1  0  0  0  0
 15 50  1  0  0  0  0
 16 51  1  0  0  0  0
 16 52  1  0  0  0  0
 17 16  1  0  0  0  0
 17 53  1  0  0  0  0
 17 54  1  0  0  0  0
 18 13  1  0  0  0  0
 18 55  1  0  0  0  0
 19 18  1  0  0  0  0
 19 56  1  1  0  0  0
 20 19  1  0  0  0  0
 21 20  2  0  0  0  0
 22 19  1  0  0  0  0
 22 57  1  0  0  0  0
 22 58  1  0  0  0  0
 23 22  1  0  0  0  0
 23 24  1  0  0  0  0
 23 59  1  0  0  0  0
 23 60  1  0  0  0  0
 24 25  2  0  0  0  0
 24 26  1  0  0  0  0
 27 20  1  0  0  0  0
 27 61  1  0  0  0  0
 28 27  1  0  0  0  0
 28 29  1  0  0  0  0
 28 62  1  6  0  0  0
 29 36  1  0  0  0  0
 30 29  2  0  0  0  0
 31 28  1  0  0  0  0
 31 63  1  0  0  0  0
 31 64  1  0  0  0  0
 32 31  1  0  0  0  0
 32 65  1  0  0  0  0
 32 66  1  0  0  0  0
 33 32  1  0  0  0  0
 33 34  1  0  0  0  0
 35 33  2  0  0  0  0
 36 37  1  0  0  0  0
 36 67  1  0  0  0  0
 37 68  1  0  0  0  0
 37 69  1  0  0  0  0
 37 70  1  0  0  0  0
M  CHG  1  26  -1
M  CHG  1  34  -1
M  END
>  <MODEL>
       0

$$$$
selected_4mers/TPEE/953_noH.pdb
 OpenBabel03042518353D

 70 70  0  0  1  0  0  0  0  0999 V2000
    9.3450   76.6390   25.8410 C   0  0  0  0  0  0  0  0  0  0  0  0
    9.7440   76.6140   27.3100 C   0  0  0  0  0  0  0  0  0  0  0  0
    9.0940   77.2220   28.1490 O   0  0  0  0  0  0  0  0  0  0  0  0
   10.8160   75.9180   27.6350 N   0  0  0  0  0  0  0  0  0  0  0  0
   11.2150   75.8700   29.0260 C   0  0  2  0  0  0  0  0  0  0  0  0
   11.9650   77.1540   29.3150 C   0  0  0  0  0  0  0  0  0  0  0  0
   12.5100   77.7570   28.3970 O   0  0  0  0  0  0  0  0  0  0  0  0
   12.1180   74.6510   29.3030 C   0  0  2  0  0  0  0  0  0  0  0  0
   13.2620   74.7210   28.4490 O   0  0  0  0  0  0  0  0  0  0  0  0
   11.3570   73.3680   29.0130 C   0  0  0  0  0  0  0  0  0  0  0  0
   11.9690   77.5880   30.5830 N   0  0  0  0  0  0  0  0  0  0  0  0
   12.7100   78.7870   30.9850 C   0  0  2  0  0  0  0  0  0  0  0  0
   14.1500   78.7560   30.4780 C   0  0  0  0  0  0  0  0  0  0  0  0
   14.6860   79.7810   30.0410 O   0  0  0  0  0  0  0  0  0  0  0  0
   12.6750   78.7130   32.5100 C   0  0  0  0  0  0  0  0  0  0  0  0
   11.3810   78.0280   32.7980 C   0  0  0  0  0  0  0  0  0  0  0  0
   11.1700   77.0320   31.6920 C   0  0  0  0  0  0  0  0  0  0  0  0
   14.7770   77.5900   30.5280 N   0  0  0  0  0  0  0  0  0  0  0  0
   16.1620   77.4880   30.0810 C   0  0  2  0  0  0  0  0  0  0  0  0
   16.3130   77.9230   28.6200 C   0  0  0  0  0  0  0  0  0  0  0  0
   17.2890   78.5660   28.2530 O   0  0  0  0  0  0  0  0  0  0  0  0
   16.6750   76.0560   30.2680 C   0  0  0  0  0  0  0  0  0  0  0  0
   18.1450   75.9100   29.9730 C   0  0  0  0  0  0  0  0  0  0  0  0
   18.6830   74.5220   30.3320 C   0  0  0  0  0  0  0  0  0  0  0  0
   17.9300   73.7240   30.9460 O   0  0  0  0  0  0  0  0  0  0  0  0
   19.8610   74.2360   29.9990 O   0  0  0  0  0  0  0  0  0  0  0  0
   15.3340   77.5780   27.7890 N   0  0  0  0  0  0  0  0  0  0  0  0
   15.3640   77.9130   26.3660 C   0  0  2  0  0  0  0  0  0  0  0  0
   15.3900   79.4250   26.1600 C   0  0  0  0  0  0  0  0  0  0  0  0
   15.8970   79.9300   25.1460 O   0  0  0  0  0  0  0  0  0  0  0  0
   14.1460   77.2990   25.6690 C   0  0  0  0  0  0  0  0  0  0  0  0
   14.0260   77.6160   24.1890 C   0  0  0  0  0  0  0  0  0  0  0  0
   15.2030   77.1330   23.3690 C   0  0  0  0  0  0  0  0  0  0  0  0
   15.8490   76.1370   23.7610 O   0  0  0  0  0  0  0  0  0  0  0  0
   15.4780   77.7460   22.3160 O   0  0  0  0  0  0  0  0  0  0  0  0
   14.8490   80.1480   27.1340 N   0  0  0  0  0  0  0  0  0  0  0  0
   14.7580   81.6010   27.0440 C   0  0  0  0  0  0  0  0  0  0  0  0
   10.0353   76.0502   25.2739 H   0  0  0  0  0  0  0  0  0  0  0  0
    9.3598   77.6478   25.4845 H   0  0  0  0  0  0  0  0  0  0  0  0
    8.3595   76.2367   25.7322 H   0  0  0  0  0  0  0  0  0  0  0  0
   11.3338   75.4413   26.9466 H   0  0  0  0  0  0  0  0  0  0  0  0
   10.3556   75.7736   29.6561 H   0  0  0  0  0  0  0  0  0  0  0  0
   12.4212   74.6561   30.3291 H   0  0  0  0  0  0  0  0  0  0  0  0
   12.9747   74.7157   27.5225 H   0  0  0  0  0  0  0  0  0  0  0  0
   11.0517   73.3584   27.9875 H   0  0  0  0  0  0  0  0  0  0  0  0
   10.4935   73.3154   29.6427 H   0  0  0  0  0  0  0  0  0  0  0  0
   11.9899   72.5268   29.2046 H   0  0  0  0  0  0  0  0  0  0  0  0
   12.2894   79.6868   30.5870 H   0  0  0  0  0  0  0  0  0  0  0  0
   12.6930   79.6924   32.9406 H   0  0  0  0  0  0  0  0  0  0  0  0
   13.5184   78.1985   32.9209 H   0  0  0  0  0  0  0  0  0  0  0  0
   11.4301   77.5270   33.7422 H   0  0  0  0  0  0  0  0  0  0  0  0
   10.5743   78.7293   32.8463 H   0  0  0  0  0  0  0  0  0  0  0  0
   11.5266   76.0635   31.9743 H   0  0  0  0  0  0  0  0  0  0  0  0
   10.1390   76.8957   31.4401 H   0  0  0  0  0  0  0  0  0  0  0  0
   14.3087   76.7930   30.8665 H   0  0  0  0  0  0  0  0  0  0  0  0
   16.7508   78.1504   30.6805 H   0  0  0  0  0  0  0  0  0  0  0  0
   16.5006   75.7618   31.2819 H   0  0  0  0  0  0  0  0  0  0  0  0
   16.1478   75.4357   29.5736 H   0  0  0  0  0  0  0  0  0  0  0  0
   18.6823   76.6425   30.5384 H   0  0  0  0  0  0  0  0  0  0  0  0
   18.2793   76.0472   28.9204 H   0  0  0  0  0  0  0  0  0  0  0  0
   14.5625   77.0799   28.1440 H   0  0  0  0  0  0  0  0  0  0  0  0
   16.2575   77.5094   25.9373 H   0  0  0  0  0  0  0  0  0  0  0  0
   14.2025   76.2360   25.7772 H   0  0  0  0  0  0  0  0  0  0  0  0
   13.2853   77.7286   26.1375 H   0  0  0  0  0  0  0  0  0  0  0  0
   13.1386   77.1503   23.8141 H   0  0  0  0  0  0  0  0  0  0  0  0
   13.9958   78.6817   24.0976 H   0  0  0  0  0  0  0  0  0  0  0  0
   14.5015   79.6929   27.9349 H   0  0  0  0  0  0  0  0  0  0  0  0
   15.1791   81.9280   26.1163 H   0  0  0  0  0  0  0  0  0  0  0  0
   15.2970   82.0431   27.8558 H   0  0  0  0  0  0  0  0  0  0  0  0
   13.7312   81.8978   27.0939 H   0  0  0  0  0  0  0  0  0  0  0  0
  1  2  1  0  0  0  0
  1 38  1  0  0  0  0
  1 39  1  0  0  0  0
  1 40  1  0  0  0  0
  2  4  1  0  0  0  0
  2  3  2  0  0  0  0
  4  5  1  0  0  0  0
  4 41  1  0  0  0  0
  5  8  1  0  0  0  0
  5  6  1  0  0  0  0
  5 42  1  1  0  0  0
  6 11  1  0  0  0  0
  7  6  2  0  0  0  0
  8 43  1  1  0  0  0
  9  8  1  0  0  0  0
  9 44  1  0  0  0  0
 10  8  1  0  0  0  0
 10 45  1  0  0  0  0
 10 46  1  0  0  0  0
 10 47  1  0  0  0  0
 11 12  1  0  0  0  0
 11 17  1  0  0  0  0
 12 15  1  0  0  0  0
 12 48  1  6  0  0  0
 13 18  1  0  0  0  0
 13 12  1  0  0  0  0
 14 13  2  0  0  0  0
 15 16  1  0  0  0  0
 15 49  1  0  0  0  0
 15 50  1  0  0  0  0
 16 51  1  0  0  0  0
 16 52  1  0  0  0  0
 17 16  1  0  0  0  0
 17 53  1  0  0  0  0
 17 54  1  0  0  0  0
 18 55  1  0  0  0  0
 19 22  1  0  0  0  0
 19 18  1  0  0  0  0
 19 56  1  1  0  0  0
 20 19  1  0  0  0  0
 21 20  2  0  0  0  0
 22 57  1  0  0  0  0
 22 58  1  0  0  0  0
 23 22  1  0  0  0  0
 23 24  1  0  0  0  0
 23 59  1  0  0  0  0
 23 60  1  0  0  0  0
 24 25  1  0  0  0  0
 26 24  2  0  0  0  0
 27 20  1  0  0  0  0
 27 61  1  0  0  0  0
 28 27  1  0  0  0  0
 28 62  1  6  0  0  0
 29 28  1  0  0  0  0
 29 36  1  0  0  0  0
 30 29  2  0  0  0  0
 31 28  1  0  0  0  0
 31 63  1  0  0  0  0
 31 64  1  0  0  0  0
 32 31  1  0  0  0  0
 32 65  1  0  0  0  0
 32 66  1  0  0  0  0
 33 34  1  0  0  0  0
 33 32  1  0  0  0  0
 35 33  2  0  0  0  0
 36 67  1  0  0  0  0
 37 36  1  0  0  0  0
 37 68  1  0  0  0  0
 37 69  1  0  0  0  0
 37 70  1  0  0  0  0
M  CHG  1  25  -1
M  CHG  1  34  -1
M  END
>  <MODEL>
       0

$$$$
selected_4mers/TPEE/954_noH.pdb
 OpenBabel03042518353D

 70 70  0  0  1  0  0  0  0  0999 V2000
   92.3990   11.2620    9.2310 C   0  0  0  0  0  0  0  0  0  0  0  0
   92.4390   11.8950   10.6100 C   0  0  0  0  0  0  0  0  0  0  0  0
   92.3630   11.1980   11.6420 O   0  0  0  0  0  0  0  0  0  0  0  0
   92.6040   13.2150   10.6620 N   0  0  0  0  0  0  0  0  0  0  0  0
   92.6500   13.9200   11.9640 C   0  0  2  0  0  0  0  0  0  0  0  0
   92.0150   15.3160   11.8220 C   0  0  0  0  0  0  0  0  0  0  0  0
   91.9570   15.8660   10.7120 O   0  0  0  0  0  0  0  0  0  0  0  0
   94.0940   14.1230   12.4620 C   0  0  2  0  0  0  0  0  0  0  0  0
   94.7160   15.1570   11.6910 O   0  0  0  0  0  0  0  0  0  0  0  0
   94.9330   12.8700   12.3990 C   0  0  0  0  0  0  0  0  0  0  0  0
   91.4970   15.8890   12.9130 N   0  0  0  0  0  0  0  0  0  0  0  0
   90.9710   17.2500   12.8290 C   0  0  2  0  0  0  0  0  0  0  0  0
   91.9960   18.3070   12.4390 C   0  0  0  0  0  0  0  0  0  0  0  0
   91.6180   19.2860   11.8350 O   0  0  0  0  0  0  0  0  0  0  0  0
   90.4340   17.5210   14.2440 C   0  0  0  0  0  0  0  0  0  0  0  0
   90.2090   16.1770   14.8290 C   0  0  0  0  0  0  0  0  0  0  0  0
   91.2780   15.3060   14.2510 C   0  0  0  0  0  0  0  0  0  0  0  0
   93.2520   18.1260   12.8260 N   0  0  0  0  0  0  0  0  0  0  0  0
   94.3050   19.0720   12.4280 C   0  0  2  0  0  0  0  0  0  0  0  0
   94.5110   19.0630   10.9040 C   0  0  0  0  0  0  0  0  0  0  0  0
   94.7450   20.1000   10.2970 O   0  0  0  0  0  0  0  0  0  0  0  0
   95.6200   18.8180   13.1720 C   0  0  0  0  0  0  0  0  0  0  0  0
   96.4580   20.0620   13.1410 C   0  0  0  0  0  0  0  0  0  0  0  0
   97.5830   20.0690   14.1040 C   0  0  0  0  0  0  0  0  0  0  0  0
   97.9390   19.0040   14.6470 O   0  0  0  0  0  0  0  0  0  0  0  0
   98.1420   21.1590   14.2850 O   0  0  0  0  0  0  0  0  0  0  0  0
   94.4210   17.8830   10.2850 N   0  0  0  0  0  0  0  0  0  0  0  0
   94.4530   17.7760    8.8320 C   0  0  2  0  0  0  0  0  0  0  0  0
   93.3040   18.5710    8.1920 C   0  0  0  0  0  0  0  0  0  0  0  0
   93.5020   19.3320    7.2410 O   0  0  0  0  0  0  0  0  0  0  0  0
   94.3550   16.3040    8.4270 C   0  0  0  0  0  0  0  0  0  0  0  0
   94.2860   16.0310    6.9710 C   0  0  0  0  0  0  0  0  0  0  0  0
   93.7030   14.6470    6.6850 C   0  0  0  0  0  0  0  0  0  0  0  0
   93.0270   14.0750    7.5690 O   0  0  0  0  0  0  0  0  0  0  0  0
   93.9190   14.1550    5.5840 O   0  0  0  0  0  0  0  0  0  0  0  0
   92.1040   18.4120    8.7550 N   0  0  0  0  0  0  0  0  0  0  0  0
   90.9620   19.1810    8.2840 C   0  0  0  0  0  0  0  0  0  0  0  0
   92.4774   12.0256    8.4856 H   0  0  0  0  0  0  0  0  0  0  0  0
   91.4757   10.7358    9.1067 H   0  0  0  0  0  0  0  0  0  0  0  0
   93.2157   10.5783    9.1285 H   0  0  0  0  0  0  0  0  0  0  0  0
   92.6964   13.7278    9.8267 H   0  0  0  0  0  0  0  0  0  0  0  0
   92.1162   13.3123   12.6644 H   0  0  0  0  0  0  0  0  0  0  0  0
   94.0333   14.3971   13.4945 H   0  0  0  0  0  0  0  0  0  0  0  0
   94.7592   14.8852   10.7609 H   0  0  0  0  0  0  0  0  0  0  0  0
   95.0246   12.5529   11.3812 H   0  0  0  0  0  0  0  0  0  0  0  0
   94.4643   12.0977   12.9724 H   0  0  0  0  0  0  0  0  0  0  0  0
   95.9049   13.0711   12.7987 H   0  0  0  0  0  0  0  0  0  0  0  0
   90.2366   17.3155   12.0536 H   0  0  0  0  0  0  0  0  0  0  0  0
   89.5172   18.0710   14.2001 H   0  0  0  0  0  0  0  0  0  0  0  0
   91.1130   18.1066   14.8279 H   0  0  0  0  0  0  0  0  0  0  0  0
   89.2409   15.8093   14.5600 H   0  0  0  0  0  0  0  0  0  0  0  0
   90.2485   16.1976   15.8981 H   0  0  0  0  0  0  0  0  0  0  0  0
   92.1701   15.3504   14.8401 H   0  0  0  0  0  0  0  0  0  0  0  0
   91.0068   14.2714   14.2200 H   0  0  0  0  0  0  0  0  0  0  0  0
   93.4816   17.3495   13.3860 H   0  0  0  0  0  0  0  0  0  0  0  0
   93.9737   20.0497   12.7095 H   0  0  0  0  0  0  0  0  0  0  0  0
   96.1500   18.0186   12.6977 H   0  0  0  0  0  0  0  0  0  0  0  0
   95.4109   18.5530   14.1873 H   0  0  0  0  0  0  0  0  0  0  0  0
   95.8253   20.8966   13.3602 H   0  0  0  0  0  0  0  0  0  0  0  0
   96.8930   20.1115   12.1647 H   0  0  0  0  0  0  0  0  0  0  0  0
   94.3307   17.0643   10.8242 H   0  0  0  0  0  0  0  0  0  0  0  0
   95.3766   18.1875    8.4820 H   0  0  0  0  0  0  0  0  0  0  0  0
   95.2164   15.8006    8.8135 H   0  0  0  0  0  0  0  0  0  0  0  0
   93.4261   15.9567    8.8288 H   0  0  0  0  0  0  0  0  0  0  0  0
   93.6672   16.7709    6.5079 H   0  0  0  0  0  0  0  0  0  0  0  0
   95.2803   16.0633    6.5769 H   0  0  0  0  0  0  0  0  0  0  0  0
   91.9910   17.7706    9.4933 H   0  0  0  0  0  0  0  0  0  0  0  0
   91.2689   19.8215    7.4838 H   0  0  0  0  0  0  0  0  0  0  0  0
   90.5754   19.7734    9.0868 H   0  0  0  0  0  0  0  0  0  0  0  0
   90.2020   18.5135    7.9351 H   0  0  0  0  0  0  0  0  0  0  0  0
  1  2  1  0  0  0  0
  1 38  1  0  0  0  0
  1 39  1  0  0  0  0
  1 40  1  0  0  0  0
  2  4  1  0  0  0  0
  2  3  2  0  0  0  0
  4  5  1  0  0  0  0
  4 41  1  0  0  0  0
  5  8  1  0  0  0  0
  5 42  1  1  0  0  0
  6  5  1  0  0  0  0
  6 11  1  0  0  0  0
  7  6  2  0  0  0  0
  8 43  1  1  0  0  0
  9  8  1  0  0  0  0
  9 44  1  0  0  0  0
 10  8  1  0  0  0  0
 10 45  1  0  0  0  0
 10 46  1  0  0  0  0
 10 47  1  0  0  0  0
 11 17  1  0  0  0  0
 12 11  1  0  0  0  0
 12 15  1  0  0  0  0
 12 48  1  6  0  0  0
 13 18  1  0  0  0  0
 13 12  1  0  0  0  0
 14 13  2  0  0  0  0
 15 16  1  0  0  0  0
 15 49  1  0  0  0  0
 15 50  1  0  0  0  0
 16 51  1  0  0  0  0
 16 52  1  0  0  0  0
 17 16  1  0  0  0  0
 17 53  1  0  0  0  0
 17 54  1  0  0  0  0
 18 55  1  0  0  0  0
 19 18  1  0  0  0  0
 19 22  1  0  0  0  0
 19 56  1  1  0  0  0
 20 19  1  0  0  0  0
 21 20  2  0  0  0  0
 22 57  1  0  0  0  0
 22 58  1  0  0  0  0
 23 22  1  0  0  0  0
 23 24  1  0  0  0  0
 23 59  1  0  0  0  0
 23 60  1  0  0  0  0
 24 26  2  0  0  0  0
 24 25  1  0  0  0  0
 27 20  1  0  0  0  0
 27 61  1  0  0  0  0
 28 27  1  0  0  0  0
 28 62  1  6  0  0  0
 29 36  1  0  0  0  0
 29 28  1  0  0  0  0
 30 29  2  0  0  0  0
 31 28  1  0  0  0  0
 31 63  1  0  0  0  0
 31 64  1  0  0  0  0
 32 31  1  0  0  0  0
 32 65  1  0  0  0  0
 32 66  1  0  0  0  0
 33 32  1  0  0  0  0
 33 34  1  0  0  0  0
 35 33  2  0  0  0  0
 36 67  1  0  0  0  0
 37 36  1  0  0  0  0
 37 68  1  0  0  0  0
 37 69  1  0  0  0  0
 37 70  1  0  0  0  0
M  CHG  1  25  -1
M  CHG  1  34  -1
M  END
>  <MODEL>
       0

$$$$
