selected_4mers/TQSP/875_noH.pdb
 OpenBabel03042518353D

 68 68  0  0  1  0  0  0  0  0999 V2000
  -19.4130  -87.3270  -15.0690 C   0  0  0  0  0  0  0  0  0  0  0  0
  -19.1770  -87.1700  -16.5660 C   0  0  0  0  0  0  0  0  0  0  0  0
  -20.0010  -86.5740  -17.2590 O   0  0  0  0  0  0  0  0  0  0  0  0
  -18.0630  -87.7070  -17.0590 N   0  0  0  0  0  0  0  0  0  0  0  0
  -17.7160  -87.5990  -18.4750 C   0  0  2  0  0  0  0  0  0  0  0  0
  -17.7860  -88.9480  -19.1840 C   0  0  0  0  0  0  0  0  0  0  0  0
  -17.0130  -89.8530  -18.8840 O   0  0  0  0  0  0  0  0  0  0  0  0
  -16.2970  -87.0150  -18.6380 C   0  0  2  0  0  0  0  0  0  0  0  0
  -16.2330  -85.7500  -17.9670 O   0  0  0  0  0  0  0  0  0  0  0  0
  -15.9640  -86.8050  -20.1150 C   0  0  0  0  0  0  0  0  0  0  0  0
  -18.7220  -89.0710  -20.1220 N   0  0  0  0  0  0  0  0  0  0  0  0
  -18.8980  -90.3130  -20.8690 C   0  0  2  0  0  0  0  0  0  0  0  0
  -18.3640  -90.2140  -22.2880 C   0  0  0  0  0  0  0  0  0  0  0  0
  -18.4880  -89.1830  -22.9390 O   0  0  0  0  0  0  0  0  0  0  0  0
  -20.3760  -90.6950  -20.9360 C   0  0  0  0  0  0  0  0  0  0  0  0
  -20.9860  -91.0800  -19.6040 C   0  0  0  0  0  0  0  0  0  0  0  0
  -22.3900  -91.6260  -19.7530 C   0  0  0  0  0  0  0  0  0  0  0  0
  -22.5980  -92.6870  -20.3500 O   0  0  0  0  0  0  0  0  0  0  0  0
  -23.3620  -90.9050  -19.2190 N   0  0  0  0  0  0  0  0  0  0  0  0
  -17.7790  -91.3060  -22.7600 N   0  0  0  0  0  0  0  0  0  0  0  0
  -17.2410  -91.3650  -24.1100 C   0  0  2  0  0  0  0  0  0  0  0  0
  -17.3580  -92.7990  -24.6070 C   0  0  0  0  0  0  0  0  0  0  0  0
  -17.2700  -93.7460  -23.8230 O   0  0  0  0  0  0  0  0  0  0  0  0
  -15.7760  -90.9260  -24.1140 C   0  0  0  0  0  0  0  0  0  0  0  0
  -15.0220  -91.6910  -23.1930 O   0  0  0  0  0  0  0  0  0  0  0  0
  -17.5980  -92.9800  -25.9140 N   0  0  0  0  0  0  0  0  0  0  0  0
  -17.7640  -91.9160  -26.9070 C   0  0  2  0  0  0  0  0  0  0  0  0
  -19.1640  -91.3220  -26.7780 C   0  0  0  0  0  0  0  0  0  0  0  0
  -20.0340  -91.9170  -26.1460 O   0  0  0  0  0  0  0  0  0  0  0  0
  -17.5650  -92.6550  -28.2260 C   0  0  0  0  0  0  0  0  0  0  0  0
  -18.1830  -93.9880  -27.9340 C   0  0  0  0  0  0  0  0  0  0  0  0
  -17.6360  -94.3060  -26.5570 C   0  0  0  0  0  0  0  0  0  0  0  0
  -19.3810  -90.1520  -27.3670 N   0  0  0  0  0  0  0  0  0  0  0  0
  -20.6920  -89.5110  -27.2980 C   0  0  0  0  0  0  0  0  0  0  0  0
  -20.3353  -86.8550  -14.8019 H   0  0  0  0  0  0  0  0  0  0  0  0
  -18.6092  -86.8692  -14.5313 H   0  0  0  0  0  0  0  0  0  0  0  0
  -19.4602  -88.3672  -14.8225 H   0  0  0  0  0  0  0  0  0  0  0  0
  -17.4560  -88.1903  -16.4531 H   0  0  0  0  0  0  0  0  0  0  0  0
  -18.4339  -86.9450  -18.9243 H   0  0  0  0  0  0  0  0  0  0  0  0
  -15.5930  -87.7023  -18.2174 H   0  0  0  0  0  0  0  0  0  0  0  0
  -16.8773  -85.1417  -18.3617 H   0  0  0  0  0  0  0  0  0  0  0  0
  -16.6635  -86.1185  -20.5442 H   0  0  0  0  0  0  0  0  0  0  0  0
  -16.0211  -87.7411  -20.6301 H   0  0  0  0  0  0  0  0  0  0  0  0
  -14.9743  -86.4084  -20.2046 H   0  0  0  0  0  0  0  0  0  0  0  0
  -19.3101  -88.3059  -20.3169 H   0  0  0  0  0  0  0  0  0  0  0  0
  -18.3412  -91.0616  -20.3450 H   0  0  0  0  0  0  0  0  0  0  0  0
  -20.4766  -91.5261  -21.6024 H   0  0  0  0  0  0  0  0  0  0  0  0
  -20.9005  -89.8246  -21.2708 H   0  0  0  0  0  0  0  0  0  0  0  0
  -21.0182  -90.2137  -18.9768 H   0  0  0  0  0  0  0  0  0  0  0  0
  -20.3786  -91.8496  -19.1754 H   0  0  0  0  0  0  0  0  0  0  0  0
  -24.2953  -91.2112  -19.2851 H   0  0  0  0  0  0  0  0  0  0  0  0
  -23.1521  -90.0622  -18.7554 H   0  0  0  0  0  0  0  0  0  0  0  0
  -17.7067  -92.0988  -22.1808 H   0  0  0  0  0  0  0  0  0  0  0  0
  -17.7886  -90.7068  -24.7517 H   0  0  0  0  0  0  0  0  0  0  0  0
  -15.7183  -89.8926  -23.8425 H   0  0  0  0  0  0  0  0  0  0  0  0
  -15.3749  -91.0752  -25.0947 H   0  0  0  0  0  0  0  0  0  0  0  0
  -15.3772  -91.5633  -22.2994 H   0  0  0  0  0  0  0  0  0  0  0  0
  -17.0889  -91.0922  -26.8042 H   0  0  0  0  0  0  0  0  0  0  0  0
  -18.0703  -92.1599  -29.0288 H   0  0  0  0  0  0  0  0  0  0  0  0
  -16.5430  -92.7128  -28.5376 H   0  0  0  0  0  0  0  0  0  0  0  0
  -17.8776  -94.7215  -28.6507 H   0  0  0  0  0  0  0  0  0  0  0  0
  -19.2521  -93.9824  -27.9784 H   0  0  0  0  0  0  0  0  0  0  0  0
  -16.6572  -94.7337  -26.6192 H   0  0  0  0  0  0  0  0  0  0  0  0
  -18.2217  -95.0231  -26.0208 H   0  0  0  0  0  0  0  0  0  0  0  0
  -18.6494  -89.7109  -27.8563 H   0  0  0  0  0  0  0  0  0  0  0  0
  -21.3601  -90.1256  -26.7316 H   0  0  0  0  0  0  0  0  0  0  0  0
  -21.0784  -89.3818  -28.2874 H   0  0  0  0  0  0  0  0  0  0  0  0
  -20.5977  -88.5562  -26.8244 H   0  0  0  0  0  0  0  0  0  0  0  0
  1 35  1  0  0  0  0
  1 36  1  0  0  0  0
  1 37  1  0  0  0  0
  2  1  1  0  0  0  0
  3  2  2  0  0  0  0
  4  2  1  0  0  0  0
  4 38  1  0  0  0  0
  5  4  1  0  0  0  0
  5 39  1  6  0  0  0
  6  7  2  0  0  0  0
  6  5  1  0  0  0  0
  8  5  1  0  0  0  0
  8  9  1  0  0  0  0
  8 40  1  1  0  0  0
  9 41  1  0  0  0  0
 10  8  1  0  0  0  0
 10 42  1  0  0  0  0
 10 43  1  0  0  0  0
 10 44  1  0  0  0  0
 11  6  1  0  0  0  0
 11 45  1  0  0  0  0
 12 11  1  0  0  0  0
 12 46  1  1  0  0  0
 13 12  1  0  0  0  0
 14 13  2  0  0  0  0
 15 12  1  0  0  0  0
 15 16  1  0  0  0  0
 15 47  1  0  0  0  0
 15 48  1  0  0  0  0
 16 49  1  0  0  0  0
 16 50  1  0  0  0  0
 17 16  1  0  0  0  0
 17 19  1  0  0  0  0
 18 17  2  0  0  0  0
 19 51  1  0  0  0  0
 19 52  1  0  0  0  0
 20 13  1  0  0  0  0
 20 53  1  0  0  0  0
 21 20  1  0  0  0  0
 21 54  1  6  0  0  0
 22 21  1  0  0  0  0
 22 23  2  0  0  0  0
 24 21  1  0  0  0  0
 24 25  1  0  0  0  0
 24 55  1  0  0  0  0
 24 56  1  0  0  0  0
 25 57  1  0  0  0  0
 26 22  1  0  0  0  0
 27 28  1  0  0  0  0
 27 26  1  0  0  0  0
 27 58  1  1  0  0  0
 28 29  2  0  0  0  0
 30 31  1  0  0  0  0
 30 27  1  0  0  0  0
 30 59  1  0  0  0  0
 30 60  1  0  0  0  0
 31 32  1  0  0  0  0
 31 61  1  0  0  0  0
 31 62  1  0  0  0  0
 32 26  1  0  0  0  0
 32 63  1  0  0  0  0
 32 64  1  0  0  0  0
 33 34  1  0  0  0  0
 33 28  1  0  0  0  0
 33 65  1  0  0  0  0
 34 66  1  0  0  0  0
 34 67  1  0  0  0  0
 34 68  1  0  0  0  0
M  END
>  <MODEL>
       0

$$$$
selected_4mers/TQSP/876_noH.pdb
 OpenBabel03042518353D

 68 68  0  0  1  0  0  0  0  0999 V2000
   -5.0980   30.4220   52.0050 C   0  0  0  0  0  0  0  0  0  0  0  0
   -5.2140   31.0140   50.6000 C   0  0  0  0  0  0  0  0  0  0  0  0
   -5.7620   30.3760   49.6980 O   0  0  0  0  0  0  0  0  0  0  0  0
   -4.7140   32.2380   50.4450 N   0  0  0  0  0  0  0  0  0  0  0  0
   -4.7620   32.9630   49.1790 C   0  0  2  0  0  0  0  0  0  0  0  0
   -3.3360   33.2780   48.7280 C   0  0  0  0  0  0  0  0  0  0  0  0
   -2.6090   33.9940   49.4160 O   0  0  0  0  0  0  0  0  0  0  0  0
   -5.5540   34.2710   49.3220 C   0  0  2  0  0  0  0  0  0  0  0  0
   -6.8970   33.9790   49.7500 O   0  0  0  0  0  0  0  0  0  0  0  0
   -5.5820   35.0420   47.9980 C   0  0  0  0  0  0  0  0  0  0  0  0
   -2.9530   32.7410   47.5710 N   0  0  0  0  0  0  0  0  0  0  0  0
   -1.6020   32.9140   47.0560 C   0  0  2  0  0  0  0  0  0  0  0  0
   -1.5820   33.9860   45.9920 C   0  0  0  0  0  0  0  0  0  0  0  0
   -2.5790   34.2040   45.3090 O   0  0  0  0  0  0  0  0  0  0  0  0
   -1.0500   31.6050   46.4930 C   0  0  0  0  0  0  0  0  0  0  0  0
   -0.7440   30.6010   47.5690 C   0  0  0  0  0  0  0  0  0  0  0  0
   -0.0750   29.3590   47.0530 C   0  0  0  0  0  0  0  0  0  0  0  0
   -0.6680   28.2820   47.0770 O   0  0  0  0  0  0  0  0  0  0  0  0
    1.1620   29.4940   46.5620 N   0  0  0  0  0  0  0  0  0  0  0  0
   -0.4360   34.6480   45.8660 N   0  0  0  0  0  0  0  0  0  0  0  0
   -0.2250   35.6470   44.8350 C   0  0  2  0  0  0  0  0  0  0  0  0
    1.2420   35.6030   44.4280 C   0  0  0  0  0  0  0  0  0  0  0  0
    2.1220   35.4870   45.2840 O   0  0  0  0  0  0  0  0  0  0  0  0
   -0.5610   37.0440   45.3620 C   0  0  0  0  0  0  0  0  0  0  0  0
   -0.5230   38.0160   44.3280 O   0  0  0  0  0  0  0  0  0  0  0  0
    1.5250   35.6990   43.1270 N   0  0  0  0  0  0  0  0  0  0  0  0
    0.6110   35.7730   41.9940 C   0  0  2  0  0  0  0  0  0  0  0  0
    0.1980   34.3770   41.5460 C   0  0  0  0  0  0  0  0  0  0  0  0
    0.8860   33.4120   41.8570 O   0  0  0  0  0  0  0  0  0  0  0  0
    1.4750   36.4240   40.9270 C   0  0  0  0  0  0  0  0  0  0  0  0
    2.8220   35.8860   41.1920 C   0  0  0  0  0  0  0  0  0  0  0  0
    2.9320   35.7380   42.6790 C   0  0  0  0  0  0  0  0  0  0  0  0
   -0.8960   34.2610   40.7990 N   0  0  0  0  0  0  0  0  0  0  0  0
   -1.3090   32.9480   40.2880 C   0  0  0  0  0  0  0  0  0  0  0  0
   -5.5285   29.4425   52.0160 H   0  0  0  0  0  0  0  0  0  0  0  0
   -5.6179   31.0479   52.6998 H   0  0  0  0  0  0  0  0  0  0  0  0
   -4.0664   30.3613   52.2824 H   0  0  0  0  0  0  0  0  0  0  0  0
   -4.2923   32.6745   51.2202 H   0  0  0  0  0  0  0  0  0  0  0  0
   -5.2536   32.3503   48.4525 H   0  0  0  0  0  0  0  0  0  0  0  0
   -5.0705   34.8831   50.0544 H   0  0  0  0  0  0  0  0  0  0  0  0
   -7.3347   33.4241   49.0856 H   0  0  0  0  0  0  0  0  0  0  0  0
   -6.0622   34.4475   47.2491 H   0  0  0  0  0  0  0  0  0  0  0  0
   -4.5805   35.2610   47.6915 H   0  0  0  0  0  0  0  0  0  0  0  0
   -6.1228   35.9559   48.1288 H   0  0  0  0  0  0  0  0  0  0  0  0
   -3.6005   32.2131   47.0501 H   0  0  0  0  0  0  0  0  0  0  0  0
   -0.9758   33.2147   47.8698 H   0  0  0  0  0  0  0  0  0  0  0  0
   -0.1501   31.8155   45.9538 H   0  0  0  0  0  0  0  0  0  0  0  0
   -1.7993   31.1824   45.8567 H   0  0  0  0  0  0  0  0  0  0  0  0
   -1.6618   30.3203   48.0420 H   0  0  0  0  0  0  0  0  0  0  0  0
   -0.0634   31.0664   48.2510 H   0  0  0  0  0  0  0  0  0  0  0  0
    1.6412   28.7084   46.2122 H   0  0  0  0  0  0  0  0  0  0  0  0
    1.5932   30.3790   46.5505 H   0  0  0  0  0  0  0  0  0  0  0  0
    0.2960   34.4534   46.4950 H   0  0  0  0  0  0  0  0  0  0  0  0
   -0.8599   35.4396   43.9991 H   0  0  0  0  0  0  0  0  0  0  0  0
   -1.5427   37.0278   45.7873 H   0  0  0  0  0  0  0  0  0  0  0  0
    0.1699   37.3089   46.0972 H   0  0  0  0  0  0  0  0  0  0  0  0
   -1.1800   37.7929   43.6502 H   0  0  0  0  0  0  0  0  0  0  0  0
   -0.2947   36.3008   42.2086 H   0  0  0  0  0  0  0  0  0  0  0  0
    1.1413   36.1519   39.9474 H   0  0  0  0  0  0  0  0  0  0  0  0
    1.4412   37.4929   40.9612 H   0  0  0  0  0  0  0  0  0  0  0  0
    3.5685   36.5623   40.8310 H   0  0  0  0  0  0  0  0  0  0  0  0
    2.9706   34.9494   40.6964 H   0  0  0  0  0  0  0  0  0  0  0  0
    3.4473   36.5713   43.1091 H   0  0  0  0  0  0  0  0  0  0  0  0
    3.4865   34.8709   42.9715 H   0  0  0  0  0  0  0  0  0  0  0  0
   -1.4317   35.0595   40.5876 H   0  0  0  0  0  0  0  0  0  0  0  0
   -0.6138   32.2032   40.6150 H   0  0  0  0  0  0  0  0  0  0  0  0
   -1.3293   32.9718   39.2185 H   0  0  0  0  0  0  0  0  0  0  0  0
   -2.2848   32.7121   40.6581 H   0  0  0  0  0  0  0  0  0  0  0  0
  1 35  1  0  0  0  0
  1 36  1  0  0  0  0
  1 37  1  0  0  0  0
  2  1  1  0  0  0  0
  3  2  2  0  0  0  0
  4  2  1  0  0  0  0
  4 38  1  0  0  0  0
  5  8  1  0  0  0  0
  5  4  1  0  0  0  0
  5 39  1  6  0  0  0
  6  5  1  0  0  0  0
  6  7  2  0  0  0  0
  8  9  1  0  0  0  0
  8 40  1  1  0  0  0
  9 41  1  0  0  0  0
 10  8  1  0  0  0  0
 10 42  1  0  0  0  0
 10 43  1  0  0  0  0
 10 44  1  0  0  0  0
 11  6  1  0  0  0  0
 11 45  1  0  0  0  0
 12 11  1  0  0  0  0
 12 46  1  1  0  0  0
 13 12  1  0  0  0  0
 14 13  2  0  0  0  0
 15 12  1  0  0  0  0
 15 16  1  0  0  0  0
 15 47  1  0  0  0  0
 15 48  1  0  0  0  0
 16 49  1  0  0  0  0
 16 50  1  0  0  0  0
 17 18  2  0  0  0  0
 17 16  1  0  0  0  0
 19 17  1  0  0  0  0
 19 51  1  0  0  0  0
 19 52  1  0  0  0  0
 20 13  1  0  0  0  0
 20 53  1  0  0  0  0
 21 24  1  0  0  0  0
 21 20  1  0  0  0  0
 21 54  1  6  0  0  0
 22 21  1  0  0  0  0
 22 23  2  0  0  0  0
 24 55  1  0  0  0  0
 24 56  1  0  0  0  0
 25 24  1  0  0  0  0
 25 57  1  0  0  0  0
 26 22  1  0  0  0  0
 27 26  1  0  0  0  0
 27 58  1  1  0  0  0
 28 29  2  0  0  0  0
 28 27  1  0  0  0  0
 30 31  1  0  0  0  0
 30 27  1  0  0  0  0
 30 59  1  0  0  0  0
 30 60  1  0  0  0  0
 31 32  1  0  0  0  0
 31 61  1  0  0  0  0
 31 62  1  0  0  0  0
 32 26  1  0  0  0  0
 32 63  1  0  0  0  0
 32 64  1  0  0  0  0
 33 28  1  0  0  0  0
 33 65  1  0  0  0  0
 34 33  1  0  0  0  0
 34 66  1  0  0  0  0
 34 67  1  0  0  0  0
 34 68  1  0  0  0  0
M  END
>  <MODEL>
       0

$$$$
selected_4mers/TQSP/877_noH.pdb
 OpenBabel03042518353D

 68 68  0  0  1  0  0  0  0  0999 V2000
    4.2750   13.4470    5.1000 C   0  0  0  0  0  0  0  0  0  0  0  0
    4.8140   14.0820    6.3760 C   0  0  0  0  0  0  0  0  0  0  0  0
    5.9750   13.8880    6.7240 O   0  0  0  0  0  0  0  0  0  0  0  0
    3.9720   14.8460    7.0630 N   0  0  0  0  0  0  0  0  0  0  0  0
    4.3810   15.5200    8.2880 C   0  0  2  0  0  0  0  0  0  0  0  0
    3.6260   14.9900    9.4960 C   0  0  0  0  0  0  0  0  0  0  0  0
    2.4040   15.0880    9.5580 O   0  0  0  0  0  0  0  0  0  0  0  0
    4.1250   17.0400    8.1840 C   0  0  2  0  0  0  0  0  0  0  0  0
    4.8820   17.5750    7.0890 O   0  0  0  0  0  0  0  0  0  0  0  0
    4.5310   17.7490    9.4790 C   0  0  0  0  0  0  0  0  0  0  0  0
    4.3500   14.4330   10.4600 N   0  0  0  0  0  0  0  0  0  0  0  0
    3.7000   13.9140   11.6500 C   0  0  2  0  0  0  0  0  0  0  0  0
    3.7340   14.9730   12.7330 C   0  0  0  0  0  0  0  0  0  0  0  0
    4.8010   15.4480   13.1180 O   0  0  0  0  0  0  0  0  0  0  0  0
    4.3650   12.6070   12.0840 C   0  0  0  0  0  0  0  0  0  0  0  0
    3.9770   11.4790   11.1330 C   0  0  0  0  0  0  0  0  0  0  0  0
    4.5740   10.1460   11.4990 C   0  0  0  0  0  0  0  0  0  0  0  0
    5.4250    9.6190   10.7810 O   0  0  0  0  0  0  0  0  0  0  0  0
    4.1360    9.5870   12.6170 N   0  0  0  0  0  0  0  0  0  0  0  0
    2.5440   15.3460   13.1940 N   0  0  0  0  0  0  0  0  0  0  0  0
    2.3670   16.3990   14.1840 C   0  0  2  0  0  0  0  0  0  0  0  0
    3.1390   16.2610   15.4930 C   0  0  0  0  0  0  0  0  0  0  0  0
    4.3150   16.6200   15.5450 O   0  0  0  0  0  0  0  0  0  0  0  0
    0.8730   16.6080   14.4460 C   0  0  0  0  0  0  0  0  0  0  0  0
    0.6620   17.6230   15.4080 O   0  0  0  0  0  0  0  0  0  0  0  0
    2.5760   15.6120   16.5000 N   0  0  0  0  0  0  0  0  0  0  0  0
    3.3160   15.5060   17.7670 C   0  0  2  0  0  0  0  0  0  0  0  0
    4.6580   14.9050   17.4410 C   0  0  0  0  0  0  0  0  0  0  0  0
    4.6880   13.7800   16.9240 O   0  0  0  0  0  0  0  0  0  0  0  0
    2.4090   14.6700   18.6310 C   0  0  0  0  0  0  0  0  0  0  0  0
    1.0830   15.2240   18.2210 C   0  0  0  0  0  0  0  0  0  0  0  0
    1.1690   15.7940   16.8150 C   0  0  0  0  0  0  0  0  0  0  0  0
    5.7800   15.5220   17.6810 N   0  0  0  0  0  0  0  0  0  0  0  0
    7.0460   14.8590   17.4060 C   0  0  0  0  0  0  0  0  0  0  0  0
    5.0434   12.8602    4.6415 H   0  0  0  0  0  0  0  0  0  0  0  0
    3.9617   14.2151    4.4242 H   0  0  0  0  0  0  0  0  0  0  0  0
    3.4415   12.8198    5.3383 H   0  0  0  0  0  0  0  0  0  0  0  0
    3.0501   14.9594    6.7367 H   0  0  0  0  0  0  0  0  0  0  0  0
    5.4262   15.3288    8.4137 H   0  0  0  0  0  0  0  0  0  0  0  0
    3.0799   17.2013    8.0206 H   0  0  0  0  0  0  0  0  0  0  0  0
    5.8274   17.4245    7.2454 H   0  0  0  0  0  0  0  0  0  0  0  0
    5.5751   17.5969    9.6566 H   0  0  0  0  0  0  0  0  0  0  0  0
    3.9682   17.3488   10.2963 H   0  0  0  0  0  0  0  0  0  0  0  0
    4.3334   18.7967    9.3890 H   0  0  0  0  0  0  0  0  0  0  0  0
    5.3283   14.3720   10.3676 H   0  0  0  0  0  0  0  0  0  0  0  0
    2.6746   13.6853   11.4472 H   0  0  0  0  0  0  0  0  0  0  0  0
    5.4278   12.7299   12.0719 H   0  0  0  0  0  0  0  0  0  0  0  0
    4.0377   12.3594   13.0722 H   0  0  0  0  0  0  0  0  0  0  0  0
    2.9112   11.3846   11.1381 H   0  0  0  0  0  0  0  0  0  0  0  0
    4.3595   11.7384   10.1679 H   0  0  0  0  0  0  0  0  0  0  0  0
    4.4924    8.7153   12.9039 H   0  0  0  0  0  0  0  0  0  0  0  0
    3.4540   10.0432   13.1611 H   0  0  0  0  0  0  0  0  0  0  0  0
    1.7436   14.8880   12.8492 H   0  0  0  0  0  0  0  0  0  0  0  0
    2.8119   17.2640   13.7381 H   0  0  0  0  0  0  0  0  0  0  0  0
    0.4498   15.6931   14.8047 H   0  0  0  0  0  0  0  0  0  0  0  0
    0.4056   16.9050   13.5304 H   0  0  0  0  0  0  0  0  0  0  0  0
    1.0807   17.3675   16.2448 H   0  0  0  0  0  0  0  0  0  0  0  0
    3.5368   16.4150   18.2864 H   0  0  0  0  0  0  0  0  0  0  0  0
    2.5993   14.8237   19.6727 H   0  0  0  0  0  0  0  0  0  0  0  0
    2.5150   13.6125   18.5069 H   0  0  0  0  0  0  0  0  0  0  0  0
    0.3512   14.4437   18.2427 H   0  0  0  0  0  0  0  0  0  0  0  0
    0.8036   16.0032   18.8990 H   0  0  0  0  0  0  0  0  0  0  0  0
    0.5453   15.2504   16.1364 H   0  0  0  0  0  0  0  0  0  0  0  0
    0.8382   16.8088   16.7402 H   0  0  0  0  0  0  0  0  0  0  0  0
    5.7715   16.4355   18.0479 H   0  0  0  0  0  0  0  0  0  0  0  0
    6.8588   13.8809   17.0145 H   0  0  0  0  0  0  0  0  0  0  0  0
    7.6106   14.7787   18.3113 H   0  0  0  0  0  0  0  0  0  0  0  0
    7.5994   15.4299   16.6899 H   0  0  0  0  0  0  0  0  0  0  0  0
  1  2  1  0  0  0  0
  1 35  1  0  0  0  0
  1 36  1  0  0  0  0
  1 37  1  0  0  0  0
  2  3  2  0  0  0  0
  2  4  1  0  0  0  0
  4  5  1  0  0  0  0
  4 38  1  0  0  0  0
  5  6  1  0  0  0  0
  5 39  1  1  0  0  0
  6  7  2  0  0  0  0
  6 11  1  0  0  0  0
  8  5  1  0  0  0  0
  8 10  1  0  0  0  0
  8 40  1  6  0  0  0
  9  8  1  0  0  0  0
  9 41  1  0  0  0  0
 10 42  1  0  0  0  0
 10 43  1  0  0  0  0
 10 44  1  0  0  0  0
 11 12  1  0  0  0  0
 11 45  1  0  0  0  0
 12 15  1  0  0  0  0
 12 13  1  0  0  0  0
 12 46  1  6  0  0  0
 13 14  2  0  0  0  0
 13 20  1  0  0  0  0
 15 47  1  0  0  0  0
 15 48  1  0  0  0  0
 16 17  1  0  0  0  0
 16 15  1  0  0  0  0
 16 49  1  0  0  0  0
 16 50  1  0  0  0  0
 17 19  1  0  0  0  0
 18 17  2  0  0  0  0
 19 51  1  0  0  0  0
 19 52  1  0  0  0  0
 20 21  1  0  0  0  0
 20 53  1  0  0  0  0
 21 24  1  0  0  0  0
 21 22  1  0  0  0  0
 21 54  1  6  0  0  0
 22 23  2  0  0  0  0
 22 26  1  0  0  0  0
 24 25  1  0  0  0  0
 24 55  1  0  0  0  0
 24 56  1  0  0  0  0
 25 57  1  0  0  0  0
 26 32  1  0  0  0  0
 26 27  1  0  0  0  0
 27 30  1  0  0  0  0
 27 58  1  1  0  0  0
 28 33  1  0  0  0  0
 28 27  1  0  0  0  0
 29 28  2  0  0  0  0
 30 59  1  0  0  0  0
 30 60  1  0  0  0  0
 31 30  1  0  0  0  0
 31 61  1  0  0  0  0
 31 62  1  0  0  0  0
 32 31  1  0  0  0  0
 32 63  1  0  0  0  0
 32 64  1  0  0  0  0
 33 65  1  0  0  0  0
 34 33  1  0  0  0  0
 34 66  1  0  0  0  0
 34 67  1  0  0  0  0
 34 68  1  0  0  0  0
M  END
>  <MODEL>
       0

$$$$
selected_4mers/TQSP/878_noH.pdb
 OpenBabel03042518353D

 68 68  0  0  1  0  0  0  0  0999 V2000
   53.3050  -12.3460   28.2230 C   0  0  0  0  0  0  0  0  0  0  0  0
   53.9700  -10.9840   28.1090 C   0  0  0  0  0  0  0  0  0  0  0  0
   55.1330  -10.8810   27.7290 O   0  0  0  0  0  0  0  0  0  0  0  0
   53.2050   -9.9440   28.4100 N   0  0  0  0  0  0  0  0  0  0  0  0
   53.6730   -8.5650   28.2970 C   0  0  2  0  0  0  0  0  0  0  0  0
   52.8300   -7.6800   29.1990 C   0  0  0  0  0  0  0  0  0  0  0  0
   51.6900   -8.0350   29.5350 O   0  0  0  0  0  0  0  0  0  0  0  0
   53.5710   -8.0860   26.8130 C   0  0  2  0  0  0  0  0  0  0  0  0
   54.0950   -6.7420   26.6850 O   0  0  0  0  0  0  0  0  0  0  0  0
   52.1160   -7.9550   26.3730 C   0  0  0  0  0  0  0  0  0  0  0  0
   53.3720   -6.5260   29.5910 N   0  0  0  0  0  0  0  0  0  0  0  0
   52.6020   -5.5240   30.2990 C   0  0  2  0  0  0  0  0  0  0  0  0
   51.9500   -4.5560   29.3260 C   0  0  0  0  0  0  0  0  0  0  0  0
   51.0610   -3.8050   29.6860 O   0  0  0  0  0  0  0  0  0  0  0  0
   53.4820   -4.7150   31.2550 C   0  0  0  0  0  0  0  0  0  0  0  0
   54.2050   -5.5250   32.3230 C   0  0  0  0  0  0  0  0  0  0  0  0
   54.5700   -4.6820   33.5450 C   0  0  0  0  0  0  0  0  0  0  0  0
   54.2070   -3.5000   33.6330 O   0  0  0  0  0  0  0  0  0  0  0  0
   55.2660   -5.2880   34.4900 N   0  0  0  0  0  0  0  0  0  0  0  0
   52.4210   -4.5690   28.0790 N   0  0  0  0  0  0  0  0  0  0  0  0
   51.8970   -3.6640   27.0540 C   0  0  2  0  0  0  0  0  0  0  0  0
   50.3870   -3.8820   26.8860 C   0  0  0  0  0  0  0  0  0  0  0  0
   49.9440   -5.0350   26.8320 O   0  0  0  0  0  0  0  0  0  0  0  0
   52.6480   -3.9690   25.7470 C   0  0  0  0  0  0  0  0  0  0  0  0
   52.2340   -3.1330   24.7070 O   0  0  0  0  0  0  0  0  0  0  0  0
   49.5710   -2.8310   26.7510 N   0  0  0  0  0  0  0  0  0  0  0  0
   49.9620   -1.4290   26.5520 C   0  0  2  0  0  0  0  0  0  0  0  0
   50.1000   -0.5710   27.8010 C   0  0  0  0  0  0  0  0  0  0  0  0
   50.0420    0.6650   27.6940 O   0  0  0  0  0  0  0  0  0  0  0  0
   48.7650   -0.8670   25.7870 C   0  0  0  0  0  0  0  0  0  0  0  0
   47.5670   -1.6150   26.3890 C   0  0  0  0  0  0  0  0  0  0  0  0
   48.0970   -3.0100   26.6620 C   0  0  0  0  0  0  0  0  0  0  0  0
   50.2860   -1.2100   28.9540 N   0  0  0  0  0  0  0  0  0  0  0  0
   50.4000   -0.4840   30.2270 C   0  0  0  0  0  0  0  0  0  0  0  0
   54.0073  -13.1090   27.9592 H   0  0  0  0  0  0  0  0  0  0  0  0
   52.4655  -12.3896   27.5610 H   0  0  0  0  0  0  0  0  0  0  0  0
   52.9741  -12.4983   29.2291 H   0  0  0  0  0  0  0  0  0  0  0  0
   52.2856  -10.1075   28.7218 H   0  0  0  0  0  0  0  0  0  0  0  0
   54.6974   -8.5051   28.6003 H   0  0  0  0  0  0  0  0  0  0  0  0
   54.1068   -8.8058   26.2301 H   0  0  0  0  0  0  0  0  0  0  0  0
   53.5713   -6.1372   27.2335 H   0  0  0  0  0  0  0  0  0  0  0  0
   51.6232   -7.2267   26.9826 H   0  0  0  0  0  0  0  0  0  0  0  0
   51.6250   -8.8998   26.4787 H   0  0  0  0  0  0  0  0  0  0  0  0
   52.0794   -7.6467   25.3490 H   0  0  0  0  0  0  0  0  0  0  0  0
   54.3205   -6.3506   29.3939 H   0  0  0  0  0  0  0  0  0  0  0  0
   51.8536   -6.0475   30.8564 H   0  0  0  0  0  0  0  0  0  0  0  0
   52.8599   -3.9984   31.7493 H   0  0  0  0  0  0  0  0  0  0  0  0
   54.2477   -4.2762   30.6499 H   0  0  0  0  0  0  0  0  0  0  0  0
   55.1029   -5.9259   31.9013 H   0  0  0  0  0  0  0  0  0  0  0  0
   53.5440   -6.3014   32.6474 H   0  0  0  0  0  0  0  0  0  0  0  0
   55.5333   -6.2289   34.3778 H   0  0  0  0  0  0  0  0  0  0  0  0
   55.5175   -4.7988   35.3065 H   0  0  0  0  0  0  0  0  0  0  0  0
   53.1373   -5.2013   27.8418 H   0  0  0  0  0  0  0  0  0  0  0  0
   52.0439   -2.6409   27.3308 H   0  0  0  0  0  0  0  0  0  0  0  0
   53.6964   -3.8287   25.9085 H   0  0  0  0  0  0  0  0  0  0  0  0
   52.4354   -4.9798   25.4677 H   0  0  0  0  0  0  0  0  0  0  0  0
   52.4185   -2.2100   24.9412 H   0  0  0  0  0  0  0  0  0  0  0  0
   50.9283   -1.4062   26.0930 H   0  0  0  0  0  0  0  0  0  0  0  0
   48.6737    0.1878   25.9421 H   0  0  0  0  0  0  0  0  0  0  0  0
   48.8487   -1.0003   24.7286 H   0  0  0  0  0  0  0  0  0  0  0  0
   46.7528   -1.6475   25.6956 H   0  0  0  0  0  0  0  0  0  0  0  0
   47.1891   -1.1407   27.2706 H   0  0  0  0  0  0  0  0  0  0  0  0
   47.8433   -3.6751   25.8632 H   0  0  0  0  0  0  0  0  0  0  0  0
   47.6824   -3.4387   27.5504 H   0  0  0  0  0  0  0  0  0  0  0  0
   50.3487   -2.1925   28.9540 H   0  0  0  0  0  0  0  0  0  0  0  0
   50.3103    0.5670   30.0475 H   0  0  0  0  0  0  0  0  0  0  0  0
   51.3514   -0.6901   30.6711 H   0  0  0  0  0  0  0  0  0  0  0  0
   49.6213   -0.8005   30.8891 H   0  0  0  0  0  0  0  0  0  0  0  0
  1 35  1  0  0  0  0
  1 36  1  0  0  0  0
  1 37  1  0  0  0  0
  2  1  1  0  0  0  0
  2  4  1  0  0  0  0
  3  2  2  0  0  0  0
  4 38  1  0  0  0  0
  5  4  1  0  0  0  0
  5  6  1  0  0  0  0
  5 39  1  1  0  0  0
  6  7  2  0  0  0  0
  6 11  1  0  0  0  0
  8  5  1  0  0  0  0
  8 40  1  6  0  0  0
  9  8  1  0  0  0  0
  9 41  1  0  0  0  0
 10  8  1  0  0  0  0
 10 42  1  0  0  0  0
 10 43  1  0  0  0  0
 10 44  1  0  0  0  0
 11 12  1  0  0  0  0
 11 45  1  0  0  0  0
 12 15  1  0  0  0  0
 12 46  1  1  0  0  0
 13 14  2  0  0  0  0
 13 12  1  0  0  0  0
 15 16  1  0  0  0  0
 15 47  1  0  0  0  0
 15 48  1  0  0  0  0
 16 17  1  0  0  0  0
 16 49  1  0  0  0  0
 16 50  1  0  0  0  0
 17 18  2  0  0  0  0
 17 19  1  0  0  0  0
 19 51  1  0  0  0  0
 19 52  1  0  0  0  0
 20 13  1  0  0  0  0
 20 53  1  0  0  0  0
 21 20  1  0  0  0  0
 21 54  1  1  0  0  0
 22 21  1  0  0  0  0
 23 22  2  0  0  0  0
 24 21  1  0  0  0  0
 24 55  1  0  0  0  0
 24 56  1  0  0  0  0
 25 24  1  0  0  0  0
 25 57  1  0  0  0  0
 26 22  1  0  0  0  0
 27 26  1  0  0  0  0
 27 28  1  0  0  0  0
 27 58  1  6  0  0  0
 28 33  1  0  0  0  0
 29 28  2  0  0  0  0
 30 31  1  0  0  0  0
 30 27  1  0  0  0  0
 30 59  1  0  0  0  0
 30 60  1  0  0  0  0
 31 32  1  0  0  0  0
 31 61  1  0  0  0  0
 31 62  1  0  0  0  0
 32 26  1  0  0  0  0
 32 63  1  0  0  0  0
 32 64  1  0  0  0  0
 33 34  1  0  0  0  0
 33 65  1  0  0  0  0
 34 66  1  0  0  0  0
 34 67  1  0  0  0  0
 34 68  1  0  0  0  0
M  END
>  <MODEL>
       0

$$$$
selected_4mers/TQSP/879_noH.pdb
 OpenBabel03042518353D

 68 68  0  0  1  0  0  0  0  0999 V2000
  -28.1700    5.4530   -8.2790 C   0  0  0  0  0  0  0  0  0  0  0  0
  -29.4520    4.7330   -7.8740 C   0  0  0  0  0  0  0  0  0  0  0  0
  -29.4400    3.5150   -7.6800 O   0  0  0  0  0  0  0  0  0  0  0  0
  -30.5480    5.4790   -7.7650 N   0  0  0  0  0  0  0  0  0  0  0  0
  -31.8420    4.9130   -7.3550 C   0  0  2  0  0  0  0  0  0  0  0  0
  -32.6640    4.3690   -8.5320 C   0  0  0  0  0  0  0  0  0  0  0  0
  -33.6880    3.7070   -8.3280 O   0  0  0  0  0  0  0  0  0  0  0  0
  -32.7020    5.9460   -6.6020 C   0  0  2  0  0  0  0  0  0  0  0  0
  -32.8770    7.1090   -7.4150 O   0  0  0  0  0  0  0  0  0  0  0  0
  -32.0570    6.3460   -5.2840 C   0  0  0  0  0  0  0  0  0  0  0  0
  -32.2240    4.6570   -9.7550 N   0  0  0  0  0  0  0  0  0  0  0  0
  -32.9330    4.2150  -10.9530 C   0  0  2  0  0  0  0  0  0  0  0  0
  -32.0580    3.2980  -11.8020 C   0  0  0  0  0  0  0  0  0  0  0  0
  -31.5310    3.6990  -12.8440 O   0  0  0  0  0  0  0  0  0  0  0  0
  -33.4250    5.4210  -11.7530 C   0  0  0  0  0  0  0  0  0  0  0  0
  -34.5150    6.1980  -11.0290 C   0  0  0  0  0  0  0  0  0  0  0  0
  -34.6590    7.6400  -11.4870 C   0  0  0  0  0  0  0  0  0  0  0  0
  -34.2590    8.0100  -12.5940 O   0  0  0  0  0  0  0  0  0  0  0  0
  -35.2420    8.4690  -10.6270 N   0  0  0  0  0  0  0  0  0  0  0  0
  -31.9210    2.0580  -11.3460 N   0  0  0  0  0  0  0  0  0  0  0  0
  -31.0800    1.0750  -12.0270 C   0  0  2  0  0  0  0  0  0  0  0  0
  -31.4650    0.8380  -13.4950 C   0  0  0  0  0  0  0  0  0  0  0  0
  -30.5740    0.7010  -14.3320 O   0  0  0  0  0  0  0  0  0  0  0  0
  -31.0120   -0.2290  -11.2300 C   0  0  0  0  0  0  0  0  0  0  0  0
  -30.4530    0.0370   -9.9560 O   0  0  0  0  0  0  0  0  0  0  0  0
  -32.7790    0.7800  -13.8170 N   0  0  0  0  0  0  0  0  0  0  0  0
  -33.1770    0.7170  -15.2350 C   0  0  2  0  0  0  0  0  0  0  0  0
  -32.5930    1.8410  -16.1110 C   0  0  0  0  0  0  0  0  0  0  0  0
  -32.2030    1.5740  -17.2550 O   0  0  0  0  0  0  0  0  0  0  0  0
  -34.7060    0.7760  -15.1750 C   0  0  0  0  0  0  0  0  0  0  0  0
  -35.0320    0.1850  -13.8360 C   0  0  0  0  0  0  0  0  0  0  0  0
  -33.9550    0.6870  -12.9250 C   0  0  0  0  0  0  0  0  0  0  0  0
  -32.5150    3.0640  -15.5800 N   0  0  0  0  0  0  0  0  0  0  0  0
  -31.8860    4.1840  -16.2980 C   0  0  0  0  0  0  0  0  0  0  0  0
  -28.3708    6.4967   -8.4023 H   0  0  0  0  0  0  0  0  0  0  0  0
  -27.8095    5.0477   -9.2013 H   0  0  0  0  0  0  0  0  0  0  0  0
  -27.4302    5.3197   -7.5175 H   0  0  0  0  0  0  0  0  0  0  0  0
  -30.4910    6.4412   -7.9653 H   0  0  0  0  0  0  0  0  0  0  0  0
  -31.5935    4.0980   -6.7078 H   0  0  0  0  0  0  0  0  0  0  0  0
  -33.6507    5.4981   -6.3915 H   0  0  0  0  0  0  0  0  0  0  0  0
  -32.0121    7.5073   -7.6000 H   0  0  0  0  0  0  0  0  0  0  0  0
  -31.1054    6.7966   -5.4748 H   0  0  0  0  0  0  0  0  0  0  0  0
  -31.9243    5.4772   -4.6737 H   0  0  0  0  0  0  0  0  0  0  0  0
  -32.6875    7.0457   -4.7762 H   0  0  0  0  0  0  0  0  0  0  0  0
  -31.3976    5.1826   -9.8547 H   0  0  0  0  0  0  0  0  0  0  0  0
  -33.7878    3.6462  -10.6519 H   0  0  0  0  0  0  0  0  0  0  0  0
  -32.5974    6.0757  -11.9300 H   0  0  0  0  0  0  0  0  0  0  0  0
  -33.8412    5.0550  -12.6682 H   0  0  0  0  0  0  0  0  0  0  0  0
  -34.2887    6.1988   -9.9832 H   0  0  0  0  0  0  0  0  0  0  0  0
  -35.4409    5.7101  -11.2516 H   0  0  0  0  0  0  0  0  0  0  0  0
  -35.3654    9.4167  -10.8634 H   0  0  0  0  0  0  0  0  0  0  0  0
  -35.5504    8.1353   -9.7536 H   0  0  0  0  0  0  0  0  0  0  0  0
  -32.3989    1.7936  -10.5269 H   0  0  0  0  0  0  0  0  0  0  0  0
  -30.0969    1.4956  -12.0661 H   0  0  0  0  0  0  0  0  0  0  0  0
  -30.3994   -0.9356  -11.7500 H   0  0  0  0  0  0  0  0  0  0  0  0
  -31.9957   -0.6340  -11.1154 H   0  0  0  0  0  0  0  0  0  0  0  0
  -29.5616    0.4038  -10.0642 H   0  0  0  0  0  0  0  0  0  0  0  0
  -32.7969   -0.1657  -15.7054 H   0  0  0  0  0  0  0  0  0  0  0  0
  -35.1414    0.1982  -15.9634 H   0  0  0  0  0  0  0  0  0  0  0  0
  -35.0878    1.7684  -15.2944 H   0  0  0  0  0  0  0  0  0  0  0  0
  -35.0189   -0.8839  -13.8823 H   0  0  0  0  0  0  0  0  0  0  0  0
  -36.0088    0.4625  -13.4986 H   0  0  0  0  0  0  0  0  0  0  0  0
  -33.7770   -0.0007  -12.1249 H   0  0  0  0  0  0  0  0  0  0  0  0
  -34.2009    1.6159  -12.4543 H   0  0  0  0  0  0  0  0  0  0  0  0
  -32.8889    3.2207  -14.6828 H   0  0  0  0  0  0  0  0  0  0  0  0
  -31.5349    3.8450  -17.2502 H   0  0  0  0  0  0  0  0  0  0  0  0
  -31.0620    4.5566  -15.7260 H   0  0  0  0  0  0  0  0  0  0  0  0
  -32.6037    4.9648  -16.4398 H   0  0  0  0  0  0  0  0  0  0  0  0
  1  2  1  0  0  0  0
  1 35  1  0  0  0  0
  1 36  1  0  0  0  0
  1 37  1  0  0  0  0
  2  4  1  0  0  0  0
  2  3  2  0  0  0  0
  4  5  1  0  0  0  0
  4 38  1  0  0  0  0
  5  8  1  0  0  0  0
  5 39  1  1  0  0  0
  6  7  2  0  0  0  0
  6  5  1  0  0  0  0
  8 10  1  0  0  0  0
  8 40  1  1  0  0  0
  9  8  1  0  0  0  0
  9 41  1  0  0  0  0
 10 42  1  0  0  0  0
 10 43  1  0  0  0  0
 10 44  1  0  0  0  0
 11  6  1  0  0  0  0
 11 45  1  0  0  0  0
 12 11  1  0  0  0  0
 12 46  1  1  0  0  0
 13 20  1  0  0  0  0
 13 12  1  0  0  0  0
 14 13  2  0  0  0  0
 15 16  1  0  0  0  0
 15 12  1  0  0  0  0
 15 47  1  0  0  0  0
 15 48  1  0  0  0  0
 16 49  1  0  0  0  0
 16 50  1  0  0  0  0
 17 16  1  0  0  0  0
 17 19  1  0  0  0  0
 18 17  2  0  0  0  0
 19 51  1  0  0  0  0
 19 52  1  0  0  0  0
 20 53  1  0  0  0  0
 21 20  1  0  0  0  0
 21 24  1  0  0  0  0
 21 54  1  6  0  0  0
 22 21  1  0  0  0  0
 23 22  2  0  0  0  0
 24 25  1  0  0  0  0
 24 55  1  0  0  0  0
 24 56  1  0  0  0  0
 25 57  1  0  0  0  0
 26 22  1  0  0  0  0
 26 32  1  0  0  0  0
 27 30  1  0  0  0  0
 27 26  1  0  0  0  0
 27 58  1  6  0  0  0
 28 33  1  0  0  0  0
 28 27  1  0  0  0  0
 29 28  2  0  0  0  0
 30 31  1  0  0  0  0
 30 59  1  0  0  0  0
 30 60  1  0  0  0  0
 31 32  1  0  0  0  0
 31 61  1  0  0  0  0
 31 62  1  0  0  0  0
 32 63  1  0  0  0  0
 32 64  1  0  0  0  0
 33 65  1  0  0  0  0
 34 33  1  0  0  0  0
 34 66  1  0  0  0  0
 34 67  1  0  0  0  0
 34 68  1  0  0  0  0
M  END
>  <MODEL>
       0

$$$$
