selected_4mers/TVAA/955_noH.pdb
 OpenBabel03042518353D

 62 61  0  0  1  0  0  0  0  0999 V2000
   43.6300   43.2680  149.4200 C   0  0  0  0  0  0  0  0  0  0  0  0
   43.3310   44.7380  149.1720 C   0  0  0  0  0  0  0  0  0  0  0  0
   42.1940   45.1890  149.2870 O   0  0  0  0  0  0  0  0  0  0  0  0
   44.3760   45.4860  148.8160 N   0  0  0  0  0  0  0  0  0  0  0  0
   44.1070   46.8900  148.5600 C   0  0  2  0  0  0  0  0  0  0  0  0
   43.4310   47.0770  147.2040 C   0  0  0  0  0  0  0  0  0  0  0  0
   43.5310   46.2050  146.3560 O   0  0  0  0  0  0  0  0  0  0  0  0
   45.4130   47.6810  148.5630 C   0  0  2  0  0  0  0  0  0  0  0  0
   46.3190   47.1120  147.6240 O   0  0  0  0  0  0  0  0  0  0  0  0
   46.0790   47.5350  149.9290 C   0  0  0  0  0  0  0  0  0  0  0  0
   42.8130   48.2360  147.0720 N   0  0  0  0  0  0  0  0  0  0  0  0
   42.1470   48.6520  145.8360 C   0  0  2  0  0  0  0  0  0  0  0  0
   43.1550   48.7590  144.7110 C   0  0  0  0  0  0  0  0  0  0  0  0
   44.2540   49.3050  144.8670 O   0  0  0  0  0  0  0  0  0  0  0  0
   41.3960   49.9690  146.0500 C   0  0  0  0  0  0  0  0  0  0  0  0
   40.8670   50.4790  144.7260 C   0  0  0  0  0  0  0  0  0  0  0  0
   40.2210   49.7440  146.9960 C   0  0  0  0  0  0  0  0  0  0  0  0
   42.7820   48.2070  143.5550 N   0  0  0  0  0  0  0  0  0  0  0  0
   43.5670   48.2870  142.3330 C   0  0  2  0  0  0  0  0  0  0  0  0
   42.6310   48.6550  141.1870 C   0  0  0  0  0  0  0  0  0  0  0  0
   41.6570   47.9290  140.9530 O   0  0  0  0  0  0  0  0  0  0  0  0
   44.2990   47.0030  142.0230 C   0  0  0  0  0  0  0  0  0  0  0  0
   42.9090   49.7620  140.5160 N   0  0  0  0  0  0  0  0  0  0  0  0
   42.0670   50.1690  139.4030 C   0  0  2  0  0  0  0  0  0  0  0  0
   42.2950   49.2680  138.2000 C   0  0  0  0  0  0  0  0  0  0  0  0
   43.3910   48.7790  137.9360 O   0  0  0  0  0  0  0  0  0  0  0  0
   42.3860   51.5970  138.9860 C   0  0  0  0  0  0  0  0  0  0  0  0
   41.2420   49.0160  137.4240 N   0  0  0  0  0  0  0  0  0  0  0  0
   41.4750   48.1630  136.2590 C   0  0  0  0  0  0  0  0  0  0  0  0
   44.6731   43.0854  149.2669 H   0  0  0  0  0  0  0  0  0  0  0  0
   43.0597   42.6686  148.7415 H   0  0  0  0  0  0  0  0  0  0  0  0
   43.3676   43.0155  150.4261 H   0  0  0  0  0  0  0  0  0  0  0  0
   45.2807   45.1070  148.7313 H   0  0  0  0  0  0  0  0  0  0  0  0
   43.4568   47.2448  149.3322 H   0  0  0  0  0  0  0  0  0  0  0  0
   45.1941   48.7017  148.3282 H   0  0  0  0  0  0  0  0  0  0  0  0
   46.4964   46.1891  147.8643 H   0  0  0  0  0  0  0  0  0  0  0  0
   46.2784   46.5012  150.1199 H   0  0  0  0  0  0  0  0  0  0  0  0
   45.4275   47.9184  150.6863 H   0  0  0  0  0  0  0  0  0  0  0  0
   46.9979   48.0831  149.9382 H   0  0  0  0  0  0  0  0  0  0  0  0
   42.7992   48.8501  147.8414 H   0  0  0  0  0  0  0  0  0  0  0  0
   41.4256   47.9114  145.5601 H   0  0  0  0  0  0  0  0  0  0  0  0
   42.0689   50.6864  146.4712 H   0  0  0  0  0  0  0  0  0  0  0  0
   40.1949   49.7584  144.3090 H   0  0  0  0  0  0  0  0  0  0  0  0
   41.6835   50.6367  144.0526 H   0  0  0  0  0  0  0  0  0  0  0  0
   40.3489   51.4023  144.8808 H   0  0  0  0  0  0  0  0  0  0  0  0
   39.5521   49.0260  146.5694 H   0  0  0  0  0  0  0  0  0  0  0  0
   39.7031   50.6680  147.1476 H   0  0  0  0  0  0  0  0  0  0  0  0
   40.5835   49.3801  147.9347 H   0  0  0  0  0  0  0  0  0  0  0  0
   41.9278   47.7183  143.5275 H   0  0  0  0  0  0  0  0  0  0  0  0
   44.3206   49.0351  142.4646 H   0  0  0  0  0  0  0  0  0  0  0  0
   43.5905   46.2140  141.8806 H   0  0  0  0  0  0  0  0  0  0  0  0
   44.9480   46.7569  142.8373 H   0  0  0  0  0  0  0  0  0  0  0  0
   44.8772   47.1284  141.1314 H   0  0  0  0  0  0  0  0  0  0  0  0
   43.6863   50.3098  140.7709 H   0  0  0  0  0  0  0  0  0  0  0  0
   41.0500   50.0976  139.7278 H   0  0  0  0  0  0  0  0  0  0  0  0
   43.4046   51.6553  138.6637 H   0  0  0  0  0  0  0  0  0  0  0  0
   42.2370   52.2532  139.8179 H   0  0  0  0  0  0  0  0  0  0  0  0
   41.7407   51.8867  138.1832 H   0  0  0  0  0  0  0  0  0  0  0  0
   40.3517   49.3854  137.6246 H   0  0  0  0  0  0  0  0  0  0  0  0
   42.5046   47.8733  136.2293 H   0  0  0  0  0  0  0  0  0  0  0  0
   41.2302   48.7020  135.3677 H   0  0  0  0  0  0  0  0  0  0  0  0
   40.8606   47.2897  136.3278 H   0  0  0  0  0  0  0  0  0  0  0  0
  1 30  1  0  0  0  0
  1 31  1  0  0  0  0
  1 32  1  0  0  0  0
  2  3  2  0  0  0  0
  2  1  1  0  0  0  0
  4  2  1  0  0  0  0
  4 33  1  0  0  0  0
  5  8  1  0  0  0  0
  5  4  1  0  0  0  0
  5 34  1  1  0  0  0
  6  5  1  0  0  0  0
  7  6  2  0  0  0  0
  8 10  1  0  0  0  0
  8 35  1  6  0  0  0
  9  8  1  0  0  0  0
  9 36  1  0  0  0  0
 10 37  1  0  0  0  0
 10 38  1  0  0  0  0
 10 39  1  0  0  0  0
 11  6  1  0  0  0  0
 11 40  1  0  0  0  0
 12 15  1  0  0  0  0
 12 11  1  0  0  0  0
 12 41  1  6  0  0  0
 13 14  2  0  0  0  0
 13 12  1  0  0  0  0
 15 17  1  0  0  0  0
 15 42  1  0  0  0  0
 16 15  1  0  0  0  0
 16 43  1  0  0  0  0
 16 44  1  0  0  0  0
 16 45  1  0  0  0  0
 17 46  1  0  0  0  0
 17 47  1  0  0  0  0
 17 48  1  0  0  0  0
 18 13  1  0  0  0  0
 18 49  1  0  0  0  0
 19 18  1  0  0  0  0
 19 50  1  1  0  0  0
 20 19  1  0  0  0  0
 21 20  2  0  0  0  0
 22 19  1  0  0  0  0
 22 51  1  0  0  0  0
 22 52  1  0  0  0  0
 22 53  1  0  0  0  0
 23 20  1  0  0  0  0
 23 54  1  0  0  0  0
 24 23  1  0  0  0  0
 24 55  1  1  0  0  0
 25 24  1  0  0  0  0
 26 25  2  0  0  0  0
 27 24  1  0  0  0  0
 27 56  1  0  0  0  0
 27 57  1  0  0  0  0
 27 58  1  0  0  0  0
 28 25  1  0  0  0  0
 28 59  1  0  0  0  0
 29 28  1  0  0  0  0
 29 60  1  0  0  0  0
 29 61  1  0  0  0  0
 29 62  1  0  0  0  0
M  END
>  <MODEL>
       0

$$$$
selected_4mers/TVAA/956_noH.pdb
 OpenBabel03042518353D

 62 61  0  0  1  0  0  0  0  0999 V2000
   89.2600   16.4070   -3.2800 C   0  0  0  0  0  0  0  0  0  0  0  0
   88.4510   16.2580   -1.9930 C   0  0  0  0  0  0  0  0  0  0  0  0
   88.3450   15.1640   -1.4410 O   0  0  0  0  0  0  0  0  0  0  0  0
   87.8820   17.3600   -1.5180 N   0  0  0  0  0  0  0  0  0  0  0  0
   87.0690   17.3360   -0.3060 C   0  0  2  0  0  0  0  0  0  0  0  0
   85.6320   17.6950   -0.6640 C   0  0  0  0  0  0  0  0  0  0  0  0
   84.7630   17.7510    0.2050 O   0  0  0  0  0  0  0  0  0  0  0  0
   87.5540   18.3620    0.7310 C   0  0  2  0  0  0  0  0  0  0  0  0
   87.4470   19.6800    0.1810 O   0  0  0  0  0  0  0  0  0  0  0  0
   89.0070   18.0910    1.1250 C   0  0  0  0  0  0  0  0  0  0  0  0
   85.3920   17.9430   -1.9470 N   0  0  0  0  0  0  0  0  0  0  0  0
   84.0610   18.3200   -2.4110 C   0  0  2  0  0  0  0  0  0  0  0  0
   83.3520   17.2130   -3.1810 C   0  0  0  0  0  0  0  0  0  0  0  0
   83.9150   16.5960   -4.0880 O   0  0  0  0  0  0  0  0  0  0  0  0
   84.1220   19.5780   -3.3040 C   0  0  0  0  0  0  0  0  0  0  0  0
   82.7130   19.9650   -3.7670 C   0  0  0  0  0  0  0  0  0  0  0  0
   84.7640   20.7230   -2.5350 C   0  0  0  0  0  0  0  0  0  0  0  0
   82.0980   16.9840   -2.8110 N   0  0  0  0  0  0  0  0  0  0  0  0
   81.2760   15.9670   -3.4430 C   0  0  2  0  0  0  0  0  0  0  0  0
   80.3480   16.5480   -4.5050 C   0  0  0  0  0  0  0  0  0  0  0  0
   80.0800   15.9110   -5.5240 O   0  0  0  0  0  0  0  0  0  0  0  0
   80.4470   15.2480   -2.3830 C   0  0  0  0  0  0  0  0  0  0  0  0
   79.8580   17.7620   -4.2830 N   0  0  0  0  0  0  0  0  0  0  0  0
   78.9320   18.3300   -5.2450 C   0  0  2  0  0  0  0  0  0  0  0  0
   78.6890   19.8230   -5.1330 C   0  0  0  0  0  0  0  0  0  0  0  0
   79.0940   20.4750   -4.1740 O   0  0  0  0  0  0  0  0  0  0  0  0
   77.5900   17.6000   -5.1320 C   0  0  0  0  0  0  0  0  0  0  0  0
   78.0130   20.3380   -6.1540 N   0  0  0  0  0  0  0  0  0  0  0  0
   77.5960   21.7310   -6.2360 C   0  0  0  0  0  0  0  0  0  0  0  0
   89.2327   17.4269   -3.6023 H   0  0  0  0  0  0  0  0  0  0  0  0
   88.8400   15.7815   -4.0397 H   0  0  0  0  0  0  0  0  0  0  0  0
   90.2740   16.1170   -3.0995 H   0  0  0  0  0  0  0  0  0  0  0  0
   88.0114   18.2120   -1.9939 H   0  0  0  0  0  0  0  0  0  0  0  0
   87.1444   16.3537    0.1114 H   0  0  0  0  0  0  0  0  0  0  0  0
   86.9430   18.2793    1.6055 H   0  0  0  0  0  0  0  0  0  0  0  0
   88.0035   19.7461   -0.6107 H   0  0  0  0  0  0  0  0  0  0  0  0
   89.6318   18.1700    0.2600 H   0  0  0  0  0  0  0  0  0  0  0  0
   89.0877   17.1057    1.5345 H   0  0  0  0  0  0  0  0  0  0  0  0
   89.3179   18.8077    1.8562 H   0  0  0  0  0  0  0  0  0  0  0  0
   86.1271   17.8709   -2.5978 H   0  0  0  0  0  0  0  0  0  0  0  0
   83.4972   18.5173   -1.5232 H   0  0  0  0  0  0  0  0  0  0  0  0
   84.7158   19.3675   -4.1689 H   0  0  0  0  0  0  0  0  0  0  0  0
   82.1036   20.1795   -2.9140 H   0  0  0  0  0  0  0  0  0  0  0  0
   82.2833   19.1544   -4.3176 H   0  0  0  0  0  0  0  0  0  0  0  0
   82.7685   20.8313   -4.3926 H   0  0  0  0  0  0  0  0  0  0  0  0
   84.1781   20.9425   -1.6670 H   0  0  0  0  0  0  0  0  0  0  0  0
   84.8131   21.5896   -3.1607 H   0  0  0  0  0  0  0  0  0  0  0  0
   85.7524   20.4422   -2.2365 H   0  0  0  0  0  0  0  0  0  0  0  0
   81.7117   17.5223   -2.0828 H   0  0  0  0  0  0  0  0  0  0  0  0
   81.9355   15.2803   -3.9313 H   0  0  0  0  0  0  0  0  0  0  0  0
   79.7940   15.9482   -1.9053 H   0  0  0  0  0  0  0  0  0  0  0  0
   81.0991   14.8139   -1.6541 H   0  0  0  0  0  0  0  0  0  0  0  0
   79.8665   14.4776   -2.8461 H   0  0  0  0  0  0  0  0  0  0  0  0
   80.1185   18.2680   -3.4796 H   0  0  0  0  0  0  0  0  0  0  0  0
   79.3998   18.1933   -6.1975 H   0  0  0  0  0  0  0  0  0  0  0  0
   77.1709   17.7721   -4.1627 H   0  0  0  0  0  0  0  0  0  0  0  0
   77.7419   16.5503   -5.2736 H   0  0  0  0  0  0  0  0  0  0  0  0
   76.9199   17.9676   -5.8808 H   0  0  0  0  0  0  0  0  0  0  0  0
   77.7795   19.7412   -6.9014 H   0  0  0  0  0  0  0  0  0  0  0  0
   77.9183   22.2520   -5.3587 H   0  0  0  0  0  0  0  0  0  0  0  0
   76.5296   21.7804   -6.3086 H   0  0  0  0  0  0  0  0  0  0  0  0
   78.0337   22.1840   -7.1009 H   0  0  0  0  0  0  0  0  0  0  0  0
  1  2  1  0  0  0  0
  1 30  1  0  0  0  0
  1 31  1  0  0  0  0
  1 32  1  0  0  0  0
  2  4  1  0  0  0  0
  2  3  2  0  0  0  0
  4  5  1  0  0  0  0
  4 33  1  0  0  0  0
  5  8  1  0  0  0  0
  5 34  1  1  0  0  0
  6  5  1  0  0  0  0
  6  7  2  0  0  0  0
  8 10  1  0  0  0  0
  8 35  1  1  0  0  0
  9  8  1  0  0  0  0
  9 36  1  0  0  0  0
 10 37  1  0  0  0  0
 10 38  1  0  0  0  0
 10 39  1  0  0  0  0
 11  6  1  0  0  0  0
 11 40  1  0  0  0  0
 12 11  1  0  0  0  0
 12 41  1  1  0  0  0
 13 18  1  0  0  0  0
 13 12  1  0  0  0  0
 14 13  2  0  0  0  0
 15 17  1  0  0  0  0
 15 12  1  0  0  0  0
 15 42  1  0  0  0  0
 16 15  1  0  0  0  0
 16 43  1  0  0  0  0
 16 44  1  0  0  0  0
 16 45  1  0  0  0  0
 17 46  1  0  0  0  0
 17 47  1  0  0  0  0
 17 48  1  0  0  0  0
 18 49  1  0  0  0  0
 19 18  1  0  0  0  0
 19 22  1  0  0  0  0
 19 50  1  6  0  0  0
 20 23  1  0  0  0  0
 20 19  1  0  0  0  0
 21 20  2  0  0  0  0
 22 51  1  0  0  0  0
 22 52  1  0  0  0  0
 22 53  1  0  0  0  0
 23 54  1  0  0  0  0
 24 25  1  0  0  0  0
 24 27  1  0  0  0  0
 24 23  1  0  0  0  0
 24 55  1  6  0  0  0
 25 26  2  0  0  0  0
 27 56  1  0  0  0  0
 27 57  1  0  0  0  0
 27 58  1  0  0  0  0
 28 25  1  0  0  0  0
 28 59  1  0  0  0  0
 29 28  1  0  0  0  0
 29 60  1  0  0  0  0
 29 61  1  0  0  0  0
 29 62  1  0  0  0  0
M  END
>  <MODEL>
       0

$$$$
selected_4mers/TVAA/957_noH.pdb
 OpenBabel03042518353D

 62 61  0  0  1  0  0  0  0  0999 V2000
  -21.2810   45.3200   40.6580 C   0  0  0  0  0  0  0  0  0  0  0  0
  -21.2610   46.7590   40.1590 C   0  0  0  0  0  0  0  0  0  0  0  0
  -20.5100   47.0910   39.2370 O   0  0  0  0  0  0  0  0  0  0  0  0
  -22.0770   47.6110   40.7750 N   0  0  0  0  0  0  0  0  0  0  0  0
  -22.1580   49.0100   40.3750 C   0  0  2  0  0  0  0  0  0  0  0  0
  -21.7070   49.9810   41.4610 C   0  0  0  0  0  0  0  0  0  0  0  0
  -21.2430   51.0790   41.1570 O   0  0  0  0  0  0  0  0  0  0  0  0
  -23.5960   49.3770   39.9450 C   0  0  2  0  0  0  0  0  0  0  0  0
  -24.5050   49.0980   41.0160 O   0  0  0  0  0  0  0  0  0  0  0  0
  -24.0030   48.5760   38.7170 C   0  0  0  0  0  0  0  0  0  0  0  0
  -21.8430   49.5790   42.7220 N   0  0  0  0  0  0  0  0  0  0  0  0
  -21.4380   50.4260   43.8400 C   0  0  2  0  0  0  0  0  0  0  0  0
  -19.9570   50.7850   43.7080 C   0  0  0  0  0  0  0  0  0  0  0  0
  -19.1510   49.9700   43.2590 O   0  0  0  0  0  0  0  0  0  0  0  0
  -21.6800   49.7130   45.1930 C   0  0  0  0  0  0  0  0  0  0  0  0
  -20.8810   48.4220   45.2520 C   0  0  0  0  0  0  0  0  0  0  0  0
  -21.3000   50.6330   46.3450 C   0  0  0  0  0  0  0  0  0  0  0  0
  -19.6090   52.0090   44.0960 N   0  0  0  0  0  0  0  0  0  0  0  0
  -18.2320   52.4870   44.0070 C   0  0  2  0  0  0  0  0  0  0  0  0
  -17.2750   51.7280   44.9200 C   0  0  0  0  0  0  0  0  0  0  0  0
  -17.6380   51.3300   46.0260 O   0  0  0  0  0  0  0  0  0  0  0  0
  -18.1800   53.9760   44.3320 C   0  0  0  0  0  0  0  0  0  0  0  0
  -16.0450   51.5390   44.4490 N   0  0  0  0  0  0  0  0  0  0  0  0
  -15.0300   50.8380   45.2260 C   0  0  2  0  0  0  0  0  0  0  0  0
  -14.8480   51.5130   46.5820 C   0  0  0  0  0  0  0  0  0  0  0  0
  -14.6630   50.8460   47.6020 O   0  0  0  0  0  0  0  0  0  0  0  0
  -13.7070   50.8220   44.4640 C   0  0  0  0  0  0  0  0  0  0  0  0
  -14.9090   52.8410   46.5900 N   0  0  0  0  0  0  0  0  0  0  0  0
  -14.7530   53.6000   47.8250 C   0  0  0  0  0  0  0  0  0  0  0  0
  -20.5884   44.7356   40.0891 H   0  0  0  0  0  0  0  0  0  0  0  0
  -22.2656   44.9167   40.5444 H   0  0  0  0  0  0  0  0  0  0  0  0
  -21.0031   45.2968   41.6910 H   0  0  0  0  0  0  0  0  0  0  0  0
  -22.6382   47.2891   41.5171 H   0  0  0  0  0  0  0  0  0  0  0  0
  -21.4835   49.1098   39.5504 H   0  0  0  0  0  0  0  0  0  0  0  0
  -23.6270   50.4197   39.7068 H   0  0  0  0  0  0  0  0  0  0  0  0
  -24.4737   48.1521   41.2286 H   0  0  0  0  0  0  0  0  0  0  0  0
  -23.9746   47.5314   38.9470 H   0  0  0  0  0  0  0  0  0  0  0  0
  -23.3253   48.7832   37.9153 H   0  0  0  0  0  0  0  0  0  0  0  0
  -24.9953   48.8501   38.4251 H   0  0  0  0  0  0  0  0  0  0  0  0
  -22.2253   48.6905   42.9053 H   0  0  0  0  0  0  0  0  0  0  0  0
  -22.0293   51.3175   43.8160 H   0  0  0  0  0  0  0  0  0  0  0  0
  -22.7191   49.4731   45.2803 H   0  0  0  0  0  0  0  0  0  0  0  0
  -19.8378   48.6439   45.1659 H   0  0  0  0  0  0  0  0  0  0  0  0
  -21.1771   47.7822   44.4471 H   0  0  0  0  0  0  0  0  0  0  0  0
  -21.0654   47.9307   46.1845 H   0  0  0  0  0  0  0  0  0  0  0  0
  -20.2622   50.8838   46.2738 H   0  0  0  0  0  0  0  0  0  0  0  0
  -21.4837   50.1355   47.2743 H   0  0  0  0  0  0  0  0  0  0  0  0
  -21.8870   51.5263   46.2966 H   0  0  0  0  0  0  0  0  0  0  0  0
  -20.3009   52.6109   44.4541 H   0  0  0  0  0  0  0  0  0  0  0  0
  -17.9082   52.3127   43.0022 H   0  0  0  0  0  0  0  0  0  0  0  0
  -18.5064   54.1329   45.3388 H   0  0  0  0  0  0  0  0  0  0  0  0
  -18.8210   54.5099   43.6619 H   0  0  0  0  0  0  0  0  0  0  0  0
  -17.1761   54.3300   44.2233 H   0  0  0  0  0  0  0  0  0  0  0  0
  -15.8150   51.8806   43.5548 H   0  0  0  0  0  0  0  0  0  0  0  0
  -15.3500   49.8293   45.3843 H   0  0  0  0  0  0  0  0  0  0  0  0
  -13.3776   51.8268   44.3002 H   0  0  0  0  0  0  0  0  0  0  0  0
  -13.8439   50.3335   43.5219 H   0  0  0  0  0  0  0  0  0  0  0  0
  -12.9724   50.2945   45.0359 H   0  0  0  0  0  0  0  0  0  0  0  0
  -15.0627   53.3217   45.7447 H   0  0  0  0  0  0  0  0  0  0  0  0
  -14.5949   52.9256   48.6405 H   0  0  0  0  0  0  0  0  0  0  0  0
  -15.6372   54.1753   48.0042 H   0  0  0  0  0  0  0  0  0  0  0  0
  -13.9124   54.2561   47.7366 H   0  0  0  0  0  0  0  0  0  0  0  0
  1 30  1  0  0  0  0
  1 31  1  0  0  0  0
  1 32  1  0  0  0  0
  2  1  1  0  0  0  0
  2  4  1  0  0  0  0
  3  2  2  0  0  0  0
  4 33  1  0  0  0  0
  5  4  1  0  0  0  0
  5  6  1  0  0  0  0
  5 34  1  6  0  0  0
  6 11  1  0  0  0  0
  7  6  2  0  0  0  0
  8  5  1  0  0  0  0
  8  9  1  0  0  0  0
  8 35  1  6  0  0  0
  9 36  1  0  0  0  0
 10  8  1  0  0  0  0
 10 37  1  0  0  0  0
 10 38  1  0  0  0  0
 10 39  1  0  0  0  0
 11 12  1  0  0  0  0
 11 40  1  0  0  0  0
 12 15  1  0  0  0  0
 12 41  1  6  0  0  0
 13 12  1  0  0  0  0
 13 18  1  0  0  0  0
 14 13  2  0  0  0  0
 15 16  1  0  0  0  0
 15 17  1  0  0  0  0
 15 42  1  0  0  0  0
 16 43  1  0  0  0  0
 16 44  1  0  0  0  0
 16 45  1  0  0  0  0
 17 46  1  0  0  0  0
 17 47  1  0  0  0  0
 17 48  1  0  0  0  0
 18 49  1  0  0  0  0
 19 18  1  0  0  0  0
 19 22  1  0  0  0  0
 19 20  1  0  0  0  0
 19 50  1  6  0  0  0
 20 21  2  0  0  0  0
 22 51  1  0  0  0  0
 22 52  1  0  0  0  0
 22 53  1  0  0  0  0
 23 20  1  0  0  0  0
 23 24  1  0  0  0  0
 23 54  1  0  0  0  0
 24 25  1  0  0  0  0
 24 55  1  1  0  0  0
 25 28  1  0  0  0  0
 25 26  2  0  0  0  0
 27 24  1  0  0  0  0
 27 56  1  0  0  0  0
 27 57  1  0  0  0  0
 27 58  1  0  0  0  0
 28 29  1  0  0  0  0
 28 59  1  0  0  0  0
 29 60  1  0  0  0  0
 29 61  1  0  0  0  0
 29 62  1  0  0  0  0
M  END
>  <MODEL>
       0

$$$$
selected_4mers/TVAA/958_noH.pdb
 OpenBabel03042518353D

 62 61  0  0  1  0  0  0  0  0999 V2000
   12.1320   35.3130    4.2270 C   0  0  0  0  0  0  0  0  0  0  0  0
   12.0870   34.0100    4.9880 C   0  0  0  0  0  0  0  0  0  0  0  0
   13.0060   33.6830    5.7380 O   0  0  0  0  0  0  0  0  0  0  0  0
   11.0110   33.2520    4.8060 N   0  0  0  0  0  0  0  0  0  0  0  0
   10.8660   32.0060    5.5520 C   0  0  2  0  0  0  0  0  0  0  0  0
   10.4070   30.8980    4.6290 C   0  0  0  0  0  0  0  0  0  0  0  0
    9.8320   31.1600    3.5660 O   0  0  0  0  0  0  0  0  0  0  0  0
    9.8040   32.1190    6.6360 C   0  0  2  0  0  0  0  0  0  0  0  0
    8.5280   32.2340    6.0030 O   0  0  0  0  0  0  0  0  0  0  0  0
   10.0610   33.3470    7.5620 C   0  0  0  0  0  0  0  0  0  0  0  0
   10.6100   29.6590    5.0570 N   0  0  0  0  0  0  0  0  0  0  0  0
   10.1860   28.5030    4.2490 C   0  0  2  0  0  0  0  0  0  0  0  0
    8.6590   28.4540    4.0530 C   0  0  0  0  0  0  0  0  0  0  0  0
    8.1770   28.1470    2.9570 O   0  0  0  0  0  0  0  0  0  0  0  0
   10.7460   27.2210    4.8710 C   0  0  0  0  0  0  0  0  0  0  0  0
   10.2000   25.9770    4.2070 C   0  0  0  0  0  0  0  0  0  0  0  0
   12.2570   27.2710    4.7370 C   0  0  0  0  0  0  0  0  0  0  0  0
    7.9170   28.7660    5.1190 N   0  0  0  0  0  0  0  0  0  0  0  0
    6.4500   28.8030    5.0700 C   0  0  2  0  0  0  0  0  0  0  0  0
    5.9390   29.8080    4.0300 C   0  0  0  0  0  0  0  0  0  0  0  0
    5.0150   29.5200    3.2720 O   0  0  0  0  0  0  0  0  0  0  0  0
    5.8670   29.1120    6.4630 C   0  0  0  0  0  0  0  0  0  0  0  0
    6.5490   30.9830    3.9890 N   0  0  0  0  0  0  0  0  0  0  0  0
    6.1680   31.9990    3.0280 C   0  0  2  0  0  0  0  0  0  0  0  0
    6.5410   31.5560    1.6150 C   0  0  0  0  0  0  0  0  0  0  0  0
    5.7760   31.7380    0.6610 O   0  0  0  0  0  0  0  0  0  0  0  0
    6.8480   33.3040    3.3810 C   0  0  0  0  0  0  0  0  0  0  0  0
    7.6960   30.9070    1.4880 N   0  0  0  0  0  0  0  0  0  0  0  0
    8.1620   30.4510    0.1860 C   0  0  0  0  0  0  0  0  0  0  0  0
   11.2460   35.4112    3.6352 H   0  0  0  0  0  0  0  0  0  0  0  0
   12.9905   35.3236    3.5884 H   0  0  0  0  0  0  0  0  0  0  0  0
   12.1915   36.1278    4.9180 H   0  0  0  0  0  0  0  0  0  0  0  0
   10.3133   33.5302    4.1695 H   0  0  0  0  0  0  0  0  0  0  0  0
   11.8221   31.7984    5.9853 H   0  0  0  0  0  0  0  0  0  0  0  0
    9.8372   31.2459    7.2536 H   0  0  0  0  0  0  0  0  0  0  0  0
    8.5132   33.0290    5.4474 H   0  0  0  0  0  0  0  0  0  0  0  0
   10.0357   34.2443    6.9797 H   0  0  0  0  0  0  0  0  0  0  0  0
   11.0204   33.2496    8.0255 H   0  0  0  0  0  0  0  0  0  0  0  0
    9.3032   33.3898    8.3162 H   0  0  0  0  0  0  0  0  0  0  0  0
   11.0494   29.5104    5.9254 H   0  0  0  0  0  0  0  0  0  0  0  0
   10.5884   28.6034    3.2627 H   0  0  0  0  0  0  0  0  0  0  0  0
   10.4504   27.1686    5.8980 H   0  0  0  0  0  0  0  0  0  0  0  0
   10.4685   25.9785    3.1712 H   0  0  0  0  0  0  0  0  0  0  0  0
    9.1341   25.9621    4.2991 H   0  0  0  0  0  0  0  0  0  0  0  0
   10.6111   25.1101    4.6808 H   0  0  0  0  0  0  0  0  0  0  0  0
   12.5217   27.3228    3.7016 H   0  0  0  0  0  0  0  0  0  0  0  0
   12.6828   26.3902    5.1703 H   0  0  0  0  0  0  0  0  0  0  0  0
   12.6317   28.1352    5.2446 H   0  0  0  0  0  0  0  0  0  0  0  0
    8.3695   28.9786    5.9671 H   0  0  0  0  0  0  0  0  0  0  0  0
    6.1140   27.8332    4.7675 H   0  0  0  0  0  0  0  0  0  0  0  0
    6.1945   30.0801    6.7800 H   0  0  0  0  0  0  0  0  0  0  0  0
    6.2036   28.3751    7.1620 H   0  0  0  0  0  0  0  0  0  0  0  0
    4.7982   29.0953    6.4141 H   0  0  0  0  0  0  0  0  0  0  0  0
    7.2768   31.1703    4.6249 H   0  0  0  0  0  0  0  0  0  0  0  0
    5.1080   32.1416    3.0602 H   0  0  0  0  0  0  0  0  0  0  0  0
    7.9095   33.1724    3.3518 H   0  0  0  0  0  0  0  0  0  0  0  0
    6.5529   33.6054    4.3644 H   0  0  0  0  0  0  0  0  0  0  0  0
    6.5624   34.0570    2.6765 H   0  0  0  0  0  0  0  0  0  0  0  0
    8.2440   30.7325    2.2870 H   0  0  0  0  0  0  0  0  0  0  0  0
    7.4486   30.7233   -0.5636 H   0  0  0  0  0  0  0  0  0  0  0  0
    8.2757   29.3872    0.2004 H   0  0  0  0  0  0  0  0  0  0  0  0
    9.1041   30.9074   -0.0356 H   0  0  0  0  0  0  0  0  0  0  0  0
  1  2  1  0  0  0  0
  1 30  1  0  0  0  0
  1 31  1  0  0  0  0
  1 32  1  0  0  0  0
  2  3  2  0  0  0  0
  4  2  1  0  0  0  0
  4  5  1  0  0  0  0
  4 33  1  0  0  0  0
  5  8  1  0  0  0  0
  5 34  1  1  0  0  0
  6 11  1  0  0  0  0
  6  5  1  0  0  0  0
  7  6  2  0  0  0  0
  8 10  1  0  0  0  0
  8 35  1  1  0  0  0
  9  8  1  0  0  0  0
  9 36  1  0  0  0  0
 10 37  1  0  0  0  0
 10 38  1  0  0  0  0
 10 39  1  0  0  0  0
 11 40  1  0  0  0  0
 12 15  1  0  0  0  0
 12 11  1  0  0  0  0
 12 41  1  6  0  0  0
 13 12  1  0  0  0  0
 13 18  1  0  0  0  0
 14 13  2  0  0  0  0
 15 42  1  0  0  0  0
 16 15  1  0  0  0  0
 16 43  1  0  0  0  0
 16 44  1  0  0  0  0
 16 45  1  0  0  0  0
 17 15  1  0  0  0  0
 17 46  1  0  0  0  0
 17 47  1  0  0  0  0
 17 48  1  0  0  0  0
 18 49  1  0  0  0  0
 19 18  1  0  0  0  0
 19 22  1  0  0  0  0
 19 50  1  6  0  0  0
 20 19  1  0  0  0  0
 21 20  2  0  0  0  0
 22 51  1  0  0  0  0
 22 52  1  0  0  0  0
 22 53  1  0  0  0  0
 23 20  1  0  0  0  0
 23 54  1  0  0  0  0
 24 27  1  0  0  0  0
 24 23  1  0  0  0  0
 24 55  1  1  0  0  0
 25 24  1  0  0  0  0
 26 25  2  0  0  0  0
 27 56  1  0  0  0  0
 27 57  1  0  0  0  0
 27 58  1  0  0  0  0
 28 25  1  0  0  0  0
 28 59  1  0  0  0  0
 29 28  1  0  0  0  0
 29 60  1  0  0  0  0
 29 61  1  0  0  0  0
 29 62  1  0  0  0  0
M  END
>  <MODEL>
       0

$$$$
selected_4mers/TVAA/959_noH.pdb
 OpenBabel03042518353D

 62 61  0  0  1  0  0  0  0  0999 V2000
   24.0680   18.0590   -0.8190 C   0  0  0  0  0  0  0  0  0  0  0  0
   24.2160   18.4260    0.6560 C   0  0  0  0  0  0  0  0  0  0  0  0
   23.5620   17.8740    1.5330 O   0  0  0  0  0  0  0  0  0  0  0  0
   25.0990   19.3880    0.8740 N   0  0  0  0  0  0  0  0  0  0  0  0
   25.2370   20.0600    2.1470 C   0  0  2  0  0  0  0  0  0  0  0  0
   24.2900   21.2350    2.1390 C   0  0  0  0  0  0  0  0  0  0  0  0
   24.3740   22.1320    1.2680 O   0  0  0  0  0  0  0  0  0  0  0  0
   26.7050   20.4890    2.3960 C   0  0  2  0  0  0  0  0  0  0  0  0
   27.5000   19.3080    2.4160 O   0  0  0  0  0  0  0  0  0  0  0  0
   26.8410   21.1960    3.7660 C   0  0  0  0  0  0  0  0  0  0  0  0
   23.3910   21.2150    3.1230 N   0  0  0  0  0  0  0  0  0  0  0  0
   22.3130   22.1790    3.2580 C   0  0  2  0  0  0  0  0  0  0  0  0
   22.2400   22.7720    4.6620 C   0  0  0  0  0  0  0  0  0  0  0  0
   22.7220   22.1830    5.6120 O   0  0  0  0  0  0  0  0  0  0  0  0
   20.9360   21.5300    2.9140 C   0  0  0  0  0  0  0  0  0  0  0  0
   20.9550   20.9840    1.4550 C   0  0  0  0  0  0  0  0  0  0  0  0
   20.5030   20.4650    3.9310 C   0  0  0  0  0  0  0  0  0  0  0  0
   21.6070   23.9440    4.7450 N   0  0  0  0  0  0  0  0  0  0  0  0
   21.1850   24.5590    6.0170 C   0  0  2  0  0  0  0  0  0  0  0  0
   19.6710   24.6400    6.0200 C   0  0  0  0  0  0  0  0  0  0  0  0
   19.0280   24.7700    4.9620 O   0  0  0  0  0  0  0  0  0  0  0  0
   21.8090   25.9750    6.1930 C   0  0  0  0  0  0  0  0  0  0  0  0
   19.0840   24.5820    7.1970 N   0  0  0  0  0  0  0  0  0  0  0  0
   17.6160   24.7570    7.3490 C   0  0  2  0  0  0  0  0  0  0  0  0
   17.3160   25.4420    8.6370 C   0  0  0  0  0  0  0  0  0  0  0  0
   18.0600   25.2550    9.6070 O   0  0  0  0  0  0  0  0  0  0  0  0
   16.9100   23.4130    7.3040 C   0  0  0  0  0  0  0  0  0  0  0  0
   16.2120   26.2130    8.6970 N   0  0  0  0  0  0  0  0  0  0  0  0
   15.7390   26.7550    9.9620 C   0  0  0  0  0  0  0  0  0  0  0  0
   24.7303   18.6617   -1.4047 H   0  0  0  0  0  0  0  0  0  0  0  0
   23.0590   18.2322   -1.1301 H   0  0  0  0  0  0  0  0  0  0  0  0
   24.3111   17.0260   -0.9556 H   0  0  0  0  0  0  0  0  0  0  0  0
   25.6897   19.6587    0.1344 H   0  0  0  0  0  0  0  0  0  0  0  0
   24.9873   19.4027    2.9536 H   0  0  0  0  0  0  0  0  0  0  0  0
   27.0183   21.1647    1.6277 H   0  0  0  0  0  0  0  0  0  0  0  0
   27.1887   18.7206    3.1224 H   0  0  0  0  0  0  0  0  0  0  0  0
   26.5304   20.5298    4.5435 H   0  0  0  0  0  0  0  0  0  0  0  0
   26.2250   22.0708    3.7786 H   0  0  0  0  0  0  0  0  0  0  0  0
   27.8617   21.4762    3.9230 H   0  0  0  0  0  0  0  0  0  0  0  0
   23.4621   20.5033    3.7996 H   0  0  0  0  0  0  0  0  0  0  0  0
   22.5273   22.9667    2.5662 H   0  0  0  0  0  0  0  0  0  0  0  0
   20.1906   22.2949    2.9791 H   0  0  0  0  0  0  0  0  0  0  0  0
   21.6960   20.2167    1.3710 H   0  0  0  0  0  0  0  0  0  0  0  0
   21.1879   21.7802    0.7792 H   0  0  0  0  0  0  0  0  0  0  0  0
   19.9942   20.5801    1.2128 H   0  0  0  0  0  0  0  0  0  0  0  0
   21.2064   19.6587    3.9244 H   0  0  0  0  0  0  0  0  0  0  0  0
   19.5338   20.0950    3.6692 H   0  0  0  0  0  0  0  0  0  0  0  0
   20.4670   20.8989    4.9084 H   0  0  0  0  0  0  0  0  0  0  0  0
   21.4106   24.4255    3.9091 H   0  0  0  0  0  0  0  0  0  0  0  0
   21.5265   23.9613    6.8361 H   0  0  0  0  0  0  0  0  0  0  0  0
   21.4910   26.6072    5.3904 H   0  0  0  0  0  0  0  0  0  0  0  0
   22.8762   25.8980    6.1850 H   0  0  0  0  0  0  0  0  0  0  0  0
   21.4885   26.3927    7.1245 H   0  0  0  0  0  0  0  0  0  0  0  0
   19.6323   24.4183    7.9981 H   0  0  0  0  0  0  0  0  0  0  0  0
   17.2603   25.3575    6.5380 H   0  0  0  0  0  0  0  0  0  0  0  0
   17.2564   22.8010    8.1105 H   0  0  0  0  0  0  0  0  0  0  0  0
   17.1219   22.9298    6.3731 H   0  0  0  0  0  0  0  0  0  0  0  0
   15.8544   23.5613    7.3967 H   0  0  0  0  0  0  0  0  0  0  0  0
   15.7167   26.4131    7.8700 H   0  0  0  0  0  0  0  0  0  0  0  0
   16.3905   26.4408   10.7505 H   0  0  0  0  0  0  0  0  0  0  0  0
   14.7485   26.3990   10.1545 H   0  0  0  0  0  0  0  0  0  0  0  0
   15.7303   27.8238    9.9111 H   0  0  0  0  0  0  0  0  0  0  0  0
  1  2  1  0  0  0  0
  1 30  1  0  0  0  0
  1 31  1  0  0  0  0
  1 32  1  0  0  0  0
  2  4  1  0  0  0  0
  2  3  2  0  0  0  0
  4  5  1  0  0  0  0
  4 33  1  0  0  0  0
  5  8  1  0  0  0  0
  5 34  1  1  0  0  0
  6  5  1  0  0  0  0
  6 11  1  0  0  0  0
  7  6  2  0  0  0  0
  8  9  1  0  0  0  0
  8 10  1  0  0  0  0
  8 35  1  6  0  0  0
  9 36  1  0  0  0  0
 10 37  1  0  0  0  0
 10 38  1  0  0  0  0
 10 39  1  0  0  0  0
 11 12  1  0  0  0  0
 11 40  1  0  0  0  0
 12 13  1  0  0  0  0
 12 41  1  6  0  0  0
 13 18  1  0  0  0  0
 13 14  2  0  0  0  0
 15 12  1  0  0  0  0
 15 17  1  0  0  0  0
 15 42  1  0  0  0  0
 16 15  1  0  0  0  0
 16 43  1  0  0  0  0
 16 44  1  0  0  0  0
 16 45  1  0  0  0  0
 17 46  1  0  0  0  0
 17 47  1  0  0  0  0
 17 48  1  0  0  0  0
 18 19  1  0  0  0  0
 18 49  1  0  0  0  0
 19 20  1  0  0  0  0
 19 22  1  0  0  0  0
 19 50  1  1  0  0  0
 20 23  1  0  0  0  0
 21 20  2  0  0  0  0
 22 51  1  0  0  0  0
 22 52  1  0  0  0  0
 22 53  1  0  0  0  0
 23 24  1  0  0  0  0
 23 54  1  0  0  0  0
 24 25  1  0  0  0  0
 24 55  1  6  0  0  0
 25 28  1  0  0  0  0
 25 26  2  0  0  0  0
 27 24  1  0  0  0  0
 27 56  1  0  0  0  0
 27 57  1  0  0  0  0
 27 58  1  0  0  0  0
 28 29  1  0  0  0  0
 28 59  1  0  0  0  0
 29 60  1  0  0  0  0
 29 61  1  0  0  0  0
 29 62  1  0  0  0  0
M  END
>  <MODEL>
       0

$$$$
