selected_4mers/TVPS/985_noH.pdb
 OpenBabel03042518353D

 67 67  0  0  1  0  0  0  0  0999 V2000
   42.6580    9.4360   24.9000 C   0  0  0  0  0  0  0  0  0  0  0  0
   44.1530    9.3630   25.0840 C   0  0  0  0  0  0  0  0  0  0  0  0
   44.6510    8.5970   25.9120 O   0  0  0  0  0  0  0  0  0  0  0  0
   44.8700   10.1310   24.2800 N   0  0  0  0  0  0  0  0  0  0  0  0
   46.3190   10.1450   24.3580 C   0  0  2  0  0  0  0  0  0  0  0  0
   46.7930   11.5150   24.8060 C   0  0  0  0  0  0  0  0  0  0  0  0
   46.4200   12.5360   24.2300 O   0  0  0  0  0  0  0  0  0  0  0  0
   46.9390    9.7840   22.9980 C   0  0  2  0  0  0  0  0  0  0  0  0
   46.5020    8.4700   22.6210 O   0  0  0  0  0  0  0  0  0  0  0  0
   48.4560    9.7800   23.0890 C   0  0  0  0  0  0  0  0  0  0  0  0
   47.6200   11.5320   25.8420 N   0  0  0  0  0  0  0  0  0  0  0  0
   48.1230   12.7840   26.3810 C   0  0  2  0  0  0  0  0  0  0  0  0
   49.6210   12.6970   26.6400 C   0  0  0  0  0  0  0  0  0  0  0  0
   50.1910   11.6060   26.6880 O   0  0  0  0  0  0  0  0  0  0  0  0
   47.3990   13.1350   27.7070 C   0  0  0  0  0  0  0  0  0  0  0  0
   45.9140   13.3490   27.4430 C   0  0  0  0  0  0  0  0  0  0  0  0
   47.5930   12.0200   28.7290 C   0  0  0  0  0  0  0  0  0  0  0  0
   50.2830   13.8490   26.7850 N   0  0  0  0  0  0  0  0  0  0  0  0
   51.7270   13.8490   27.0440 C   0  0  2  0  0  0  0  0  0  0  0  0
   52.0090   13.1420   28.3640 C   0  0  0  0  0  0  0  0  0  0  0  0
   51.2610   13.2990   29.3270 O   0  0  0  0  0  0  0  0  0  0  0  0
   52.0630   15.3430   27.0930 C   0  0  0  0  0  0  0  0  0  0  0  0
   51.0870   15.9270   26.1310 C   0  0  0  0  0  0  0  0  0  0  0  0
   49.8060   15.2130   26.4850 C   0  0  0  0  0  0  0  0  0  0  0  0
   53.0790   12.3540   28.3990 N   0  0  0  0  0  0  0  0  0  0  0  0
   53.4600   11.6260   29.6060 C   0  0  2  0  0  0  0  0  0  0  0  0
   53.7600   12.5730   30.7520 C   0  0  0  0  0  0  0  0  0  0  0  0
   53.7280   12.1780   31.9130 O   0  0  0  0  0  0  0  0  0  0  0  0
   54.6970   10.7630   29.3460 C   0  0  0  0  0  0  0  0  0  0  0  0
   54.3940    9.7200   28.4450 O   0  0  0  0  0  0  0  0  0  0  0  0
   54.0570   13.8240   30.4230 N   0  0  0  0  0  0  0  0  0  0  0  0
   54.3660   14.8020   31.4510 C   0  0  0  0  0  0  0  0  0  0  0  0
   42.4267   10.1539   24.1411 H   0  0  0  0  0  0  0  0  0  0  0  0
   42.1992    9.7301   25.8209 H   0  0  0  0  0  0  0  0  0  0  0  0
   42.2873    8.4758   24.6075 H   0  0  0  0  0  0  0  0  0  0  0  0
   44.4141   10.7011   23.6194 H   0  0  0  0  0  0  0  0  0  0  0  0
   46.6334    9.4132   25.0725 H   0  0  0  0  0  0  0  0  0  0  0  0
   46.6307   10.5094   22.2744 H   0  0  0  0  0  0  0  0  0  0  0  0
   46.7914    7.8290   23.2890 H   0  0  0  0  0  0  0  0  0  0  0  0
   48.7680    9.0555   23.8119 H   0  0  0  0  0  0  0  0  0  0  0  0
   48.7981   10.7496   23.3852 H   0  0  0  0  0  0  0  0  0  0  0  0
   48.8699    9.5321   22.1340 H   0  0  0  0  0  0  0  0  0  0  0  0
   47.8981   10.6818   26.2531 H   0  0  0  0  0  0  0  0  0  0  0  0
   47.9342   13.5497   25.6579 H   0  0  0  0  0  0  0  0  0  0  0  0
   47.8191   14.0363   28.1020 H   0  0  0  0  0  0  0  0  0  0  0  0
   45.4889   12.4502   27.0477 H   0  0  0  0  0  0  0  0  0  0  0  0
   45.7880   14.1435   26.7374 H   0  0  0  0  0  0  0  0  0  0  0  0
   45.4221   13.6037   28.3584 H   0  0  0  0  0  0  0  0  0  0  0  0
   47.1774   11.1106   28.3479 H   0  0  0  0  0  0  0  0  0  0  0  0
   47.0997   12.2827   29.6415 H   0  0  0  0  0  0  0  0  0  0  0  0
   48.6380   11.8843   28.9147 H   0  0  0  0  0  0  0  0  0  0  0  0
   52.3137   13.3319   26.3138 H   0  0  0  0  0  0  0  0  0  0  0  0
   51.9200   15.7390   28.0767 H   0  0  0  0  0  0  0  0  0  0  0  0
   53.0823   15.5583   26.8488 H   0  0  0  0  0  0  0  0  0  0  0  0
   50.9916   16.9834   26.2715 H   0  0  0  0  0  0  0  0  0  0  0  0
   51.3734   15.8036   25.1075 H   0  0  0  0  0  0  0  0  0  0  0  0
   49.1218   15.2127   25.6624 H   0  0  0  0  0  0  0  0  0  0  0  0
   49.2691   15.6677   27.2912 H   0  0  0  0  0  0  0  0  0  0  0  0
   53.6298   12.2586   27.5886 H   0  0  0  0  0  0  0  0  0  0  0  0
   52.6314   11.0042   29.8739 H   0  0  0  0  0  0  0  0  0  0  0  0
   55.4708   11.3737   28.9298 H   0  0  0  0  0  0  0  0  0  0  0  0
   55.0207   10.3359   30.2721 H   0  0  0  0  0  0  0  0  0  0  0  0
   54.0992   10.0970   27.6013 H   0  0  0  0  0  0  0  0  0  0  0  0
   54.0679   14.0908   29.4754 H   0  0  0  0  0  0  0  0  0  0  0  0
   54.3062   14.3386   32.4136 H   0  0  0  0  0  0  0  0  0  0  0  0
   53.6642   15.6080   31.3990 H   0  0  0  0  0  0  0  0  0  0  0  0
   55.3552   15.1800   31.2979 H   0  0  0  0  0  0  0  0  0  0  0  0
  1  2  1  0  0  0  0
  1 33  1  0  0  0  0
  1 34  1  0  0  0  0
  1 35  1  0  0  0  0
  2  3  2  0  0  0  0
  4  5  1  0  0  0  0
  4  2  1  0  0  0  0
  4 36  1  0  0  0  0
  5  6  1  0  0  0  0
  5 37  1  1  0  0  0
  6 11  1  0  0  0  0
  7  6  2  0  0  0  0
  8 10  1  0  0  0  0
  8  5  1  0  0  0  0
  8 38  1  6  0  0  0
  9  8  1  0  0  0  0
  9 39  1  0  0  0  0
 10 40  1  0  0  0  0
 10 41  1  0  0  0  0
 10 42  1  0  0  0  0
 11 12  1  0  0  0  0
 11 43  1  0  0  0  0
 12 13  1  0  0  0  0
 12 15  1  0  0  0  0
 12 44  1  6  0  0  0
 13 14  2  0  0  0  0
 13 18  1  0  0  0  0
 15 17  1  0  0  0  0
 15 45  1  0  0  0  0
 16 15  1  0  0  0  0
 16 46  1  0  0  0  0
 16 47  1  0  0  0  0
 16 48  1  0  0  0  0
 17 49  1  0  0  0  0
 17 50  1  0  0  0  0
 17 51  1  0  0  0  0
 18 19  1  0  0  0  0
 19 22  1  0  0  0  0
 19 20  1  0  0  0  0
 19 52  1  6  0  0  0
 20 25  1  0  0  0  0
 20 21  2  0  0  0  0
 22 53  1  0  0  0  0
 22 54  1  0  0  0  0
 23 24  1  0  0  0  0
 23 22  1  0  0  0  0
 23 55  1  0  0  0  0
 23 56  1  0  0  0  0
 24 18  1  0  0  0  0
 24 57  1  0  0  0  0
 24 58  1  0  0  0  0
 25 26  1  0  0  0  0
 25 59  1  0  0  0  0
 26 27  1  0  0  0  0
 26 60  1  1  0  0  0
 27 28  2  0  0  0  0
 29 26  1  0  0  0  0
 29 61  1  0  0  0  0
 29 62  1  0  0  0  0
 30 29  1  0  0  0  0
 30 63  1  0  0  0  0
 31 27  1  0  0  0  0
 31 32  1  0  0  0  0
 31 64  1  0  0  0  0
 32 65  1  0  0  0  0
 32 66  1  0  0  0  0
 32 67  1  0  0  0  0
M  END
>  <MODEL>
       0

$$$$
selected_4mers/TVPS/986_noH.pdb
 OpenBabel03042518353D

 67 67  0  0  1  0  0  0  0  0999 V2000
  -14.9500   -3.0500   45.1360 C   0  0  0  0  0  0  0  0  0  0  0  0
  -15.4080   -1.5950   45.2440 C   0  0  0  0  0  0  0  0  0  0  0  0
  -15.0970   -0.7740   44.3790 O   0  0  0  0  0  0  0  0  0  0  0  0
  -16.1590   -1.2780   46.2960 N   0  0  0  0  0  0  0  0  0  0  0  0
  -16.6430    0.0840   46.4970 C   0  0  2  0  0  0  0  0  0  0  0  0
  -16.1810    0.6020   47.8520 C   0  0  0  0  0  0  0  0  0  0  0  0
  -16.0180   -0.1670   48.8010 O   0  0  0  0  0  0  0  0  0  0  0  0
  -18.1770    0.1540   46.4450 C   0  0  2  0  0  0  0  0  0  0  0  0
  -18.7240   -0.5310   47.5770 O   0  0  0  0  0  0  0  0  0  0  0  0
  -18.6930   -0.4980   45.1720 C   0  0  0  0  0  0  0  0  0  0  0  0
  -15.9790    1.9080   47.9410 N   0  0  0  0  0  0  0  0  0  0  0  0
  -15.5190    2.5100   49.1810 C   0  0  2  0  0  0  0  0  0  0  0  0
  -16.4800    2.3520   50.3620 C   0  0  0  0  0  0  0  0  0  0  0  0
  -16.0550    1.9900   51.4570 O   0  0  0  0  0  0  0  0  0  0  0  0
  -15.1840    4.0050   48.9680 C   0  0  0  0  0  0  0  0  0  0  0  0
  -14.7770    4.6490   50.2900 C   0  0  0  0  0  0  0  0  0  0  0  0
  -14.0450    4.1290   47.9490 C   0  0  0  0  0  0  0  0  0  0  0  0
  -17.7850    2.6160   50.1640 N   0  0  0  0  0  0  0  0  0  0  0  0
  -18.7010    2.4630   51.3040 C   0  0  2  0  0  0  0  0  0  0  0  0
  -18.7080    1.0270   51.8410 C   0  0  0  0  0  0  0  0  0  0  0  0
  -18.7590    0.8000   53.0550 O   0  0  0  0  0  0  0  0  0  0  0  0
  -20.0580    2.8670   50.7210 C   0  0  0  0  0  0  0  0  0  0  0  0
  -19.6960    3.7900   49.5890 C   0  0  0  0  0  0  0  0  0  0  0  0
  -18.4990    3.1110   48.9750 C   0  0  0  0  0  0  0  0  0  0  0  0
  -18.6640    0.0590   50.9320 N   0  0  0  0  0  0  0  0  0  0  0  0
  -18.6540   -1.3460   51.3290 C   0  0  2  0  0  0  0  0  0  0  0  0
  -17.3550   -1.6510   52.0800 C   0  0  0  0  0  0  0  0  0  0  0  0
  -17.3780   -2.2350   53.1660 O   0  0  0  0  0  0  0  0  0  0  0  0
  -18.7820   -2.2440   50.0920 C   0  0  0  0  0  0  0  0  0  0  0  0
  -18.8190   -3.6150   50.4480 O   0  0  0  0  0  0  0  0  0  0  0  0
  -16.2250   -1.2410   51.5050 N   0  0  0  0  0  0  0  0  0  0  0  0
  -14.9210   -1.4590   52.1280 C   0  0  0  0  0  0  0  0  0  0  0  0
  -14.3581   -3.1730   44.2532 H   0  0  0  0  0  0  0  0  0  0  0  0
  -15.8057   -3.6903   45.0838 H   0  0  0  0  0  0  0  0  0  0  0  0
  -14.3658   -3.3048   45.9955 H   0  0  0  0  0  0  0  0  0  0  0  0
  -16.3924   -1.9752   46.9507 H   0  0  0  0  0  0  0  0  0  0  0  0
  -16.2438    0.6857   45.7074 H   0  0  0  0  0  0  0  0  0  0  0  0
  -18.4756    1.1814   46.4587 H   0  0  0  0  0  0  0  0  0  0  0  0
  -18.4484   -1.4608   47.5565 H   0  0  0  0  0  0  0  0  0  0  0  0
  -18.3972   -1.5261   45.1527 H   0  0  0  0  0  0  0  0  0  0  0  0
  -18.2841    0.0068   44.3217 H   0  0  0  0  0  0  0  0  0  0  0  0
  -19.7607   -0.4335   45.1457 H   0  0  0  0  0  0  0  0  0  0  0  0
  -16.1428    2.4790   47.1559 H   0  0  0  0  0  0  0  0  0  0  0  0
  -14.6370    1.9658   49.4471 H   0  0  0  0  0  0  0  0  0  0  0  0
  -16.0504    4.5115   48.5970 H   0  0  0  0  0  0  0  0  0  0  0  0
  -13.9105    4.1540   50.6760 H   0  0  0  0  0  0  0  0  0  0  0  0
  -15.5801    4.5613   50.9916 H   0  0  0  0  0  0  0  0  0  0  0  0
  -14.5550    5.6833   50.1294 H   0  0  0  0  0  0  0  0  0  0  0  0
  -13.1783    3.6227   48.3195 H   0  0  0  0  0  0  0  0  0  0  0  0
  -13.8155    5.1626   47.7946 H   0  0  0  0  0  0  0  0  0  0  0  0
  -14.3464    3.6882   47.0218 H   0  0  0  0  0  0  0  0  0  0  0  0
  -18.4206    3.0584   52.1476 H   0  0  0  0  0  0  0  0  0  0  0  0
  -20.5893    2.0109   50.3609 H   0  0  0  0  0  0  0  0  0  0  0  0
  -20.7005    3.3264   51.4428 H   0  0  0  0  0  0  0  0  0  0  0  0
  -20.4977    3.8692   48.8847 H   0  0  0  0  0  0  0  0  0  0  0  0
  -19.4981    4.7925   49.9063 H   0  0  0  0  0  0  0  0  0  0  0  0
  -17.8999    3.8041   48.4222 H   0  0  0  0  0  0  0  0  0  0  0  0
  -18.7510    2.3442   48.2726 H   0  0  0  0  0  0  0  0  0  0  0  0
  -18.6377    0.2927   49.9760 H   0  0  0  0  0  0  0  0  0  0  0  0
  -19.4854   -1.5409   51.9737 H   0  0  0  0  0  0  0  0  0  0  0  0
  -19.6840   -1.9949   49.5732 H   0  0  0  0  0  0  0  0  0  0  0  0
  -17.9274   -2.0816   49.4690 H   0  0  0  0  0  0  0  0  0  0  0  0
  -19.5889   -3.7814   51.0141 H   0  0  0  0  0  0  0  0  0  0  0  0
  -16.2697   -0.7787   50.6370 H   0  0  0  0  0  0  0  0  0  0  0  0
  -15.0514   -1.9706   53.0587 H   0  0  0  0  0  0  0  0  0  0  0  0
  -14.4471   -0.5157   52.3029 H   0  0  0  0  0  0  0  0  0  0  0  0
  -14.3098   -2.0502   51.4786 H   0  0  0  0  0  0  0  0  0  0  0  0
  1  2  1  0  0  0  0
  1 33  1  0  0  0  0
  1 34  1  0  0  0  0
  1 35  1  0  0  0  0
  2  4  1  0  0  0  0
  3  2  2  0  0  0  0
  4  5  1  0  0  0  0
  4 36  1  0  0  0  0
  5  6  1  0  0  0  0
  5 37  1  6  0  0  0
  6 11  1  0  0  0  0
  6  7  2  0  0  0  0
  8  5  1  0  0  0  0
  8  9  1  0  0  0  0
  8 38  1  1  0  0  0
  9 39  1  0  0  0  0
 10  8  1  0  0  0  0
 10 40  1  0  0  0  0
 10 41  1  0  0  0  0
 10 42  1  0  0  0  0
 11 12  1  0  0  0  0
 11 43  1  0  0  0  0
 12 13  1  0  0  0  0
 12 44  1  1  0  0  0
 13 14  2  0  0  0  0
 15 12  1  0  0  0  0
 15 16  1  0  0  0  0
 15 45  1  0  0  0  0
 16 46  1  0  0  0  0
 16 47  1  0  0  0  0
 16 48  1  0  0  0  0
 17 15  1  0  0  0  0
 17 49  1  0  0  0  0
 17 50  1  0  0  0  0
 17 51  1  0  0  0  0
 18 13  1  0  0  0  0
 18 19  1  0  0  0  0
 19 20  1  0  0  0  0
 19 52  1  1  0  0  0
 20 21  2  0  0  0  0
 22 19  1  0  0  0  0
 22 53  1  0  0  0  0
 22 54  1  0  0  0  0
 23 22  1  0  0  0  0
 23 55  1  0  0  0  0
 23 56  1  0  0  0  0
 24 23  1  0  0  0  0
 24 18  1  0  0  0  0
 24 57  1  0  0  0  0
 24 58  1  0  0  0  0
 25 26  1  0  0  0  0
 25 20  1  0  0  0  0
 25 59  1  0  0  0  0
 26 27  1  0  0  0  0
 26 60  1  1  0  0  0
 27 28  2  0  0  0  0
 29 30  1  0  0  0  0
 29 26  1  0  0  0  0
 29 61  1  0  0  0  0
 29 62  1  0  0  0  0
 30 63  1  0  0  0  0
 31 27  1  0  0  0  0
 31 32  1  0  0  0  0
 31 64  1  0  0  0  0
 32 65  1  0  0  0  0
 32 66  1  0  0  0  0
 32 67  1  0  0  0  0
M  END
>  <MODEL>
       0

$$$$
selected_4mers/TVPS/987_noH.pdb
 OpenBabel03042518353D

 67 67  0  0  1  0  0  0  0  0999 V2000
   19.9690   57.2910   18.9350 C   0  0  0  0  0  0  0  0  0  0  0  0
   20.3330   56.3720   20.0900 C   0  0  0  0  0  0  0  0  0  0  0  0
   20.4830   56.8360   21.2210 O   0  0  0  0  0  0  0  0  0  0  0  0
   20.4520   55.0720   19.8380 N   0  0  0  0  0  0  0  0  0  0  0  0
   20.7180   54.1140   20.9160 C   0  0  2  0  0  0  0  0  0  0  0  0
   21.5570   52.9540   20.3750 C   0  0  0  0  0  0  0  0  0  0  0  0
   22.0850   53.0480   19.2730 O   0  0  0  0  0  0  0  0  0  0  0  0
   19.3940   53.6460   21.5650 C   0  0  2  0  0  0  0  0  0  0  0  0
   19.6720   52.9090   22.7660 O   0  0  0  0  0  0  0  0  0  0  0  0
   18.5890   52.8150   20.5960 C   0  0  0  0  0  0  0  0  0  0  0  0
   21.7650   51.9250   21.1720 N   0  0  0  0  0  0  0  0  0  0  0  0
   22.4760   50.7510   20.7140 C   0  0  2  0  0  0  0  0  0  0  0  0
   21.4760   49.6340   20.4670 C   0  0  0  0  0  0  0  0  0  0  0  0
   20.3740   49.6490   21.0230 O   0  0  0  0  0  0  0  0  0  0  0  0
   23.6120   50.3300   21.6810 C   0  0  0  0  0  0  0  0  0  0  0  0
   24.6260   51.4840   21.8240 C   0  0  0  0  0  0  0  0  0  0  0  0
   23.0750   49.8990   23.0550 C   0  0  0  0  0  0  0  0  0  0  0  0
   21.8280   48.6670   19.6140 N   0  0  0  0  0  0  0  0  0  0  0  0
   20.8200   47.6570   19.2650 C   0  0  2  0  0  0  0  0  0  0  0  0
   20.2160   46.9020   20.4630 C   0  0  0  0  0  0  0  0  0  0  0  0
   18.9960   46.7040   20.5060 O   0  0  0  0  0  0  0  0  0  0  0  0
   21.5950   46.7060   18.3100 C   0  0  0  0  0  0  0  0  0  0  0  0
   22.6640   47.5670   17.7170 C   0  0  0  0  0  0  0  0  0  0  0  0
   23.0680   48.5210   18.8250 C   0  0  0  0  0  0  0  0  0  0  0  0
   21.0280   46.5330   21.4450 N   0  0  0  0  0  0  0  0  0  0  0  0
   20.5400   45.7650   22.5950 C   0  0  2  0  0  0  0  0  0  0  0  0
   19.5330   46.5790   23.4080 C   0  0  0  0  0  0  0  0  0  0  0  0
   18.5580   46.0380   23.9560 O   0  0  0  0  0  0  0  0  0  0  0  0
   21.7100   45.3130   23.4740 C   0  0  0  0  0  0  0  0  0  0  0  0
   22.3990   46.4420   23.9470 O   0  0  0  0  0  0  0  0  0  0  0  0
   19.7590   47.8790   23.4860 N   0  0  0  0  0  0  0  0  0  0  0  0
   18.8310   48.7350   24.2420 C   0  0  0  0  0  0  0  0  0  0  0  0
   19.8809   56.7168   18.0364 H   0  0  0  0  0  0  0  0  0  0  0  0
   20.7332   58.0299   18.8126 H   0  0  0  0  0  0  0  0  0  0  0  0
   19.0367   57.7731   19.1430 H   0  0  0  0  0  0  0  0  0  0  0  0
   20.3601   54.7474   18.9131 H   0  0  0  0  0  0  0  0  0  0  0  0
   21.2847   54.5859   21.6913 H   0  0  0  0  0  0  0  0  0  0  0  0
   18.8109   54.5062   21.8197 H   0  0  0  0  0  0  0  0  0  0  0  0
   20.2008   52.1253   22.5493 H   0  0  0  0  0  0  0  0  0  0  0  0
   19.1482   51.9448   20.3222 H   0  0  0  0  0  0  0  0  0  0  0  0
   18.3773   53.3929   19.7207 H   0  0  0  0  0  0  0  0  0  0  0  0
   17.6707   52.5180   21.0580 H   0  0  0  0  0  0  0  0  0  0  0  0
   21.4300   51.9558   22.0972 H   0  0  0  0  0  0  0  0  0  0  0  0
   22.9693   50.9823   19.7931 H   0  0  0  0  0  0  0  0  0  0  0  0
   24.1028   49.4765   21.2620 H   0  0  0  0  0  0  0  0  0  0  0  0
   24.1370   52.3386   22.2429 H   0  0  0  0  0  0  0  0  0  0  0  0
   25.0193   51.7346   20.8610 H   0  0  0  0  0  0  0  0  0  0  0  0
   25.4249   51.1792   22.4673 H   0  0  0  0  0  0  0  0  0  0  0  0
   22.5729   50.7236   23.5163 H   0  0  0  0  0  0  0  0  0  0  0  0
   23.8896   49.5859   23.6741 H   0  0  0  0  0  0  0  0  0  0  0  0
   22.3887   49.0875   22.9312 H   0  0  0  0  0  0  0  0  0  0  0  0
   19.9551   48.1095   18.8268 H   0  0  0  0  0  0  0  0  0  0  0  0
   22.0237   45.8901   18.8536 H   0  0  0  0  0  0  0  0  0  0  0  0
   20.9620   46.2700   17.5656 H   0  0  0  0  0  0  0  0  0  0  0  0
   22.2855   48.1085   16.8753 H   0  0  0  0  0  0  0  0  0  0  0  0
   23.4931   46.9892   17.3653 H   0  0  0  0  0  0  0  0  0  0  0  0
   23.3814   49.4627   18.4251 H   0  0  0  0  0  0  0  0  0  0  0  0
   23.8943   48.1652   19.4043 H   0  0  0  0  0  0  0  0  0  0  0  0
   21.9799   46.7804   21.4007 H   0  0  0  0  0  0  0  0  0  0  0  0
   20.0387   44.8942   22.2272 H   0  0  0  0  0  0  0  0  0  0  0  0
   22.3750   44.7038   22.8982 H   0  0  0  0  0  0  0  0  0  0  0  0
   21.3380   44.7472   24.3025 H   0  0  0  0  0  0  0  0  0  0  0  0
   22.7356   46.9539   23.1950 H   0  0  0  0  0  0  0  0  0  0  0  0
   20.5440   48.2725   23.0407 H   0  0  0  0  0  0  0  0  0  0  0  0
   18.0456   48.1348   24.6517 H   0  0  0  0  0  0  0  0  0  0  0  0
   18.4129   49.4720   23.5886 H   0  0  0  0  0  0  0  0  0  0  0  0
   19.3597   49.2206   25.0355 H   0  0  0  0  0  0  0  0  0  0  0  0
  1  2  1  0  0  0  0
  1 33  1  0  0  0  0
  1 34  1  0  0  0  0
  1 35  1  0  0  0  0
  2  3  2  0  0  0  0
  4  2  1  0  0  0  0
  4  5  1  0  0  0  0
  4 36  1  0  0  0  0
  5  8  1  0  0  0  0
  5 37  1  1  0  0  0
  6  5  1  0  0  0  0
  6 11  1  0  0  0  0
  7  6  2  0  0  0  0
  8  9  1  0  0  0  0
  8 38  1  1  0  0  0
  9 39  1  0  0  0  0
 10  8  1  0  0  0  0
 10 40  1  0  0  0  0
 10 41  1  0  0  0  0
 10 42  1  0  0  0  0
 11 43  1  0  0  0  0
 12 11  1  0  0  0  0
 12 15  1  0  0  0  0
 12 44  1  6  0  0  0
 13 12  1  0  0  0  0
 13 14  2  0  0  0  0
 15 16  1  0  0  0  0
 15 17  1  0  0  0  0
 15 45  1  0  0  0  0
 16 46  1  0  0  0  0
 16 47  1  0  0  0  0
 16 48  1  0  0  0  0
 17 49  1  0  0  0  0
 17 50  1  0  0  0  0
 17 51  1  0  0  0  0
 18 13  1  0  0  0  0
 19 18  1  0  0  0  0
 19 20  1  0  0  0  0
 19 52  1  6  0  0  0
 20 21  2  0  0  0  0
 20 25  1  0  0  0  0
 22 19  1  0  0  0  0
 22 53  1  0  0  0  0
 22 54  1  0  0  0  0
 23 22  1  0  0  0  0
 23 24  1  0  0  0  0
 23 55  1  0  0  0  0
 23 56  1  0  0  0  0
 24 18  1  0  0  0  0
 24 57  1  0  0  0  0
 24 58  1  0  0  0  0
 25 26  1  0  0  0  0
 25 59  1  0  0  0  0
 26 27  1  0  0  0  0
 26 29  1  0  0  0  0
 26 60  1  6  0  0  0
 27 31  1  0  0  0  0
 27 28  2  0  0  0  0
 29 30  1  0  0  0  0
 29 61  1  0  0  0  0
 29 62  1  0  0  0  0
 30 63  1  0  0  0  0
 31 32  1  0  0  0  0
 31 64  1  0  0  0  0
 32 65  1  0  0  0  0
 32 66  1  0  0  0  0
 32 67  1  0  0  0  0
M  END
>  <MODEL>
       0

$$$$
selected_4mers/TVPS/988_noH.pdb
 OpenBabel03042518353D

 67 67  0  0  1  0  0  0  0  0999 V2000
    3.3740   -0.5000   39.3440 C   0  0  0  0  0  0  0  0  0  0  0  0
    4.8120   -0.8060   39.7220 C   0  0  0  0  0  0  0  0  0  0  0  0
    5.1470   -0.8850   40.9120 O   0  0  0  0  0  0  0  0  0  0  0  0
    5.6560   -0.9920   38.7160 N   0  0  0  0  0  0  0  0  0  0  0  0
    7.0730   -1.1540   38.9490 C   0  0  2  0  0  0  0  0  0  0  0  0
    7.7620    0.1930   38.7490 C   0  0  0  0  0  0  0  0  0  0  0  0
    7.6550    0.8090   37.6820 O   0  0  0  0  0  0  0  0  0  0  0  0
    7.6620   -2.2190   38.0200 C   0  0  2  0  0  0  0  0  0  0  0  0
    7.0250   -3.4750   38.2960 O   0  0  0  0  0  0  0  0  0  0  0  0
    9.1580   -2.3680   38.2430 C   0  0  0  0  0  0  0  0  0  0  0  0
    8.4610    0.6500   39.7870 N   0  0  0  0  0  0  0  0  0  0  0  0
    9.1020    1.9630   39.7800 C   0  0  2  0  0  0  0  0  0  0  0  0
   10.5570    1.9080   40.2710 C   0  0  0  0  0  0  0  0  0  0  0  0
   10.9810    0.8990   40.8400 O   0  0  0  0  0  0  0  0  0  0  0  0
    8.3450    2.9440   40.6820 C   0  0  0  0  0  0  0  0  0  0  0  0
    6.8620    3.0030   40.2890 C   0  0  0  0  0  0  0  0  0  0  0  0
    8.4960    2.5440   42.1420 C   0  0  0  0  0  0  0  0  0  0  0  0
   11.3350    2.9800   40.0510 N   0  0  0  0  0  0  0  0  0  0  0  0
   12.7030    2.9960   40.5830 C   0  0  2  0  0  0  0  0  0  0  0  0
   12.7000    2.9420   42.1050 C   0  0  0  0  0  0  0  0  0  0  0  0
   11.9120    3.6420   42.7430 O   0  0  0  0  0  0  0  0  0  0  0  0
   13.2470    4.3560   40.1360 C   0  0  0  0  0  0  0  0  0  0  0  0
   12.4420    4.7010   38.9390 C   0  0  0  0  0  0  0  0  0  0  0  0
   11.0690    4.1580   39.2040 C   0  0  0  0  0  0  0  0  0  0  0  0
   13.5690    2.1270   42.6920 N   0  0  0  0  0  0  0  0  0  0  0  0
   13.6380    2.0630   44.1410 C   0  0  2  0  0  0  0  0  0  0  0  0
   14.2900    3.3200   44.7270 C   0  0  0  0  0  0  0  0  0  0  0  0
   13.8640    3.8080   45.7720 O   0  0  0  0  0  0  0  0  0  0  0  0
   14.3540    0.7820   44.6010 C   0  0  0  0  0  0  0  0  0  0  0  0
   15.5780    0.6050   43.9140 O   0  0  0  0  0  0  0  0  0  0  0  0
   15.2970    3.8480   44.0350 N   0  0  0  0  0  0  0  0  0  0  0  0
   16.0780    4.9840   44.5210 C   0  0  0  0  0  0  0  0  0  0  0  0
    3.2833   -0.4734   38.2782 H   0  0  0  0  0  0  0  0  0  0  0  0
    3.0929    0.4494   39.7497 H   0  0  0  0  0  0  0  0  0  0  0  0
    2.7322   -1.2603   39.7377 H   0  0  0  0  0  0  0  0  0  0  0  0
    5.3111   -1.0202   37.7943 H   0  0  0  0  0  0  0  0  0  0  0  0
    7.2342   -1.4879   39.9527 H   0  0  0  0  0  0  0  0  0  0  0  0
    7.4950   -1.9213   37.0059 H   0  0  0  0  0  0  0  0  0  0  0  0
    7.1891   -3.7249   39.2188 H   0  0  0  0  0  0  0  0  0  0  0  0
    9.3399   -2.6658   39.2545 H   0  0  0  0  0  0  0  0  0  0  0  0
    9.6417   -1.4324   38.0542 H   0  0  0  0  0  0  0  0  0  0  0  0
    9.5456   -3.1107   37.5773 H   0  0  0  0  0  0  0  0  0  0  0  0
    8.5487    0.0830   40.5870 H   0  0  0  0  0  0  0  0  0  0  0  0
    9.0861    2.2913   38.7617 H   0  0  0  0  0  0  0  0  0  0  0  0
    8.7655    3.9193   40.5520 H   0  0  0  0  0  0  0  0  0  0  0  0
    6.4217    2.0356   40.4120 H   0  0  0  0  0  0  0  0  0  0  0  0
    6.7758    3.3068   39.2667 H   0  0  0  0  0  0  0  0  0  0  0  0
    6.3550    3.7077   40.9145 H   0  0  0  0  0  0  0  0  0  0  0  0
    8.0799    1.5693   42.2897 H   0  0  0  0  0  0  0  0  0  0  0  0
    7.9807    3.2492   42.7601 H   0  0  0  0  0  0  0  0  0  0  0  0
    9.5336    2.5321   42.4031 H   0  0  0  0  0  0  0  0  0  0  0  0
   13.2773    2.1607   40.2405 H   0  0  0  0  0  0  0  0  0  0  0  0
   13.1144    5.0880   40.9051 H   0  0  0  0  0  0  0  0  0  0  0  0
   14.2960    4.3266   39.9270 H   0  0  0  0  0  0  0  0  0  0  0  0
   12.4047    5.7622   38.8075 H   0  0  0  0  0  0  0  0  0  0  0  0
   12.8645    4.2891   38.0464 H   0  0  0  0  0  0  0  0  0  0  0  0
   10.5851    3.8749   38.2927 H   0  0  0  0  0  0  0  0  0  0  0  0
   10.4162    4.8696   39.6649 H   0  0  0  0  0  0  0  0  0  0  0  0
   14.1659    1.5667   42.1451 H   0  0  0  0  0  0  0  0  0  0  0  0
   12.6368    2.0258   44.5166 H   0  0  0  0  0  0  0  0  0  0  0  0
   14.5496    0.8493   45.6508 H   0  0  0  0  0  0  0  0  0  0  0  0
   13.7218   -0.0546   44.3878 H   0  0  0  0  0  0  0  0  0  0  0  0
   16.1633    1.3565   44.0973 H   0  0  0  0  0  0  0  0  0  0  0  0
   15.5250    3.4576   43.1604 H   0  0  0  0  0  0  0  0  0  0  0  0
   15.7075    5.2884   45.4775 H   0  0  0  0  0  0  0  0  0  0  0  0
   15.9929    5.7969   43.8304 H   0  0  0  0  0  0  0  0  0  0  0  0
   17.1052    4.6983   44.6108 H   0  0  0  0  0  0  0  0  0  0  0  0
  1  2  1  0  0  0  0
  1 33  1  0  0  0  0
  1 34  1  0  0  0  0
  1 35  1  0  0  0  0
  2  3  2  0  0  0  0
  4  5  1  0  0  0  0
  4  2  1  0  0  0  0
  4 36  1  0  0  0  0
  5 37  1  1  0  0  0
  6  5  1  0  0  0  0
  6 11  1  0  0  0  0
  7  6  2  0  0  0  0
  8 10  1  0  0  0  0
  8  9  1  0  0  0  0
  8  5  1  0  0  0  0
  8 38  1  6  0  0  0
  9 39  1  0  0  0  0
 10 40  1  0  0  0  0
 10 41  1  0  0  0  0
 10 42  1  0  0  0  0
 11 43  1  0  0  0  0
 12 11  1  0  0  0  0
 12 13  1  0  0  0  0
 12 15  1  0  0  0  0
 12 44  1  6  0  0  0
 13 14  2  0  0  0  0
 15 17  1  0  0  0  0
 15 45  1  0  0  0  0
 16 15  1  0  0  0  0
 16 46  1  0  0  0  0
 16 47  1  0  0  0  0
 16 48  1  0  0  0  0
 17 49  1  0  0  0  0
 17 50  1  0  0  0  0
 17 51  1  0  0  0  0
 18 13  1  0  0  0  0
 18 19  1  0  0  0  0
 19 20  1  0  0  0  0
 19 52  1  6  0  0  0
 20 25  1  0  0  0  0
 20 21  2  0  0  0  0
 22 19  1  0  0  0  0
 22 53  1  0  0  0  0
 22 54  1  0  0  0  0
 23 24  1  0  0  0  0
 23 22  1  0  0  0  0
 23 55  1  0  0  0  0
 23 56  1  0  0  0  0
 24 18  1  0  0  0  0
 24 57  1  0  0  0  0
 24 58  1  0  0  0  0
 25 26  1  0  0  0  0
 25 59  1  0  0  0  0
 26 29  1  0  0  0  0
 26 27  1  0  0  0  0
 26 60  1  1  0  0  0
 27 28  2  0  0  0  0
 29 61  1  0  0  0  0
 29 62  1  0  0  0  0
 30 29  1  0  0  0  0
 30 63  1  0  0  0  0
 31 32  1  0  0  0  0
 31 27  1  0  0  0  0
 31 64  1  0  0  0  0
 32 65  1  0  0  0  0
 32 66  1  0  0  0  0
 32 67  1  0  0  0  0
M  END
>  <MODEL>
       0

$$$$
selected_4mers/TVPS/989_noH.pdb
 OpenBabel03042518353D

 67 67  0  0  1  0  0  0  0  0999 V2000
   -5.3900   27.2370  -13.1150 C   0  0  0  0  0  0  0  0  0  0  0  0
   -4.6400   25.9190  -13.0530 C   0  0  0  0  0  0  0  0  0  0  0  0
   -5.0750   24.9690  -12.4030 O   0  0  0  0  0  0  0  0  0  0  0  0
   -3.5700   25.8230  -13.8170 N   0  0  0  0  0  0  0  0  0  0  0  0
   -2.7750   24.6220  -13.9740 C   0  0  2  0  0  0  0  0  0  0  0  0
   -1.4590   24.6510  -13.2640 C   0  0  0  0  0  0  0  0  0  0  0  0
   -0.8160   23.5850  -13.1920 O   0  0  0  0  0  0  0  0  0  0  0  0
   -2.4700   24.3060  -15.4860 C   0  0  2  0  0  0  0  0  0  0  0  0
   -1.6640   25.3380  -15.9310 O   0  0  0  0  0  0  0  0  0  0  0  0
   -3.7290   24.1720  -16.2630 C   0  0  0  0  0  0  0  0  0  0  0  0
   -1.0320   25.8000  -12.7490 N   0  0  0  0  0  0  0  0  0  0  0  0
    0.2550   25.8140  -12.0600 C   0  0  2  0  0  0  0  0  0  0  0  0
    0.2830   24.8420  -10.8980 C   0  0  0  0  0  0  0  0  0  0  0  0
    1.2590   24.0460  -10.8010 O   0  0  0  0  0  0  0  0  0  0  0  0
    0.6620   27.2490  -11.6440 C   0  0  0  0  0  0  0  0  0  0  0  0
    1.8840   27.2020  -10.7730 C   0  0  0  0  0  0  0  0  0  0  0  0
    0.8110   28.1010  -12.8950 C   0  0  0  0  0  0  0  0  0  0  0  0
   -0.6960   24.8020  -10.0190 N   0  0  0  0  0  0  0  0  0  0  0  0
   -1.7990   25.7520   -9.8200 C   0  0  2  0  0  0  0  0  0  0  0  0
   -1.4010   26.8080   -8.8010 C   0  0  0  0  0  0  0  0  0  0  0  0
   -0.3170   26.7010   -8.1900 O   0  0  0  0  0  0  0  0  0  0  0  0
   -2.8560   24.8310   -9.1940 C   0  0  0  0  0  0  0  0  0  0  0  0
   -2.0300   23.9910   -8.2570 C   0  0  0  0  0  0  0  0  0  0  0  0
   -0.7320   23.7450   -8.9780 C   0  0  0  0  0  0  0  0  0  0  0  0
   -2.2890   27.7640   -8.5810 N   0  0  0  0  0  0  0  0  0  0  0  0
   -2.2960   28.4800   -7.3330 C   0  0  2  0  0  0  0  0  0  0  0  0
   -3.2080   27.7630   -6.3370 C   0  0  0  0  0  0  0  0  0  0  0  0
   -4.2720   27.2700   -6.7440 O   0  0  0  0  0  0  0  0  0  0  0  0
   -2.7710   29.9190   -7.5180 C   0  0  0  0  0  0  0  0  0  0  0  0
   -1.7630   30.7410   -8.0880 O   0  0  0  0  0  0  0  0  0  0  0  0
   -2.8150   27.7280   -5.0850 N   0  0  0  0  0  0  0  0  0  0  0  0
   -3.5800   27.1160   -3.9900 C   0  0  0  0  0  0  0  0  0  0  0  0
   -4.8482   27.9272  -13.7273 H   0  0  0  0  0  0  0  0  0  0  0  0
   -5.4892   27.6377  -12.1278 H   0  0  0  0  0  0  0  0  0  0  0  0
   -6.3614   27.0753  -13.5335 H   0  0  0  0  0  0  0  0  0  0  0  0
   -3.2913   26.6244  -14.3164 H   0  0  0  0  0  0  0  0  0  0  0  0
   -3.3888   23.8647  -13.5329 H   0  0  0  0  0  0  0  0  0  0  0  0
   -1.9687   23.3692  -15.6123 H   0  0  0  0  0  0  0  0  0  0  0  0
   -2.1258   26.1828  -15.8129 H   0  0  0  0  0  0  0  0  0  0  0  0
   -4.2935   25.0777  -16.1864 H   0  0  0  0  0  0  0  0  0  0  0  0
   -4.3045   23.3590  -15.8722 H   0  0  0  0  0  0  0  0  0  0  0  0
   -3.4959   23.9828  -17.2900 H   0  0  0  0  0  0  0  0  0  0  0  0
   -1.5700   26.6205  -12.8302 H   0  0  0  0  0  0  0  0  0  0  0  0
    0.9947   25.4744  -12.7545 H   0  0  0  0  0  0  0  0  0  0  0  0
   -0.0954   27.7132  -11.0476 H   0  0  0  0  0  0  0  0  0  0  0  0
    2.6883   26.7455  -11.3112 H   0  0  0  0  0  0  0  0  0  0  0  0
    1.6734   26.6301   -9.8935 H   0  0  0  0  0  0  0  0  0  0  0  0
    2.1613   28.1969  -10.4935 H   0  0  0  0  0  0  0  0  0  0  0  0
    1.5616   27.6763  -13.5284 H   0  0  0  0  0  0  0  0  0  0  0  0
    1.0980   29.0939  -12.6182 H   0  0  0  0  0  0  0  0  0  0  0  0
   -0.1217   28.1321  -13.4185 H   0  0  0  0  0  0  0  0  0  0  0  0
   -2.1034   26.2704  -10.7052 H   0  0  0  0  0  0  0  0  0  0  0  0
   -3.3340   24.2275   -9.9371 H   0  0  0  0  0  0  0  0  0  0  0  0
   -3.6525   25.3572   -8.7106 H   0  0  0  0  0  0  0  0  0  0  0  0
   -2.5245   23.0649   -8.0502 H   0  0  0  0  0  0  0  0  0  0  0  0
   -1.8764   24.4784   -7.3169 H   0  0  0  0  0  0  0  0  0  0  0  0
    0.0985   23.8401   -8.3100 H   0  0  0  0  0  0  0  0  0  0  0  0
   -0.6686   22.7590   -9.3887 H   0  0  0  0  0  0  0  0  0  0  0  0
   -2.9495   27.9869   -9.2761 H   0  0  0  0  0  0  0  0  0  0  0  0
   -1.2939   28.5066   -6.9588 H   0  0  0  0  0  0  0  0  0  0  0  0
   -3.6247   29.9211   -8.1631 H   0  0  0  0  0  0  0  0  0  0  0  0
   -3.0146   30.3140   -6.5539 H   0  0  0  0  0  0  0  0  0  0  0  0
   -1.5259   30.4008   -8.9649 H   0  0  0  0  0  0  0  0  0  0  0  0
   -1.9484   28.1400   -4.8647 H   0  0  0  0  0  0  0  0  0  0  0  0
   -4.4927   26.7116   -4.3751 H   0  0  0  0  0  0  0  0  0  0  0  0
   -3.8022   27.8581   -3.2519 H   0  0  0  0  0  0  0  0  0  0  0  0
   -3.0023   26.3327   -3.5456 H   0  0  0  0  0  0  0  0  0  0  0  0
  1  2  1  0  0  0  0
  1 33  1  0  0  0  0
  1 34  1  0  0  0  0
  1 35  1  0  0  0  0
  2  3  2  0  0  0  0
  4  2  1  0  0  0  0
  4 36  1  0  0  0  0
  5  4  1  0  0  0  0
  5  6  1  0  0  0  0
  5 37  1  1  0  0  0
  6  7  2  0  0  0  0
  6 11  1  0  0  0  0
  8  5  1  0  0  0  0
  8 38  1  6  0  0  0
  9  8  1  0  0  0  0
  9 39  1  0  0  0  0
 10  8  1  0  0  0  0
 10 40  1  0  0  0  0
 10 41  1  0  0  0  0
 10 42  1  0  0  0  0
 11 12  1  0  0  0  0
 11 43  1  0  0  0  0
 12 15  1  0  0  0  0
 12 13  1  0  0  0  0
 12 44  1  6  0  0  0
 13 14  2  0  0  0  0
 13 18  1  0  0  0  0
 15 16  1  0  0  0  0
 15 45  1  0  0  0  0
 16 46  1  0  0  0  0
 16 47  1  0  0  0  0
 16 48  1  0  0  0  0
 17 15  1  0  0  0  0
 17 49  1  0  0  0  0
 17 50  1  0  0  0  0
 17 51  1  0  0  0  0
 18 19  1  0  0  0  0
 18 24  1  0  0  0  0
 19 22  1  0  0  0  0
 19 20  1  0  0  0  0
 19 52  1  6  0  0  0
 20 25  1  0  0  0  0
 20 21  2  0  0  0  0
 22 23  1  0  0  0  0
 22 53  1  0  0  0  0
 22 54  1  0  0  0  0
 23 55  1  0  0  0  0
 23 56  1  0  0  0  0
 24 23  1  0  0  0  0
 24 57  1  0  0  0  0
 24 58  1  0  0  0  0
 25 26  1  0  0  0  0
 25 59  1  0  0  0  0
 26 27  1  0  0  0  0
 26 60  1  1  0  0  0
 27 31  1  0  0  0  0
 28 27  2  0  0  0  0
 29 26  1  0  0  0  0
 29 61  1  0  0  0  0
 29 62  1  0  0  0  0
 30 29  1  0  0  0  0
 30 63  1  0  0  0  0
 31 32  1  0  0  0  0
 31 64  1  0  0  0  0
 32 65  1  0  0  0  0
 32 66  1  0  0  0  0
 32 67  1  0  0  0  0
M  END
>  <MODEL>
       0

$$$$
