selected_4mers/VAAG/870_noH.pdb
 OpenBabel03042518353D

 55 54  0  0  1  0  0  0  0  0999 V2000
  -42.1430   32.9880   13.0190 C   0  0  0  0  0  0  0  0  0  0  0  0
  -42.6190   34.3760   12.5680 C   0  0  0  0  0  0  0  0  0  0  0  0
  -43.7840   34.5700   12.2410 O   0  0  0  0  0  0  0  0  0  0  0  0
  -41.7160   35.3500   12.5400 N   0  0  0  0  0  0  0  0  0  0  0  0
  -42.0810   36.6860   12.0940 C   0  0  2  0  0  0  0  0  0  0  0  0
  -42.6640   36.6110   10.6790 C   0  0  0  0  0  0  0  0  0  0  0  0
  -43.6920   37.2350   10.3850 O   0  0  0  0  0  0  0  0  0  0  0  0
  -40.8460   37.6130   12.0820 C   0  0  0  0  0  0  0  0  0  0  0  0
  -41.2320   39.0090   11.5690 C   0  0  0  0  0  0  0  0  0  0  0  0
  -40.2660   37.6920   13.4930 C   0  0  0  0  0  0  0  0  0  0  0  0
  -42.0170   35.8260    9.8190 N   0  0  0  0  0  0  0  0  0  0  0  0
  -42.4590   35.6640    8.4380 C   0  0  2  0  0  0  0  0  0  0  0  0
  -43.8620   35.0570    8.3570 C   0  0  0  0  0  0  0  0  0  0  0  0
  -44.5930   35.3260    7.4070 O   0  0  0  0  0  0  0  0  0  0  0  0
  -41.4700   34.7910    7.6680 C   0  0  0  0  0  0  0  0  0  0  0  0
  -44.2350   34.2510    9.3520 N   0  0  0  0  0  0  0  0  0  0  0  0
  -45.5550   33.6170    9.3740 C   0  0  2  0  0  0  0  0  0  0  0  0
  -46.6350   34.5690    9.8690 C   0  0  0  0  0  0  0  0  0  0  0  0
  -47.8230   34.2310    9.8630 O   0  0  0  0  0  0  0  0  0  0  0  0
  -45.5230   32.3760   10.2570 C   0  0  0  0  0  0  0  0  0  0  0  0
  -46.2310   35.7620   10.2980 N   0  0  0  0  0  0  0  0  0  0  0  0
  -47.1990   36.7150   10.8050 C   0  0  0  0  0  0  0  0  0  0  0  0
  -47.5510   36.4260   12.2580 C   0  0  0  0  0  0  0  0  0  0  0  0
  -48.5630   36.9100   12.7710 O   0  0  0  0  0  0  0  0  0  0  0  0
  -46.7070   35.6420   12.9240 N   0  0  0  0  0  0  0  0  0  0  0  0
  -46.9280   35.2800   14.3170 C   0  0  0  0  0  0  0  0  0  0  0  0
  -42.9652   32.3037   12.9949 H   0  0  0  0  0  0  0  0  0  0  0  0
  -41.7590   33.0491   14.0158 H   0  0  0  0  0  0  0  0  0  0  0  0
  -41.3730   32.6437   12.3606 H   0  0  0  0  0  0  0  0  0  0  0  0
  -40.7913   35.1661   12.8236 H   0  0  0  0  0  0  0  0  0  0  0  0
  -42.8076   37.0838   12.7714 H   0  0  0  0  0  0  0  0  0  0  0  0
  -40.1041   37.2152   11.4215 H   0  0  0  0  0  0  0  0  0  0  0  0
  -41.9749   39.4325   12.2122 H   0  0  0  0  0  0  0  0  0  0  0  0
  -41.6235   38.9286   10.5764 H   0  0  0  0  0  0  0  0  0  0  0  0
  -40.3665   39.6380   11.5612 H   0  0  0  0  0  0  0  0  0  0  0  0
  -41.0026   38.0892   14.1597 H   0  0  0  0  0  0  0  0  0  0  0  0
  -39.4067   38.3295   13.4902 H   0  0  0  0  0  0  0  0  0  0  0  0
  -39.9824   36.7126   13.8174 H   0  0  0  0  0  0  0  0  0  0  0  0
  -41.2167   35.3407   10.1244 H   0  0  0  0  0  0  0  0  0  0  0  0
  -42.4975   36.6375    7.9956 H   0  0  0  0  0  0  0  0  0  0  0  0
  -41.4326   33.8180    8.1116 H   0  0  0  0  0  0  0  0  0  0  0  0
  -40.4979   35.2368    7.7036 H   0  0  0  0  0  0  0  0  0  0  0  0
  -41.7866   34.7067    6.6494 H   0  0  0  0  0  0  0  0  0  0  0  0
  -43.6072   34.0779   10.0903 H   0  0  0  0  0  0  0  0  0  0  0  0
  -45.7956   33.3417    8.3684 H   0  0  0  0  0  0  0  0  0  0  0  0
  -45.2819   32.6584   11.2605 H   0  0  0  0  0  0  0  0  0  0  0  0
  -44.7826   31.6962    9.8901 H   0  0  0  0  0  0  0  0  0  0  0  0
  -46.4820   31.9017   10.2405 H   0  0  0  0  0  0  0  0  0  0  0  0
  -45.2754   35.9974   10.2712 H   0  0  0  0  0  0  0  0  0  0  0  0
  -48.0883   36.6571   10.2128 H   0  0  0  0  0  0  0  0  0  0  0  0
  -46.7703   37.6938   10.7495 H   0  0  0  0  0  0  0  0  0  0  0  0
  -45.9096   35.2965   12.4613 H   0  0  0  0  0  0  0  0  0  0  0  0
  -47.8316   35.7354   14.6648 H   0  0  0  0  0  0  0  0  0  0  0  0
  -46.1052   35.6222   14.9093 H   0  0  0  0  0  0  0  0  0  0  0  0
  -47.0096   34.2164   14.4005 H   0  0  0  0  0  0  0  0  0  0  0  0
  1 27  1  0  0  0  0
  1 28  1  0  0  0  0
  1 29  1  0  0  0  0
  2  1  1  0  0  0  0
  3  2  2  0  0  0  0
  4  2  1  0  0  0  0
  4 30  1  0  0  0  0
  5  4  1  0  0  0  0
  5 31  1  1  0  0  0
  6  5  1  0  0  0  0
  7  6  2  0  0  0  0
  8  5  1  0  0  0  0
  8 10  1  0  0  0  0
  8 32  1  0  0  0  0
  9  8  1  0  0  0  0
  9 33  1  0  0  0  0
  9 34  1  0  0  0  0
  9 35  1  0  0  0  0
 10 36  1  0  0  0  0
 10 37  1  0  0  0  0
 10 38  1  0  0  0  0
 11  6  1  0  0  0  0
 11 39  1  0  0  0  0
 12 11  1  0  0  0  0
 12 40  1  6  0  0  0
 13 12  1  0  0  0  0
 13 16  1  0  0  0  0
 14 13  2  0  0  0  0
 15 12  1  0  0  0  0
 15 41  1  0  0  0  0
 15 42  1  0  0  0  0
 15 43  1  0  0  0  0
 16 17  1  0  0  0  0
 16 44  1  0  0  0  0
 17 18  1  0  0  0  0
 17 20  1  0  0  0  0
 17 45  1  6  0  0  0
 18 21  1  0  0  0  0
 19 18  2  0  0  0  0
 20 46  1  0  0  0  0
 20 47  1  0  0  0  0
 20 48  1  0  0  0  0
 21 22  1  0  0  0  0
 21 49  1  0  0  0  0
 22 23  1  0  0  0  0
 22 50  1  0  0  0  0
 22 51  1  0  0  0  0
 23 24  2  0  0  0  0
 23 25  1  0  0  0  0
 25 26  1  0  0  0  0
 25 52  1  0  0  0  0
 26 53  1  0  0  0  0
 26 54  1  0  0  0  0
 26 55  1  0  0  0  0
M  END
>  <MODEL>
       0

$$$$
selected_4mers/VAAG/871_noH.pdb
 OpenBabel03042518353D

 55 54  0  0  1  0  0  0  0  0999 V2000
   -5.4400  -49.1110  -28.1420 C   0  0  0  0  0  0  0  0  0  0  0  0
   -5.6920  -48.7870  -26.6710 C   0  0  0  0  0  0  0  0  0  0  0  0
   -6.7770  -49.0740  -26.1490 O   0  0  0  0  0  0  0  0  0  0  0  0
   -4.7130  -48.1670  -25.9940 N   0  0  0  0  0  0  0  0  0  0  0  0
   -4.9340  -47.6870  -24.6370 C   0  0  2  0  0  0  0  0  0  0  0  0
   -6.0600  -46.6300  -24.6820 C   0  0  0  0  0  0  0  0  0  0  0  0
   -6.9730  -46.6550  -23.8600 O   0  0  0  0  0  0  0  0  0  0  0  0
   -3.6370  -47.1170  -24.0370 C   0  0  0  0  0  0  0  0  0  0  0  0
   -3.8960  -46.4750  -22.6630 C   0  0  0  0  0  0  0  0  0  0  0  0
   -2.5900  -48.2190  -23.9080 C   0  0  0  0  0  0  0  0  0  0  0  0
   -5.9950  -45.7100  -25.6450 N   0  0  0  0  0  0  0  0  0  0  0  0
   -7.0830  -44.7380  -25.7950 C   0  0  2  0  0  0  0  0  0  0  0  0
   -8.4360  -45.3700  -26.1160 C   0  0  0  0  0  0  0  0  0  0  0  0
   -9.4420  -44.9980  -25.5410 O   0  0  0  0  0  0  0  0  0  0  0  0
   -6.7290  -43.6680  -26.8580 C   0  0  0  0  0  0  0  0  0  0  0  0
   -8.4840  -46.3050  -27.0680 N   0  0  0  0  0  0  0  0  0  0  0  0
   -9.7530  -46.9820  -27.3900 C   0  0  2  0  0  0  0  0  0  0  0  0
  -10.2940  -47.7650  -26.2030 C   0  0  0  0  0  0  0  0  0  0  0  0
  -11.4920  -47.7600  -25.9670 O   0  0  0  0  0  0  0  0  0  0  0  0
   -9.5650  -47.9530  -28.5790 C   0  0  0  0  0  0  0  0  0  0  0  0
   -9.4100  -48.4430  -25.4750 N   0  0  0  0  0  0  0  0  0  0  0  0
   -9.8140  -49.1850  -24.2770 C   0  0  0  0  0  0  0  0  0  0  0  0
  -10.4440  -48.2690  -23.2370 C   0  0  0  0  0  0  0  0  0  0  0  0
  -11.4260  -48.6260  -22.5600 O   0  0  0  0  0  0  0  0  0  0  0  0
   -9.8980  -47.0660  -23.1330 N   0  0  0  0  0  0  0  0  0  0  0  0
  -10.4140  -46.0700  -22.1950 C   0  0  0  0  0  0  0  0  0  0  0  0
   -6.2987  -49.6007  -28.5515 H   0  0  0  0  0  0  0  0  0  0  0  0
   -4.5892  -49.7545  -28.2248 H   0  0  0  0  0  0  0  0  0  0  0  0
   -5.2556  -48.2048  -28.6803 H   0  0  0  0  0  0  0  0  0  0  0  0
   -3.8352  -48.0352  -26.4198 H   0  0  0  0  0  0  0  0  0  0  0  0
   -5.2303  -48.4947  -24.0009 H   0  0  0  0  0  0  0  0  0  0  0  0
   -3.2719  -46.3581  -24.6971 H   0  0  0  0  0  0  0  0  0  0  0  0
   -4.2626  -47.2178  -21.9857 H   0  0  0  0  0  0  0  0  0  0  0  0
   -4.6220  -45.6956  -22.7646 H   0  0  0  0  0  0  0  0  0  0  0  0
   -2.9835  -46.0651  -22.2831 H   0  0  0  0  0  0  0  0  0  0  0  0
   -2.9522  -48.9796  -23.2484 H   0  0  0  0  0  0  0  0  0  0  0  0
   -1.6848  -47.8065  -23.5139 H   0  0  0  0  0  0  0  0  0  0  0  0
   -2.3987  -48.6437  -24.8713 H   0  0  0  0  0  0  0  0  0  0  0  0
   -5.2206  -45.6833  -26.2523 H   0  0  0  0  0  0  0  0  0  0  0  0
   -7.1850  -44.2725  -24.8370 H   0  0  0  0  0  0  0  0  0  0  0  0
   -6.6275  -44.1358  -27.8149 H   0  0  0  0  0  0  0  0  0  0  0  0
   -5.8071  -43.1937  -26.5934 H   0  0  0  0  0  0  0  0  0  0  0  0
   -7.5078  -42.9355  -26.8999 H   0  0  0  0  0  0  0  0  0  0  0  0
   -7.6649  -46.5442  -27.5590 H   0  0  0  0  0  0  0  0  0  0  0  0
  -10.4552  -46.2168  -27.6475 H   0  0  0  0  0  0  0  0  0  0  0  0
   -8.8615  -48.7133  -28.3108 H   0  0  0  0  0  0  0  0  0  0  0  0
   -9.1997  -47.4121  -29.4269 H   0  0  0  0  0  0  0  0  0  0  0  0
  -10.5037  -48.4054  -28.8219 H   0  0  0  0  0  0  0  0  0  0  0  0
   -8.4638  -48.4463  -25.7470 H   0  0  0  0  0  0  0  0  0  0  0  0
   -8.9512  -49.6528  -23.8508 H   0  0  0  0  0  0  0  0  0  0  0  0
  -10.5413  -49.9151  -24.5647 H   0  0  0  0  0  0  0  0  0  0  0  0
   -9.1268  -46.8375  -23.7007 H   0  0  0  0  0  0  0  0  0  0  0  0
  -11.2462  -46.4798  -21.6617 H   0  0  0  0  0  0  0  0  0  0  0  0
  -10.7289  -45.2013  -22.7346 H   0  0  0  0  0  0  0  0  0  0  0  0
   -9.6445  -45.8001  -21.5023 H   0  0  0  0  0  0  0  0  0  0  0  0
  1  2  1  0  0  0  0
  1 27  1  0  0  0  0
  1 28  1  0  0  0  0
  1 29  1  0  0  0  0
  2  3  2  0  0  0  0
  2  4  1  0  0  0  0
  4  5  1  0  0  0  0
  4 30  1  0  0  0  0
  5  8  1  0  0  0  0
  5 31  1  1  0  0  0
  6  5  1  0  0  0  0
  6  7  2  0  0  0  0
  8 10  1  0  0  0  0
  8  9  1  0  0  0  0
  8 32  1  0  0  0  0
  9 33  1  0  0  0  0
  9 34  1  0  0  0  0
  9 35  1  0  0  0  0
 10 36  1  0  0  0  0
 10 37  1  0  0  0  0
 10 38  1  0  0  0  0
 11  6  1  0  0  0  0
 11 39  1  0  0  0  0
 12 11  1  0  0  0  0
 12 40  1  1  0  0  0
 13 12  1  0  0  0  0
 13 14  2  0  0  0  0
 15 12  1  0  0  0  0
 15 41  1  0  0  0  0
 15 42  1  0  0  0  0
 15 43  1  0  0  0  0
 16 13  1  0  0  0  0
 16 44  1  0  0  0  0
 17 16  1  0  0  0  0
 17 18  1  0  0  0  0
 17 45  1  6  0  0  0
 18 19  2  0  0  0  0
 18 21  1  0  0  0  0
 20 17  1  0  0  0  0
 20 46  1  0  0  0  0
 20 47  1  0  0  0  0
 20 48  1  0  0  0  0
 21 22  1  0  0  0  0
 21 49  1  0  0  0  0
 22 23  1  0  0  0  0
 22 50  1  0  0  0  0
 22 51  1  0  0  0  0
 23 25  1  0  0  0  0
 23 24  2  0  0  0  0
 25 26  1  0  0  0  0
 25 52  1  0  0  0  0
 26 53  1  0  0  0  0
 26 54  1  0  0  0  0
 26 55  1  0  0  0  0
M  END
>  <MODEL>
       0

$$$$
selected_4mers/VAAG/872_noH.pdb
 OpenBabel03042518353D

 55 54  0  0  1  0  0  0  0  0999 V2000
   -6.9120    1.7100   41.0840 C   0  0  0  0  0  0  0  0  0  0  0  0
   -8.2890    1.2160   40.6770 C   0  0  0  0  0  0  0  0  0  0  0  0
   -8.4280    0.1290   40.0720 O   0  0  0  0  0  0  0  0  0  0  0  0
   -9.3320    1.9910   40.9510 N   0  0  0  0  0  0  0  0  0  0  0  0
  -10.7260    1.6930   40.5660 C   0  0  2  0  0  0  0  0  0  0  0  0
  -11.2120    2.8110   39.6310 C   0  0  0  0  0  0  0  0  0  0  0  0
  -11.0580    3.9930   39.9650 O   0  0  0  0  0  0  0  0  0  0  0  0
  -11.6450    1.6610   41.7700 C   0  0  0  0  0  0  0  0  0  0  0  0
  -13.1030    1.5710   41.3150 C   0  0  0  0  0  0  0  0  0  0  0  0
  -11.3660    0.4430   42.5870 C   0  0  0  0  0  0  0  0  0  0  0  0
  -11.7180    2.4930   38.4650 N   0  0  0  0  0  0  0  0  0  0  0  0
  -12.2740    3.4670   37.5290 C   0  0  2  0  0  0  0  0  0  0  0  0
  -13.7110    3.0150   37.3030 C   0  0  0  0  0  0  0  0  0  0  0  0
  -13.9700    1.8410   37.0440 O   0  0  0  0  0  0  0  0  0  0  0  0
  -11.5020    3.4230   36.2450 C   0  0  0  0  0  0  0  0  0  0  0  0
  -14.6900    3.8800   37.4270 N   0  0  0  0  0  0  0  0  0  0  0  0
  -16.1070    3.5600   37.1870 C   0  0  2  0  0  0  0  0  0  0  0  0
  -16.6740    4.6710   36.3290 C   0  0  0  0  0  0  0  0  0  0  0  0
  -16.3920    5.8620   36.5960 O   0  0  0  0  0  0  0  0  0  0  0  0
  -16.9220    3.4610   38.4710 C   0  0  0  0  0  0  0  0  0  0  0  0
  -17.4440    4.3340   35.3030 N   0  0  0  0  0  0  0  0  0  0  0  0
  -18.1640    5.3700   34.5400 C   0  0  0  0  0  0  0  0  0  0  0  0
  -19.3640    4.7550   33.8600 C   0  0  0  0  0  0  0  0  0  0  0  0
  -19.4440    3.5560   33.5260 O   0  0  0  0  0  0  0  0  0  0  0  0
  -20.3750    5.5840   33.6300 N   0  0  0  0  0  0  0  0  0  0  0  0
  -21.6160    5.1960   32.9890 C   0  0  0  0  0  0  0  0  0  0  0  0
   -6.1757    0.9869   40.8014 H   0  0  0  0  0  0  0  0  0  0  0  0
   -6.8832    1.8528   42.1440 H   0  0  0  0  0  0  0  0  0  0  0  0
   -6.7068    2.6385   40.5934 H   0  0  0  0  0  0  0  0  0  0  0  0
   -9.1636    2.8247   41.4468 H   0  0  0  0  0  0  0  0  0  0  0  0
  -10.7483    0.7331   40.0938 H   0  0  0  0  0  0  0  0  0  0  0  0
  -11.4786    2.5519   42.3387 H   0  0  0  0  0  0  0  0  0  0  0  0
  -13.2454    0.6740   40.7493 H   0  0  0  0  0  0  0  0  0  0  0  0
  -13.3394    2.4182   40.7057 H   0  0  0  0  0  0  0  0  0  0  0  0
  -13.7438    1.5579   42.1718 H   0  0  0  0  0  0  0  0  0  0  0  0
  -11.5401   -0.4311   41.9950 H   0  0  0  0  0  0  0  0  0  0  0  0
  -12.0115    0.4303   43.4403 H   0  0  0  0  0  0  0  0  0  0  0  0
  -10.3464    0.4569   42.9113 H   0  0  0  0  0  0  0  0  0  0  0  0
  -11.7238    1.5435   38.2049 H   0  0  0  0  0  0  0  0  0  0  0  0
  -12.2258    4.4705   37.8972 H   0  0  0  0  0  0  0  0  0  0  0  0
  -11.5288    2.4303   35.8466 H   0  0  0  0  0  0  0  0  0  0  0  0
  -10.4867    3.7060   36.4294 H   0  0  0  0  0  0  0  0  0  0  0  0
  -11.9394    4.1012   35.5424 H   0  0  0  0  0  0  0  0  0  0  0  0
  -14.4631    4.7992   37.6970 H   0  0  0  0  0  0  0  0  0  0  0  0
  -16.1644    2.6025   36.7129 H   0  0  0  0  0  0  0  0  0  0  0  0
  -16.8950    4.3997   38.9839 H   0  0  0  0  0  0  0  0  0  0  0  0
  -16.5079    2.6997   39.0985 H   0  0  0  0  0  0  0  0  0  0  0  0
  -17.9354    3.2141   38.2321 H   0  0  0  0  0  0  0  0  0  0  0  0
  -17.5353    3.3871   35.0496 H   0  0  0  0  0  0  0  0  0  0  0  0
  -18.4887    6.1419   35.2061 H   0  0  0  0  0  0  0  0  0  0  0  0
  -17.5111    5.7860   33.8014 H   0  0  0  0  0  0  0  0  0  0  0  0
  -20.2757    6.5218   33.9127 H   0  0  0  0  0  0  0  0  0  0  0  0
  -21.5788    4.1561   32.7399 H   0  0  0  0  0  0  0  0  0  0  0  0
  -21.7521    5.7717   32.0974 H   0  0  0  0  0  0  0  0  0  0  0  0
  -22.4331    5.3738   33.6566 H   0  0  0  0  0  0  0  0  0  0  0  0
  1 27  1  0  0  0  0
  1 28  1  0  0  0  0
  1 29  1  0  0  0  0
  2  4  1  0  0  0  0
  2  1  1  0  0  0  0
  3  2  2  0  0  0  0
  4 30  1  0  0  0  0
  5  4  1  0  0  0  0
  5  8  1  0  0  0  0
  5 31  1  6  0  0  0
  6  7  2  0  0  0  0
  6  5  1  0  0  0  0
  8 10  1  0  0  0  0
  8 32  1  0  0  0  0
  9  8  1  0  0  0  0
  9 33  1  0  0  0  0
  9 34  1  0  0  0  0
  9 35  1  0  0  0  0
 10 36  1  0  0  0  0
 10 37  1  0  0  0  0
 10 38  1  0  0  0  0
 11  6  1  0  0  0  0
 11 39  1  0  0  0  0
 12 11  1  0  0  0  0
 12 40  1  1  0  0  0
 13 16  1  0  0  0  0
 13 12  1  0  0  0  0
 14 13  2  0  0  0  0
 15 12  1  0  0  0  0
 15 41  1  0  0  0  0
 15 42  1  0  0  0  0
 15 43  1  0  0  0  0
 16 44  1  0  0  0  0
 17 16  1  0  0  0  0
 17 20  1  0  0  0  0
 17 45  1  6  0  0  0
 18 19  2  0  0  0  0
 18 17  1  0  0  0  0
 20 46  1  0  0  0  0
 20 47  1  0  0  0  0
 20 48  1  0  0  0  0
 21 18  1  0  0  0  0
 21 49  1  0  0  0  0
 22 21  1  0  0  0  0
 22 50  1  0  0  0  0
 22 51  1  0  0  0  0
 23 22  1  0  0  0  0
 24 23  2  0  0  0  0
 25 23  1  0  0  0  0
 25 52  1  0  0  0  0
 26 25  1  0  0  0  0
 26 53  1  0  0  0  0
 26 54  1  0  0  0  0
 26 55  1  0  0  0  0
M  END
>  <MODEL>
       0

$$$$
selected_4mers/VAAG/873_noH.pdb
 OpenBabel03042518353D

 55 54  0  0  1  0  0  0  0  0999 V2000
  -24.4690    7.0130    0.2300 C   0  0  0  0  0  0  0  0  0  0  0  0
  -25.5090    5.9300    0.1320 C   0  0  0  0  0  0  0  0  0  0  0  0
  -26.6450    6.1960   -0.3060 O   0  0  0  0  0  0  0  0  0  0  0  0
  -25.1580    4.7210    0.5680 N   0  0  0  0  0  0  0  0  0  0  0  0
  -26.1010    3.6010    0.5690 C   0  0  2  0  0  0  0  0  0  0  0  0
  -26.0440    2.8830    1.9090 C   0  0  0  0  0  0  0  0  0  0  0  0
  -25.0490    3.0390    2.6580 O   0  0  0  0  0  0  0  0  0  0  0  0
  -25.8180    2.5880   -0.5630 C   0  0  0  0  0  0  0  0  0  0  0  0
  -25.9900    3.2280   -1.9360 C   0  0  0  0  0  0  0  0  0  0  0  0
  -24.3940    1.9920   -0.4450 C   0  0  0  0  0  0  0  0  0  0  0  0
  -27.1080    2.1310    2.2150 N   0  0  0  0  0  0  0  0  0  0  0  0
  -27.1120    1.1870    3.3410 C   0  0  2  0  0  0  0  0  0  0  0  0
  -26.6340   -0.1790    2.8180 C   0  0  0  0  0  0  0  0  0  0  0  0
  -27.2900   -0.7790    1.9590 O   0  0  0  0  0  0  0  0  0  0  0  0
  -28.5100    1.0750    3.9570 C   0  0  0  0  0  0  0  0  0  0  0  0
  -25.4720   -0.6300    3.2930 N   0  0  0  0  0  0  0  0  0  0  0  0
  -24.8570   -1.8720    2.8240 C   0  0  2  0  0  0  0  0  0  0  0  0
  -25.0010   -2.9930    3.8540 C   0  0  0  0  0  0  0  0  0  0  0  0
  -24.5550   -4.1320    3.6250 O   0  0  0  0  0  0  0  0  0  0  0  0
  -23.3780   -1.6430    2.4510 C   0  0  0  0  0  0  0  0  0  0  0  0
  -25.6090   -2.6720    4.9950 N   0  0  0  0  0  0  0  0  0  0  0  0
  -25.8560   -3.6590    6.0440 C   0  0  0  0  0  0  0  0  0  0  0  0
  -24.6670   -3.9040    6.9470 C   0  0  0  0  0  0  0  0  0  0  0  0
  -24.6470   -4.8740    7.7250 O   0  0  0  0  0  0  0  0  0  0  0  0
  -23.6640   -3.0330    6.8350 N   0  0  0  0  0  0  0  0  0  0  0  0
  -22.5660   -2.9930    7.7770 C   0  0  0  0  0  0  0  0  0  0  0  0
  -24.8712    7.9291   -0.1495 H   0  0  0  0  0  0  0  0  0  0  0  0
  -23.6099    6.7356   -0.3444 H   0  0  0  0  0  0  0  0  0  0  0  0
  -24.1864    7.1445    1.2536 H   0  0  0  0  0  0  0  0  0  0  0  0
  -24.2416    4.5771    0.8978 H   0  0  0  0  0  0  0  0  0  0  0  0
  -27.0758    4.0097    0.4027 H   0  0  0  0  0  0  0  0  0  0  0  0
  -26.5319    1.7979   -0.4580 H   0  0  0  0  0  0  0  0  0  0  0  0
  -25.2802    4.0203   -2.0517 H   0  0  0  0  0  0  0  0  0  0  0  0
  -26.9811    3.6214   -2.0245 H   0  0  0  0  0  0  0  0  0  0  0  0
  -25.8294    2.4915   -2.6954 H   0  0  0  0  0  0  0  0  0  0  0  0
  -23.6705    2.7735   -0.5486 H   0  0  0  0  0  0  0  0  0  0  0  0
  -24.2466    1.2650   -1.2162 H   0  0  0  0  0  0  0  0  0  0  0  0
  -24.2807    1.5255    0.5113 H   0  0  0  0  0  0  0  0  0  0  0  0
  -27.9197    2.2136    1.6641 H   0  0  0  0  0  0  0  0  0  0  0  0
  -26.4562    1.5354    4.1114 H   0  0  0  0  0  0  0  0  0  0  0  0
  -29.1995    0.7280    3.2160 H   0  0  0  0  0  0  0  0  0  0  0  0
  -28.8213    2.0352    4.3120 H   0  0  0  0  0  0  0  0  0  0  0  0
  -28.4858    0.3836    4.7732 H   0  0  0  0  0  0  0  0  0  0  0  0
  -25.0098   -0.1063    3.9868 H   0  0  0  0  0  0  0  0  0  0  0  0
  -25.3779   -2.1817    1.9422 H   0  0  0  0  0  0  0  0  0  0  0  0
  -22.8353   -1.3318    3.3191 H   0  0  0  0  0  0  0  0  0  0  0  0
  -23.3131   -0.8847    1.6989 H   0  0  0  0  0  0  0  0  0  0  0  0
  -22.9595   -2.5537    2.0763 H   0  0  0  0  0  0  0  0  0  0  0  0
  -25.9006   -1.7423    5.1357 H   0  0  0  0  0  0  0  0  0  0  0  0
  -26.1226   -4.5852    5.5792 H   0  0  0  0  0  0  0  0  0  0  0  0
  -26.6388   -3.2684    6.6601 H   0  0  0  0  0  0  0  0  0  0  0  0
  -23.6704   -2.3948    6.0854 H   0  0  0  0  0  0  0  0  0  0  0  0
  -22.7096   -3.7452    8.5243 H   0  0  0  0  0  0  0  0  0  0  0  0
  -22.5302   -2.0302    8.2423 H   0  0  0  0  0  0  0  0  0  0  0  0
  -21.6464   -3.1741    7.2608 H   0  0  0  0  0  0  0  0  0  0  0  0
  1 27  1  0  0  0  0
  1 28  1  0  0  0  0
  1 29  1  0  0  0  0
  2  1  1  0  0  0  0
  2  4  1  0  0  0  0
  3  2  2  0  0  0  0
  4  5  1  0  0  0  0
  4 30  1  0  0  0  0
  5  6  1  0  0  0  0
  5 31  1  6  0  0  0
  6 11  1  0  0  0  0
  6  7  2  0  0  0  0
  8 10  1  0  0  0  0
  8  5  1  0  0  0  0
  8 32  1  0  0  0  0
  9  8  1  0  0  0  0
  9 33  1  0  0  0  0
  9 34  1  0  0  0  0
  9 35  1  0  0  0  0
 10 36  1  0  0  0  0
 10 37  1  0  0  0  0
 10 38  1  0  0  0  0
 11 12  1  0  0  0  0
 11 39  1  0  0  0  0
 12 15  1  0  0  0  0
 12 40  1  1  0  0  0
 13 16  1  0  0  0  0
 13 12  1  0  0  0  0
 14 13  2  0  0  0  0
 15 41  1  0  0  0  0
 15 42  1  0  0  0  0
 15 43  1  0  0  0  0
 16 44  1  0  0  0  0
 17 16  1  0  0  0  0
 17 18  1  0  0  0  0
 17 45  1  6  0  0  0
 18 21  1  0  0  0  0
 19 18  2  0  0  0  0
 20 17  1  0  0  0  0
 20 46  1  0  0  0  0
 20 47  1  0  0  0  0
 20 48  1  0  0  0  0
 21 22  1  0  0  0  0
 21 49  1  0  0  0  0
 22 23  1  0  0  0  0
 22 50  1  0  0  0  0
 22 51  1  0  0  0  0
 23 24  2  0  0  0  0
 25 23  1  0  0  0  0
 25 26  1  0  0  0  0
 25 52  1  0  0  0  0
 26 53  1  0  0  0  0
 26 54  1  0  0  0  0
 26 55  1  0  0  0  0
M  END
>  <MODEL>
       0

$$$$
selected_4mers/VAAG/874_noH.pdb
 OpenBabel03042518353D

 55 54  0  0  1  0  0  0  0  0999 V2000
   92.4480    9.5770   35.7050 C   0  0  0  0  0  0  0  0  0  0  0  0
   91.5330    8.9600   34.6570 C   0  0  0  0  0  0  0  0  0  0  0  0
   90.3260    9.1080   34.7530 O   0  0  0  0  0  0  0  0  0  0  0  0
   92.1100    8.2750   33.6660 N   0  0  0  0  0  0  0  0  0  0  0  0
   91.3420    7.4520   32.7390 C   0  0  2  0  0  0  0  0  0  0  0  0
   91.6440    5.9780   33.0240 C   0  0  0  0  0  0  0  0  0  0  0  0
   92.7910    5.5850   32.9610 O   0  0  0  0  0  0  0  0  0  0  0  0
   91.7330    7.7560   31.2890 C   0  0  0  0  0  0  0  0  0  0  0  0
   90.9380    6.8580   30.3390 C   0  0  0  0  0  0  0  0  0  0  0  0
   91.5190    9.2400   30.9670 C   0  0  0  0  0  0  0  0  0  0  0  0
   90.6260    5.1860   33.3570 N   0  0  0  0  0  0  0  0  0  0  0  0
   90.7760    3.7660   33.6460 C   0  0  2  0  0  0  0  0  0  0  0  0
   90.7560    2.9480   32.3570 C   0  0  0  0  0  0  0  0  0  0  0  0
   90.0590    3.2830   31.3990 O   0  0  0  0  0  0  0  0  0  0  0  0
   89.6730    3.3080   34.5830 C   0  0  0  0  0  0  0  0  0  0  0  0
   91.5410    1.8770   32.3380 N   0  0  0  0  0  0  0  0  0  0  0  0
   91.6530    0.9840   31.2080 C   0  0  2  0  0  0  0  0  0  0  0  0
   90.2940    0.4570   30.7880 C   0  0  0  0  0  0  0  0  0  0  0  0
   90.0010    0.3470   29.6100 O   0  0  0  0  0  0  0  0  0  0  0  0
   92.5830   -0.1930   31.5750 C   0  0  0  0  0  0  0  0  0  0  0  0
   89.4500    0.1670   31.7650 N   0  0  0  0  0  0  0  0  0  0  0  0
   88.1040   -0.3620   31.5210 C   0  0  0  0  0  0  0  0  0  0  0  0
   87.1840    0.6050   30.7870 C   0  0  0  0  0  0  0  0  0  0  0  0
   86.1730    0.2010   30.2130 O   0  0  0  0  0  0  0  0  0  0  0  0
   87.5410    1.8800   30.8030 N   0  0  0  0  0  0  0  0  0  0  0  0
   86.7230    2.8970   30.2180 C   0  0  0  0  0  0  0  0  0  0  0  0
   93.4663    9.3502   35.4674 H   0  0  0  0  0  0  0  0  0  0  0  0
   92.2087    9.1763   36.6678 H   0  0  0  0  0  0  0  0  0  0  0  0
   92.3123   10.6383   35.7166 H   0  0  0  0  0  0  0  0  0  0  0  0
   93.0871    8.3276   33.5577 H   0  0  0  0  0  0  0  0  0  0  0  0
   90.3016    7.6643   32.8713 H   0  0  0  0  0  0  0  0  0  0  0  0
   92.7744    7.5483   31.1575 H   0  0  0  0  0  0  0  0  0  0  0  0
   89.8923    7.0519   30.4564 H   0  0  0  0  0  0  0  0  0  0  0  0
   91.1383    5.8319   30.5669 H   0  0  0  0  0  0  0  0  0  0  0  0
   91.2274    7.0622   29.3293 H   0  0  0  0  0  0  0  0  0  0  0  0
   90.4846    9.4857   31.0881 H   0  0  0  0  0  0  0  0  0  0  0  0
   91.8154    9.4322   29.9570 H   0  0  0  0  0  0  0  0  0  0  0  0
   92.1076    9.8376   31.6313 H   0  0  0  0  0  0  0  0  0  0  0  0
   89.7257    5.5807   33.4106 H   0  0  0  0  0  0  0  0  0  0  0  0
   91.7213    3.6121   34.1232 H   0  0  0  0  0  0  0  0  0  0  0  0
   88.7225    3.4577   34.1151 H   0  0  0  0  0  0  0  0  0  0  0  0
   89.7173    3.8743   35.4898 H   0  0  0  0  0  0  0  0  0  0  0  0
   89.8018    2.2692   34.8046 H   0  0  0  0  0  0  0  0  0  0  0  0
   92.0773    1.6804   33.1399 H   0  0  0  0  0  0  0  0  0  0  0  0
   92.0646    1.5288   30.3842 H   0  0  0  0  0  0  0  0  0  0  0  0
   92.1660   -0.7335   32.3989 H   0  0  0  0  0  0  0  0  0  0  0  0
   93.5463    0.1850   31.8473 H   0  0  0  0  0  0  0  0  0  0  0  0
   92.6811   -0.8460   30.7331 H   0  0  0  0  0  0  0  0  0  0  0  0
   89.7378    0.3125   32.6952 H   0  0  0  0  0  0  0  0  0  0  0  0
   88.1933   -1.2526   30.9347 H   0  0  0  0  0  0  0  0  0  0  0  0
   87.6633   -0.5430   32.4791 H   0  0  0  0  0  0  0  0  0  0  0  0
   88.3915    2.1345   31.2286 H   0  0  0  0  0  0  0  0  0  0  0  0
   85.8429    2.4520   29.8029 H   0  0  0  0  0  0  0  0  0  0  0  0
   87.2703    3.3938   29.4443 H   0  0  0  0  0  0  0  0  0  0  0  0
   86.4438    3.6061   30.9691 H   0  0  0  0  0  0  0  0  0  0  0  0
  1 27  1  0  0  0  0
  1 28  1  0  0  0  0
  1 29  1  0  0  0  0
  2  3  2  0  0  0  0
  2  1  1  0  0  0  0
  4  2  1  0  0  0  0
  4 30  1  0  0  0  0
  5  6  1  0  0  0  0
  5  4  1  0  0  0  0
  5 31  1  1  0  0  0
  6 11  1  0  0  0  0
  7  6  2  0  0  0  0
  8  5  1  0  0  0  0
  8 32  1  0  0  0  0
  9  8  1  0  0  0  0
  9 33  1  0  0  0  0
  9 34  1  0  0  0  0
  9 35  1  0  0  0  0
 10  8  1  0  0  0  0
 10 36  1  0  0  0  0
 10 37  1  0  0  0  0
 10 38  1  0  0  0  0
 11 12  1  0  0  0  0
 11 39  1  0  0  0  0
 12 15  1  0  0  0  0
 12 40  1  1  0  0  0
 13 12  1  0  0  0  0
 14 13  2  0  0  0  0
 15 41  1  0  0  0  0
 15 42  1  0  0  0  0
 15 43  1  0  0  0  0
 16 13  1  0  0  0  0
 16 44  1  0  0  0  0
 17 20  1  0  0  0  0
 17 16  1  0  0  0  0
 17 45  1  6  0  0  0
 18 17  1  0  0  0  0
 18 21  1  0  0  0  0
 19 18  2  0  0  0  0
 20 46  1  0  0  0  0
 20 47  1  0  0  0  0
 20 48  1  0  0  0  0
 21 49  1  0  0  0  0
 22 21  1  0  0  0  0
 22 50  1  0  0  0  0
 22 51  1  0  0  0  0
 23 25  1  0  0  0  0
 23 22  1  0  0  0  0
 24 23  2  0  0  0  0
 25 52  1  0  0  0  0
 26 25  1  0  0  0  0
 26 53  1  0  0  0  0
 26 54  1  0  0  0  0
 26 55  1  0  0  0  0
M  END
>  <MODEL>
       0

$$$$
