selected_4mers/VAAL/815_noH.pdb
 OpenBabel03042518353D

 67 66  0  0  1  0  0  0  0  0999 V2000
   12.1120   14.3560   21.8500 C   0  0  0  0  0  0  0  0  0  0  0  0
   10.6540   14.6930   22.0980 C   0  0  0  0  0  0  0  0  0  0  0  0
   10.0680   14.2270   23.0650 O   0  0  0  0  0  0  0  0  0  0  0  0
   10.0780   15.5010   21.2140 N   0  0  0  0  0  0  0  0  0  0  0  0
    8.7790   16.1130   21.4600 C   0  0  2  0  0  0  0  0  0  0  0  0
    7.7000   15.6090   20.4800 C   0  0  0  0  0  0  0  0  0  0  0  0
    7.8880   15.6580   19.2620 O   0  0  0  0  0  0  0  0  0  0  0  0
    8.8840   17.6690   21.4090 C   0  0  0  0  0  0  0  0  0  0  0  0
    7.5040   18.3260   21.6210 C   0  0  0  0  0  0  0  0  0  0  0  0
    9.8940   18.1980   22.4590 C   0  0  0  0  0  0  0  0  0  0  0  0
    6.5870   15.1240   21.0310 N   0  0  0  0  0  0  0  0  0  0  0  0
    5.3750   14.7910   20.2560 C   0  0  2  0  0  0  0  0  0  0  0  0
    4.3000   15.8820   20.3840 C   0  0  0  0  0  0  0  0  0  0  0  0
    4.3480   16.7020   21.3060 O   0  0  0  0  0  0  0  0  0  0  0  0
    4.8110   13.4530   20.7110 C   0  0  0  0  0  0  0  0  0  0  0  0
    3.3030   15.8470   19.4910 N   0  0  0  0  0  0  0  0  0  0  0  0
    2.3040   16.9270   19.3770 C   0  0  2  0  0  0  0  0  0  0  0  0
    0.9200   16.5060   19.8690 C   0  0  0  0  0  0  0  0  0  0  0  0
    0.4130   15.4370   19.4980 O   0  0  0  0  0  0  0  0  0  0  0  0
    2.2140   17.4020   17.9440 C   0  0  0  0  0  0  0  0  0  0  0  0
    0.3270   17.3560   20.7040 N   0  0  0  0  0  0  0  0  0  0  0  0
   -0.9880   17.0960   21.2890 C   0  0  2  0  0  0  0  0  0  0  0  0
   -2.0840   17.8410   20.5580 C   0  0  0  0  0  0  0  0  0  0  0  0
   -1.8710   18.9540   20.0610 O   0  0  0  0  0  0  0  0  0  0  0  0
   -1.0110   17.5370   22.7530 C   0  0  0  0  0  0  0  0  0  0  0  0
   -0.1060   16.7690   23.7120 C   0  0  0  0  0  0  0  0  0  0  0  0
    0.0020   17.4860   25.0450 C   0  0  0  0  0  0  0  0  0  0  0  0
   -0.5940   15.3150   23.8840 C   0  0  0  0  0  0  0  0  0  0  0  0
   -3.2660   17.2310   20.5340 N   0  0  0  0  0  0  0  0  0  0  0  0
   -4.4890   17.9030   20.0920 C   0  0  0  0  0  0  0  0  0  0  0  0
   12.4473   14.8534   20.9640 H   0  0  0  0  0  0  0  0  0  0  0  0
   12.2177   13.2984   21.7270 H   0  0  0  0  0  0  0  0  0  0  0  0
   12.6995   14.6785   22.6841 H   0  0  0  0  0  0  0  0  0  0  0  0
   10.5431   15.6917   20.3675 H   0  0  0  0  0  0  0  0  0  0  0  0
    8.4745   15.8191   22.4427 H   0  0  0  0  0  0  0  0  0  0  0  0
    9.2402   17.9334   20.4353 H   0  0  0  0  0  0  0  0  0  0  0  0
    7.1330   18.0712   22.5917 H   0  0  0  0  0  0  0  0  0  0  0  0
    6.8228   17.9735   20.8750 H   0  0  0  0  0  0  0  0  0  0  0  0
    7.5993   19.3889   21.5433 H   0  0  0  0  0  0  0  0  0  0  0  0
    9.5542   17.9427   23.4410 H   0  0  0  0  0  0  0  0  0  0  0  0
    9.9725   19.2617   22.3741 H   0  0  0  0  0  0  0  0  0  0  0  0
   10.8525   17.7548   22.2868 H   0  0  0  0  0  0  0  0  0  0  0  0
    6.5725   14.9805   22.0049 H   0  0  0  0  0  0  0  0  0  0  0  0
    5.6580   14.7274   19.2261 H   0  0  0  0  0  0  0  0  0  0  0  0
    4.5280   13.5169   21.7409 H   0  0  0  0  0  0  0  0  0  0  0  0
    5.5550   12.6933   20.5920 H   0  0  0  0  0  0  0  0  0  0  0  0
    3.9533   13.2079   20.1200 H   0  0  0  0  0  0  0  0  0  0  0  0
    3.2339   15.0719   18.8880 H   0  0  0  0  0  0  0  0  0  0  0  0
    2.6357   17.7249   20.0080 H   0  0  0  0  0  0  0  0  0  0  0  0
    1.8817   16.5974   17.3218 H   0  0  0  0  0  0  0  0  0  0  0  0
    3.1778   17.7317   17.6163 H   0  0  0  0  0  0  0  0  0  0  0  0
    1.5188   18.2129   17.8800 H   0  0  0  0  0  0  0  0  0  0  0  0
    0.7915   18.1922   20.9369 H   0  0  0  0  0  0  0  0  0  0  0  0
   -1.1636   16.0437   21.2073 H   0  0  0  0  0  0  0  0  0  0  0  0
   -2.0163   17.4383   23.1060 H   0  0  0  0  0  0  0  0  0  0  0  0
   -0.6354   18.5389   22.7519 H   0  0  0  0  0  0  0  0  0  0  0  0
    0.8759   16.7296   23.2886 H   0  0  0  0  0  0  0  0  0  0  0  0
   -0.9655   17.5437   25.4983 H   0  0  0  0  0  0  0  0  0  0  0  0
    0.3822   18.4739   24.8888 H   0  0  0  0  0  0  0  0  0  0  0  0
    0.6654   16.9459   25.6878 H   0  0  0  0  0  0  0  0  0  0  0  0
   -1.5769   15.3163   24.3069 H   0  0  0  0  0  0  0  0  0  0  0  0
    0.0734   14.7894   24.5345 H   0  0  0  0  0  0  0  0  0  0  0  0
   -0.6169   14.8312   22.9299 H   0  0  0  0  0  0  0  0  0  0  0  0
   -3.3202   16.2919   20.8246 H   0  0  0  0  0  0  0  0  0  0  0  0
   -4.2612   18.9102   19.8118 H   0  0  0  0  0  0  0  0  0  0  0  0
   -5.2019   17.9073   20.8899 H   0  0  0  0  0  0  0  0  0  0  0  0
   -4.8979   17.3827   19.2512 H   0  0  0  0  0  0  0  0  0  0  0  0
  1  2  1  0  0  0  0
  1 31  1  0  0  0  0
  1 32  1  0  0  0  0
  1 33  1  0  0  0  0
  2  3  2  0  0  0  0
  4  5  1  0  0  0  0
  4  2  1  0  0  0  0
  4 34  1  0  0  0  0
  5 35  1  1  0  0  0
  6 11  1  0  0  0  0
  6  5  1  0  0  0  0
  7  6  2  0  0  0  0
  8  5  1  0  0  0  0
  8  9  1  0  0  0  0
  8 10  1  0  0  0  0
  8 36  1  0  0  0  0
  9 37  1  0  0  0  0
  9 38  1  0  0  0  0
  9 39  1  0  0  0  0
 10 40  1  0  0  0  0
 10 41  1  0  0  0  0
 10 42  1  0  0  0  0
 11 43  1  0  0  0  0
 12 13  1  0  0  0  0
 12 15  1  0  0  0  0
 12 11  1  0  0  0  0
 12 44  1  6  0  0  0
 13 14  2  0  0  0  0
 15 45  1  0  0  0  0
 15 46  1  0  0  0  0
 15 47  1  0  0  0  0
 16 13  1  0  0  0  0
 16 48  1  0  0  0  0
 17 16  1  0  0  0  0
 17 18  1  0  0  0  0
 17 49  1  1  0  0  0
 18 21  1  0  0  0  0
 19 18  2  0  0  0  0
 20 17  1  0  0  0  0
 20 50  1  0  0  0  0
 20 51  1  0  0  0  0
 20 52  1  0  0  0  0
 21 22  1  0  0  0  0
 21 53  1  0  0  0  0
 22 25  1  0  0  0  0
 22 54  1  6  0  0  0
 23 22  1  0  0  0  0
 24 23  2  0  0  0  0
 25 26  1  0  0  0  0
 25 55  1  0  0  0  0
 25 56  1  0  0  0  0
 26 28  1  0  0  0  0
 26 27  1  0  0  0  0
 26 57  1  0  0  0  0
 27 58  1  0  0  0  0
 27 59  1  0  0  0  0
 27 60  1  0  0  0  0
 28 61  1  0  0  0  0
 28 62  1  0  0  0  0
 28 63  1  0  0  0  0
 29 23  1  0  0  0  0
 29 64  1  0  0  0  0
 30 29  1  0  0  0  0
 30 65  1  0  0  0  0
 30 66  1  0  0  0  0
 30 67  1  0  0  0  0
M  END
>  <MODEL>
       0

$$$$
selected_4mers/VAAL/816_noH.pdb
 OpenBabel03042518353D

 67 66  0  0  1  0  0  0  0  0999 V2000
    0.5330   54.0160   24.1950 C   0  0  0  0  0  0  0  0  0  0  0  0
    1.6710   53.4600   25.0420 C   0  0  0  0  0  0  0  0  0  0  0  0
    1.9380   53.9500   26.1500 O   0  0  0  0  0  0  0  0  0  0  0  0
    2.3400   52.4280   24.5240 N   0  0  0  0  0  0  0  0  0  0  0  0
    3.4030   51.7400   25.2610 C   0  0  2  0  0  0  0  0  0  0  0  0
    4.6070   51.7280   24.3110 C   0  0  0  0  0  0  0  0  0  0  0  0
    4.4560   51.3790   23.1350 O   0  0  0  0  0  0  0  0  0  0  0  0
    3.0160   50.3240   25.6980 C   0  0  0  0  0  0  0  0  0  0  0  0
    4.1330   49.6680   26.4350 C   0  0  0  0  0  0  0  0  0  0  0  0
    1.7820   50.3920   26.6040 C   0  0  0  0  0  0  0  0  0  0  0  0
    5.8050   52.0580   24.7890 N   0  0  0  0  0  0  0  0  0  0  0  0
    6.9700   52.0930   23.8820 C   0  0  2  0  0  0  0  0  0  0  0  0
    8.2770   51.9900   24.6320 C   0  0  0  0  0  0  0  0  0  0  0  0
    8.4180   52.5160   25.7480 O   0  0  0  0  0  0  0  0  0  0  0  0
    6.9770   53.3990   23.0800 C   0  0  0  0  0  0  0  0  0  0  0  0
    9.2620   51.3930   23.9660 N   0  0  0  0  0  0  0  0  0  0  0  0
   10.6610   51.4630   24.3720 C   0  0  2  0  0  0  0  0  0  0  0  0
   11.3950   52.1280   23.2140 C   0  0  0  0  0  0  0  0  0  0  0  0
   11.4680   51.5710   22.1250 O   0  0  0  0  0  0  0  0  0  0  0  0
   11.1890   50.0520   24.6330 C   0  0  0  0  0  0  0  0  0  0  0  0
   11.9140   53.3290   23.4790 N   0  0  0  0  0  0  0  0  0  0  0  0
   12.5330   54.1780   22.4440 C   0  0  2  0  0  0  0  0  0  0  0  0
   14.0230   54.3040   22.7750 C   0  0  0  0  0  0  0  0  0  0  0  0
   14.8590   53.5510   22.2470 O   0  0  0  0  0  0  0  0  0  0  0  0
   11.7740   55.5210   22.3340 C   0  0  0  0  0  0  0  0  0  0  0  0
   10.2640   55.4010   22.0540 C   0  0  0  0  0  0  0  0  0  0  0  0
    9.6180   56.7740   22.0600 C   0  0  0  0  0  0  0  0  0  0  0  0
    9.9710   54.6410   20.7410 C   0  0  0  0  0  0  0  0  0  0  0  0
   14.3850   55.2140   23.6720 N   0  0  0  0  0  0  0  0  0  0  0  0
   15.7360   55.2570   24.2160 C   0  0  0  0  0  0  0  0  0  0  0  0
    0.4641   53.4619   23.2823 H   0  0  0  0  0  0  0  0  0  0  0  0
    0.7231   55.0455   23.9738 H   0  0  0  0  0  0  0  0  0  0  0  0
   -0.3873   53.9311   24.7342 H   0  0  0  0  0  0  0  0  0  0  0  0
    2.1119   52.1191   23.6175 H   0  0  0  0  0  0  0  0  0  0  0  0
    3.6148   52.2474   26.1789 H   0  0  0  0  0  0  0  0  0  0  0  0
    2.8009   49.7463   24.8234 H   0  0  0  0  0  0  0  0  0  0  0  0
    4.3613   50.2339   27.3140 H   0  0  0  0  0  0  0  0  0  0  0  0
    4.9972   49.6223   25.8058 H   0  0  0  0  0  0  0  0  0  0  0  0
    3.8424   48.6768   26.7144 H   0  0  0  0  0  0  0  0  0  0  0  0
    2.0098   50.9717   27.4740 H   0  0  0  0  0  0  0  0  0  0  0  0
    1.5007   49.4025   26.8984 H   0  0  0  0  0  0  0  0  0  0  0  0
    0.9739   50.8492   26.0723 H   0  0  0  0  0  0  0  0  0  0  0  0
    5.9137   52.2776   25.7425 H   0  0  0  0  0  0  0  0  0  0  0  0
    6.8800   51.2493   23.2301 H   0  0  0  0  0  0  0  0  0  0  0  0
    7.0675   54.2284   23.7499 H   0  0  0  0  0  0  0  0  0  0  0  0
    6.0639   53.4839   22.5286 H   0  0  0  0  0  0  0  0  0  0  0  0
    7.8044   53.3965   22.4016 H   0  0  0  0  0  0  0  0  0  0  0  0
    9.0350   50.8779   23.1583 H   0  0  0  0  0  0  0  0  0  0  0  0
   10.7987   52.0195   25.2755 H   0  0  0  0  0  0  0  0  0  0  0  0
   11.0703   49.4580   23.7510 H   0  0  0  0  0  0  0  0  0  0  0  0
   10.6404   49.6091   25.4378 H   0  0  0  0  0  0  0  0  0  0  0  0
   12.2258   50.1015   24.8928 H   0  0  0  0  0  0  0  0  0  0  0  0
   11.8822   53.6622   24.4048 H   0  0  0  0  0  0  0  0  0  0  0  0
   12.4610   53.7457   21.4679 H   0  0  0  0  0  0  0  0  0  0  0  0
   11.8985   56.0479   23.2569 H   0  0  0  0  0  0  0  0  0  0  0  0
   12.1924   56.0299   21.4909 H   0  0  0  0  0  0  0  0  0  0  0  0
    9.8315   54.8192   22.8410 H   0  0  0  0  0  0  0  0  0  0  0  0
   10.0396   57.3700   21.2777 H   0  0  0  0  0  0  0  0  0  0  0  0
    9.7945   57.2471   23.0034 H   0  0  0  0  0  0  0  0  0  0  0  0
    8.5644   56.6731   21.9032 H   0  0  0  0  0  0  0  0  0  0  0  0
   10.3842   55.1824   19.9157 H   0  0  0  0  0  0  0  0  0  0  0  0
    8.9130   54.5468   20.6119 H   0  0  0  0  0  0  0  0  0  0  0  0
   10.4129   53.6675   20.7861 H   0  0  0  0  0  0  0  0  0  0  0  0
   13.7237   55.8764   23.9771 H   0  0  0  0  0  0  0  0  0  0  0  0
   16.3208   54.4736   23.7809 H   0  0  0  0  0  0  0  0  0  0  0  0
   15.6975   55.1260   25.2773 H   0  0  0  0  0  0  0  0  0  0  0  0
   16.1818   56.2029   23.9893 H   0  0  0  0  0  0  0  0  0  0  0  0
  1  2  1  0  0  0  0
  1 31  1  0  0  0  0
  1 32  1  0  0  0  0
  1 33  1  0  0  0  0
  2  3  2  0  0  0  0
  4  2  1  0  0  0  0
  4  5  1  0  0  0  0
  4 34  1  0  0  0  0
  5  8  1  0  0  0  0
  5 35  1  1  0  0  0
  6 11  1  0  0  0  0
  6  5  1  0  0  0  0
  7  6  2  0  0  0  0
  8  9  1  0  0  0  0
  8 10  1  0  0  0  0
  8 36  1  0  0  0  0
  9 37  1  0  0  0  0
  9 38  1  0  0  0  0
  9 39  1  0  0  0  0
 10 40  1  0  0  0  0
 10 41  1  0  0  0  0
 10 42  1  0  0  0  0
 11 43  1  0  0  0  0
 12 13  1  0  0  0  0
 12 11  1  0  0  0  0
 12 44  1  6  0  0  0
 13 14  2  0  0  0  0
 15 12  1  0  0  0  0
 15 45  1  0  0  0  0
 15 46  1  0  0  0  0
 15 47  1  0  0  0  0
 16 17  1  0  0  0  0
 16 13  1  0  0  0  0
 16 48  1  0  0  0  0
 17 20  1  0  0  0  0
 17 49  1  1  0  0  0
 18 21  1  0  0  0  0
 18 17  1  0  0  0  0
 19 18  2  0  0  0  0
 20 50  1  0  0  0  0
 20 51  1  0  0  0  0
 20 52  1  0  0  0  0
 21 53  1  0  0  0  0
 22 23  1  0  0  0  0
 22 21  1  0  0  0  0
 22 54  1  6  0  0  0
 23 29  1  0  0  0  0
 24 23  2  0  0  0  0
 25 22  1  0  0  0  0
 25 55  1  0  0  0  0
 25 56  1  0  0  0  0
 26 27  1  0  0  0  0
 26 25  1  0  0  0  0
 26 57  1  0  0  0  0
 27 58  1  0  0  0  0
 27 59  1  0  0  0  0
 27 60  1  0  0  0  0
 28 26  1  0  0  0  0
 28 61  1  0  0  0  0
 28 62  1  0  0  0  0
 28 63  1  0  0  0  0
 29 30  1  0  0  0  0
 29 64  1  0  0  0  0
 30 65  1  0  0  0  0
 30 66  1  0  0  0  0
 30 67  1  0  0  0  0
M  END
>  <MODEL>
       0

$$$$
selected_4mers/VAAL/817_noH.pdb
 OpenBabel03042518353D

 67 66  0  0  1  0  0  0  0  0999 V2000
   18.0110   52.7730    8.3310 C   0  0  0  0  0  0  0  0  0  0  0  0
   19.2200   52.2360    7.5520 C   0  0  0  0  0  0  0  0  0  0  0  0
   19.9790   52.9980    6.9430 O   0  0  0  0  0  0  0  0  0  0  0  0
   19.4330   50.9260    7.6290 N   0  0  0  0  0  0  0  0  0  0  0  0
   20.5840   50.2960    6.9730 C   0  0  2  0  0  0  0  0  0  0  0  0
   20.2450   49.8780    5.5440 C   0  0  0  0  0  0  0  0  0  0  0  0
   19.1600   49.3720    5.2680 O   0  0  0  0  0  0  0  0  0  0  0  0
   21.1200   49.0990    7.8010 C   0  0  0  0  0  0  0  0  0  0  0  0
   20.1280   47.9410    7.7950 C   0  0  0  0  0  0  0  0  0  0  0  0
   22.4890   48.6340    7.2740 C   0  0  0  0  0  0  0  0  0  0  0  0
   21.1790   50.1290    4.6370 N   0  0  0  0  0  0  0  0  0  0  0  0
   21.0090   49.8050    3.2330 C   0  0  2  0  0  0  0  0  0  0  0  0
   21.5850   48.4500    2.8610 C   0  0  0  0  0  0  0  0  0  0  0  0
   22.6760   48.0920    3.2960 O   0  0  0  0  0  0  0  0  0  0  0  0
   21.6740   50.8940    2.3760 C   0  0  0  0  0  0  0  0  0  0  0  0
   20.8300   47.6940    2.0700 N   0  0  0  0  0  0  0  0  0  0  0  0
   21.2580   46.3890    1.5580 C   0  0  2  0  0  0  0  0  0  0  0  0
   20.6710   46.4470    0.1630 C   0  0  0  0  0  0  0  0  0  0  0  0
   19.7720   45.6840   -0.1790 O   0  0  0  0  0  0  0  0  0  0  0  0
   20.6750   45.2450    2.3700 C   0  0  0  0  0  0  0  0  0  0  0  0
   21.2020   47.3870   -0.6190 N   0  0  0  0  0  0  0  0  0  0  0  0
   20.7300   47.7000   -1.9660 C   0  0  2  0  0  0  0  0  0  0  0  0
   21.5910   47.3820   -3.1860 C   0  0  0  0  0  0  0  0  0  0  0  0
   21.1790   47.6970   -4.3100 O   0  0  0  0  0  0  0  0  0  0  0  0
   20.5410   49.2200   -2.0080 C   0  0  0  0  0  0  0  0  0  0  0  0
   19.5280   49.8630   -1.0610 C   0  0  0  0  0  0  0  0  0  0  0  0
   19.6920   51.3740   -1.0480 C   0  0  0  0  0  0  0  0  0  0  0  0
   18.1080   49.4600   -1.4330 C   0  0  0  0  0  0  0  0  0  0  0  0
   22.7710   46.8040   -3.0030 N   0  0  0  0  0  0  0  0  0  0  0  0
   23.6270   46.5300   -4.1540 C   0  0  0  0  0  0  0  0  0  0  0  0
   17.9409   53.8320    8.1950 H   0  0  0  0  0  0  0  0  0  0  0  0
   18.1313   52.5542    9.3715 H   0  0  0  0  0  0  0  0  0  0  0  0
   17.1182   52.3071    7.9695 H   0  0  0  0  0  0  0  0  0  0  0  0
   18.8037   50.3657    8.1381 H   0  0  0  0  0  0  0  0  0  0  0  0
   21.3658   51.0246    6.9196 H   0  0  0  0  0  0  0  0  0  0  0  0
   21.2422   49.4315    8.8107 H   0  0  0  0  0  0  0  0  0  0  0  0
   19.9917   47.5933    6.7923 H   0  0  0  0  0  0  0  0  0  0  0  0
   19.1898   48.2730    8.1880 H   0  0  0  0  0  0  0  0  0  0  0  0
   20.5064   47.1441    8.4005 H   0  0  0  0  0  0  0  0  0  0  0  0
   22.3866   48.2972    6.2636 H   0  0  0  0  0  0  0  0  0  0  0  0
   22.8516   47.8319    7.8823 H   0  0  0  0  0  0  0  0  0  0  0  0
   23.1807   49.4496    7.3097 H   0  0  0  0  0  0  0  0  0  0  0  0
   22.0197   50.5512    4.9272 H   0  0  0  0  0  0  0  0  0  0  0  0
   19.9564   49.7602    3.0459 H   0  0  0  0  0  0  0  0  0  0  0  0
   22.7238   50.9181    2.5815 H   0  0  0  0  0  0  0  0  0  0  0  0
   21.2428   51.8449    2.6100 H   0  0  0  0  0  0  0  0  0  0  0  0
   21.5183   50.6771    1.3398 H   0  0  0  0  0  0  0  0  0  0  0  0
   19.9392   48.0272    1.8155 H   0  0  0  0  0  0  0  0  0  0  0  0
   22.3131   46.2148    1.5950 H   0  0  0  0  0  0  0  0  0  0  0  0
   19.6087   45.3311    2.3930 H   0  0  0  0  0  0  0  0  0  0  0  0
   21.0577   45.2850    3.3684 H   0  0  0  0  0  0  0  0  0  0  0  0
   20.9479   44.3132    1.9204 H   0  0  0  0  0  0  0  0  0  0  0  0
   21.9618   47.9041   -0.2659 H   0  0  0  0  0  0  0  0  0  0  0  0
   19.8765   47.0635   -2.0725 H   0  0  0  0  0  0  0  0  0  0  0  0
   20.2441   49.4725   -3.0045 H   0  0  0  0  0  0  0  0  0  0  0  0
   21.4832   49.6068   -1.6800 H   0  0  0  0  0  0  0  0  0  0  0  0
   19.7159   49.5054   -0.0702 H   0  0  0  0  0  0  0  0  0  0  0  0
   19.5095   51.7610   -2.0287 H   0  0  0  0  0  0  0  0  0  0  0  0
   20.6882   51.6221   -0.7463 H   0  0  0  0  0  0  0  0  0  0  0  0
   18.9938   51.8026   -0.3598 H   0  0  0  0  0  0  0  0  0  0  0  0
   17.8872   49.8037   -2.4220 H   0  0  0  0  0  0  0  0  0  0  0  0
   17.4199   49.8987   -0.7410 H   0  0  0  0  0  0  0  0  0  0  0  0
   18.0188   48.3943   -1.3975 H   0  0  0  0  0  0  0  0  0  0  0  0
   23.0679   46.5611   -2.0963 H   0  0  0  0  0  0  0  0  0  0  0  0
   23.1401   46.8611   -5.0474 H   0  0  0  0  0  0  0  0  0  0  0  0
   23.8129   45.4782   -4.2179 H   0  0  0  0  0  0  0  0  0  0  0  0
   24.5552   47.0500   -4.0400 H   0  0  0  0  0  0  0  0  0  0  0  0
  1 31  1  0  0  0  0
  1 32  1  0  0  0  0
  1 33  1  0  0  0  0
  2  4  1  0  0  0  0
  2  1  1  0  0  0  0
  3  2  2  0  0  0  0
  4 34  1  0  0  0  0
  5  4  1  0  0  0  0
  5  8  1  0  0  0  0
  5 35  1  6  0  0  0
  6  5  1  0  0  0  0
  7  6  2  0  0  0  0
  8 36  1  0  0  0  0
  9  8  1  0  0  0  0
  9 37  1  0  0  0  0
  9 38  1  0  0  0  0
  9 39  1  0  0  0  0
 10  8  1  0  0  0  0
 10 40  1  0  0  0  0
 10 41  1  0  0  0  0
 10 42  1  0  0  0  0
 11  6  1  0  0  0  0
 11 43  1  0  0  0  0
 12 11  1  0  0  0  0
 12 44  1  6  0  0  0
 13 12  1  0  0  0  0
 13 14  2  0  0  0  0
 15 12  1  0  0  0  0
 15 45  1  0  0  0  0
 15 46  1  0  0  0  0
 15 47  1  0  0  0  0
 16 13  1  0  0  0  0
 16 48  1  0  0  0  0
 17 16  1  0  0  0  0
 17 20  1  0  0  0  0
 17 49  1  6  0  0  0
 18 17  1  0  0  0  0
 19 18  2  0  0  0  0
 20 50  1  0  0  0  0
 20 51  1  0  0  0  0
 20 52  1  0  0  0  0
 21 18  1  0  0  0  0
 21 53  1  0  0  0  0
 22 21  1  0  0  0  0
 22 54  1  6  0  0  0
 23 29  1  0  0  0  0
 23 22  1  0  0  0  0
 24 23  2  0  0  0  0
 25 22  1  0  0  0  0
 25 26  1  0  0  0  0
 25 55  1  0  0  0  0
 25 56  1  0  0  0  0
 26 27  1  0  0  0  0
 26 57  1  0  0  0  0
 27 58  1  0  0  0  0
 27 59  1  0  0  0  0
 27 60  1  0  0  0  0
 28 26  1  0  0  0  0
 28 61  1  0  0  0  0
 28 62  1  0  0  0  0
 28 63  1  0  0  0  0
 29 64  1  0  0  0  0
 30 29  1  0  0  0  0
 30 65  1  0  0  0  0
 30 66  1  0  0  0  0
 30 67  1  0  0  0  0
M  END
>  <MODEL>
       0

$$$$
selected_4mers/VAAL/818_noH.pdb
 OpenBabel03042518353D

 67 66  0  0  1  0  0  0  0  0999 V2000
  -34.1230  -60.1590  -13.3760 C   0  0  0  0  0  0  0  0  0  0  0  0
  -33.6740  -61.5580  -13.8110 C   0  0  0  0  0  0  0  0  0  0  0  0
  -34.1110  -62.5690  -13.2520 O   0  0  0  0  0  0  0  0  0  0  0  0
  -32.7860  -61.6130  -14.7990 N   0  0  0  0  0  0  0  0  0  0  0  0
  -32.2730  -62.8980  -15.2760 C   0  0  2  0  0  0  0  0  0  0  0  0
  -31.5040  -63.6080  -14.1580 C   0  0  0  0  0  0  0  0  0  0  0  0
  -31.6330  -64.8180  -13.9740 O   0  0  0  0  0  0  0  0  0  0  0  0
  -31.3430  -62.7120  -16.4970 C   0  0  0  0  0  0  0  0  0  0  0  0
  -30.6440  -64.0320  -16.8420 C   0  0  0  0  0  0  0  0  0  0  0  0
  -32.1500  -62.2280  -17.6840 C   0  0  0  0  0  0  0  0  0  0  0  0
  -30.7120  -62.8560  -13.4000 N   0  0  0  0  0  0  0  0  0  0  0  0
  -29.9420  -63.4560  -12.3110 C   0  0  2  0  0  0  0  0  0  0  0  0
  -30.8700  -64.1040  -11.2830 C   0  0  0  0  0  0  0  0  0  0  0  0
  -30.6050  -65.2140  -10.8040 O   0  0  0  0  0  0  0  0  0  0  0  0
  -29.0650  -62.3980  -11.6370 C   0  0  0  0  0  0  0  0  0  0  0  0
  -31.9580  -63.4160  -10.9420 N   0  0  0  0  0  0  0  0  0  0  0  0
  -32.9100  -63.9490   -9.9730 C   0  0  2  0  0  0  0  0  0  0  0  0
  -33.6230  -65.1740  -10.5270 C   0  0  0  0  0  0  0  0  0  0  0  0
  -33.8550  -66.1450   -9.8030 O   0  0  0  0  0  0  0  0  0  0  0  0
  -33.9310  -62.8780   -9.5870 C   0  0  0  0  0  0  0  0  0  0  0  0
  -33.9820  -65.1280  -11.8070 N   0  0  0  0  0  0  0  0  0  0  0  0
  -34.6600  -66.2600  -12.4280 C   0  0  2  0  0  0  0  0  0  0  0  0
  -33.7600  -67.4930  -12.3920 C   0  0  0  0  0  0  0  0  0  0  0  0
  -34.2370  -68.6080  -12.1720 O   0  0  0  0  0  0  0  0  0  0  0  0
  -35.0530  -65.9330  -13.8740 C   0  0  0  0  0  0  0  0  0  0  0  0
  -36.2700  -65.0070  -14.0180 C   0  0  0  0  0  0  0  0  0  0  0  0
  -36.3390  -64.4590  -15.4400 C   0  0  0  0  0  0  0  0  0  0  0  0
  -37.5480  -65.7700  -13.6720 C   0  0  0  0  0  0  0  0  0  0  0  0
  -32.4620  -67.2880  -12.6020 N   0  0  0  0  0  0  0  0  0  0  0  0
  -31.5040  -68.3880  -12.5800 C   0  0  0  0  0  0  0  0  0  0  0  0
  -33.6334  -59.4235  -13.9796 H   0  0  0  0  0  0  0  0  0  0  0  0
  -33.8665  -60.0055  -12.3486 H   0  0  0  0  0  0  0  0  0  0  0  0
  -35.1826  -60.0711  -13.4961 H   0  0  0  0  0  0  0  0  0  0  0  0
  -32.4695  -60.7787  -15.2150 H   0  0  0  0  0  0  0  0  0  0  0  0
  -33.1113  -63.4932  -15.5723 H   0  0  0  0  0  0  0  0  0  0  0  0
  -30.5968  -61.9839  -16.2562 H   0  0  0  0  0  0  0  0  0  0  0  0
  -31.3782  -64.7713  -17.0855 H   0  0  0  0  0  0  0  0  0  0  0  0
  -30.0705  -64.3623  -16.0012 H   0  0  0  0  0  0  0  0  0  0  0  0
  -29.9955  -63.8838  -17.6801 H   0  0  0  0  0  0  0  0  0  0  0  0
  -32.8972  -62.9542  -17.9273 H   0  0  0  0  0  0  0  0  0  0  0  0
  -31.5013  -62.0888  -18.5234 H   0  0  0  0  0  0  0  0  0  0  0  0
  -32.6216  -61.2991  -17.4398 H   0  0  0  0  0  0  0  0  0  0  0  0
  -30.6434  -61.8892  -13.5728 H   0  0  0  0  0  0  0  0  0  0  0  0
  -29.3129  -64.2166  -12.7241 H   0  0  0  0  0  0  0  0  0  0  0  0
  -29.6860  -61.6325  -11.2206 H   0  0  0  0  0  0  0  0  0  0  0  0
  -28.4053  -61.9675  -12.3612 H   0  0  0  0  0  0  0  0  0  0  0  0
  -28.4906  -62.8543  -10.8581 H   0  0  0  0  0  0  0  0  0  0  0  0
  -32.1224  -62.5350  -11.3495 H   0  0  0  0  0  0  0  0  0  0  0  0
  -32.3655  -64.2424   -9.0999 H   0  0  0  0  0  0  0  0  0  0  0  0
  -34.4800  -62.5791  -10.4554 H   0  0  0  0  0  0  0  0  0  0  0  0
  -33.4216  -62.0306   -9.1779 H   0  0  0  0  0  0  0  0  0  0  0  0
  -34.6057  -63.2749   -8.8575 H   0  0  0  0  0  0  0  0  0  0  0  0
  -33.7884  -64.3230  -12.3396 H   0  0  0  0  0  0  0  0  0  0  0  0
  -35.5535  -66.4637  -11.8756 H   0  0  0  0  0  0  0  0  0  0  0  0
  -34.2176  -65.4605  -14.3471 H   0  0  0  0  0  0  0  0  0  0  0  0
  -35.3265  -66.8621  -14.3288 H   0  0  0  0  0  0  0  0  0  0  0  0
  -36.1712  -64.1846  -13.3406 H   0  0  0  0  0  0  0  0  0  0  0  0
  -36.4380  -65.2704  -16.1305 H   0  0  0  0  0  0  0  0  0  0  0  0
  -35.4439  -63.9140  -15.6560 H   0  0  0  0  0  0  0  0  0  0  0  0
  -37.1835  -63.8082  -15.5309 H   0  0  0  0  0  0  0  0  0  0  0  0
  -37.6619  -66.5970  -14.3413 H   0  0  0  0  0  0  0  0  0  0  0  0
  -38.3901  -65.1165  -13.7660 H   0  0  0  0  0  0  0  0  0  0  0  0
  -37.4869  -66.1307  -12.6665 H   0  0  0  0  0  0  0  0  0  0  0  0
  -32.1411  -66.3737  -12.7761 H   0  0  0  0  0  0  0  0  0  0  0  0
  -32.0180  -69.3046  -12.3787 H   0  0  0  0  0  0  0  0  0  0  0  0
  -30.7762  -68.2119  -11.8157 H   0  0  0  0  0  0  0  0  0  0  0  0
  -31.0152  -68.4543  -13.5295 H   0  0  0  0  0  0  0  0  0  0  0  0
  1 31  1  0  0  0  0
  1 32  1  0  0  0  0
  1 33  1  0  0  0  0
  2  1  1  0  0  0  0
  2  3  2  0  0  0  0
  4  2  1  0  0  0  0
  4 34  1  0  0  0  0
  5  4  1  0  0  0  0
  5  6  1  0  0  0  0
  5 35  1  6  0  0  0
  6  7  2  0  0  0  0
  6 11  1  0  0  0  0
  8  5  1  0  0  0  0
  8 36  1  0  0  0  0
  9  8  1  0  0  0  0
  9 37  1  0  0  0  0
  9 38  1  0  0  0  0
  9 39  1  0  0  0  0
 10  8  1  0  0  0  0
 10 40  1  0  0  0  0
 10 41  1  0  0  0  0
 10 42  1  0  0  0  0
 11 12  1  0  0  0  0
 11 43  1  0  0  0  0
 12 15  1  0  0  0  0
 12 13  1  0  0  0  0
 12 44  1  6  0  0  0
 13 16  1  0  0  0  0
 13 14  2  0  0  0  0
 15 45  1  0  0  0  0
 15 46  1  0  0  0  0
 15 47  1  0  0  0  0
 16 17  1  0  0  0  0
 16 48  1  0  0  0  0
 17 20  1  0  0  0  0
 17 49  1  1  0  0  0
 18 17  1  0  0  0  0
 18 19  2  0  0  0  0
 20 50  1  0  0  0  0
 20 51  1  0  0  0  0
 20 52  1  0  0  0  0
 21 18  1  0  0  0  0
 21 53  1  0  0  0  0
 22 23  1  0  0  0  0
 22 21  1  0  0  0  0
 22 54  1  1  0  0  0
 23 24  2  0  0  0  0
 25 22  1  0  0  0  0
 25 55  1  0  0  0  0
 25 56  1  0  0  0  0
 26 25  1  0  0  0  0
 26 28  1  0  0  0  0
 26 57  1  0  0  0  0
 27 26  1  0  0  0  0
 27 58  1  0  0  0  0
 27 59  1  0  0  0  0
 27 60  1  0  0  0  0
 28 61  1  0  0  0  0
 28 62  1  0  0  0  0
 28 63  1  0  0  0  0
 29 30  1  0  0  0  0
 29 23  1  0  0  0  0
 29 64  1  0  0  0  0
 30 65  1  0  0  0  0
 30 66  1  0  0  0  0
 30 67  1  0  0  0  0
M  END
>  <MODEL>
       0

$$$$
selected_4mers/VAAL/819_noH.pdb
 OpenBabel03042518353D

 67 66  0  0  1  0  0  0  0  0999 V2000
   82.0520   38.0860    7.4150 C   0  0  0  0  0  0  0  0  0  0  0  0
   83.4530   38.7030    7.3340 C   0  0  0  0  0  0  0  0  0  0  0  0
   84.1570   38.5070    6.3490 O   0  0  0  0  0  0  0  0  0  0  0  0
   83.8610   39.3940    8.4000 N   0  0  0  0  0  0  0  0  0  0  0  0
   85.1670   40.0530    8.4480 C   0  0  2  0  0  0  0  0  0  0  0  0
   86.2970   39.0240    8.7930 C   0  0  0  0  0  0  0  0  0  0  0  0
   87.4010   39.1000    8.2310 O   0  0  0  0  0  0  0  0  0  0  0  0
   85.1630   41.2740    9.3930 C   0  0  0  0  0  0  0  0  0  0  0  0
   86.5740   41.7990    9.5770 C   0  0  0  0  0  0  0  0  0  0  0  0
   84.2430   42.3850    8.7900 C   0  0  0  0  0  0  0  0  0  0  0  0
   85.9620   38.0540    9.6510 N   0  0  0  0  0  0  0  0  0  0  0  0
   86.8710   37.0040   10.1070 C   0  0  2  0  0  0  0  0  0  0  0  0
   86.0990   35.8070   10.6550 C   0  0  0  0  0  0  0  0  0  0  0  0
   84.8750   35.8710   10.8920 O   0  0  0  0  0  0  0  0  0  0  0  0
   87.8380   37.5490   11.1850 C   0  0  0  0  0  0  0  0  0  0  0  0
   86.8290   34.7250   10.9430 N   0  0  0  0  0  0  0  0  0  0  0  0
   86.2120   33.5260   11.4750 C   0  0  2  0  0  0  0  0  0  0  0  0
   87.1680   32.7430   12.3500 C   0  0  0  0  0  0  0  0  0  0  0  0
   88.3860   32.9850   12.3110 O   0  0  0  0  0  0  0  0  0  0  0  0
   85.7470   32.6510   10.3540 C   0  0  0  0  0  0  0  0  0  0  0  0
   86.5960   31.8220   13.1380 N   0  0  0  0  0  0  0  0  0  0  0  0
   87.3630   30.8020   13.8880 C   0  0  2  0  0  0  0  0  0  0  0  0
   87.0830   29.4270   13.2980 C   0  0  0  0  0  0  0  0  0  0  0  0
   85.9420   29.1420   12.8720 O   0  0  0  0  0  0  0  0  0  0  0  0
   86.9860   30.7860   15.3930 C   0  0  0  0  0  0  0  0  0  0  0  0
   87.2400   32.0450   16.2500 C   0  0  0  0  0  0  0  0  0  0  0  0
   87.0090   31.7990   17.7300 C   0  0  0  0  0  0  0  0  0  0  0  0
   88.6670   32.6600   15.9520 C   0  0  0  0  0  0  0  0  0  0  0  0
   88.1460   28.6260   13.1770 N   0  0  0  0  0  0  0  0  0  0  0  0
   88.0720   27.2050   12.9100 C   0  0  0  0  0  0  0  0  0  0  0  0
   81.8405   37.5610    6.5070 H   0  0  0  0  0  0  0  0  0  0  0  0
   81.3283   38.8615    7.5555 H   0  0  0  0  0  0  0  0  0  0  0  0
   82.0094   37.4048    8.2391 H   0  0  0  0  0  0  0  0  0  0  0  0
   83.2640   39.4628    9.1798 H   0  0  0  0  0  0  0  0  0  0  0  0
   85.3789   40.4388    7.4727 H   0  0  0  0  0  0  0  0  0  0  0  0
   84.7863   40.9832   10.3514 H   0  0  0  0  0  0  0  0  0  0  0  0
   86.9705   42.0961    8.6286 H   0  0  0  0  0  0  0  0  0  0  0  0
   87.1890   41.0299    9.9956 H   0  0  0  0  0  0  0  0  0  0  0  0
   86.5580   42.6414   10.2366 H   0  0  0  0  0  0  0  0  0  0  0  0
   84.6181   42.6772    7.8314 H   0  0  0  0  0  0  0  0  0  0  0  0
   84.2330   43.2328    9.4427 H   0  0  0  0  0  0  0  0  0  0  0  0
   83.2484   42.0053    8.6832 H   0  0  0  0  0  0  0  0  0  0  0  0
   85.0410   38.0468    9.9989 H   0  0  0  0  0  0  0  0  0  0  0  0
   87.4419   36.6790    9.2624 H   0  0  0  0  0  0  0  0  0  0  0  0
   87.2765   37.8770   12.0348 H   0  0  0  0  0  0  0  0  0  0  0  0
   88.3917   38.3721   10.7841 H   0  0  0  0  0  0  0  0  0  0  0  0
   88.5144   36.7748   11.4816 H   0  0  0  0  0  0  0  0  0  0  0  0
   87.8016   34.7426   10.7913 H   0  0  0  0  0  0  0  0  0  0  0  0
   85.3806   33.8322   12.0749 H   0  0  0  0  0  0  0  0  0  0  0  0
   86.5872   32.3522    9.7627 H   0  0  0  0  0  0  0  0  0  0  0  0
   85.0550   33.1919    9.7429 H   0  0  0  0  0  0  0  0  0  0  0  0
   85.2663   31.7832   10.7548 H   0  0  0  0  0  0  0  0  0  0  0  0
   85.6151   31.8240   13.2224 H   0  0  0  0  0  0  0  0  0  0  0  0
   88.4009   31.0486   13.8048 H   0  0  0  0  0  0  0  0  0  0  0  0
   87.5352   29.9859   15.8437 H   0  0  0  0  0  0  0  0  0  0  0  0
   85.9198   30.6958   15.3858 H   0  0  0  0  0  0  0  0  0  0  0  0
   86.5134   32.7760   15.9625 H   0  0  0  0  0  0  0  0  0  0  0  0
   87.7090   31.0713   18.0841 H   0  0  0  0  0  0  0  0  0  0  0  0
   86.0129   31.4384   17.8804 H   0  0  0  0  0  0  0  0  0  0  0  0
   87.1423   32.7138   18.2687 H   0  0  0  0  0  0  0  0  0  0  0  0
   89.4237   31.9554   16.2276 H   0  0  0  0  0  0  0  0  0  0  0  0
   88.7933   33.5589   16.5185 H   0  0  0  0  0  0  0  0  0  0  0  0
   88.7490   32.8816   14.9084 H   0  0  0  0  0  0  0  0  0  0  0  0
   89.0387   29.0291   13.2760 H   0  0  0  0  0  0  0  0  0  0  0  0
   87.0466   26.9105   12.8277 H   0  0  0  0  0  0  0  0  0  0  0  0
   88.5344   26.6670   13.7110 H   0  0  0  0  0  0  0  0  0  0  0  0
   88.5803   26.9873   11.9939 H   0  0  0  0  0  0  0  0  0  0  0  0
  1 31  1  0  0  0  0
  1 32  1  0  0  0  0
  1 33  1  0  0  0  0
  2  1  1  0  0  0  0
  2  4  1  0  0  0  0
  3  2  2  0  0  0  0
  4  5  1  0  0  0  0
  4 34  1  0  0  0  0
  5  6  1  0  0  0  0
  5  8  1  0  0  0  0
  5 35  1  6  0  0  0
  6 11  1  0  0  0  0
  7  6  2  0  0  0  0
  8  9  1  0  0  0  0
  8 36  1  0  0  0  0
  9 37  1  0  0  0  0
  9 38  1  0  0  0  0
  9 39  1  0  0  0  0
 10  8  1  0  0  0  0
 10 40  1  0  0  0  0
 10 41  1  0  0  0  0
 10 42  1  0  0  0  0
 11 12  1  0  0  0  0
 11 43  1  0  0  0  0
 12 13  1  0  0  0  0
 12 15  1  0  0  0  0
 12 44  1  6  0  0  0
 13 14  2  0  0  0  0
 13 16  1  0  0  0  0
 15 45  1  0  0  0  0
 15 46  1  0  0  0  0
 15 47  1  0  0  0  0
 16 17  1  0  0  0  0
 16 48  1  0  0  0  0
 17 18  1  0  0  0  0
 17 49  1  1  0  0  0
 18 21  1  0  0  0  0
 19 18  2  0  0  0  0
 20 17  1  0  0  0  0
 20 50  1  0  0  0  0
 20 51  1  0  0  0  0
 20 52  1  0  0  0  0
 21 22  1  0  0  0  0
 21 53  1  0  0  0  0
 22 25  1  0  0  0  0
 22 54  1  6  0  0  0
 23 22  1  0  0  0  0
 24 23  2  0  0  0  0
 25 26  1  0  0  0  0
 25 55  1  0  0  0  0
 25 56  1  0  0  0  0
 26 27  1  0  0  0  0
 26 57  1  0  0  0  0
 27 58  1  0  0  0  0
 27 59  1  0  0  0  0
 27 60  1  0  0  0  0
 28 26  1  0  0  0  0
 28 61  1  0  0  0  0
 28 62  1  0  0  0  0
 28 63  1  0  0  0  0
 29 23  1  0  0  0  0
 29 64  1  0  0  0  0
 30 29  1  0  0  0  0
 30 65  1  0  0  0  0
 30 66  1  0  0  0  0
 30 67  1  0  0  0  0
M  END
>  <MODEL>
       0

$$$$
