selected_4mers/VAAV/885_noH.pdb
 OpenBabel03042518353D

 64 63  0  0  1  0  0  0  0  0999 V2000
   41.9440   48.0990    5.8370 C   0  0  0  0  0  0  0  0  0  0  0  0
   41.1430   48.8310    6.9180 C   0  0  0  0  0  0  0  0  0  0  0  0
   40.4580   49.8200    6.6370 O   0  0  0  0  0  0  0  0  0  0  0  0
   41.2420   48.3470    8.1540 N   0  0  0  0  0  0  0  0  0  0  0  0
   40.6010   48.9920    9.3060 C   0  0  2  0  0  0  0  0  0  0  0  0
   41.6520   49.4960   10.2860 C   0  0  0  0  0  0  0  0  0  0  0  0
   42.7750   49.0050   10.2950 O   0  0  0  0  0  0  0  0  0  0  0  0
   39.6020   48.0480   10.0350 C   0  0  0  0  0  0  0  0  0  0  0  0
   38.4930   47.6010    9.0830 C   0  0  0  0  0  0  0  0  0  0  0  0
   40.3220   46.8490   10.6650 C   0  0  0  0  0  0  0  0  0  0  0  0
   41.2760   50.4610   11.1150 N   0  0  0  0  0  0  0  0  0  0  0  0
   42.1810   51.0150   12.1230 C   0  0  2  0  0  0  0  0  0  0  0  0
   42.3100   50.1120   13.3490 C   0  0  0  0  0  0  0  0  0  0  0  0
   43.3580   50.0760   13.9940 O   0  0  0  0  0  0  0  0  0  0  0  0
   41.7200   52.4040   12.5360 C   0  0  0  0  0  0  0  0  0  0  0  0
   41.2350   49.3960   13.6720 N   0  0  0  0  0  0  0  0  0  0  0  0
   41.2120   48.4820   14.8130 C   0  0  2  0  0  0  0  0  0  0  0  0
   40.0130   47.5700   14.6840 C   0  0  0  0  0  0  0  0  0  0  0  0
   39.1000   47.8440   13.8990 O   0  0  0  0  0  0  0  0  0  0  0  0
   41.1600   49.2450   16.1540 C   0  0  0  0  0  0  0  0  0  0  0  0
   40.0230   46.4830   15.4540 N   0  0  0  0  0  0  0  0  0  0  0  0
   38.9150   45.5310   15.4810 C   0  0  2  0  0  0  0  0  0  0  0  0
   38.4940   45.3000   16.9270 C   0  0  0  0  0  0  0  0  0  0  0  0
   39.3080   44.8850   17.7620 O   0  0  0  0  0  0  0  0  0  0  0  0
   39.3070   44.1690   14.8370 C   0  0  0  0  0  0  0  0  0  0  0  0
   38.1220   43.2010   14.8480 C   0  0  0  0  0  0  0  0  0  0  0  0
   39.8330   44.3540   13.4080 C   0  0  0  0  0  0  0  0  0  0  0  0
   37.2240   45.5960   17.2140 N   0  0  0  0  0  0  0  0  0  0  0  0
   36.5950   45.2720   18.4920 C   0  0  0  0  0  0  0  0  0  0  0  0
   41.7864   48.5757    4.8921 H   0  0  0  0  0  0  0  0  0  0  0  0
   41.6202   47.0807    5.7812 H   0  0  0  0  0  0  0  0  0  0  0  0
   42.9850   48.1293    6.0825 H   0  0  0  0  0  0  0  0  0  0  0  0
   41.7647   47.5257    8.3009 H   0  0  0  0  0  0  0  0  0  0  0  0
   40.0396   49.8203    8.9271 H   0  0  0  0  0  0  0  0  0  0  0  0
   39.1490   48.5967   10.8341 H   0  0  0  0  0  0  0  0  0  0  0  0
   38.9201   47.0485    8.2723 H   0  0  0  0  0  0  0  0  0  0  0  0
   37.9840   48.4606    8.6997 H   0  0  0  0  0  0  0  0  0  0  0  0
   37.7985   46.9810    9.6105 H   0  0  0  0  0  0  0  0  0  0  0  0
   40.7911   46.2707    9.8966 H   0  0  0  0  0  0  0  0  0  0  0  0
   39.6127   46.2408   11.1864 H   0  0  0  0  0  0  0  0  0  0  0  0
   41.0644   47.1992   11.3514 H   0  0  0  0  0  0  0  0  0  0  0  0
   40.3598   50.8155   11.0502 H   0  0  0  0  0  0  0  0  0  0  0  0
   43.1513   51.0799   11.6766 H   0  0  0  0  0  0  0  0  0  0  0  0
   40.7497   52.3397   12.9825 H   0  0  0  0  0  0  0  0  0  0  0  0
   41.6746   53.0358   11.6736 H   0  0  0  0  0  0  0  0  0  0  0  0
   42.4113   52.8139   13.2424 H   0  0  0  0  0  0  0  0  0  0  0  0
   40.4240   49.4855   13.1211 H   0  0  0  0  0  0  0  0  0  0  0  0
   42.1147   47.9075   14.8097 H   0  0  0  0  0  0  0  0  0  0  0  0
   40.2674   49.8337   16.1950 H   0  0  0  0  0  0  0  0  0  0  0  0
   42.0135   49.8854   16.2333 H   0  0  0  0  0  0  0  0  0  0  0  0
   41.1630   48.5448   16.9631 H   0  0  0  0  0  0  0  0  0  0  0  0
   40.8063   46.3149   16.0263 H   0  0  0  0  0  0  0  0  0  0  0  0
   38.1078   45.9434   14.9125 H   0  0  0  0  0  0  0  0  0  0  0  0
   40.0957   43.7502   15.4265 H   0  0  0  0  0  0  0  0  0  0  0  0
   37.3243   43.6070   14.2617 H   0  0  0  0  0  0  0  0  0  0  0  0
   37.7878   43.0577   15.8543 H   0  0  0  0  0  0  0  0  0  0  0  0
   38.4252   42.2613   14.4357 H   0  0  0  0  0  0  0  0  0  0  0  0
   39.0620   44.7727   12.7955 H   0  0  0  0  0  0  0  0  0  0  0  0
   40.1281   43.4052   13.0110 H   0  0  0  0  0  0  0  0  0  0  0  0
   40.6758   45.0131   13.4207 H   0  0  0  0  0  0  0  0  0  0  0  0
   36.6847   46.0554   16.5304 H   0  0  0  0  0  0  0  0  0  0  0  0
   37.3040   44.7787   19.1236 H   0  0  0  0  0  0  0  0  0  0  0  0
   35.7577   44.6273   18.3241 H   0  0  0  0  0  0  0  0  0  0  0  0
   36.2626   46.1727   18.9644 H   0  0  0  0  0  0  0  0  0  0  0  0
  1  2  1  0  0  0  0
  1 30  1  0  0  0  0
  1 31  1  0  0  0  0
  1 32  1  0  0  0  0
  2  4  1  0  0  0  0
  3  2  2  0  0  0  0
  4  5  1  0  0  0  0
  4 33  1  0  0  0  0
  5  8  1  0  0  0  0
  5  6  1  0  0  0  0
  5 34  1  6  0  0  0
  6  7  2  0  0  0  0
  6 11  1  0  0  0  0
  8 10  1  0  0  0  0
  8 35  1  0  0  0  0
  9  8  1  0  0  0  0
  9 36  1  0  0  0  0
  9 37  1  0  0  0  0
  9 38  1  0  0  0  0
 10 39  1  0  0  0  0
 10 40  1  0  0  0  0
 10 41  1  0  0  0  0
 11 12  1  0  0  0  0
 11 42  1  0  0  0  0
 12 15  1  0  0  0  0
 12 13  1  0  0  0  0
 12 43  1  6  0  0  0
 13 16  1  0  0  0  0
 13 14  2  0  0  0  0
 15 44  1  0  0  0  0
 15 45  1  0  0  0  0
 15 46  1  0  0  0  0
 16 17  1  0  0  0  0
 16 47  1  0  0  0  0
 17 20  1  0  0  0  0
 17 48  1  6  0  0  0
 18 17  1  0  0  0  0
 18 21  1  0  0  0  0
 19 18  2  0  0  0  0
 20 49  1  0  0  0  0
 20 50  1  0  0  0  0
 20 51  1  0  0  0  0
 21 22  1  0  0  0  0
 21 52  1  0  0  0  0
 22 23  1  0  0  0  0
 22 53  1  6  0  0  0
 23 28  1  0  0  0  0
 23 24  2  0  0  0  0
 25 26  1  0  0  0  0
 25 22  1  0  0  0  0
 25 54  1  0  0  0  0
 26 55  1  0  0  0  0
 26 56  1  0  0  0  0
 26 57  1  0  0  0  0
 27 25  1  0  0  0  0
 27 58  1  0  0  0  0
 27 59  1  0  0  0  0
 27 60  1  0  0  0  0
 28 29  1  0  0  0  0
 28 61  1  0  0  0  0
 29 62  1  0  0  0  0
 29 63  1  0  0  0  0
 29 64  1  0  0  0  0
M  END
>  <MODEL>
       0

$$$$
selected_4mers/VAAV/886_noH.pdb
 OpenBabel03042518353D

 64 63  0  0  1  0  0  0  0  0999 V2000
  -10.1790   41.0320   39.8820 C   0  0  0  0  0  0  0  0  0  0  0  0
   -8.6670   41.1000   40.0410 C   0  0  0  0  0  0  0  0  0  0  0  0
   -8.0740   40.0750   40.3840 O   0  0  0  0  0  0  0  0  0  0  0  0
   -8.0520   42.2600   39.8220 N   0  0  0  0  0  0  0  0  0  0  0  0
   -6.5790   42.3540   39.8480 C   0  0  2  0  0  0  0  0  0  0  0  0
   -6.0900   43.3610   40.8390 C   0  0  0  0  0  0  0  0  0  0  0  0
   -6.5250   44.5240   40.8060 O   0  0  0  0  0  0  0  0  0  0  0  0
   -6.0530   42.6300   38.4070 C   0  0  0  0  0  0  0  0  0  0  0  0
   -4.5550   42.8530   38.4500 C   0  0  0  0  0  0  0  0  0  0  0  0
   -6.4880   41.4830   37.4900 C   0  0  0  0  0  0  0  0  0  0  0  0
   -5.1160   42.9580   41.6530 N   0  0  0  0  0  0  0  0  0  0  0  0
   -4.4310   43.8810   42.5760 C   0  0  2  0  0  0  0  0  0  0  0  0
   -2.9510   44.0870   42.1580 C   0  0  0  0  0  0  0  0  0  0  0  0
   -2.3360   43.1560   41.6320 O   0  0  0  0  0  0  0  0  0  0  0  0
   -4.4620   43.3490   44.0030 C   0  0  0  0  0  0  0  0  0  0  0  0
   -2.4180   45.2600   42.5150 N   0  0  0  0  0  0  0  0  0  0  0  0
   -1.0150   45.5730   42.3900 C   0  0  2  0  0  0  0  0  0  0  0  0
   -0.5400   45.9450   43.8010 C   0  0  0  0  0  0  0  0  0  0  0  0
   -1.0630   46.9070   44.3700 O   0  0  0  0  0  0  0  0  0  0  0  0
   -0.7780   46.7340   41.4210 C   0  0  0  0  0  0  0  0  0  0  0  0
    0.4970   45.2700   44.2900 N   0  0  0  0  0  0  0  0  0  0  0  0
    1.0290   45.5290   45.6100 C   0  0  2  0  0  0  0  0  0  0  0  0
    2.5390   45.7410   45.4600 C   0  0  0  0  0  0  0  0  0  0  0  0
    3.1900   45.0000   44.7220 O   0  0  0  0  0  0  0  0  0  0  0  0
    0.7750   44.3100   46.5600 C   0  0  0  0  0  0  0  0  0  0  0  0
    1.2460   44.6390   47.9650 C   0  0  0  0  0  0  0  0  0  0  0  0
   -0.7050   43.9570   46.5360 C   0  0  0  0  0  0  0  0  0  0  0  0
    3.1140   46.7150   46.1460 N   0  0  0  0  0  0  0  0  0  0  0  0
    4.5440   46.9470   46.0890 C   0  0  0  0  0  0  0  0  0  0  0  0
  -10.5496   41.9902   39.5829 H   0  0  0  0  0  0  0  0  0  0  0  0
  -10.6235   40.7528   40.8144 H   0  0  0  0  0  0  0  0  0  0  0  0
  -10.4270   40.3052   39.1369 H   0  0  0  0  0  0  0  0  0  0  0  0
   -8.5868   43.0663   39.6402 H   0  0  0  0  0  0  0  0  0  0  0  0
   -6.1824   41.4175   40.1804 H   0  0  0  0  0  0  0  0  0  0  0  0
   -6.4750   43.5250   38.0000 H   0  0  0  0  0  0  0  0  0  0  0  0
   -4.0764   41.9842   38.8513 H   0  0  0  0  0  0  0  0  0  0  0  0
   -4.3378   43.6980   39.0694 H   0  0  0  0  0  0  0  0  0  0  0  0
   -4.1928   43.0343   37.4596 H   0  0  0  0  0  0  0  0  0  0  0  0
   -6.0883   40.5611   37.8578 H   0  0  0  0  0  0  0  0  0  0  0  0
   -6.1233   41.6601   36.4998 H   0  0  0  0  0  0  0  0  0  0  0  0
   -7.5564   41.4265   37.4718 H   0  0  0  0  0  0  0  0  0  0  0  0
   -4.8443   42.0118   41.6378 H   0  0  0  0  0  0  0  0  0  0  0  0
   -4.9507   44.8152   42.5302 H   0  0  0  0  0  0  0  0  0  0  0  0
   -3.9419   42.4150   44.0468 H   0  0  0  0  0  0  0  0  0  0  0  0
   -5.4775   43.2064   44.3085 H   0  0  0  0  0  0  0  0  0  0  0  0
   -3.9884   44.0519   44.6561 H   0  0  0  0  0  0  0  0  0  0  0  0
   -3.0165   45.9491   42.8840 H   0  0  0  0  0  0  0  0  0  0  0  0
   -0.4746   44.7391   41.9932 H   0  0  0  0  0  0  0  0  0  0  0  0
   -1.2984   47.6015   41.7697 H   0  0  0  0  0  0  0  0  0  0  0  0
   -1.1396   46.4675   40.4498 H   0  0  0  0  0  0  0  0  0  0  0  0
    0.2696   46.9446   41.3661 H   0  0  0  0  0  0  0  0  0  0  0  0
    0.9155   44.5721   43.7359 H   0  0  0  0  0  0  0  0  0  0  0  0
    0.5513   46.3877   46.0334 H   0  0  0  0  0  0  0  0  0  0  0  0
    1.3316   43.4608   46.2225 H   0  0  0  0  0  0  0  0  0  0  0  0
    0.7067   45.4869   48.3326 H   0  0  0  0  0  0  0  0  0  0  0  0
    2.2923   44.8620   47.9473 H   0  0  0  0  0  0  0  0  0  0  0  0
    1.0709   43.7999   48.6055 H   0  0  0  0  0  0  0  0  0  0  0  0
   -1.2774   44.7966   46.8712 H   0  0  0  0  0  0  0  0  0  0  0  0
   -0.8833   43.1230   47.1821 H   0  0  0  0  0  0  0  0  0  0  0  0
   -0.9950   43.7032   45.5378 H   0  0  0  0  0  0  0  0  0  0  0  0
    2.5561   47.2978   46.7102 H   0  0  0  0  0  0  0  0  0  0  0  0
    4.9958   46.2305   45.4352 H   0  0  0  0  0  0  0  0  0  0  0  0
    4.9608   46.8478   47.0695 H   0  0  0  0  0  0  0  0  0  0  0  0
    4.7308   47.9339   45.7202 H   0  0  0  0  0  0  0  0  0  0  0  0
  1  2  1  0  0  0  0
  1 30  1  0  0  0  0
  1 31  1  0  0  0  0
  1 32  1  0  0  0  0
  2  3  2  0  0  0  0
  4  5  1  0  0  0  0
  4  2  1  0  0  0  0
  4 33  1  0  0  0  0
  5  6  1  0  0  0  0
  5 34  1  1  0  0  0
  6 11  1  0  0  0  0
  7  6  2  0  0  0  0
  8  9  1  0  0  0  0
  8  5  1  0  0  0  0
  8 35  1  0  0  0  0
  9 36  1  0  0  0  0
  9 37  1  0  0  0  0
  9 38  1  0  0  0  0
 10  8  1  0  0  0  0
 10 39  1  0  0  0  0
 10 40  1  0  0  0  0
 10 41  1  0  0  0  0
 11 12  1  0  0  0  0
 11 42  1  0  0  0  0
 12 15  1  0  0  0  0
 12 43  1  6  0  0  0
 13 16  1  0  0  0  0
 13 12  1  0  0  0  0
 14 13  2  0  0  0  0
 15 44  1  0  0  0  0
 15 45  1  0  0  0  0
 15 46  1  0  0  0  0
 16 47  1  0  0  0  0
 17 16  1  0  0  0  0
 17 18  1  0  0  0  0
 17 48  1  6  0  0  0
 18 21  1  0  0  0  0
 18 19  2  0  0  0  0
 20 17  1  0  0  0  0
 20 49  1  0  0  0  0
 20 50  1  0  0  0  0
 20 51  1  0  0  0  0
 21 22  1  0  0  0  0
 21 52  1  0  0  0  0
 22 25  1  0  0  0  0
 22 53  1  1  0  0  0
 23 22  1  0  0  0  0
 23 28  1  0  0  0  0
 24 23  2  0  0  0  0
 25 26  1  0  0  0  0
 25 54  1  0  0  0  0
 26 55  1  0  0  0  0
 26 56  1  0  0  0  0
 26 57  1  0  0  0  0
 27 25  1  0  0  0  0
 27 58  1  0  0  0  0
 27 59  1  0  0  0  0
 27 60  1  0  0  0  0
 28 61  1  0  0  0  0
 29 28  1  0  0  0  0
 29 62  1  0  0  0  0
 29 63  1  0  0  0  0
 29 64  1  0  0  0  0
M  END
>  <MODEL>
       0

$$$$
selected_4mers/VAAV/887_noH.pdb
 OpenBabel03042518353D

 64 63  0  0  1  0  0  0  0  0999 V2000
   23.8620   38.9590    2.8250 C   0  0  0  0  0  0  0  0  0  0  0  0
   22.7610   39.7970    3.4750 C   0  0  0  0  0  0  0  0  0  0  0  0
   22.9980   40.4780    4.4810 O   0  0  0  0  0  0  0  0  0  0  0  0
   21.5610   39.7390    2.8990 N   0  0  0  0  0  0  0  0  0  0  0  0
   20.4140   40.4760    3.4170 C   0  0  2  0  0  0  0  0  0  0  0  0
   20.0270   39.9950    4.8200 C   0  0  0  0  0  0  0  0  0  0  0  0
   19.7360   40.8040    5.7150 O   0  0  0  0  0  0  0  0  0  0  0  0
   19.2010   40.3600    2.4530 C   0  0  0  0  0  0  0  0  0  0  0  0
   17.9250   40.8510    3.1130 C   0  0  0  0  0  0  0  0  0  0  0  0
   19.4870   41.1000    1.1420 C   0  0  0  0  0  0  0  0  0  0  0  0
   20.0290   38.6800    5.0140 N   0  0  0  0  0  0  0  0  0  0  0  0
   19.6900   38.0930    6.2970 C   0  0  2  0  0  0  0  0  0  0  0  0
   20.6780   38.5630    7.3660 C   0  0  0  0  0  0  0  0  0  0  0  0
   20.2840   38.8560    8.4910 O   0  0  0  0  0  0  0  0  0  0  0  0
   19.6970   36.5670    6.2000 C   0  0  0  0  0  0  0  0  0  0  0  0
   21.9560   38.6430    7.0080 N   0  0  0  0  0  0  0  0  0  0  0  0
   22.9870   39.0760    7.9530 C   0  0  2  0  0  0  0  0  0  0  0  0
   22.7360   40.5120    8.4060 C   0  0  0  0  0  0  0  0  0  0  0  0
   22.8640   40.8280    9.5940 O   0  0  0  0  0  0  0  0  0  0  0  0
   24.3750   38.9360    7.3390 C   0  0  0  0  0  0  0  0  0  0  0  0
   22.3670   41.3740    7.4590 N   0  0  0  0  0  0  0  0  0  0  0  0
   22.0810   42.7740    7.7660 C   0  0  2  0  0  0  0  0  0  0  0  0
   20.8420   42.9090    8.6520 C   0  0  0  0  0  0  0  0  0  0  0  0
   20.8650   43.6300    9.6520 O   0  0  0  0  0  0  0  0  0  0  0  0
   21.8850   43.6210    6.4790 C   0  0  0  0  0  0  0  0  0  0  0  0
   21.4010   45.0160    6.8250 C   0  0  0  0  0  0  0  0  0  0  0  0
   23.1850   43.6810    5.6810 C   0  0  0  0  0  0  0  0  0  0  0  0
   19.7660   42.2140    8.2900 N   0  0  0  0  0  0  0  0  0  0  0  0
   18.5250   42.2720    9.0640 C   0  0  0  0  0  0  0  0  0  0  0  0
   23.4644   38.4458    1.9744 H   0  0  0  0  0  0  0  0  0  0  0  0
   24.2313   38.2454    3.5316 H   0  0  0  0  0  0  0  0  0  0  0  0
   24.6609   39.5992    2.5140 H   0  0  0  0  0  0  0  0  0  0  0  0
   21.4447   39.1800    2.0970 H   0  0  0  0  0  0  0  0  0  0  0  0
   20.6981   41.5052    3.4864 H   0  0  0  0  0  0  0  0  0  0  0  0
   19.0522   39.3266    2.2188 H   0  0  0  0  0  0  0  0  0  0  0  0
   18.0294   41.8855    3.3656 H   0  0  0  0  0  0  0  0  0  0  0  0
   17.7419   40.2836    4.0015 H   0  0  0  0  0  0  0  0  0  0  0  0
   17.1044   40.7299    2.4371 H   0  0  0  0  0  0  0  0  0  0  0  0
   19.6406   42.1392    1.3452 H   0  0  0  0  0  0  0  0  0  0  0  0
   18.6551   40.9854    0.4789 H   0  0  0  0  0  0  0  0  0  0  0  0
   20.3651   40.6921    0.6864 H   0  0  0  0  0  0  0  0  0  0  0  0
   20.2675   38.0869    4.2653 H   0  0  0  0  0  0  0  0  0  0  0  0
   18.7066   38.4113    6.5737 H   0  0  0  0  0  0  0  0  0  0  0  0
   20.6748   36.2317    5.9237 H   0  0  0  0  0  0  0  0  0  0  0  0
   18.9902   36.2534    5.4605 H   0  0  0  0  0  0  0  0  0  0  0  0
   19.4309   36.1481    7.1480 H   0  0  0  0  0  0  0  0  0  0  0  0
   22.2145   38.4061    6.0881 H   0  0  0  0  0  0  0  0  0  0  0  0
   22.9389   38.4424    8.8139 H   0  0  0  0  0  0  0  0  0  0  0  0
   24.4472   39.5620    6.4742 H   0  0  0  0  0  0  0  0  0  0  0  0
   24.5389   37.9171    7.0565 H   0  0  0  0  0  0  0  0  0  0  0  0
   25.1132   39.2307    8.0553 H   0  0  0  0  0  0  0  0  0  0  0  0
   22.2850   41.0599    6.5295 H   0  0  0  0  0  0  0  0  0  0  0  0
   22.9333   43.1471    8.2945 H   0  0  0  0  0  0  0  0  0  0  0  0
   21.1381   43.1517    5.8734 H   0  0  0  0  0  0  0  0  0  0  0  0
   22.1327   45.5071    7.4319 H   0  0  0  0  0  0  0  0  0  0  0  0
   20.4780   44.9503    7.3622 H   0  0  0  0  0  0  0  0  0  0  0  0
   21.2509   45.5749    5.9250 H   0  0  0  0  0  0  0  0  0  0  0  0
   23.9450   44.1481    6.2719 H   0  0  0  0  0  0  0  0  0  0  0  0
   23.0290   44.2483    4.7873 H   0  0  0  0  0  0  0  0  0  0  0  0
   23.4922   42.6887    5.4245 H   0  0  0  0  0  0  0  0  0  0  0  0
   19.8057   41.6491    7.4847 H   0  0  0  0  0  0  0  0  0  0  0  0
   18.6560   42.9275    9.8995 H   0  0  0  0  0  0  0  0  0  0  0  0
   18.2774   41.2920    9.4150 H   0  0  0  0  0  0  0  0  0  0  0  0
   17.7344   42.6389    8.4433 H   0  0  0  0  0  0  0  0  0  0  0  0
  1  2  1  0  0  0  0
  1 30  1  0  0  0  0
  1 31  1  0  0  0  0
  1 32  1  0  0  0  0
  2  3  2  0  0  0  0
  4  5  1  0  0  0  0
  4  2  1  0  0  0  0
  4 33  1  0  0  0  0
  5  6  1  0  0  0  0
  5 34  1  1  0  0  0
  6 11  1  0  0  0  0
  6  7  2  0  0  0  0
  8  9  1  0  0  0  0
  8  5  1  0  0  0  0
  8 35  1  0  0  0  0
  9 36  1  0  0  0  0
  9 37  1  0  0  0  0
  9 38  1  0  0  0  0
 10  8  1  0  0  0  0
 10 39  1  0  0  0  0
 10 40  1  0  0  0  0
 10 41  1  0  0  0  0
 11 12  1  0  0  0  0
 11 42  1  0  0  0  0
 12 13  1  0  0  0  0
 12 43  1  1  0  0  0
 13 14  2  0  0  0  0
 15 12  1  0  0  0  0
 15 44  1  0  0  0  0
 15 45  1  0  0  0  0
 15 46  1  0  0  0  0
 16 13  1  0  0  0  0
 16 17  1  0  0  0  0
 16 47  1  0  0  0  0
 17 18  1  0  0  0  0
 17 48  1  1  0  0  0
 18 19  2  0  0  0  0
 20 17  1  0  0  0  0
 20 49  1  0  0  0  0
 20 50  1  0  0  0  0
 20 51  1  0  0  0  0
 21 22  1  0  0  0  0
 21 18  1  0  0  0  0
 21 52  1  0  0  0  0
 22 23  1  0  0  0  0
 22 53  1  1  0  0  0
 23 24  2  0  0  0  0
 25 26  1  0  0  0  0
 25 22  1  0  0  0  0
 25 54  1  0  0  0  0
 26 55  1  0  0  0  0
 26 56  1  0  0  0  0
 26 57  1  0  0  0  0
 27 25  1  0  0  0  0
 27 58  1  0  0  0  0
 27 59  1  0  0  0  0
 27 60  1  0  0  0  0
 28 23  1  0  0  0  0
 28 29  1  0  0  0  0
 28 61  1  0  0  0  0
 29 62  1  0  0  0  0
 29 63  1  0  0  0  0
 29 64  1  0  0  0  0
M  END
>  <MODEL>
       0

$$$$
selected_4mers/VAAV/888_noH.pdb
 OpenBabel03042518353D

 64 63  0  0  1  0  0  0  0  0999 V2000
    3.7290   -6.2080    6.3090 C   0  0  0  0  0  0  0  0  0  0  0  0
    4.6200   -5.0850    6.8480 C   0  0  0  0  0  0  0  0  0  0  0  0
    4.7860   -4.0530    6.1970 O   0  0  0  0  0  0  0  0  0  0  0  0
    5.1970   -5.2740    8.0310 N   0  0  0  0  0  0  0  0  0  0  0  0
    6.0580   -4.2420    8.6010 C   0  0  2  0  0  0  0  0  0  0  0  0
    7.2920   -3.9910    7.7380 C   0  0  0  0  0  0  0  0  0  0  0  0
    7.8860   -2.9170    7.7970 O   0  0  0  0  0  0  0  0  0  0  0  0
    6.5170   -4.6040   10.0310 C   0  0  0  0  0  0  0  0  0  0  0  0
    5.3260   -4.6050   10.9700 C   0  0  0  0  0  0  0  0  0  0  0  0
    7.1980   -5.9550   10.0320 C   0  0  0  0  0  0  0  0  0  0  0  0
    7.6640   -4.9770    6.9240 N   0  0  0  0  0  0  0  0  0  0  0  0
    8.8300   -4.8400    6.0550 C   0  0  2  0  0  0  0  0  0  0  0  0
    8.6010   -3.7590    4.9970 C   0  0  0  0  0  0  0  0  0  0  0  0
    9.5510   -3.2350    4.4180 O   0  0  0  0  0  0  0  0  0  0  0  0
    9.1410   -6.1750    5.3810 C   0  0  0  0  0  0  0  0  0  0  0  0
    7.3370   -3.4240    4.7540 N   0  0  0  0  0  0  0  0  0  0  0  0
    6.9950   -2.4040    3.7660 C   0  0  2  0  0  0  0  0  0  0  0  0
    7.0300   -0.9960    4.3640 C   0  0  0  0  0  0  0  0  0  0  0  0
    6.8350   -0.0090    3.6520 O   0  0  0  0  0  0  0  0  0  0  0  0
    5.6120   -2.6870    3.1820 C   0  0  0  0  0  0  0  0  0  0  0  0
    7.2820   -0.9050    5.6660 N   0  0  0  0  0  0  0  0  0  0  0  0
    7.3330    0.3910    6.3420 C   0  0  2  0  0  0  0  0  0  0  0  0
    8.7420    0.6590    6.8780 C   0  0  0  0  0  0  0  0  0  0  0  0
    9.0540    0.3380    8.0210 O   0  0  0  0  0  0  0  0  0  0  0  0
    6.3080    0.4470    7.5070 C   0  0  0  0  0  0  0  0  0  0  0  0
    6.2630    1.8480    8.1030 C   0  0  0  0  0  0  0  0  0  0  0  0
    4.9240    0.0500    6.9980 C   0  0  0  0  0  0  0  0  0  0  0  0
    9.6090    1.2610    6.0480 N   0  0  0  0  0  0  0  0  0  0  0  0
   10.9980    1.5900    6.3910 C   0  0  0  0  0  0  0  0  0  0  0  0
    3.3333   -5.9233    5.3565 H   0  0  0  0  0  0  0  0  0  0  0  0
    2.9240   -6.3834    6.9917 H   0  0  0  0  0  0  0  0  0  0  0  0
    4.3072   -7.1019    6.2022 H   0  0  0  0  0  0  0  0  0  0  0  0
    5.0431   -6.1122    8.5239 H   0  0  0  0  0  0  0  0  0  0  0  0
    5.4665   -3.3510    8.6355 H   0  0  0  0  0  0  0  0  0  0  0  0
    7.2193   -3.8717   10.3707 H   0  0  0  0  0  0  0  0  0  0  0  0
    4.6141   -5.3336   10.6424 H   0  0  0  0  0  0  0  0  0  0  0  0
    4.8710   -3.6366   10.9700 H   0  0  0  0  0  0  0  0  0  0  0  0
    5.6526   -4.8456   11.9601 H   0  0  0  0  0  0  0  0  0  0  0  0
    6.5098   -6.7016    9.6945 H   0  0  0  0  0  0  0  0  0  0  0  0
    7.5215   -6.1906   11.0243 H   0  0  0  0  0  0  0  0  0  0  0  0
    8.0444   -5.9283    9.3779 H   0  0  0  0  0  0  0  0  0  0  0  0
    7.1441   -5.8129    6.9076 H   0  0  0  0  0  0  0  0  0  0  0  0
    9.6642   -4.5473    6.6578 H   0  0  0  0  0  0  0  0  0  0  0  0
    8.3093   -6.4718    4.7769 H   0  0  0  0  0  0  0  0  0  0  0  0
    9.3220   -6.9185    6.1289 H   0  0  0  0  0  0  0  0  0  0  0  0
   10.0096   -6.0698    4.7651 H   0  0  0  0  0  0  0  0  0  0  0  0
    6.6159   -3.8735    5.2511 H   0  0  0  0  0  0  0  0  0  0  0  0
    7.7300   -2.4455    2.9895 H   0  0  0  0  0  0  0  0  0  0  0  0
    4.8802   -2.6446    3.9615 H   0  0  0  0  0  0  0  0  0  0  0  0
    5.6046   -3.6607    2.7384 H   0  0  0  0  0  0  0  0  0  0  0  0
    5.3826   -1.9540    2.4371 H   0  0  0  0  0  0  0  0  0  0  0  0
    7.4374   -1.7265    6.1858 H   0  0  0  0  0  0  0  0  0  0  0  0
    7.0809    1.1466    5.6276 H   0  0  0  0  0  0  0  0  0  0  0  0
    6.6116   -0.2398    8.2693 H   0  0  0  0  0  0  0  0  0  0  0  0
    5.9605    2.5461    7.3507 H   0  0  0  0  0  0  0  0  0  0  0  0
    7.2343    2.1128    8.4654 H   0  0  0  0  0  0  0  0  0  0  0  0
    5.5626    1.8693    8.9116 H   0  0  0  0  0  0  0  0  0  0  0  0
    4.6149    0.7336    6.2351 H   0  0  0  0  0  0  0  0  0  0  0  0
    4.2246    0.0787    7.8073 H   0  0  0  0  0  0  0  0  0  0  0  0
    4.9628   -0.9405    6.5950 H   0  0  0  0  0  0  0  0  0  0  0  0
    9.2912    1.4982    5.1469 H   0  0  0  0  0  0  0  0  0  0  0  0
   11.2017    1.2765    7.3936 H   0  0  0  0  0  0  0  0  0  0  0  0
   11.1443    2.6469    6.3111 H   0  0  0  0  0  0  0  0  0  0  0  0
   11.6604    1.0864    5.7183 H   0  0  0  0  0  0  0  0  0  0  0  0
  1  2  1  0  0  0  0
  1 30  1  0  0  0  0
  1 31  1  0  0  0  0
  1 32  1  0  0  0  0
  2  4  1  0  0  0  0
  3  2  2  0  0  0  0
  4  5  1  0  0  0  0
  4 33  1  0  0  0  0
  5  8  1  0  0  0  0
  5 34  1  1  0  0  0
  6  7  2  0  0  0  0
  6  5  1  0  0  0  0
  8 10  1  0  0  0  0
  8  9  1  0  0  0  0
  8 35  1  0  0  0  0
  9 36  1  0  0  0  0
  9 37  1  0  0  0  0
  9 38  1  0  0  0  0
 10 39  1  0  0  0  0
 10 40  1  0  0  0  0
 10 41  1  0  0  0  0
 11  6  1  0  0  0  0
 11 42  1  0  0  0  0
 12 11  1  0  0  0  0
 12 43  1  1  0  0  0
 13 12  1  0  0  0  0
 14 13  2  0  0  0  0
 15 12  1  0  0  0  0
 15 44  1  0  0  0  0
 15 45  1  0  0  0  0
 15 46  1  0  0  0  0
 16 13  1  0  0  0  0
 16 47  1  0  0  0  0
 17 18  1  0  0  0  0
 17 16  1  0  0  0  0
 17 48  1  6  0  0  0
 18 21  1  0  0  0  0
 19 18  2  0  0  0  0
 20 17  1  0  0  0  0
 20 49  1  0  0  0  0
 20 50  1  0  0  0  0
 20 51  1  0  0  0  0
 21 22  1  0  0  0  0
 21 52  1  0  0  0  0
 22 23  1  0  0  0  0
 22 25  1  0  0  0  0
 22 53  1  6  0  0  0
 23 24  2  0  0  0  0
 25 26  1  0  0  0  0
 25 54  1  0  0  0  0
 26 55  1  0  0  0  0
 26 56  1  0  0  0  0
 26 57  1  0  0  0  0
 27 25  1  0  0  0  0
 27 58  1  0  0  0  0
 27 59  1  0  0  0  0
 27 60  1  0  0  0  0
 28 29  1  0  0  0  0
 28 23  1  0  0  0  0
 28 61  1  0  0  0  0
 29 62  1  0  0  0  0
 29 63  1  0  0  0  0
 29 64  1  0  0  0  0
M  END
>  <MODEL>
       0

$$$$
selected_4mers/VAAV/889_noH.pdb
 OpenBabel03042518353D

 64 63  0  0  1  0  0  0  0  0999 V2000
  -17.6760  -12.3680   16.2710 C   0  0  0  0  0  0  0  0  0  0  0  0
  -17.0060  -11.8660   17.5520 C   0  0  0  0  0  0  0  0  0  0  0  0
  -17.1200  -12.4760   18.6150 O   0  0  0  0  0  0  0  0  0  0  0  0
  -16.3220  -10.7310   17.4430 N   0  0  0  0  0  0  0  0  0  0  0  0
  -15.6990  -10.1280   18.6090 C   0  0  2  0  0  0  0  0  0  0  0  0
  -16.7740   -9.7540   19.6400 C   0  0  0  0  0  0  0  0  0  0  0  0
  -16.6110   -9.9900   20.8250 O   0  0  0  0  0  0  0  0  0  0  0  0
  -14.8010   -8.9470   18.2110 C   0  0  0  0  0  0  0  0  0  0  0  0
  -14.4280   -8.1070   19.4610 C   0  0  0  0  0  0  0  0  0  0  0  0
  -13.5520   -9.4770   17.5190 C   0  0  0  0  0  0  0  0  0  0  0  0
  -17.8870   -9.1900   19.1710 N   0  0  0  0  0  0  0  0  0  0  0  0
  -18.9940   -8.9080   20.0710 C   0  0  2  0  0  0  0  0  0  0  0  0
  -19.4720  -10.1700   20.7980 C   0  0  0  0  0  0  0  0  0  0  0  0
  -19.7440  -10.1080   22.0130 O   0  0  0  0  0  0  0  0  0  0  0  0
  -20.1450   -8.2610   19.3330 C   0  0  0  0  0  0  0  0  0  0  0  0
  -19.5810  -11.2880   20.0720 N   0  0  0  0  0  0  0  0  0  0  0  0
  -20.0470  -12.5340   20.6910 C   0  0  2  0  0  0  0  0  0  0  0  0
  -19.0960  -12.9880   21.7910 C   0  0  0  0  0  0  0  0  0  0  0  0
  -19.5300  -13.3440   22.8850 O   0  0  0  0  0  0  0  0  0  0  0  0
  -20.2110  -13.6110   19.6500 C   0  0  0  0  0  0  0  0  0  0  0  0
  -17.8010  -12.9480   21.5050 N   0  0  0  0  0  0  0  0  0  0  0  0
  -16.7930  -13.3590   22.4900 C   0  0  2  0  0  0  0  0  0  0  0  0
  -16.8110  -12.4090   23.6940 C   0  0  0  0  0  0  0  0  0  0  0  0
  -16.7260  -12.8520   24.8340 O   0  0  0  0  0  0  0  0  0  0  0  0
  -15.4030  -13.4970   21.8350 C   0  0  0  0  0  0  0  0  0  0  0  0
  -14.3160  -13.7260   22.8960 C   0  0  0  0  0  0  0  0  0  0  0  0
  -15.4140  -14.6630   20.8280 C   0  0  0  0  0  0  0  0  0  0  0  0
  -16.9070  -11.1090   23.4350 N   0  0  0  0  0  0  0  0  0  0  0  0
  -16.9980  -10.1410   24.5300 C   0  0  0  0  0  0  0  0  0  0  0  0
  -17.4540  -11.6984   15.4664 H   0  0  0  0  0  0  0  0  0  0  0  0
  -18.7352  -12.4123   16.4163 H   0  0  0  0  0  0  0  0  0  0  0  0
  -17.3073  -13.3442   16.0346 H   0  0  0  0  0  0  0  0  0  0  0  0
  -16.2369  -10.2952   16.5643 H   0  0  0  0  0  0  0  0  0  0  0  0
  -15.0501  -10.8403   19.0743 H   0  0  0  0  0  0  0  0  0  0  0  0
  -15.3289   -8.3086   17.5338 H   0  0  0  0  0  0  0  0  0  0  0  0
  -13.8973   -8.7213   20.1581 H   0  0  0  0  0  0  0  0  0  0  0  0
  -15.3202   -7.7353   19.9202 H   0  0  0  0  0  0  0  0  0  0  0  0
  -13.8093   -7.2851   19.1668 H   0  0  0  0  0  0  0  0  0  0  0  0
  -13.0172  -10.1170   18.1893 H   0  0  0  0  0  0  0  0  0  0  0  0
  -12.9268   -8.6567   17.2341 H   0  0  0  0  0  0  0  0  0  0  0  0
  -13.8345  -10.0297   16.6474 H   0  0  0  0  0  0  0  0  0  0  0  0
  -17.9596   -8.9644   18.2155 H   0  0  0  0  0  0  0  0  0  0  0  0
  -18.6312   -8.2217   20.8074 H   0  0  0  0  0  0  0  0  0  0  0  0
  -20.5186   -8.9367   18.5922 H   0  0  0  0  0  0  0  0  0  0  0  0
  -19.8054   -7.3640   18.8587 H   0  0  0  0  0  0  0  0  0  0  0  0
  -20.9252   -8.0246   20.0260 H   0  0  0  0  0  0  0  0  0  0  0  0
  -19.3470  -11.2748   19.1158 H   0  0  0  0  0  0  0  0  0  0  0  0
  -21.0008  -12.3467   21.1383 H   0  0  0  0  0  0  0  0  0  0  0  0
  -19.2650  -13.8112   19.1918 H   0  0  0  0  0  0  0  0  0  0  0  0
  -20.9060  -13.2841   18.9050 H   0  0  0  0  0  0  0  0  0  0  0  0
  -20.5784  -14.5025   20.1139 H   0  0  0  0  0  0  0  0  0  0  0  0
  -17.5111  -12.6373   20.6169 H   0  0  0  0  0  0  0  0  0  0  0  0
  -17.0364  -14.3319   22.8630 H   0  0  0  0  0  0  0  0  0  0  0  0
  -15.1793  -12.5862   21.3200 H   0  0  0  0  0  0  0  0  0  0  0  0
  -14.5195  -14.6336   23.4250 H   0  0  0  0  0  0  0  0  0  0  0  0
  -14.3103  -12.9061   23.5835 H   0  0  0  0  0  0  0  0  0  0  0  0
  -13.3611  -13.7979   22.4186 H   0  0  0  0  0  0  0  0  0  0  0  0
  -15.6375  -15.5751   21.3409 H   0  0  0  0  0  0  0  0  0  0  0  0
  -14.4537  -14.7415   20.3627 H   0  0  0  0  0  0  0  0  0  0  0  0
  -16.1585  -14.4822   20.0810 H   0  0  0  0  0  0  0  0  0  0  0  0
  -16.9170  -10.7951   22.5019 H   0  0  0  0  0  0  0  0  0  0  0  0
  -16.9724  -10.6582   25.4663 H   0  0  0  0  0  0  0  0  0  0  0  0
  -17.9150   -9.5957   24.4487 H   0  0  0  0  0  0  0  0  0  0  0  0
  -16.1730   -9.4618   24.4751 H   0  0  0  0  0  0  0  0  0  0  0  0
  1  2  1  0  0  0  0
  1 30  1  0  0  0  0
  1 31  1  0  0  0  0
  1 32  1  0  0  0  0
  2  3  2  0  0  0  0
  4  2  1  0  0  0  0
  4  5  1  0  0  0  0
  4 33  1  0  0  0  0
  5  6  1  0  0  0  0
  5 34  1  1  0  0  0
  6  7  2  0  0  0  0
  8  5  1  0  0  0  0
  8  9  1  0  0  0  0
  8 35  1  0  0  0  0
  9 36  1  0  0  0  0
  9 37  1  0  0  0  0
  9 38  1  0  0  0  0
 10  8  1  0  0  0  0
 10 39  1  0  0  0  0
 10 40  1  0  0  0  0
 10 41  1  0  0  0  0
 11  6  1  0  0  0  0
 11 12  1  0  0  0  0
 11 42  1  0  0  0  0
 12 13  1  0  0  0  0
 12 43  1  1  0  0  0
 13 14  2  0  0  0  0
 15 12  1  0  0  0  0
 15 44  1  0  0  0  0
 15 45  1  0  0  0  0
 15 46  1  0  0  0  0
 16 17  1  0  0  0  0
 16 13  1  0  0  0  0
 16 47  1  0  0  0  0
 17 18  1  0  0  0  0
 17 48  1  1  0  0  0
 18 19  2  0  0  0  0
 20 17  1  0  0  0  0
 20 49  1  0  0  0  0
 20 50  1  0  0  0  0
 20 51  1  0  0  0  0
 21 18  1  0  0  0  0
 21 22  1  0  0  0  0
 21 52  1  0  0  0  0
 22 23  1  0  0  0  0
 22 53  1  1  0  0  0
 23 24  2  0  0  0  0
 25 22  1  0  0  0  0
 25 26  1  0  0  0  0
 25 54  1  0  0  0  0
 26 55  1  0  0  0  0
 26 56  1  0  0  0  0
 26 57  1  0  0  0  0
 27 25  1  0  0  0  0
 27 58  1  0  0  0  0
 27 59  1  0  0  0  0
 27 60  1  0  0  0  0
 28 23  1  0  0  0  0
 28 29  1  0  0  0  0
 28 61  1  0  0  0  0
 29 62  1  0  0  0  0
 29 63  1  0  0  0  0
 29 64  1  0  0  0  0
M  END
>  <MODEL>
       0

$$$$
