selected_4mers/VALV/880_noH.pdb
 OpenBabel03042518353D

 73 72  0  0  1  0  0  0  0  0999 V2000
    0.7230   17.2630   -9.1290 C   0  0  0  0  0  0  0  0  0  0  0  0
    2.2090   17.4490   -8.7580 C   0  0  0  0  0  0  0  0  0  0  0  0
    3.0570   16.9800   -9.5120 O   0  0  0  0  0  0  0  0  0  0  0  0
    2.4110   18.1010   -7.6080 N   0  0  0  0  0  0  0  0  0  0  0  0
    3.7870   18.3660   -7.1700 C   0  0  2  0  0  0  0  0  0  0  0  0
    4.0490   17.7590   -5.7760 C   0  0  0  0  0  0  0  0  0  0  0  0
    3.1760   17.8320   -4.8910 O   0  0  0  0  0  0  0  0  0  0  0  0
    3.8990   19.9110   -6.9700 C   0  0  0  0  0  0  0  0  0  0  0  0
    5.1830   20.3900   -6.3160 C   0  0  0  0  0  0  0  0  0  0  0  0
    3.7490   20.6270   -8.3310 C   0  0  0  0  0  0  0  0  0  0  0  0
    5.2470   17.1920   -5.5680 N   0  0  0  0  0  0  0  0  0  0  0  0
    5.6000   16.6850   -4.2580 C   0  0  2  0  0  0  0  0  0  0  0  0
    6.8560   17.4110   -3.7160 C   0  0  0  0  0  0  0  0  0  0  0  0
    7.8120   17.5750   -4.4870 O   0  0  0  0  0  0  0  0  0  0  0  0
    5.9990   15.2200   -4.3420 C   0  0  0  0  0  0  0  0  0  0  0  0
    6.8230   17.7110   -2.4420 N   0  0  0  0  0  0  0  0  0  0  0  0
    8.0090   18.2820   -1.7500 C   0  0  2  0  0  0  0  0  0  0  0  0
    8.5570   17.1400   -0.9030 C   0  0  0  0  0  0  0  0  0  0  0  0
    7.8410   16.6100   -0.0250 O   0  0  0  0  0  0  0  0  0  0  0  0
    7.6120   19.4660   -0.9040 C   0  0  0  0  0  0  0  0  0  0  0  0
    8.5900   19.9420    0.1840 C   0  0  0  0  0  0  0  0  0  0  0  0
    9.9260   20.3110   -0.4890 C   0  0  0  0  0  0  0  0  0  0  0  0
    8.0080   21.1200    0.9590 C   0  0  0  0  0  0  0  0  0  0  0  0
    9.8240   16.7620   -1.1420 N   0  0  0  0  0  0  0  0  0  0  0  0
   10.4280   15.6770   -0.3860 C   0  0  2  0  0  0  0  0  0  0  0  0
   11.6390   16.2190    0.3940 C   0  0  0  0  0  0  0  0  0  0  0  0
   12.5620   16.7070   -0.2660 O   0  0  0  0  0  0  0  0  0  0  0  0
   10.9290   14.5110   -1.2440 C   0  0  0  0  0  0  0  0  0  0  0  0
   11.5620   13.3710   -0.4740 C   0  0  0  0  0  0  0  0  0  0  0  0
    9.7800   13.9740   -2.1450 C   0  0  0  0  0  0  0  0  0  0  0  0
   11.6200   16.0930    1.7110 N   0  0  0  0  0  0  0  0  0  0  0  0
   12.7720   16.6530    2.4660 C   0  0  0  0  0  0  0  0  0  0  0  0
    0.6504   16.7353  -10.0570 H   0  0  0  0  0  0  0  0  0  0  0  0
    0.2570   18.2213   -9.2262 H   0  0  0  0  0  0  0  0  0  0  0  0
    0.2310   16.7034   -8.3611 H   0  0  0  0  0  0  0  0  0  0  0  0
    1.6475   18.3992   -7.0626 H   0  0  0  0  0  0  0  0  0  0  0  0
    4.4682   17.9594   -7.8880 H   0  0  0  0  0  0  0  0  0  0  0  0
    3.1073   20.1571   -6.2936 H   0  0  0  0  0  0  0  0  0  0  0  0
    6.0127   20.1676   -6.9540 H   0  0  0  0  0  0  0  0  0  0  0  0
    5.3119   19.8933   -5.3771 H   0  0  0  0  0  0  0  0  0  0  0  0
    5.1292   21.4466   -6.1561 H   0  0  0  0  0  0  0  0  0  0  0  0
    4.5608   20.3505   -8.9708 H   0  0  0  0  0  0  0  0  0  0  0  0
    3.7588   21.6862   -8.1798 H   0  0  0  0  0  0  0  0  0  0  0  0
    2.8235   20.3401   -8.7849 H   0  0  0  0  0  0  0  0  0  0  0  0
    5.8899   17.1201   -6.3101 H   0  0  0  0  0  0  0  0  0  0  0  0
    4.7462   16.8338   -3.6305 H   0  0  0  0  0  0  0  0  0  0  0  0
    6.8539   15.1191   -4.9775 H   0  0  0  0  0  0  0  0  0  0  0  0
    5.1866   14.6516   -4.7441 H   0  0  0  0  0  0  0  0  0  0  0  0
    6.2373   14.8586   -3.3635 H   0  0  0  0  0  0  0  0  0  0  0  0
    5.9957   17.5553   -1.9315 H   0  0  0  0  0  0  0  0  0  0  0  0
    8.7456   18.6481   -2.4344 H   0  0  0  0  0  0  0  0  0  0  0  0
    6.6933   19.2141   -0.4167 H   0  0  0  0  0  0  0  0  0  0  0  0
    7.5657   20.2820   -1.5946 H   0  0  0  0  0  0  0  0  0  0  0  0
    8.7575   19.1586    0.8934 H   0  0  0  0  0  0  0  0  0  0  0  0
    9.7631   21.0944   -1.1994 H   0  0  0  0  0  0  0  0  0  0  0  0
   10.3224   19.4523   -0.9895 H   0  0  0  0  0  0  0  0  0  0  0  0
   10.6203   20.6426    0.2546 H   0  0  0  0  0  0  0  0  0  0  0  0
    7.8229   21.9322    0.2875 H   0  0  0  0  0  0  0  0  0  0  0  0
    8.7029   21.4304    1.7111 H   0  0  0  0  0  0  0  0  0  0  0  0
    7.0900   20.8237    1.4220 H   0  0  0  0  0  0  0  0  0  0  0  0
   10.3482   17.2241   -1.8355 H   0  0  0  0  0  0  0  0  0  0  0  0
    9.6532   15.3028    0.2500 H   0  0  0  0  0  0  0  0  0  0  0  0
   11.7174   14.9211   -1.8399 H   0  0  0  0  0  0  0  0  0  0  0  0
   10.8252   12.9093    0.1495 H   0  0  0  0  0  0  0  0  0  0  0  0
   12.3572   13.7493    0.1338 H   0  0  0  0  0  0  0  0  0  0  0  0
   11.9508   12.6489   -1.1613 H   0  0  0  0  0  0  0  0  0  0  0  0
    9.0038   13.5693   -1.5297 H   0  0  0  0  0  0  0  0  0  0  0  0
   10.1599   13.2089   -2.7893 H   0  0  0  0  0  0  0  0  0  0  0  0
    9.3861   14.7745   -2.7356 H   0  0  0  0  0  0  0  0  0  0  0  0
   10.8735   15.6466    2.1722 H   0  0  0  0  0  0  0  0  0  0  0  0
   13.4678   17.0914    1.7815 H   0  0  0  0  0  0  0  0  0  0  0  0
   13.2547   15.8700    3.0127 H   0  0  0  0  0  0  0  0  0  0  0  0
   12.4225   17.4006    3.1471 H   0  0  0  0  0  0  0  0  0  0  0  0
  1  2  1  0  0  0  0
  1 33  1  0  0  0  0
  1 34  1  0  0  0  0
  1 35  1  0  0  0  0
  2  4  1  0  0  0  0
  3  2  2  0  0  0  0
  4  5  1  0  0  0  0
  4 36  1  0  0  0  0
  5  8  1  0  0  0  0
  5  6  1  0  0  0  0
  5 37  1  6  0  0  0
  6 11  1  0  0  0  0
  6  7  2  0  0  0  0
  8  9  1  0  0  0  0
  8 38  1  0  0  0  0
  9 39  1  0  0  0  0
  9 40  1  0  0  0  0
  9 41  1  0  0  0  0
 10  8  1  0  0  0  0
 10 42  1  0  0  0  0
 10 43  1  0  0  0  0
 10 44  1  0  0  0  0
 11 12  1  0  0  0  0
 11 45  1  0  0  0  0
 12 13  1  0  0  0  0
 12 46  1  1  0  0  0
 13 16  1  0  0  0  0
 14 13  2  0  0  0  0
 15 12  1  0  0  0  0
 15 47  1  0  0  0  0
 15 48  1  0  0  0  0
 15 49  1  0  0  0  0
 16 17  1  0  0  0  0
 16 50  1  0  0  0  0
 17 20  1  0  0  0  0
 17 18  1  0  0  0  0
 17 51  1  6  0  0  0
 18 19  2  0  0  0  0
 20 21  1  0  0  0  0
 20 52  1  0  0  0  0
 20 53  1  0  0  0  0
 21 23  1  0  0  0  0
 21 54  1  0  0  0  0
 22 21  1  0  0  0  0
 22 55  1  0  0  0  0
 22 56  1  0  0  0  0
 22 57  1  0  0  0  0
 23 58  1  0  0  0  0
 23 59  1  0  0  0  0
 23 60  1  0  0  0  0
 24 18  1  0  0  0  0
 24 25  1  0  0  0  0
 24 61  1  0  0  0  0
 25 26  1  0  0  0  0
 25 62  1  1  0  0  0
 26 31  1  0  0  0  0
 27 26  2  0  0  0  0
 28 29  1  0  0  0  0
 28 25  1  0  0  0  0
 28 63  1  0  0  0  0
 29 64  1  0  0  0  0
 29 65  1  0  0  0  0
 29 66  1  0  0  0  0
 30 28  1  0  0  0  0
 30 67  1  0  0  0  0
 30 68  1  0  0  0  0
 30 69  1  0  0  0  0
 31 32  1  0  0  0  0
 31 70  1  0  0  0  0
 32 71  1  0  0  0  0
 32 72  1  0  0  0  0
 32 73  1  0  0  0  0
M  END
>  <MODEL>
       0

$$$$
selected_4mers/VALV/881_noH.pdb
 OpenBabel03042518353D

 73 72  0  0  1  0  0  0  0  0999 V2000
  -31.7040  -12.8190  -25.6030 C   0  0  0  0  0  0  0  0  0  0  0  0
  -31.2400  -14.2510  -25.8720 C   0  0  0  0  0  0  0  0  0  0  0  0
  -31.5190  -15.1740  -25.1010 O   0  0  0  0  0  0  0  0  0  0  0  0
  -30.5330  -14.4430  -26.9850 N   0  0  0  0  0  0  0  0  0  0  0  0
  -30.0230  -15.7730  -27.3420 C   0  0  2  0  0  0  0  0  0  0  0  0
  -29.0760  -16.3430  -26.2760 C   0  0  0  0  0  0  0  0  0  0  0  0
  -28.2480  -15.6170  -25.7260 O   0  0  0  0  0  0  0  0  0  0  0  0
  -29.3040  -15.7090  -28.7180 C   0  0  0  0  0  0  0  0  0  0  0  0
  -28.4570  -16.9790  -28.9260 C   0  0  0  0  0  0  0  0  0  0  0  0
  -30.3440  -15.4900  -29.8360 C   0  0  0  0  0  0  0  0  0  0  0  0
  -29.2140  -17.6350  -25.9710 N   0  0  0  0  0  0  0  0  0  0  0  0
  -28.2820  -18.3230  -25.0710 C   0  0  2  0  0  0  0  0  0  0  0  0
  -26.9690  -18.5640  -25.8080 C   0  0  0  0  0  0  0  0  0  0  0  0
  -26.9930  -19.0960  -26.9260 O   0  0  0  0  0  0  0  0  0  0  0  0
  -28.8700  -19.6480  -24.6210 C   0  0  0  0  0  0  0  0  0  0  0  0
  -25.8440  -18.1980  -25.1870 N   0  0  0  0  0  0  0  0  0  0  0  0
  -24.5290  -18.1920  -25.8840 C   0  0  2  0  0  0  0  0  0  0  0  0
  -23.6310  -19.3680  -25.4760 C   0  0  0  0  0  0  0  0  0  0  0  0
  -23.2220  -20.1550  -26.3180 O   0  0  0  0  0  0  0  0  0  0  0  0
  -23.8000  -16.8760  -25.6310 C   0  0  0  0  0  0  0  0  0  0  0  0
  -24.5070  -15.5990  -26.1040 C   0  0  0  0  0  0  0  0  0  0  0  0
  -23.7350  -14.3560  -25.6360 C   0  0  0  0  0  0  0  0  0  0  0  0
  -24.7400  -15.5780  -27.6240 C   0  0  0  0  0  0  0  0  0  0  0  0
  -23.3130  -19.4260  -24.1810 N   0  0  0  0  0  0  0  0  0  0  0  0
  -22.4430  -20.4250  -23.5720 C   0  0  2  0  0  0  0  0  0  0  0  0
  -22.8310  -20.5480  -22.1030 C   0  0  0  0  0  0  0  0  0  0  0  0
  -23.6620  -19.7800  -21.6090 O   0  0  0  0  0  0  0  0  0  0  0  0
  -20.9370  -20.0290  -23.6600 C   0  0  0  0  0  0  0  0  0  0  0  0
  -20.4590  -20.0160  -25.1180 C   0  0  0  0  0  0  0  0  0  0  0  0
  -20.6700  -18.6830  -22.9530 C   0  0  0  0  0  0  0  0  0  0  0  0
  -22.2180  -21.5050  -21.4110 N   0  0  0  0  0  0  0  0  0  0  0  0
  -22.4170  -21.6810  -19.9760 C   0  0  0  0  0  0  0  0  0  0  0  0
  -31.3578  -12.1787  -26.3872 H   0  0  0  0  0  0  0  0  0  0  0  0
  -31.3059  -12.4848  -24.6677 H   0  0  0  0  0  0  0  0  0  0  0  0
  -32.7730  -12.7915  -25.5658 H   0  0  0  0  0  0  0  0  0  0  0  0
  -30.3492  -13.6795  -27.5787 H   0  0  0  0  0  0  0  0  0  0  0  0
  -30.8628  -16.4334  -27.4014 H   0  0  0  0  0  0  0  0  0  0  0  0
  -28.6300  -14.8785  -28.7476 H   0  0  0  0  0  0  0  0  0  0  0  0
  -29.0928  -17.8393  -28.9038 H   0  0  0  0  0  0  0  0  0  0  0  0
  -27.7285  -17.0536  -28.1458 H   0  0  0  0  0  0  0  0  0  0  0  0
  -27.9614  -16.9261  -29.8728 H   0  0  0  0  0  0  0  0  0  0  0  0
  -31.0398  -16.3028  -29.8401 H   0  0  0  0  0  0  0  0  0  0  0  0
  -29.8461  -15.4420  -30.7819 H   0  0  0  0  0  0  0  0  0  0  0  0
  -30.8675  -14.5732  -29.6616 H   0  0  0  0  0  0  0  0  0  0  0  0
  -29.9629  -18.1409  -26.3613 H   0  0  0  0  0  0  0  0  0  0  0  0
  -28.1075  -17.7164  -24.2070 H   0  0  0  0  0  0  0  0  0  0  0  0
  -29.0503  -20.2667  -25.4752 H   0  0  0  0  0  0  0  0  0  0  0  0
  -29.7917  -19.4728  -24.1065 H   0  0  0  0  0  0  0  0  0  0  0  0
  -28.1825  -20.1386  -23.9641 H   0  0  0  0  0  0  0  0  0  0  0  0
  -25.8861  -17.9247  -24.2421 H   0  0  0  0  0  0  0  0  0  0  0  0
  -24.7371  -18.2992  -26.9281 H   0  0  0  0  0  0  0  0  0  0  0  0
  -23.6433  -16.7889  -24.5761 H   0  0  0  0  0  0  0  0  0  0  0  0
  -22.9026  -16.9338  -26.2108 H   0  0  0  0  0  0  0  0  0  0  0  0
  -25.4781  -15.5876  -25.6549 H   0  0  0  0  0  0  0  0  0  0  0  0
  -22.7605  -14.3540  -26.0779 H   0  0  0  0  0  0  0  0  0  0  0  0
  -23.6432  -14.3735  -24.5701 H   0  0  0  0  0  0  0  0  0  0  0  0
  -24.2636  -13.4747  -25.9340 H   0  0  0  0  0  0  0  0  0  0  0  0
  -23.7970  -15.5882  -28.1296 H   0  0  0  0  0  0  0  0  0  0  0  0
  -25.2778  -14.6921  -27.8902 H   0  0  0  0  0  0  0  0  0  0  0  0
  -25.3073  -16.4390  -27.9098 H   0  0  0  0  0  0  0  0  0  0  0  0
  -23.6968  -18.7390  -23.5894 H   0  0  0  0  0  0  0  0  0  0  0  0
  -22.5660  -21.3483  -24.0986 H   0  0  0  0  0  0  0  0  0  0  0  0
  -20.3664  -20.7721  -23.1432 H   0  0  0  0  0  0  0  0  0  0  0  0
  -21.0100  -19.2815  -25.6674 H   0  0  0  0  0  0  0  0  0  0  0  0
  -20.6172  -20.9803  -25.5538 H   0  0  0  0  0  0  0  0  0  0  0  0
  -19.4165  -19.7771  -25.1494 H   0  0  0  0  0  0  0  0  0  0  0  0
  -21.2241  -17.9081  -23.4403 H   0  0  0  0  0  0  0  0  0  0  0  0
  -19.6251  -18.4572  -22.9988 H   0  0  0  0  0  0  0  0  0  0  0  0
  -20.9757  -18.7507  -21.9298 H   0  0  0  0  0  0  0  0  0  0  0  0
  -21.6083  -22.1163  -21.8840 H   0  0  0  0  0  0  0  0  0  0  0  0
  -23.1030  -20.9421  -19.6178 H   0  0  0  0  0  0  0  0  0  0  0  0
  -21.4803  -21.5731  -19.4701 H   0  0  0  0  0  0  0  0  0  0  0  0
  -22.8135  -22.6569  -19.7879 H   0  0  0  0  0  0  0  0  0  0  0  0
  1 33  1  0  0  0  0
  1 34  1  0  0  0  0
  1 35  1  0  0  0  0
  2  1  1  0  0  0  0
  2  3  2  0  0  0  0
  4  2  1  0  0  0  0
  4 36  1  0  0  0  0
  5  4  1  0  0  0  0
  5  6  1  0  0  0  0
  5 37  1  6  0  0  0
  6 11  1  0  0  0  0
  6  7  2  0  0  0  0
  8  5  1  0  0  0  0
  8 38  1  0  0  0  0
  9  8  1  0  0  0  0
  9 39  1  0  0  0  0
  9 40  1  0  0  0  0
  9 41  1  0  0  0  0
 10  8  1  0  0  0  0
 10 42  1  0  0  0  0
 10 43  1  0  0  0  0
 10 44  1  0  0  0  0
 11 12  1  0  0  0  0
 11 45  1  0  0  0  0
 12 15  1  0  0  0  0
 12 46  1  1  0  0  0
 13 16  1  0  0  0  0
 13 12  1  0  0  0  0
 14 13  2  0  0  0  0
 15 47  1  0  0  0  0
 15 48  1  0  0  0  0
 15 49  1  0  0  0  0
 16 50  1  0  0  0  0
 17 20  1  0  0  0  0
 17 18  1  0  0  0  0
 17 16  1  0  0  0  0
 17 51  1  6  0  0  0
 18 24  1  0  0  0  0
 19 18  2  0  0  0  0
 20 52  1  0  0  0  0
 20 53  1  0  0  0  0
 21 22  1  0  0  0  0
 21 20  1  0  0  0  0
 21 54  1  0  0  0  0
 22 55  1  0  0  0  0
 22 56  1  0  0  0  0
 22 57  1  0  0  0  0
 23 21  1  0  0  0  0
 23 58  1  0  0  0  0
 23 59  1  0  0  0  0
 23 60  1  0  0  0  0
 24 25  1  0  0  0  0
 24 61  1  0  0  0  0
 25 26  1  0  0  0  0
 25 62  1  6  0  0  0
 26 27  2  0  0  0  0
 26 31  1  0  0  0  0
 28 25  1  0  0  0  0
 28 30  1  0  0  0  0
 28 63  1  0  0  0  0
 29 28  1  0  0  0  0
 29 64  1  0  0  0  0
 29 65  1  0  0  0  0
 29 66  1  0  0  0  0
 30 67  1  0  0  0  0
 30 68  1  0  0  0  0
 30 69  1  0  0  0  0
 31 32  1  0  0  0  0
 31 70  1  0  0  0  0
 32 71  1  0  0  0  0
 32 72  1  0  0  0  0
 32 73  1  0  0  0  0
M  END
>  <MODEL>
       0

$$$$
selected_4mers/VALV/882_noH.pdb
 OpenBabel03042518353D

 73 72  0  0  1  0  0  0  0  0999 V2000
   65.8260  106.5520   11.3600 C   0  0  0  0  0  0  0  0  0  0  0  0
   65.0150  106.9580   10.1370 C   0  0  0  0  0  0  0  0  0  0  0  0
   63.9070  106.4940    9.9660 O   0  0  0  0  0  0  0  0  0  0  0  0
   65.5630  107.8240    9.2910 N   0  0  0  0  0  0  0  0  0  0  0  0
   64.8810  108.2420    8.0620 C   0  0  2  0  0  0  0  0  0  0  0  0
   64.4820  107.0220    7.1950 C   0  0  0  0  0  0  0  0  0  0  0  0
   63.3310  106.9220    6.7450 O   0  0  0  0  0  0  0  0  0  0  0  0
   65.7320  109.2800    7.2940 C   0  0  0  0  0  0  0  0  0  0  0  0
   65.2600  109.4590    5.8620 C   0  0  0  0  0  0  0  0  0  0  0  0
   65.7380  110.6170    8.0420 C   0  0  0  0  0  0  0  0  0  0  0  0
   65.4100  106.0770    7.0330 N   0  0  0  0  0  0  0  0  0  0  0  0
   65.1410  104.8500    6.2920 C   0  0  2  0  0  0  0  0  0  0  0  0
   64.0400  104.0500    6.9360 C   0  0  0  0  0  0  0  0  0  0  0  0
   63.2030  103.5060    6.2310 O   0  0  0  0  0  0  0  0  0  0  0  0
   66.4250  103.9710    6.1470 C   0  0  0  0  0  0  0  0  0  0  0  0
   64.0510  103.9460    8.2610 N   0  0  0  0  0  0  0  0  0  0  0  0
   63.0300  103.1770    8.9770 C   0  0  2  0  0  0  0  0  0  0  0  0
   61.6450  103.8000    8.8750 C   0  0  0  0  0  0  0  0  0  0  0  0
   60.6340  103.0880    8.7660 O   0  0  0  0  0  0  0  0  0  0  0  0
   63.3900  103.0250   10.4530 C   0  0  0  0  0  0  0  0  0  0  0  0
   64.6050  102.1500   10.7900 C   0  0  0  0  0  0  0  0  0  0  0  0
   64.9430  102.2440   12.2740 C   0  0  0  0  0  0  0  0  0  0  0  0
   64.3720  100.6990   10.4100 C   0  0  0  0  0  0  0  0  0  0  0  0
   61.5860  105.1240    8.9290 N   0  0  0  0  0  0  0  0  0  0  0  0
   60.3000  105.8370    8.8180 C   0  0  2  0  0  0  0  0  0  0  0  0
   59.6970  105.6100    7.4040 C   0  0  0  0  0  0  0  0  0  0  0  0
   58.5340  105.2740    7.2550 O   0  0  0  0  0  0  0  0  0  0  0  0
   60.5180  107.3370    9.1290 C   0  0  0  0  0  0  0  0  0  0  0  0
   59.3000  108.1900    8.7020 C   0  0  0  0  0  0  0  0  0  0  0  0
   60.8730  107.5240   10.6160 C   0  0  0  0  0  0  0  0  0  0  0  0
   60.5230  105.7610    6.3860 N   0  0  0  0  0  0  0  0  0  0  0  0
   60.0900  105.5890    4.9960 C   0  0  0  0  0  0  0  0  0  0  0  0
   66.7698  107.0560   11.3455 H   0  0  0  0  0  0  0  0  0  0  0  0
   65.9863  105.4942   11.3466 H   0  0  0  0  0  0  0  0  0  0  0  0
   65.2918  106.8205   12.2474 H   0  0  0  0  0  0  0  0  0  0  0  0
   66.4517  108.1953    9.4951 H   0  0  0  0  0  0  0  0  0  0  0  0
   63.9647  108.7274    8.3259 H   0  0  0  0  0  0  0  0  0  0  0  0
   66.7336  108.9068    7.2452 H   0  0  0  0  0  0  0  0  0  0  0  0
   64.2574  109.8326    5.8610 H   0  0  0  0  0  0  0  0  0  0  0  0
   65.2899  108.5166    5.3562 H   0  0  0  0  0  0  0  0  0  0  0  0
   65.9001  110.1539    5.3597 H   0  0  0  0  0  0  0  0  0  0  0  0
   64.7402  110.9996    8.0967 H   0  0  0  0  0  0  0  0  0  0  0  0
   66.3594  111.3147    7.5205 H   0  0  0  0  0  0  0  0  0  0  0  0
   66.1185  110.4705    9.0313 H   0  0  0  0  0  0  0  0  0  0  0  0
   66.3028  106.2121    7.4253 H   0  0  0  0  0  0  0  0  0  0  0  0
   64.8221  105.1430    5.3136 H   0  0  0  0  0  0  0  0  0  0  0  0
   66.7606  103.6671    7.1165 H   0  0  0  0  0  0  0  0  0  0  0  0
   67.1934  104.5388    5.6654 H   0  0  0  0  0  0  0  0  0  0  0  0
   66.2001  103.1052    5.5598 H   0  0  0  0  0  0  0  0  0  0  0  0
   64.7614  104.3960    8.7730 H   0  0  0  0  0  0  0  0  0  0  0  0
   63.0039  102.2173    8.5045 H   0  0  0  0  0  0  0  0  0  0  0  0
   62.5414  102.6033   10.9499 H   0  0  0  0  0  0  0  0  0  0  0  0
   63.6600  104.0091   10.7747 H   0  0  0  0  0  0  0  0  0  0  0  0
   65.4294  102.5193   10.2166 H   0  0  0  0  0  0  0  0  0  0  0  0
   64.1208  101.8755   12.8511 H   0  0  0  0  0  0  0  0  0  0  0  0
   65.1313  103.2650   12.5329 H   0  0  0  0  0  0  0  0  0  0  0  0
   65.8141  101.6575   12.4792 H   0  0  0  0  0  0  0  0  0  0  0  0
   63.5498  100.3103   10.9737 H   0  0  0  0  0  0  0  0  0  0  0  0
   65.2519  100.1288   10.6232 H   0  0  0  0  0  0  0  0  0  0  0  0
   64.1500  100.6351    9.3652 H   0  0  0  0  0  0  0  0  0  0  0  0
   62.4162  105.6403    9.0453 H   0  0  0  0  0  0  0  0  0  0  0  0
   59.5981  105.4553    9.5298 H   0  0  0  0  0  0  0  0  0  0  0  0
   61.3458  107.6889    8.5495 H   0  0  0  0  0  0  0  0  0  0  0  0
   58.4368  107.8801    9.2531 H   0  0  0  0  0  0  0  0  0  0  0  0
   59.1214  108.0579    7.6553 H   0  0  0  0  0  0  0  0  0  0  0  0
   59.4995  109.2220    8.9023 H   0  0  0  0  0  0  0  0  0  0  0  0
   60.0615  107.1798   11.2225 H   0  0  0  0  0  0  0  0  0  0  0  0
   61.0505  108.5607   10.8127 H   0  0  0  0  0  0  0  0  0  0  0  0
   61.7537  106.9615   10.8459 H   0  0  0  0  0  0  0  0  0  0  0  0
   61.4617  105.9971    6.5661 H   0  0  0  0  0  0  0  0  0  0  0  0
   59.0505  105.3361    4.9749 H   0  0  0  0  0  0  0  0  0  0  0  0
   60.6572  104.8045    4.5402 H   0  0  0  0  0  0  0  0  0  0  0  0
   60.2462  106.5008    4.4583 H   0  0  0  0  0  0  0  0  0  0  0  0
  1 33  1  0  0  0  0
  1 34  1  0  0  0  0
  1 35  1  0  0  0  0
  2  1  1  0  0  0  0
  3  2  2  0  0  0  0
  4  2  1  0  0  0  0
  4 36  1  0  0  0  0
  5  4  1  0  0  0  0
  5 37  1  1  0  0  0
  6  5  1  0  0  0  0
  7  6  2  0  0  0  0
  8 10  1  0  0  0  0
  8  5  1  0  0  0  0
  8 38  1  0  0  0  0
  9  8  1  0  0  0  0
  9 39  1  0  0  0  0
  9 40  1  0  0  0  0
  9 41  1  0  0  0  0
 10 42  1  0  0  0  0
 10 43  1  0  0  0  0
 10 44  1  0  0  0  0
 11  6  1  0  0  0  0
 11 45  1  0  0  0  0
 12 13  1  0  0  0  0
 12 11  1  0  0  0  0
 12 46  1  6  0  0  0
 13 16  1  0  0  0  0
 14 13  2  0  0  0  0
 15 12  1  0  0  0  0
 15 47  1  0  0  0  0
 15 48  1  0  0  0  0
 15 49  1  0  0  0  0
 16 17  1  0  0  0  0
 16 50  1  0  0  0  0
 17 20  1  0  0  0  0
 17 51  1  6  0  0  0
 18 24  1  0  0  0  0
 18 17  1  0  0  0  0
 19 18  2  0  0  0  0
 20 21  1  0  0  0  0
 20 52  1  0  0  0  0
 20 53  1  0  0  0  0
 21 22  1  0  0  0  0
 21 54  1  0  0  0  0
 22 55  1  0  0  0  0
 22 56  1  0  0  0  0
 22 57  1  0  0  0  0
 23 21  1  0  0  0  0
 23 58  1  0  0  0  0
 23 59  1  0  0  0  0
 23 60  1  0  0  0  0
 24 61  1  0  0  0  0
 25 24  1  0  0  0  0
 25 28  1  0  0  0  0
 25 62  1  1  0  0  0
 26 25  1  0  0  0  0
 27 26  2  0  0  0  0
 28 30  1  0  0  0  0
 28 63  1  0  0  0  0
 29 28  1  0  0  0  0
 29 64  1  0  0  0  0
 29 65  1  0  0  0  0
 29 66  1  0  0  0  0
 30 67  1  0  0  0  0
 30 68  1  0  0  0  0
 30 69  1  0  0  0  0
 31 26  1  0  0  0  0
 31 70  1  0  0  0  0
 32 31  1  0  0  0  0
 32 71  1  0  0  0  0
 32 72  1  0  0  0  0
 32 73  1  0  0  0  0
M  END
>  <MODEL>
       0

$$$$
selected_4mers/VALV/883_noH.pdb
 OpenBabel03042518353D

 73 72  0  0  1  0  0  0  0  0999 V2000
   68.2750  137.5590  102.9580 C   0  0  0  0  0  0  0  0  0  0  0  0
   67.8700  136.5900  104.0690 C   0  0  0  0  0  0  0  0  0  0  0  0
   66.9640  136.8760  104.8540 O   0  0  0  0  0  0  0  0  0  0  0  0
   68.5430  135.4450  104.1320 N   0  0  0  0  0  0  0  0  0  0  0  0
   68.2490  134.4560  105.1640 C   0  0  2  0  0  0  0  0  0  0  0  0
   68.5270  135.0590  106.5360 C   0  0  0  0  0  0  0  0  0  0  0  0
   67.7500  134.8800  107.4730 O   0  0  0  0  0  0  0  0  0  0  0  0
   69.1060  133.1820  104.9850 C   0  0  0  0  0  0  0  0  0  0  0  0
   68.9520  132.2730  106.2010 C   0  0  0  0  0  0  0  0  0  0  0  0
   68.6720  132.4410  103.7200 C   0  0  0  0  0  0  0  0  0  0  0  0
   69.6370  135.7810  106.6470 N   0  0  0  0  0  0  0  0  0  0  0  0
   70.0100  136.4180  107.9060 C   0  0  2  0  0  0  0  0  0  0  0  0
   68.9230  137.3870  108.3700 C   0  0  0  0  0  0  0  0  0  0  0  0
   68.5960  137.4510  109.5570 O   0  0  0  0  0  0  0  0  0  0  0  0
   71.3350  137.1560  107.7420 C   0  0  0  0  0  0  0  0  0  0  0  0
   68.3610  138.1340  107.4260 N   0  0  0  0  0  0  0  0  0  0  0  0
   67.3130  139.1030  107.7380 C   0  0  2  0  0  0  0  0  0  0  0  0
   66.0720  138.4050  108.3010 C   0  0  0  0  0  0  0  0  0  0  0  0
   65.5190  138.8290  109.3170 O   0  0  0  0  0  0  0  0  0  0  0  0
   66.9570  139.8970  106.4770 C   0  0  0  0  0  0  0  0  0  0  0  0
   66.0460  141.1240  106.5870 C   0  0  0  0  0  0  0  0  0  0  0  0
   66.1170  141.9110  105.2840 C   0  0  0  0  0  0  0  0  0  0  0  0
   64.6140  140.7060  106.8890 C   0  0  0  0  0  0  0  0  0  0  0  0
   65.6380  137.3320  107.6450 N   0  0  0  0  0  0  0  0  0  0  0  0
   64.4680  136.5870  108.0980 C   0  0  2  0  0  0  0  0  0  0  0  0
   64.6990  135.9990  109.4840 C   0  0  0  0  0  0  0  0  0  0  0  0
   63.8170  136.0490  110.3430 O   0  0  0  0  0  0  0  0  0  0  0  0
   64.1200  135.4310  107.1260 C   0  0  0  0  0  0  0  0  0  0  0  0
   62.9720  134.6000  107.6880 C   0  0  0  0  0  0  0  0  0  0  0  0
   63.7440  135.9930  105.7680 C   0  0  0  0  0  0  0  0  0  0  0  0
   65.8870  135.4390  109.6990 N   0  0  0  0  0  0  0  0  0  0  0  0
   66.2190  134.8370  110.9840 C   0  0  0  0  0  0  0  0  0  0  0  0
   69.0733  137.1332  102.3868 H   0  0  0  0  0  0  0  0  0  0  0  0
   68.5991  138.4824  103.3907 H   0  0  0  0  0  0  0  0  0  0  0  0
   67.4360  137.7397  102.3189 H   0  0  0  0  0  0  0  0  0  0  0  0
   69.2504  135.2616  103.4724 H   0  0  0  0  0  0  0  0  0  0  0  0
   67.2181  134.1822  105.0792 H   0  0  0  0  0  0  0  0  0  0  0  0
   70.1343  133.4625  104.8916 H   0  0  0  0  0  0  0  0  0  0  0  0
   67.9264  131.9860  106.3042 H   0  0  0  0  0  0  0  0  0  0  0  0
   69.2660  132.7966  107.0797 H   0  0  0  0  0  0  0  0  0  0  0  0
   69.5556  131.3990  106.0717 H   0  0  0  0  0  0  0  0  0  0  0  0
   67.6439  132.1578  103.8075 H   0  0  0  0  0  0  0  0  0  0  0  0
   69.2739  131.5651  103.5955 H   0  0  0  0  0  0  0  0  0  0  0  0
   68.7945  133.0815  102.8717 H   0  0  0  0  0  0  0  0  0  0  0  0
   70.2212  135.8887  105.8619 H   0  0  0  0  0  0  0  0  0  0  0  0
   70.1197  135.6572  108.6503 H   0  0  0  0  0  0  0  0  0  0  0  0
   71.2292  137.9179  106.9982 H   0  0  0  0  0  0  0  0  0  0  0  0
   72.0933  136.4645  107.4390 H   0  0  0  0  0  0  0  0  0  0  0  0
   71.6119  137.6032  108.6738 H   0  0  0  0  0  0  0  0  0  0  0  0
   68.6581  138.0321  106.4930 H   0  0  0  0  0  0  0  0  0  0  0  0
   67.6773  139.7753  108.4864 H   0  0  0  0  0  0  0  0  0  0  0  0
   67.8792  140.2320  106.0501 H   0  0  0  0  0  0  0  0  0  0  0  0
   66.3772  139.2058  105.9016 H   0  0  0  0  0  0  0  0  0  0  0  0
   66.3780  141.7433  107.3940 H   0  0  0  0  0  0  0  0  0  0  0  0
   65.7853  141.2933  104.4757 H   0  0  0  0  0  0  0  0  0  0  0  0
   67.1267  142.2179  105.1073 H   0  0  0  0  0  0  0  0  0  0  0  0
   65.4888  142.7744  105.3541 H   0  0  0  0  0  0  0  0  0  0  0  0
   64.2500  140.0833  106.0987 H   0  0  0  0  0  0  0  0  0  0  0  0
   63.9977  141.5769  106.9695 H   0  0  0  0  0  0  0  0  0  0  0  0
   64.5876  140.1639  107.8112 H   0  0  0  0  0  0  0  0  0  0  0  0
   66.1160  137.0346  106.8374 H   0  0  0  0  0  0  0  0  0  0  0  0
   63.6540  137.2808  108.1289 H   0  0  0  0  0  0  0  0  0  0  0  0
   64.9772  134.8003  107.0149 H   0  0  0  0  0  0  0  0  0  0  0  0
   62.1071  135.2191  107.8043 H   0  0  0  0  0  0  0  0  0  0  0  0
   63.2542  134.1991  108.6391 H   0  0  0  0  0  0  0  0  0  0  0  0
   62.7490  133.7986  107.0150 H   0  0  0  0  0  0  0  0  0  0  0  0
   62.8870  136.6257  105.8687 H   0  0  0  0  0  0  0  0  0  0  0  0
   63.5171  135.1889  105.0996 H   0  0  0  0  0  0  0  0  0  0  0  0
   64.5627  136.5608  105.3779 H   0  0  0  0  0  0  0  0  0  0  0  0
   66.5548  135.4313  108.9756 H   0  0  0  0  0  0  0  0  0  0  0  0
   65.3860  134.9331  111.6487 H   0  0  0  0  0  0  0  0  0  0  0  0
   67.0685  135.3352  111.4024 H   0  0  0  0  0  0  0  0  0  0  0  0
   66.4462  133.8008  110.8443 H   0  0  0  0  0  0  0  0  0  0  0  0
  1  2  1  0  0  0  0
  1 33  1  0  0  0  0
  1 34  1  0  0  0  0
  1 35  1  0  0  0  0
  2  4  1  0  0  0  0
  2  3  2  0  0  0  0
  4  5  1  0  0  0  0
  4 36  1  0  0  0  0
  5  6  1  0  0  0  0
  5 37  1  6  0  0  0
  6 11  1  0  0  0  0
  6  7  2  0  0  0  0
  8  5  1  0  0  0  0
  8  9  1  0  0  0  0
  8 38  1  0  0  0  0
  9 39  1  0  0  0  0
  9 40  1  0  0  0  0
  9 41  1  0  0  0  0
 10  8  1  0  0  0  0
 10 42  1  0  0  0  0
 10 43  1  0  0  0  0
 10 44  1  0  0  0  0
 11 12  1  0  0  0  0
 11 45  1  0  0  0  0
 12 13  1  0  0  0  0
 12 46  1  1  0  0  0
 13 14  2  0  0  0  0
 15 12  1  0  0  0  0
 15 47  1  0  0  0  0
 15 48  1  0  0  0  0
 15 49  1  0  0  0  0
 16 17  1  0  0  0  0
 16 13  1  0  0  0  0
 16 50  1  0  0  0  0
 17 18  1  0  0  0  0
 17 51  1  1  0  0  0
 18 19  2  0  0  0  0
 20 21  1  0  0  0  0
 20 17  1  0  0  0  0
 20 52  1  0  0  0  0
 20 53  1  0  0  0  0
 21 23  1  0  0  0  0
 21 54  1  0  0  0  0
 22 21  1  0  0  0  0
 22 55  1  0  0  0  0
 22 56  1  0  0  0  0
 22 57  1  0  0  0  0
 23 58  1  0  0  0  0
 23 59  1  0  0  0  0
 23 60  1  0  0  0  0
 24 25  1  0  0  0  0
 24 18  1  0  0  0  0
 24 61  1  0  0  0  0
 25 26  1  0  0  0  0
 25 62  1  1  0  0  0
 26 31  1  0  0  0  0
 26 27  2  0  0  0  0
 28 29  1  0  0  0  0
 28 25  1  0  0  0  0
 28 63  1  0  0  0  0
 29 64  1  0  0  0  0
 29 65  1  0  0  0  0
 29 66  1  0  0  0  0
 30 28  1  0  0  0  0
 30 67  1  0  0  0  0
 30 68  1  0  0  0  0
 30 69  1  0  0  0  0
 31 32  1  0  0  0  0
 31 70  1  0  0  0  0
 32 71  1  0  0  0  0
 32 72  1  0  0  0  0
 32 73  1  0  0  0  0
M  END
>  <MODEL>
       0

$$$$
selected_4mers/VALV/884_noH.pdb
 OpenBabel03042518353D

 73 72  0  0  1  0  0  0  0  0999 V2000
   19.8250   35.9660    1.4100 C   0  0  0  0  0  0  0  0  0  0  0  0
   19.2480   34.6030    1.0430 C   0  0  0  0  0  0  0  0  0  0  0  0
   18.2200   34.5250    0.3700 O   0  0  0  0  0  0  0  0  0  0  0  0
   19.9010   33.5340    1.4900 N   0  0  0  0  0  0  0  0  0  0  0  0
   19.4420   32.1880    1.1610 C   0  0  2  0  0  0  0  0  0  0  0  0
   18.0740   31.8900    1.7730 C   0  0  0  0  0  0  0  0  0  0  0  0
   17.3900   30.9480    1.3680 O   0  0  0  0  0  0  0  0  0  0  0  0
   20.4800   31.1130    1.6070 C   0  0  0  0  0  0  0  0  0  0  0  0
   20.4160   30.9020    3.1050 C   0  0  0  0  0  0  0  0  0  0  0  0
   20.2330   29.8080    0.8560 C   0  0  0  0  0  0  0  0  0  0  0  0
   17.6700   32.6960    2.7480 N   0  0  0  0  0  0  0  0  0  0  0  0
   16.3710   32.5090    3.3750 C   0  0  2  0  0  0  0  0  0  0  0  0
   15.2750   32.6770    2.3190 C   0  0  0  0  0  0  0  0  0  0  0  0
   14.2030   32.0790    2.4250 O   0  0  0  0  0  0  0  0  0  0  0  0
   16.1780   33.5270    4.4960 C   0  0  0  0  0  0  0  0  0  0  0  0
   15.5550   33.4840    1.2990 N   0  0  0  0  0  0  0  0  0  0  0  0
   14.5820   33.7350    0.2390 C   0  0  2  0  0  0  0  0  0  0  0  0
   14.9050   33.1110   -1.1150 C   0  0  0  0  0  0  0  0  0  0  0  0
   13.9990   32.6520   -1.8080 O   0  0  0  0  0  0  0  0  0  0  0  0
   14.3800   35.2440    0.0410 C   0  0  0  0  0  0  0  0  0  0  0  0
   13.8330   36.0630    1.2130 C   0  0  0  0  0  0  0  0  0  0  0  0
   13.5370   37.4800    0.7260 C   0  0  0  0  0  0  0  0  0  0  0  0
   12.5720   35.4190    1.7710 C   0  0  0  0  0  0  0  0  0  0  0  0
   16.1800   33.0990   -1.5010 N   0  0  0  0  0  0  0  0  0  0  0  0
   16.5700   32.5500   -2.8010 C   0  0  2  0  0  0  0  0  0  0  0  0
   17.7910   31.6320   -2.7470 C   0  0  0  0  0  0  0  0  0  0  0  0
   18.5950   31.7040   -1.8180 O   0  0  0  0  0  0  0  0  0  0  0  0
   16.8600   33.6810   -3.8200 C   0  0  0  0  0  0  0  0  0  0  0  0
   15.5950   34.5110   -4.0570 C   0  0  0  0  0  0  0  0  0  0  0  0
   17.9840   34.5730   -3.3100 C   0  0  0  0  0  0  0  0  0  0  0  0
   17.9340   30.7800   -3.7590 N   0  0  0  0  0  0  0  0  0  0  0  0
   19.0540   29.8470   -3.8120 C   0  0  0  0  0  0  0  0  0  0  0  0
   19.2115   36.7371    0.9929 H   0  0  0  0  0  0  0  0  0  0  0  0
   20.8178   36.0498    1.0198 H   0  0  0  0  0  0  0  0  0  0  0  0
   19.8506   36.0675    2.4749 H   0  0  0  0  0  0  0  0  0  0  0  0
   20.7028   33.6519    2.0490 H   0  0  0  0  0  0  0  0  0  0  0  0
   19.3430   32.1439    0.0965 H   0  0  0  0  0  0  0  0  0  0  0  0
   21.4641   31.4585    1.3681 H   0  0  0  0  0  0  0  0  0  0  0  0
   19.4404   30.5553    3.3750 H   0  0  0  0  0  0  0  0  0  0  0  0
   20.6167   31.8268    3.6043 H   0  0  0  0  0  0  0  0  0  0  0  0
   21.1456   30.1748    3.3943 H   0  0  0  0  0  0  0  0  0  0  0  0
   19.2518   29.4463    1.0827 H   0  0  0  0  0  0  0  0  0  0  0  0
   20.9591   29.0813    1.1554 H   0  0  0  0  0  0  0  0  0  0  0  0
   20.3149   29.9813   -0.1967 H   0  0  0  0  0  0  0  0  0  0  0  0
   18.2557   33.4276    3.0495 H   0  0  0  0  0  0  0  0  0  0  0  0
   16.3157   31.5262    3.7945 H   0  0  0  0  0  0  0  0  0  0  0  0
   16.2307   34.5165    4.0922 H   0  0  0  0  0  0  0  0  0  0  0  0
   16.9465   33.3998    5.2295 H   0  0  0  0  0  0  0  0  0  0  0  0
   15.2215   33.3783    4.9520 H   0  0  0  0  0  0  0  0  0  0  0  0
   16.4362   33.9210    1.2578 H   0  0  0  0  0  0  0  0  0  0  0  0
   13.6909   33.2551    0.5862 H   0  0  0  0  0  0  0  0  0  0  0  0
   13.7009   35.3681   -0.7765 H   0  0  0  0  0  0  0  0  0  0  0  0
   15.3685   35.6253   -0.1090 H   0  0  0  0  0  0  0  0  0  0  0  0
   14.5599   36.0962    1.9975 H   0  0  0  0  0  0  0  0  0  0  0  0
   12.8100   37.4430   -0.0582 H   0  0  0  0  0  0  0  0  0  0  0  0
   14.4371   37.9257    0.3572 H   0  0  0  0  0  0  0  0  0  0  0  0
   13.1565   38.0640    1.5379 H   0  0  0  0  0  0  0  0  0  0  0  0
   11.8262   35.3730    1.0052 H   0  0  0  0  0  0  0  0  0  0  0  0
   12.2064   36.0020    2.5904 H   0  0  0  0  0  0  0  0  0  0  0  0
   12.7969   34.4293    2.1098 H   0  0  0  0  0  0  0  0  0  0  0  0
   16.8708   33.4651   -0.9027 H   0  0  0  0  0  0  0  0  0  0  0  0
   15.7313   31.9622   -3.1107 H   0  0  0  0  0  0  0  0  0  0  0  0
   17.1643   33.2409   -4.7466 H   0  0  0  0  0  0  0  0  0  0  0  0
   15.2824   34.9558   -3.1354 H   0  0  0  0  0  0  0  0  0  0  0  0
   14.8172   33.8774   -4.4292 H   0  0  0  0  0  0  0  0  0  0  0  0
   15.8016   35.2797   -4.7720 H   0  0  0  0  0  0  0  0  0  0  0  0
   17.6919   35.0198   -2.3826 H   0  0  0  0  0  0  0  0  0  0  0  0
   18.1841   35.3405   -4.0282 H   0  0  0  0  0  0  0  0  0  0  0  0
   18.8658   33.9855   -3.1608 H   0  0  0  0  0  0  0  0  0  0  0  0
   17.2707   30.7793   -4.4865 H   0  0  0  0  0  0  0  0  0  0  0  0
   19.6722   29.9824   -2.9492 H   0  0  0  0  0  0  0  0  0  0  0  0
   19.6294   30.0303   -4.6953 H   0  0  0  0  0  0  0  0  0  0  0  0
   18.6820   28.8439   -3.8304 H   0  0  0  0  0  0  0  0  0  0  0  0
  1 33  1  0  0  0  0
  1 34  1  0  0  0  0
  1 35  1  0  0  0  0
  2  1  1  0  0  0  0
  2  4  1  0  0  0  0
  3  2  2  0  0  0  0
  4 36  1  0  0  0  0
  5  4  1  0  0  0  0
  5  8  1  0  0  0  0
  5  6  1  0  0  0  0
  5 37  1  6  0  0  0
  6 11  1  0  0  0  0
  7  6  2  0  0  0  0
  8  9  1  0  0  0  0
  8 38  1  0  0  0  0
  9 39  1  0  0  0  0
  9 40  1  0  0  0  0
  9 41  1  0  0  0  0
 10  8  1  0  0  0  0
 10 42  1  0  0  0  0
 10 43  1  0  0  0  0
 10 44  1  0  0  0  0
 11 12  1  0  0  0  0
 11 45  1  0  0  0  0
 12 15  1  0  0  0  0
 12 46  1  1  0  0  0
 13 14  2  0  0  0  0
 13 12  1  0  0  0  0
 15 47  1  0  0  0  0
 15 48  1  0  0  0  0
 15 49  1  0  0  0  0
 16 13  1  0  0  0  0
 16 50  1  0  0  0  0
 17 16  1  0  0  0  0
 17 51  1  1  0  0  0
 18 17  1  0  0  0  0
 19 18  2  0  0  0  0
 20 17  1  0  0  0  0
 20 21  1  0  0  0  0
 20 52  1  0  0  0  0
 20 53  1  0  0  0  0
 21 23  1  0  0  0  0
 21 54  1  0  0  0  0
 22 21  1  0  0  0  0
 22 55  1  0  0  0  0
 22 56  1  0  0  0  0
 22 57  1  0  0  0  0
 23 58  1  0  0  0  0
 23 59  1  0  0  0  0
 23 60  1  0  0  0  0
 24 18  1  0  0  0  0
 24 61  1  0  0  0  0
 25 26  1  0  0  0  0
 25 24  1  0  0  0  0
 25 62  1  6  0  0  0
 26 27  2  0  0  0  0
 28 30  1  0  0  0  0
 28 25  1  0  0  0  0
 28 63  1  0  0  0  0
 29 28  1  0  0  0  0
 29 64  1  0  0  0  0
 29 65  1  0  0  0  0
 29 66  1  0  0  0  0
 30 67  1  0  0  0  0
 30 68  1  0  0  0  0
 30 69  1  0  0  0  0
 31 26  1  0  0  0  0
 31 70  1  0  0  0  0
 32 31  1  0  0  0  0
 32 71  1  0  0  0  0
 32 72  1  0  0  0  0
 32 73  1  0  0  0  0
M  END
>  <MODEL>
       0

$$$$
