selected_4mers/VAVL/920_noH.pdb
 OpenBabel03042518353D

 73 72  0  0  1  0  0  0  0  0999 V2000
   24.1970  163.6960   80.4810 C   0  0  0  0  0  0  0  0  0  0  0  0
   23.9050  164.4550   79.2070 C   0  0  0  0  0  0  0  0  0  0  0  0
   23.0670  165.3360   79.2060 O   0  0  0  0  0  0  0  0  0  0  0  0
   24.6260  164.1230   78.1430 N   0  0  0  0  0  0  0  0  0  0  0  0
   24.6270  164.8660   76.8890 C   0  0  2  0  0  0  0  0  0  0  0  0
   24.1670  163.9640   75.7700 C   0  0  0  0  0  0  0  0  0  0  0  0
   24.6040  162.8070   75.6870 O   0  0  0  0  0  0  0  0  0  0  0  0
   26.0370  165.4170   76.5510 C   0  0  0  0  0  0  0  0  0  0  0  0
   26.0400  166.1900   75.2440 C   0  0  0  0  0  0  0  0  0  0  0  0
   26.5730  166.2480   77.7280 C   0  0  0  0  0  0  0  0  0  0  0  0
   23.2290  164.4600   74.9730 N   0  0  0  0  0  0  0  0  0  0  0  0
   22.7850  163.8140   73.7270 C   0  0  2  0  0  0  0  0  0  0  0  0
   23.3170  164.5580   72.5080 C   0  0  0  0  0  0  0  0  0  0  0  0
   23.4050  165.7960   72.5230 O   0  0  0  0  0  0  0  0  0  0  0  0
   21.2610  163.8020   73.6470 C   0  0  0  0  0  0  0  0  0  0  0  0
   23.7220  163.8110   71.4720 N   0  0  0  0  0  0  0  0  0  0  0  0
   24.0640  164.4000   70.1640 C   0  0  2  0  0  0  0  0  0  0  0  0
   23.0970  163.8690   69.1280 C   0  0  0  0  0  0  0  0  0  0  0  0
   23.0110  162.6430   68.8920 O   0  0  0  0  0  0  0  0  0  0  0  0
   25.5100  164.0600   69.7340 C   0  0  0  0  0  0  0  0  0  0  0  0
   25.8780  164.7400   68.3860 C   0  0  0  0  0  0  0  0  0  0  0  0
   26.4990  164.3980   70.8300 C   0  0  0  0  0  0  0  0  0  0  0  0
   22.3470  164.7780   68.4950 N   0  0  0  0  0  0  0  0  0  0  0  0
   21.3590  164.3850   67.4950 C   0  0  2  0  0  0  0  0  0  0  0  0
   21.9710  164.7050   66.1000 C   0  0  0  0  0  0  0  0  0  0  0  0
   22.2700  165.8770   65.7900 O   0  0  0  0  0  0  0  0  0  0  0  0
   20.0590  165.1200   67.6980 C   0  0  0  0  0  0  0  0  0  0  0  0
   19.3960  165.1280   69.1180 C   0  0  0  0  0  0  0  0  0  0  0  0
   18.0330  165.8390   69.0920 C   0  0  0  0  0  0  0  0  0  0  0  0
   19.2790  163.6990   69.6890 C   0  0  0  0  0  0  0  0  0  0  0  0
   22.1660  163.6770   65.2990 N   0  0  0  0  0  0  0  0  0  0  0  0
   22.9710  163.7610   64.0690 C   0  0  0  0  0  0  0  0  0  0  0  0
   24.9557  162.9648   80.2947 H   0  0  0  0  0  0  0  0  0  0  0  0
   23.3063  163.2079   80.8175 H   0  0  0  0  0  0  0  0  0  0  0  0
   24.5358  164.3779   81.2327 H   0  0  0  0  0  0  0  0  0  0  0  0
   25.1969  163.3233   78.2049 H   0  0  0  0  0  0  0  0  0  0  0  0
   23.9609  165.6962   76.9984 H   0  0  0  0  0  0  0  0  0  0  0  0
   26.7012  164.5910   76.4049 H   0  0  0  0  0  0  0  0  0  0  0  0
   25.3889  167.0350   75.3279 H   0  0  0  0  0  0  0  0  0  0  0  0
   25.6998  165.5547   74.4531 H   0  0  0  0  0  0  0  0  0  0  0  0
   27.0334  166.5250   75.0301 H   0  0  0  0  0  0  0  0  0  0  0  0
   25.9269  167.0838   77.8980 H   0  0  0  0  0  0  0  0  0  0  0  0
   27.5572  166.5991   77.4978 H   0  0  0  0  0  0  0  0  0  0  0  0
   26.6080  165.6396   78.6075 H   0  0  0  0  0  0  0  0  0  0  0  0
   22.8049  165.3104   75.2303 H   0  0  0  0  0  0  0  0  0  0  0  0
   23.1637  162.8133   73.7334 H   0  0  0  0  0  0  0  0  0  0  0  0
   20.8962  164.8079   73.6414 H   0  0  0  0  0  0  0  0  0  0  0  0
   20.8634  163.2831   74.4941 H   0  0  0  0  0  0  0  0  0  0  0  0
   20.9548  163.3066   72.7494 H   0  0  0  0  0  0  0  0  0  0  0  0
   23.7937  162.8360   71.5879 H   0  0  0  0  0  0  0  0  0  0  0  0
   23.9936  165.4644   70.2470 H   0  0  0  0  0  0  0  0  0  0  0  0
   25.5642  163.0036   69.5729 H   0  0  0  0  0  0  0  0  0  0  0  0
   25.8368  165.8031   68.4999 H   0  0  0  0  0  0  0  0  0  0  0  0
   25.1835  164.4350   67.6313 H   0  0  0  0  0  0  0  0  0  0  0  0
   26.8671  164.4501   68.0986 H   0  0  0  0  0  0  0  0  0  0  0  0
   26.4741  165.4506   71.0207 H   0  0  0  0  0  0  0  0  0  0  0  0
   27.4837  164.1146   70.5217 H   0  0  0  0  0  0  0  0  0  0  0  0
   26.2380  163.8676   71.7219 H   0  0  0  0  0  0  0  0  0  0  0  0
   22.4639  165.7320   68.7081 H   0  0  0  0  0  0  0  0  0  0  0  0
   21.1342  163.3422   67.5778 H   0  0  0  0  0  0  0  0  0  0  0  0
   19.3483  164.6891   67.0241 H   0  0  0  0  0  0  0  0  0  0  0  0
   20.3191  166.1449   67.5341 H   0  0  0  0  0  0  0  0  0  0  0  0
   20.0347  165.6830   69.7730 H   0  0  0  0  0  0  0  0  0  0  0  0
   17.3665  165.3090   68.4441 H   0  0  0  0  0  0  0  0  0  0  0  0
   18.1592  166.8391   68.7331 H   0  0  0  0  0  0  0  0  0  0  0  0
   17.6247  165.8638   70.0807 H   0  0  0  0  0  0  0  0  0  0  0  0
   18.6449  163.1131   69.0569 H   0  0  0  0  0  0  0  0  0  0  0  0
   18.8609  163.7412   70.6730 H   0  0  0  0  0  0  0  0  0  0  0  0
   20.2501  163.2519   69.7330 H   0  0  0  0  0  0  0  0  0  0  0  0
   21.7548  162.8138   65.5336 H   0  0  0  0  0  0  0  0  0  0  0  0
   23.3458  164.7567   63.9554 H   0  0  0  0  0  0  0  0  0  0  0  0
   22.3613  163.5110   63.2260 H   0  0  0  0  0  0  0  0  0  0  0  0
   23.7908  163.0763   64.1318 H   0  0  0  0  0  0  0  0  0  0  0  0
  1 33  1  0  0  0  0
  1 34  1  0  0  0  0
  1 35  1  0  0  0  0
  2  1  1  0  0  0  0
  3  2  2  0  0  0  0
  4  2  1  0  0  0  0
  4 36  1  0  0  0  0
  5  4  1  0  0  0  0
  5 37  1  1  0  0  0
  6  5  1  0  0  0  0
  7  6  2  0  0  0  0
  8  5  1  0  0  0  0
  8 10  1  0  0  0  0
  8 38  1  0  0  0  0
  9  8  1  0  0  0  0
  9 39  1  0  0  0  0
  9 40  1  0  0  0  0
  9 41  1  0  0  0  0
 10 42  1  0  0  0  0
 10 43  1  0  0  0  0
 10 44  1  0  0  0  0
 11  6  1  0  0  0  0
 11 45  1  0  0  0  0
 12 11  1  0  0  0  0
 12 46  1  6  0  0  0
 13 14  2  0  0  0  0
 13 12  1  0  0  0  0
 15 12  1  0  0  0  0
 15 47  1  0  0  0  0
 15 48  1  0  0  0  0
 15 49  1  0  0  0  0
 16 13  1  0  0  0  0
 16 50  1  0  0  0  0
 17 16  1  0  0  0  0
 17 51  1  1  0  0  0
 18 17  1  0  0  0  0
 19 18  2  0  0  0  0
 20 17  1  0  0  0  0
 20 22  1  0  0  0  0
 20 52  1  0  0  0  0
 21 20  1  0  0  0  0
 21 53  1  0  0  0  0
 21 54  1  0  0  0  0
 21 55  1  0  0  0  0
 22 56  1  0  0  0  0
 22 57  1  0  0  0  0
 22 58  1  0  0  0  0
 23 18  1  0  0  0  0
 23 59  1  0  0  0  0
 24 27  1  0  0  0  0
 24 23  1  0  0  0  0
 24 60  1  1  0  0  0
 25 24  1  0  0  0  0
 26 25  2  0  0  0  0
 27 28  1  0  0  0  0
 27 61  1  0  0  0  0
 27 62  1  0  0  0  0
 28 30  1  0  0  0  0
 28 63  1  0  0  0  0
 29 28  1  0  0  0  0
 29 64  1  0  0  0  0
 29 65  1  0  0  0  0
 29 66  1  0  0  0  0
 30 67  1  0  0  0  0
 30 68  1  0  0  0  0
 30 69  1  0  0  0  0
 31 25  1  0  0  0  0
 31 70  1  0  0  0  0
 32 31  1  0  0  0  0
 32 71  1  0  0  0  0
 32 72  1  0  0  0  0
 32 73  1  0  0  0  0
M  END
>  <MODEL>
       0

$$$$
selected_4mers/VAVL/921_noH.pdb
 OpenBabel03042518353D

 73 72  0  0  1  0  0  0  0  0999 V2000
   23.8230   35.3460   28.1430 C   0  0  0  0  0  0  0  0  0  0  0  0
   22.4030   35.8340   27.9010 C   0  0  0  0  0  0  0  0  0  0  0  0
   21.8220   35.5970   26.8360 O   0  0  0  0  0  0  0  0  0  0  0  0
   21.8330   36.4980   28.8940 N   0  0  0  0  0  0  0  0  0  0  0  0
   20.4610   36.9520   28.7780 C   0  0  2  0  0  0  0  0  0  0  0  0
   20.2550   38.3550   29.3270 C   0  0  0  0  0  0  0  0  0  0  0  0
   20.8830   38.7610   30.3090 O   0  0  0  0  0  0  0  0  0  0  0  0
   19.5180   35.9650   29.5140 C   0  0  0  0  0  0  0  0  0  0  0  0
   19.9340   35.8430   30.9700 C   0  0  0  0  0  0  0  0  0  0  0  0
   18.0670   36.4270   29.4000 C   0  0  0  0  0  0  0  0  0  0  0  0
   19.3630   39.0890   28.6770 N   0  0  0  0  0  0  0  0  0  0  0  0
   19.0430   40.4470   29.0800 C   0  0  2  0  0  0  0  0  0  0  0  0
   17.5310   40.6160   29.1460 C   0  0  0  0  0  0  0  0  0  0  0  0
   16.7890   39.8930   28.4820 O   0  0  0  0  0  0  0  0  0  0  0  0
   19.6260   41.4330   28.0760 C   0  0  0  0  0  0  0  0  0  0  0  0
   17.0830   41.5600   29.9670 N   0  0  0  0  0  0  0  0  0  0  0  0
   15.6650   41.8740   30.0840 C   0  0  2  0  0  0  0  0  0  0  0  0
   15.5150   43.2610   29.4570 C   0  0  0  0  0  0  0  0  0  0  0  0
   16.3180   44.1590   29.7250 O   0  0  0  0  0  0  0  0  0  0  0  0
   15.2090   41.9120   31.5570 C   0  0  0  0  0  0  0  0  0  0  0  0
   13.8000   42.4770   31.6540 C   0  0  0  0  0  0  0  0  0  0  0  0
   15.2470   40.5010   32.1430 C   0  0  0  0  0  0  0  0  0  0  0  0
   14.5010   43.4290   28.6160 N   0  0  0  0  0  0  0  0  0  0  0  0
   14.2680   44.6990   27.9340 C   0  0  2  0  0  0  0  0  0  0  0  0
   13.5070   45.6930   28.8130 C   0  0  0  0  0  0  0  0  0  0  0  0
   12.3390   45.4730   29.1450 O   0  0  0  0  0  0  0  0  0  0  0  0
   13.5010   44.4410   26.6320 C   0  0  0  0  0  0  0  0  0  0  0  0
   13.4580   45.5470   25.5770 C   0  0  0  0  0  0  0  0  0  0  0  0
   14.8650   46.0530   25.2940 C   0  0  0  0  0  0  0  0  0  0  0  0
   12.8160   45.0030   24.3060 C   0  0  0  0  0  0  0  0  0  0  0  0
   14.1780   46.7830   29.1850 N   0  0  0  0  0  0  0  0  0  0  0  0
   13.5780   47.8160   30.0330 C   0  0  0  0  0  0  0  0  0  0  0  0
   24.1745   34.8271   27.2758 H   0  0  0  0  0  0  0  0  0  0  0  0
   23.8343   34.6841   28.9837 H   0  0  0  0  0  0  0  0  0  0  0  0
   24.4593   36.1834   28.3398 H   0  0  0  0  0  0  0  0  0  0  0  0
   22.3430   36.6845   29.7152 H   0  0  0  0  0  0  0  0  0  0  0  0
   20.2297   36.9827   27.7337 H   0  0  0  0  0  0  0  0  0  0  0  0
   19.5947   35.0015   29.0549 H   0  0  0  0  0  0  0  0  0  0  0  0
   19.8623   36.8002   31.4428 H   0  0  0  0  0  0  0  0  0  0  0  0
   20.9437   35.4931   31.0243 H   0  0  0  0  0  0  0  0  0  0  0  0
   19.2890   35.1498   31.4684 H   0  0  0  0  0  0  0  0  0  0  0  0
   17.9630   37.3909   29.8528 H   0  0  0  0  0  0  0  0  0  0  0  0
   17.4297   35.7276   29.8995 H   0  0  0  0  0  0  0  0  0  0  0  0
   17.7916   36.4863   28.3677 H   0  0  0  0  0  0  0  0  0  0  0  0
   18.9034   38.7017   27.8972 H   0  0  0  0  0  0  0  0  0  0  0  0
   19.4640   40.6380   30.0450 H   0  0  0  0  0  0  0  0  0  0  0  0
   19.2081   41.2463   27.1089 H   0  0  0  0  0  0  0  0  0  0  0  0
   20.6885   41.3135   28.0345 H   0  0  0  0  0  0  0  0  0  0  0  0
   19.3910   42.4318   28.3793 H   0  0  0  0  0  0  0  0  0  0  0  0
   17.7294   42.0629   30.5133 H   0  0  0  0  0  0  0  0  0  0  0  0
   15.0640   41.1315   29.6020 H   0  0  0  0  0  0  0  0  0  0  0  0
   15.8715   42.5425   32.1124 H   0  0  0  0  0  0  0  0  0  0  0  0
   13.1273   41.8545   31.1019 H   0  0  0  0  0  0  0  0  0  0  0  0
   13.7840   43.4670   31.2484 H   0  0  0  0  0  0  0  0  0  0  0  0
   13.4976   42.5070   32.6799 H   0  0  0  0  0  0  0  0  0  0  0  0
   14.5855   39.8673   31.5901 H   0  0  0  0  0  0  0  0  0  0  0  0
   14.9386   40.5317   33.1671 H   0  0  0  0  0  0  0  0  0  0  0  0
   16.2435   40.1162   32.0820 H   0  0  0  0  0  0  0  0  0  0  0  0
   13.8893   42.6762   28.4476 H   0  0  0  0  0  0  0  0  0  0  0  0
   15.2186   45.1392   27.7159 H   0  0  0  0  0  0  0  0  0  0  0  0
   13.9421   43.5821   26.1709 H   0  0  0  0  0  0  0  0  0  0  0  0
   12.4828   44.3387   26.9447 H   0  0  0  0  0  0  0  0  0  0  0  0
   12.8746   46.3677   25.9390 H   0  0  0  0  0  0  0  0  0  0  0  0
   15.4674   45.2471   24.9300 H   0  0  0  0  0  0  0  0  0  0  0  0
   15.2931   46.4394   26.1953 H   0  0  0  0  0  0  0  0  0  0  0  0
   14.8238   46.8283   24.5577 H   0  0  0  0  0  0  0  0  0  0  0  0
   13.3943   44.1815   23.9378 H   0  0  0  0  0  0  0  0  0  0  0  0
   12.7810   45.7747   23.5656 H   0  0  0  0  0  0  0  0  0  0  0  0
   11.8221   44.6710   24.5224 H   0  0  0  0  0  0  0  0  0  0  0  0
   15.1070   46.8976   28.8800 H   0  0  0  0  0  0  0  0  0  0  0  0
   12.5726   47.5402   30.2738 H   0  0  0  0  0  0  0  0  0  0  0  0
   13.5762   48.7497   29.5105 H   0  0  0  0  0  0  0  0  0  0  0  0
   14.1469   47.9126   30.9341 H   0  0  0  0  0  0  0  0  0  0  0  0
  1 33  1  0  0  0  0
  1 34  1  0  0  0  0
  1 35  1  0  0  0  0
  2  1  1  0  0  0  0
  2  4  1  0  0  0  0
  3  2  2  0  0  0  0
  4 36  1  0  0  0  0
  5  4  1  0  0  0  0
  5  6  1  0  0  0  0
  5  8  1  0  0  0  0
  5 37  1  6  0  0  0
  6  7  2  0  0  0  0
  8  9  1  0  0  0  0
  8 38  1  0  0  0  0
  9 39  1  0  0  0  0
  9 40  1  0  0  0  0
  9 41  1  0  0  0  0
 10  8  1  0  0  0  0
 10 42  1  0  0  0  0
 10 43  1  0  0  0  0
 10 44  1  0  0  0  0
 11 12  1  0  0  0  0
 11  6  1  0  0  0  0
 11 45  1  0  0  0  0
 12 13  1  0  0  0  0
 12 46  1  1  0  0  0
 13 16  1  0  0  0  0
 14 13  2  0  0  0  0
 15 12  1  0  0  0  0
 15 47  1  0  0  0  0
 15 48  1  0  0  0  0
 15 49  1  0  0  0  0
 16 17  1  0  0  0  0
 16 50  1  0  0  0  0
 17 20  1  0  0  0  0
 17 51  1  6  0  0  0
 18 19  2  0  0  0  0
 18 17  1  0  0  0  0
 20 21  1  0  0  0  0
 20 22  1  0  0  0  0
 20 52  1  0  0  0  0
 21 53  1  0  0  0  0
 21 54  1  0  0  0  0
 21 55  1  0  0  0  0
 22 56  1  0  0  0  0
 22 57  1  0  0  0  0
 22 58  1  0  0  0  0
 23 18  1  0  0  0  0
 23 59  1  0  0  0  0
 24 23  1  0  0  0  0
 24 25  1  0  0  0  0
 24 60  1  6  0  0  0
 25 26  2  0  0  0  0
 25 31  1  0  0  0  0
 27 24  1  0  0  0  0
 27 61  1  0  0  0  0
 27 62  1  0  0  0  0
 28 27  1  0  0  0  0
 28 63  1  0  0  0  0
 29 28  1  0  0  0  0
 29 64  1  0  0  0  0
 29 65  1  0  0  0  0
 29 66  1  0  0  0  0
 30 28  1  0  0  0  0
 30 67  1  0  0  0  0
 30 68  1  0  0  0  0
 30 69  1  0  0  0  0
 31 32  1  0  0  0  0
 31 70  1  0  0  0  0
 32 71  1  0  0  0  0
 32 72  1  0  0  0  0
 32 73  1  0  0  0  0
M  END
>  <MODEL>
       0

$$$$
selected_4mers/VAVL/922_noH.pdb
 OpenBabel03042518353D

 73 72  0  0  1  0  0  0  0  0999 V2000
    1.5100   13.8230    8.8550 C   0  0  0  0  0  0  0  0  0  0  0  0
    2.5970   14.7990    8.4280 C   0  0  0  0  0  0  0  0  0  0  0  0
    3.3110   15.3340    9.2740 O   0  0  0  0  0  0  0  0  0  0  0  0
    2.7160   15.0330    7.1230 N   0  0  0  0  0  0  0  0  0  0  0  0
    3.7080   15.9760    6.6100 C   0  0  2  0  0  0  0  0  0  0  0  0
    3.4420   17.3940    7.1450 C   0  0  0  0  0  0  0  0  0  0  0  0
    4.3610   18.0710    7.5940 O   0  0  0  0  0  0  0  0  0  0  0  0
    3.7690   15.9500    5.0580 C   0  0  0  0  0  0  0  0  0  0  0  0
    4.6320   17.1050    4.5310 C   0  0  0  0  0  0  0  0  0  0  0  0
    4.3100   14.6050    4.5680 C   0  0  0  0  0  0  0  0  0  0  0  0
    2.1870   17.8340    7.1010 N   0  0  0  0  0  0  0  0  0  0  0  0
    1.8340   19.1660    7.6190 C   0  0  2  0  0  0  0  0  0  0  0  0
    2.1410   19.3090    9.1060 C   0  0  0  0  0  0  0  0  0  0  0  0
    2.6640   20.3340    9.5360 O   0  0  0  0  0  0  0  0  0  0  0  0
    0.3670   19.4720    7.3510 C   0  0  0  0  0  0  0  0  0  0  0  0
    1.8150   18.2780    9.8810 N   0  0  0  0  0  0  0  0  0  0  0  0
    2.0580   18.2760   11.3280 C   0  0  2  0  0  0  0  0  0  0  0  0
    3.5540   18.2390   11.6350 C   0  0  0  0  0  0  0  0  0  0  0  0
    4.0390   18.9760   12.4960 O   0  0  0  0  0  0  0  0  0  0  0  0
    1.3290   17.0890   12.0070 C   0  0  0  0  0  0  0  0  0  0  0  0
    1.8630   16.8260   13.4150 C   0  0  0  0  0  0  0  0  0  0  0  0
   -0.1710   17.3360   12.0360 C   0  0  0  0  0  0  0  0  0  0  0  0
    4.2810   17.3750   10.9290 N   0  0  0  0  0  0  0  0  0  0  0  0
    5.7220   17.2700   11.1200 C   0  0  2  0  0  0  0  0  0  0  0  0
    6.4210   18.5960   10.8060 C   0  0  0  0  0  0  0  0  0  0  0  0
    7.2290   19.0760   11.5960 O   0  0  0  0  0  0  0  0  0  0  0  0
    6.3010   16.1230   10.2760 C   0  0  0  0  0  0  0  0  0  0  0  0
    7.8190   15.9400   10.3310 C   0  0  0  0  0  0  0  0  0  0  0  0
    8.2910   15.5630   11.7290 C   0  0  0  0  0  0  0  0  0  0  0  0
    8.2460   14.8830    9.3160 C   0  0  0  0  0  0  0  0  0  0  0  0
    6.0890   19.1880    9.6620 N   0  0  0  0  0  0  0  0  0  0  0  0
    6.6950   20.4540    9.2440 C   0  0  0  0  0  0  0  0  0  0  0  0
    0.9953   13.4614    7.9894 H   0  0  0  0  0  0  0  0  0  0  0  0
    0.8167   14.3211    9.5001 H   0  0  0  0  0  0  0  0  0  0  0  0
    1.9538   13.0003    9.3757 H   0  0  0  0  0  0  0  0  0  0  0  0
    2.1250   14.5623    6.4918 H   0  0  0  0  0  0  0  0  0  0  0  0
    4.6693   15.6687    6.9655 H   0  0  0  0  0  0  0  0  0  0  0  0
    2.7765   16.0743    4.6780 H   0  0  0  0  0  0  0  0  0  0  0  0
    5.6311   17.0006    4.8995 H   0  0  0  0  0  0  0  0  0  0  0  0
    4.2242   18.0362    4.8649 H   0  0  0  0  0  0  0  0  0  0  0  0
    4.6423   17.0833    3.4613 H   0  0  0  0  0  0  0  0  0  0  0  0
    5.3035   14.4636    4.9392 H   0  0  0  0  0  0  0  0  0  0  0  0
    4.3241   14.5946    3.4981 H   0  0  0  0  0  0  0  0  0  0  0  0
    3.6806   13.8163    4.9241 H   0  0  0  0  0  0  0  0  0  0  0  0
    1.4848   17.2608    6.7167 H   0  0  0  0  0  0  0  0  0  0  0  0
    2.4422   19.8760    7.0986 H   0  0  0  0  0  0  0  0  0  0  0  0
   -0.2455   18.7643    7.8696 H   0  0  0  0  0  0  0  0  0  0  0  0
    0.1753   19.4073    6.3003 H   0  0  0  0  0  0  0  0  0  0  0  0
    0.1401   20.4595    7.6948 H   0  0  0  0  0  0  0  0  0  0  0  0
    1.3958   17.4883    9.4689 H   0  0  0  0  0  0  0  0  0  0  0  0
    1.6621   19.1859   11.7283 H   0  0  0  0  0  0  0  0  0  0  0  0
    1.5223   16.2122   11.4251 H   0  0  0  0  0  0  0  0  0  0  0  0
    1.6872   17.6843   14.0292 H   0  0  0  0  0  0  0  0  0  0  0  0
    2.9140   16.6309   13.3672 H   0  0  0  0  0  0  0  0  0  0  0  0
    1.3616   15.9787   13.8341 H   0  0  0  0  0  0  0  0  0  0  0  0
   -0.3772   18.2114   12.6157 H   0  0  0  0  0  0  0  0  0  0  0  0
   -0.6628   16.4933   12.4752 H   0  0  0  0  0  0  0  0  0  0  0  0
   -0.5286   17.4771   11.0374 H   0  0  0  0  0  0  0  0  0  0  0  0
    3.8374   16.7973   10.2667 H   0  0  0  0  0  0  0  0  0  0  0  0
    5.9033   17.0467   12.1506 H   0  0  0  0  0  0  0  0  0  0  0  0
    5.8505   15.2121   10.6111 H   0  0  0  0  0  0  0  0  0  0  0  0
    6.0810   16.3772    9.2602 H   0  0  0  0  0  0  0  0  0  0  0  0
    8.2775   16.8746   10.0837 H   0  0  0  0  0  0  0  0  0  0  0  0
    7.8523   14.6296   12.0139 H   0  0  0  0  0  0  0  0  0  0  0  0
    7.9952   16.3225   12.4222 H   0  0  0  0  0  0  0  0  0  0  0  0
    9.3571   15.4720   11.7331 H   0  0  0  0  0  0  0  0  0  0  0  0
    7.7885   13.9474    9.5615 H   0  0  0  0  0  0  0  0  0  0  0  0
    9.3104   14.7763    9.3385 H   0  0  0  0  0  0  0  0  0  0  0  0
    7.9384   15.1843    8.3365 H   0  0  0  0  0  0  0  0  0  0  0  0
    5.4176   18.7635    9.0804 H   0  0  0  0  0  0  0  0  0  0  0  0
    7.3976   20.7747    9.9845 H   0  0  0  0  0  0  0  0  0  0  0  0
    5.9314   21.1952    9.1321 H   0  0  0  0  0  0  0  0  0  0  0  0
    7.1987   20.3171    8.3100 H   0  0  0  0  0  0  0  0  0  0  0  0
  1 33  1  0  0  0  0
  1 34  1  0  0  0  0
  1 35  1  0  0  0  0
  2  1  1  0  0  0  0
  2  3  2  0  0  0  0
  4  2  1  0  0  0  0
  4 36  1  0  0  0  0
  5  4  1  0  0  0  0
  5  6  1  0  0  0  0
  5 37  1  1  0  0  0
  6  7  2  0  0  0  0
  8  5  1  0  0  0  0
  8 38  1  0  0  0  0
  9  8  1  0  0  0  0
  9 39  1  0  0  0  0
  9 40  1  0  0  0  0
  9 41  1  0  0  0  0
 10  8  1  0  0  0  0
 10 42  1  0  0  0  0
 10 43  1  0  0  0  0
 10 44  1  0  0  0  0
 11  6  1  0  0  0  0
 11 12  1  0  0  0  0
 11 45  1  0  0  0  0
 12 13  1  0  0  0  0
 12 46  1  6  0  0  0
 13 14  2  0  0  0  0
 13 16  1  0  0  0  0
 15 12  1  0  0  0  0
 15 47  1  0  0  0  0
 15 48  1  0  0  0  0
 15 49  1  0  0  0  0
 16 17  1  0  0  0  0
 16 50  1  0  0  0  0
 17 18  1  0  0  0  0
 17 20  1  0  0  0  0
 17 51  1  1  0  0  0
 18 19  2  0  0  0  0
 20 22  1  0  0  0  0
 20 21  1  0  0  0  0
 20 52  1  0  0  0  0
 21 53  1  0  0  0  0
 21 54  1  0  0  0  0
 21 55  1  0  0  0  0
 22 56  1  0  0  0  0
 22 57  1  0  0  0  0
 22 58  1  0  0  0  0
 23 24  1  0  0  0  0
 23 18  1  0  0  0  0
 23 59  1  0  0  0  0
 24 60  1  1  0  0  0
 25 24  1  0  0  0  0
 25 26  2  0  0  0  0
 27 28  1  0  0  0  0
 27 24  1  0  0  0  0
 27 61  1  0  0  0  0
 27 62  1  0  0  0  0
 28 29  1  0  0  0  0
 28 63  1  0  0  0  0
 29 64  1  0  0  0  0
 29 65  1  0  0  0  0
 29 66  1  0  0  0  0
 30 28  1  0  0  0  0
 30 67  1  0  0  0  0
 30 68  1  0  0  0  0
 30 69  1  0  0  0  0
 31 25  1  0  0  0  0
 31 70  1  0  0  0  0
 32 31  1  0  0  0  0
 32 71  1  0  0  0  0
 32 72  1  0  0  0  0
 32 73  1  0  0  0  0
M  END
>  <MODEL>
       0

$$$$
selected_4mers/VAVL/923_noH.pdb
 OpenBabel03042518353D

 73 72  0  0  1  0  0  0  0  0999 V2000
   49.7160   31.7630  -19.3090 C   0  0  0  0  0  0  0  0  0  0  0  0
   48.5960   30.7720  -19.0040 C   0  0  0  0  0  0  0  0  0  0  0  0
   47.4260   31.1410  -19.0150 O   0  0  0  0  0  0  0  0  0  0  0  0
   48.9590   29.5130  -18.7630 N   0  0  0  0  0  0  0  0  0  0  0  0
   47.9800   28.4380  -18.6220 C   0  0  2  0  0  0  0  0  0  0  0  0
   48.3420   27.6390  -17.3810 C   0  0  0  0  0  0  0  0  0  0  0  0
   49.4510   27.1060  -17.2780 O   0  0  0  0  0  0  0  0  0  0  0  0
   47.9590   27.5160  -19.8460 C   0  0  0  0  0  0  0  0  0  0  0  0
   47.0610   26.2830  -19.6160 C   0  0  0  0  0  0  0  0  0  0  0  0
   47.5400   28.2790  -21.0960 C   0  0  0  0  0  0  0  0  0  0  0  0
   47.4150   27.5810  -16.4350 N   0  0  0  0  0  0  0  0  0  0  0  0
   47.5520   26.6750  -15.2950 C   0  0  2  0  0  0  0  0  0  0  0  0
   46.9400   25.2970  -15.5940 C   0  0  0  0  0  0  0  0  0  0  0  0
   45.8260   25.2030  -16.1530 O   0  0  0  0  0  0  0  0  0  0  0  0
   46.8800   27.2890  -14.0570 C   0  0  0  0  0  0  0  0  0  0  0  0
   47.6390   24.2300  -15.2250 N   0  0  0  0  0  0  0  0  0  0  0  0
   47.0860   22.8830  -15.3960 C   0  0  2  0  0  0  0  0  0  0  0  0
   47.0230   22.2290  -14.0390 C   0  0  0  0  0  0  0  0  0  0  0  0
   48.0540   22.0980  -13.3600 O   0  0  0  0  0  0  0  0  0  0  0  0
   47.9700   22.0050  -16.3120 C   0  0  0  0  0  0  0  0  0  0  0  0
   47.3560   20.6020  -16.4960 C   0  0  0  0  0  0  0  0  0  0  0  0
   48.1480   22.6750  -17.6530 C   0  0  0  0  0  0  0  0  0  0  0  0
   45.8230   21.8070  -13.6600 N   0  0  0  0  0  0  0  0  0  0  0  0
   45.6060   21.2000  -12.3600 C   0  0  2  0  0  0  0  0  0  0  0  0
   44.9620   19.8440  -12.5520 C   0  0  0  0  0  0  0  0  0  0  0  0
   44.1460   19.6560  -13.4730 O   0  0  0  0  0  0  0  0  0  0  0  0
   44.6380   22.0520  -11.5180 C   0  0  0  0  0  0  0  0  0  0  0  0
   44.9120   23.5580  -11.3920 C   0  0  0  0  0  0  0  0  0  0  0  0
   43.7560   24.2580  -10.6320 C   0  0  0  0  0  0  0  0  0  0  0  0
   46.2710   23.7560  -10.6580 C   0  0  0  0  0  0  0  0  0  0  0  0
   45.3130   18.9170  -11.6710 N   0  0  0  0  0  0  0  0  0  0  0  0
   44.5870   17.6510  -11.5830 C   0  0  0  0  0  0  0  0  0  0  0  0
   49.2972   32.7321  -19.4831 H   0  0  0  0  0  0  0  0  0  0  0  0
   50.2482   31.4427  -20.1803 H   0  0  0  0  0  0  0  0  0  0  0  0
   50.3878   31.8089  -18.4775 H   0  0  0  0  0  0  0  0  0  0  0  0
   49.9165   29.3006  -18.6773 H   0  0  0  0  0  0  0  0  0  0  0  0
   47.0029   28.8655  -18.5362 H   0  0  0  0  0  0  0  0  0  0  0  0
   48.9559   27.1576  -19.9963 H   0  0  0  0  0  0  0  0  0  0  0  0
   46.0512   26.6011  -19.4611 H   0  0  0  0  0  0  0  0  0  0  0  0
   47.4028   25.7486  -18.7543 H   0  0  0  0  0  0  0  0  0  0  0  0
   47.1061   25.6440  -20.4731 H   0  0  0  0  0  0  0  0  0  0  0  0
   46.5438   28.6488  -20.9709 H   0  0  0  0  0  0  0  0  0  0  0  0
   47.5739   27.6243  -21.9416 H   0  0  0  0  0  0  0  0  0  0  0  0
   48.2080   29.0999  -21.2535 H   0  0  0  0  0  0  0  0  0  0  0  0
   46.6201   28.1581  -16.5010 H   0  0  0  0  0  0  0  0  0  0  0  0
   48.5961   26.5373  -15.1059 H   0  0  0  0  0  0  0  0  0  0  0  0
   45.8362   27.4257  -14.2487 H   0  0  0  0  0  0  0  0  0  0  0  0
   47.3296   28.2353  -13.8396 H   0  0  0  0  0  0  0  0  0  0  0  0
   47.0062   26.6336  -13.2207 H   0  0  0  0  0  0  0  0  0  0  0  0
   48.5352   24.3443  -14.8337 H   0  0  0  0  0  0  0  0  0  0  0  0
   46.1201   22.9711  -15.8479 H   0  0  0  0  0  0  0  0  0  0  0  0
   48.9263   21.8905  -15.8458 H   0  0  0  0  0  0  0  0  0  0  0  0
   46.3967   20.6908  -16.9616 H   0  0  0  0  0  0  0  0  0  0  0  0
   47.2467   20.1324  -15.5408 H   0  0  0  0  0  0  0  0  0  0  0  0
   47.9986   20.0096  -17.1132 H   0  0  0  0  0  0  0  0  0  0  0  0
   47.1938   22.7916  -18.1229 H   0  0  0  0  0  0  0  0  0  0  0  0
   48.7791   22.0721  -18.2720 H   0  0  0  0  0  0  0  0  0  0  0  0
   48.5972   23.6362  -17.5146 H   0  0  0  0  0  0  0  0  0  0  0  0
   45.0616   21.9083  -14.2759 H   0  0  0  0  0  0  0  0  0  0  0  0
   46.5503   21.1212  -11.8630 H   0  0  0  0  0  0  0  0  0  0  0  0
   44.6387   21.6463  -10.5279 H   0  0  0  0  0  0  0  0  0  0  0  0
   43.7098   21.9966  -12.0475 H   0  0  0  0  0  0  0  0  0  0  0  0
   44.9686   24.0021  -12.3638 H   0  0  0  0  0  0  0  0  0  0  0  0
   43.6683   23.8387   -9.6515 H   0  0  0  0  0  0  0  0  0  0  0  0
   42.8396   24.1133  -11.1650 H   0  0  0  0  0  0  0  0  0  0  0  0
   43.9623   25.3051  -10.5550 H   0  0  0  0  0  0  0  0  0  0  0  0
   46.2188   23.3132   -9.6853 H   0  0  0  0  0  0  0  0  0  0  0  0
   46.4761   24.8019  -10.5633 H   0  0  0  0  0  0  0  0  0  0  0  0
   47.0518   23.2890  -11.2211 H   0  0  0  0  0  0  0  0  0  0  0  0
   46.0730   19.0836  -11.0678 H   0  0  0  0  0  0  0  0  0  0  0  0
   43.7986   17.6409  -12.3064 H   0  0  0  0  0  0  0  0  0  0  0  0
   44.1726   17.5449  -10.6022 H   0  0  0  0  0  0  0  0  0  0  0  0
   45.2585   16.8406  -11.7760 H   0  0  0  0  0  0  0  0  0  0  0  0
  1  2  1  0  0  0  0
  1 33  1  0  0  0  0
  1 34  1  0  0  0  0
  1 35  1  0  0  0  0
  2  4  1  0  0  0  0
  3  2  2  0  0  0  0
  4  5  1  0  0  0  0
  4 36  1  0  0  0  0
  5  6  1  0  0  0  0
  5 37  1  1  0  0  0
  6  7  2  0  0  0  0
  6 11  1  0  0  0  0
  8  9  1  0  0  0  0
  8  5  1  0  0  0  0
  8 38  1  0  0  0  0
  9 39  1  0  0  0  0
  9 40  1  0  0  0  0
  9 41  1  0  0  0  0
 10  8  1  0  0  0  0
 10 42  1  0  0  0  0
 10 43  1  0  0  0  0
 10 44  1  0  0  0  0
 11 12  1  0  0  0  0
 11 45  1  0  0  0  0
 12 15  1  0  0  0  0
 12 46  1  1  0  0  0
 13 12  1  0  0  0  0
 13 16  1  0  0  0  0
 14 13  2  0  0  0  0
 15 47  1  0  0  0  0
 15 48  1  0  0  0  0
 15 49  1  0  0  0  0
 16 50  1  0  0  0  0
 17 16  1  0  0  0  0
 17 18  1  0  0  0  0
 17 51  1  6  0  0  0
 18 23  1  0  0  0  0
 18 19  2  0  0  0  0
 20 17  1  0  0  0  0
 20 52  1  0  0  0  0
 21 20  1  0  0  0  0
 21 53  1  0  0  0  0
 21 54  1  0  0  0  0
 21 55  1  0  0  0  0
 22 20  1  0  0  0  0
 22 56  1  0  0  0  0
 22 57  1  0  0  0  0
 22 58  1  0  0  0  0
 23 24  1  0  0  0  0
 23 59  1  0  0  0  0
 24 27  1  0  0  0  0
 24 60  1  1  0  0  0
 25 24  1  0  0  0  0
 25 31  1  0  0  0  0
 26 25  2  0  0  0  0
 27 28  1  0  0  0  0
 27 61  1  0  0  0  0
 27 62  1  0  0  0  0
 28 30  1  0  0  0  0
 28 29  1  0  0  0  0
 28 63  1  0  0  0  0
 29 64  1  0  0  0  0
 29 65  1  0  0  0  0
 29 66  1  0  0  0  0
 30 67  1  0  0  0  0
 30 68  1  0  0  0  0
 30 69  1  0  0  0  0
 31 32  1  0  0  0  0
 31 70  1  0  0  0  0
 32 71  1  0  0  0  0
 32 72  1  0  0  0  0
 32 73  1  0  0  0  0
M  END
>  <MODEL>
       0

$$$$
selected_4mers/VAVL/924_noH.pdb
 OpenBabel03042518353D

 73 72  0  0  1  0  0  0  0  0999 V2000
    9.5350    6.0570    2.3130 C   0  0  0  0  0  0  0  0  0  0  0  0
    8.9350    5.9250    3.7070 C   0  0  0  0  0  0  0  0  0  0  0  0
    8.9270    6.8980    4.4620 O   0  0  0  0  0  0  0  0  0  0  0  0
    8.4630    4.7290    4.0750 N   0  0  0  0  0  0  0  0  0  0  0  0
    7.7730    4.5400    5.3400 C   0  0  2  0  0  0  0  0  0  0  0  0
    8.8130    4.6470    6.4380 C   0  0  0  0  0  0  0  0  0  0  0  0
    8.5100    5.2450    7.4440 O   0  0  0  0  0  0  0  0  0  0  0  0
    6.9770    3.2110    5.4160 C   0  0  0  0  0  0  0  0  0  0  0  0
    6.4240    2.9980    6.7990 C   0  0  0  0  0  0  0  0  0  0  0  0
    5.8000    3.2600    4.4280 C   0  0  0  0  0  0  0  0  0  0  0  0
   10.0240    4.1540    6.1960 N   0  0  0  0  0  0  0  0  0  0  0  0
   11.1330    4.2550    7.1520 C   0  0  2  0  0  0  0  0  0  0  0  0
   11.5100    5.7220    7.4660 C   0  0  0  0  0  0  0  0  0  0  0  0
   11.6010    6.1010    8.6200 O   0  0  0  0  0  0  0  0  0  0  0  0
   12.3720    3.3750    6.6780 C   0  0  0  0  0  0  0  0  0  0  0  0
   11.7230    6.5440    6.4400 N   0  0  0  0  0  0  0  0  0  0  0  0
   11.9420    7.9740    6.6580 C   0  0  2  0  0  0  0  0  0  0  0  0
   10.8500    8.5920    7.5120 C   0  0  0  0  0  0  0  0  0  0  0  0
   11.1160    9.3270    8.4530 O   0  0  0  0  0  0  0  0  0  0  0  0
   12.0840    8.7390    5.3520 C   0  0  0  0  0  0  0  0  0  0  0  0
   12.2890   10.2250    5.6340 C   0  0  0  0  0  0  0  0  0  0  0  0
   13.3250    8.1940    4.5430 C   0  0  0  0  0  0  0  0  0  0  0  0
    9.6000    8.4180    7.1030 N   0  0  0  0  0  0  0  0  0  0  0  0
    8.5010    9.0220    7.8370 C   0  0  2  0  0  0  0  0  0  0  0  0
    8.3080    8.4250    9.2510 C   0  0  0  0  0  0  0  0  0  0  0  0
    7.8710    9.1160   10.1620 O   0  0  0  0  0  0  0  0  0  0  0  0
    7.2200    8.7200    7.0720 C   0  0  0  0  0  0  0  0  0  0  0  0
    7.1060    9.2430    5.6800 C   0  0  0  0  0  0  0  0  0  0  0  0
    5.7510    8.8170    5.0350 C   0  0  0  0  0  0  0  0  0  0  0  0
    7.2300   10.7910    5.7740 C   0  0  0  0  0  0  0  0  0  0  0  0
    8.5370    7.1170    9.4240 N   0  0  0  0  0  0  0  0  0  0  0  0
    8.4610    6.5430   10.7950 C   0  0  0  0  0  0  0  0  0  0  0  0
    9.4566    5.1208    1.8009 H   0  0  0  0  0  0  0  0  0  0  0  0
   10.5653    6.3346    2.3930 H   0  0  0  0  0  0  0  0  0  0  0  0
    9.0046    6.8083    1.7661 H   0  0  0  0  0  0  0  0  0  0  0  0
    8.5859    3.9584    3.4747 H   0  0  0  0  0  0  0  0  0  0  0  0
    7.0256    5.2974    5.4522 H   0  0  0  0  0  0  0  0  0  0  0  0
    7.6422    2.4092    5.1718 H   0  0  0  0  0  0  0  0  0  0  0  0
    5.7586    3.7992    7.0444 H   0  0  0  0  0  0  0  0  0  0  0  0
    7.2279    2.9732    7.5047 H   0  0  0  0  0  0  0  0  0  0  0  0
    5.8922    2.0701    6.8315 H   0  0  0  0  0  0  0  0  0  0  0  0
    5.1481    4.0672    4.6896 H   0  0  0  0  0  0  0  0  0  0  0  0
    5.2599    2.3373    4.4706 H   0  0  0  0  0  0  0  0  0  0  0  0
    6.1728    3.4096    3.4363 H   0  0  0  0  0  0  0  0  0  0  0  0
   10.1839    3.7008    5.3368 H   0  0  0  0  0  0  0  0  0  0  0  0
   10.8004    3.8470    8.0836 H   0  0  0  0  0  0  0  0  0  0  0  0
   12.7390    3.7490    5.7451 H   0  0  0  0  0  0  0  0  0  0  0  0
   12.0618    2.3581    6.5573 H   0  0  0  0  0  0  0  0  0  0  0  0
   13.1479    3.4264    7.4130 H   0  0  0  0  0  0  0  0  0  0  0  0
   11.7332    6.1849    5.5234 H   0  0  0  0  0  0  0  0  0  0  0  0
   12.8673    8.0540    7.1893 H   0  0  0  0  0  0  0  0  0  0  0  0
   11.1910    8.6040    4.7783 H   0  0  0  0  0  0  0  0  0  0  0  0
   13.1822   10.3593    6.2077 H   0  0  0  0  0  0  0  0  0  0  0  0
   11.4521   10.6025    6.1834 H   0  0  0  0  0  0  0  0  0  0  0  0
   12.3765   10.7549    4.7086 H   0  0  0  0  0  0  0  0  0  0  0  0
   14.2153    8.3311    5.1204 H   0  0  0  0  0  0  0  0  0  0  0  0
   13.4123    8.7290    3.6205 H   0  0  0  0  0  0  0  0  0  0  0  0
   13.1887    7.1524    4.3397 H   0  0  0  0  0  0  0  0  0  0  0  0
    9.4166    7.8784    6.3003 H   0  0  0  0  0  0  0  0  0  0  0  0
    8.7199   10.0648    7.9346 H   0  0  0  0  0  0  0  0  0  0  0  0
    7.1200    7.6558    7.0231 H   0  0  0  0  0  0  0  0  0  0  0  0
    6.4525    9.2291    7.6166 H   0  0  0  0  0  0  0  0  0  0  0  0
    7.8752    8.8422    5.0534 H   0  0  0  0  0  0  0  0  0  0  0  0
    4.9414    9.1936    5.6245 H   0  0  0  0  0  0  0  0  0  0  0  0
    5.6957    7.7492    4.9938 H   0  0  0  0  0  0  0  0  0  0  0  0
    5.6865    9.2160    4.0443 H   0  0  0  0  0  0  0  0  0  0  0  0
    6.4539   11.1734    6.4035 H   0  0  0  0  0  0  0  0  0  0  0  0
    7.1383   11.2162    4.7964 H   0  0  0  0  0  0  0  0  0  0  0  0
    8.1831   11.0481    6.1867 H   0  0  0  0  0  0  0  0  0  0  0  0
    8.7528    6.5425    8.6542 H   0  0  0  0  0  0  0  0  0  0  0  0
    8.2165    7.3167   11.4925 H   0  0  0  0  0  0  0  0  0  0  0  0
    9.4061    6.1140   11.0550 H   0  0  0  0  0  0  0  0  0  0  0  0
    7.7057    5.7856   10.8232 H   0  0  0  0  0  0  0  0  0  0  0  0
  1  2  1  0  0  0  0
  1 33  1  0  0  0  0
  1 34  1  0  0  0  0
  1 35  1  0  0  0  0
  2  4  1  0  0  0  0
  2  3  2  0  0  0  0
  4  5  1  0  0  0  0
  4 36  1  0  0  0  0
  5  8  1  0  0  0  0
  5  6  1  0  0  0  0
  5 37  1  1  0  0  0
  6  7  2  0  0  0  0
  8  9  1  0  0  0  0
  8 38  1  0  0  0  0
  9 39  1  0  0  0  0
  9 40  1  0  0  0  0
  9 41  1  0  0  0  0
 10  8  1  0  0  0  0
 10 42  1  0  0  0  0
 10 43  1  0  0  0  0
 10 44  1  0  0  0  0
 11  6  1  0  0  0  0
 11 12  1  0  0  0  0
 11 45  1  0  0  0  0
 12 13  1  0  0  0  0
 12 46  1  1  0  0  0
 13 14  2  0  0  0  0
 15 12  1  0  0  0  0
 15 47  1  0  0  0  0
 15 48  1  0  0  0  0
 15 49  1  0  0  0  0
 16 17  1  0  0  0  0
 16 13  1  0  0  0  0
 16 50  1  0  0  0  0
 17 18  1  0  0  0  0
 17 51  1  1  0  0  0
 18 19  2  0  0  0  0
 20 21  1  0  0  0  0
 20 17  1  0  0  0  0
 20 52  1  0  0  0  0
 21 53  1  0  0  0  0
 21 54  1  0  0  0  0
 21 55  1  0  0  0  0
 22 20  1  0  0  0  0
 22 56  1  0  0  0  0
 22 57  1  0  0  0  0
 22 58  1  0  0  0  0
 23 18  1  0  0  0  0
 23 24  1  0  0  0  0
 23 59  1  0  0  0  0
 24 25  1  0  0  0  0
 24 60  1  1  0  0  0
 25 31  1  0  0  0  0
 25 26  2  0  0  0  0
 27 24  1  0  0  0  0
 27 61  1  0  0  0  0
 27 62  1  0  0  0  0
 28 30  1  0  0  0  0
 28 27  1  0  0  0  0
 28 63  1  0  0  0  0
 29 28  1  0  0  0  0
 29 64  1  0  0  0  0
 29 65  1  0  0  0  0
 29 66  1  0  0  0  0
 30 67  1  0  0  0  0
 30 68  1  0  0  0  0
 30 69  1  0  0  0  0
 31 32  1  0  0  0  0
 31 70  1  0  0  0  0
 32 71  1  0  0  0  0
 32 72  1  0  0  0  0
 32 73  1  0  0  0  0
M  END
>  <MODEL>
       0

$$$$
