selected_4mers/VDAA/830_noH.pdb
 OpenBabel03042518353D

 60 59  0  0  1  0  0  0  0  0999 V2000
   41.9620   32.0660   26.3480 C   0  0  0  0  0  0  0  0  0  0  0  0
   41.1380   32.2520   25.0670 C   0  0  0  0  0  0  0  0  0  0  0  0
   40.1220   32.9510   25.0660 O   0  0  0  0  0  0  0  0  0  0  0  0
   41.5850   31.6360   23.9780 N   0  0  0  0  0  0  0  0  0  0  0  0
   40.8740   31.7230   22.7070 C   0  0  2  0  0  0  0  0  0  0  0  0
   39.4870   31.0770   22.8340 C   0  0  0  0  0  0  0  0  0  0  0  0
   38.4880   31.6570   22.4100 O   0  0  0  0  0  0  0  0  0  0  0  0
   41.6650   31.0130   21.5890 C   0  0  0  0  0  0  0  0  0  0  0  0
   40.8490   30.9900   20.3000 C   0  0  0  0  0  0  0  0  0  0  0  0
   42.9900   31.7250   21.3710 C   0  0  0  0  0  0  0  0  0  0  0  0
   39.4370   29.8800   23.4180 N   0  0  0  0  0  0  0  0  0  0  0  0
   38.1760   29.1670   23.6180 C   0  0  2  0  0  0  0  0  0  0  0  0
   37.2180   29.9670   24.5060 C   0  0  0  0  0  0  0  0  0  0  0  0
   36.0280   30.0760   24.2090 O   0  0  0  0  0  0  0  0  0  0  0  0
   38.4380   27.8030   24.2550 C   0  0  0  0  0  0  0  0  0  0  0  0
   39.1430   26.8510   23.3150 C   0  0  0  0  0  0  0  0  0  0  0  0
   39.5750   25.7710   23.7700 O   0  0  0  0  0  0  0  0  0  0  0  0
   39.2620   27.1770   22.1160 O   0  0  0  0  0  0  0  0  0  0  0  0
   37.7430   30.5230   25.5940 N   0  0  0  0  0  0  0  0  0  0  0  0
   36.9350   31.3130   26.5170 C   0  0  2  0  0  0  0  0  0  0  0  0
   36.3370   32.5320   25.8270 C   0  0  0  0  0  0  0  0  0  0  0  0
   35.1880   32.8970   26.0830 O   0  0  0  0  0  0  0  0  0  0  0  0
   37.7810   31.7550   27.7080 C   0  0  0  0  0  0  0  0  0  0  0  0
   37.1160   33.1660   24.9550 N   0  0  0  0  0  0  0  0  0  0  0  0
   36.6380   34.3430   24.2410 C   0  0  2  0  0  0  0  0  0  0  0  0
   35.4880   33.9780   23.3050 C   0  0  0  0  0  0  0  0  0  0  0  0
   34.4900   34.6970   23.2270 O   0  0  0  0  0  0  0  0  0  0  0  0
   37.7740   34.9790   23.4500 C   0  0  0  0  0  0  0  0  0  0  0  0
   35.6270   32.8590   22.6000 N   0  0  0  0  0  0  0  0  0  0  0  0
   34.5960   32.4180   21.6690 C   0  0  0  0  0  0  0  0  0  0  0  0
   42.7982   31.4300   26.1450 H   0  0  0  0  0  0  0  0  0  0  0  0
   41.3501   31.6202   27.1041 H   0  0  0  0  0  0  0  0  0  0  0  0
   42.3123   33.0181   26.6882 H   0  0  0  0  0  0  0  0  0  0  0  0
   42.4149   31.1089   24.0299 H   0  0  0  0  0  0  0  0  0  0  0  0
   40.7677   32.7574   22.4550 H   0  0  0  0  0  0  0  0  0  0  0  0
   41.8595   30.0020   21.8806 H   0  0  0  0  0  0  0  0  0  0  0  0
   40.6431   31.9933   19.9903 H   0  0  0  0  0  0  0  0  0  0  0  0
   39.9277   30.4731   20.4702 H   0  0  0  0  0  0  0  0  0  0  0  0
   41.4039   30.4875   19.5355 H   0  0  0  0  0  0  0  0  0  0  0  0
   42.8068   32.7379   21.0787 H   0  0  0  0  0  0  0  0  0  0  0  0
   43.5408   31.2258   20.6014 H   0  0  0  0  0  0  0  0  0  0  0  0
   43.5553   31.7126   22.2794 H   0  0  0  0  0  0  0  0  0  0  0  0
   40.2747   29.4631   23.7241 H   0  0  0  0  0  0  0  0  0  0  0  0
   37.7204   29.0362   22.6587 H   0  0  0  0  0  0  0  0  0  0  0  0
   39.0470   27.9413   25.1238 H   0  0  0  0  0  0  0  0  0  0  0  0
   37.4904   27.3726   24.5034 H   0  0  0  0  0  0  0  0  0  0  0  0
   38.7014   30.3984   25.7815 H   0  0  0  0  0  0  0  0  0  0  0  0
   36.1307   30.6964   26.8602 H   0  0  0  0  0  0  0  0  0  0  0  0
   38.5853   32.3717   27.3649 H   0  0  0  0  0  0  0  0  0  0  0  0
   38.1782   30.8934   28.2027 H   0  0  0  0  0  0  0  0  0  0  0  0
   37.1726   32.3098   28.3913 H   0  0  0  0  0  0  0  0  0  0  0  0
   38.0285   32.8354   24.7896 H   0  0  0  0  0  0  0  0  0  0  0  0
   36.2786   35.0483   24.9609 H   0  0  0  0  0  0  0  0  0  0  0  0
   38.1400   34.2803   22.7270 H   0  0  0  0  0  0  0  0  0  0  0  0
   38.5655   35.2494   24.1173 H   0  0  0  0  0  0  0  0  0  0  0  0
   37.4143   35.8540   22.9501 H   0  0  0  0  0  0  0  0  0  0  0  0
   36.4422   32.3179   22.7091 H   0  0  0  0  0  0  0  0  0  0  0  0
   33.7867   33.1179   21.6754 H   0  0  0  0  0  0  0  0  0  0  0  0
   34.2367   31.4545   21.9649 H   0  0  0  0  0  0  0  0  0  0  0  0
   35.0077   32.3578   20.6832 H   0  0  0  0  0  0  0  0  0  0  0  0
  1 31  1  0  0  0  0
  1 32  1  0  0  0  0
  1 33  1  0  0  0  0
  2  1  1  0  0  0  0
  3  2  2  0  0  0  0
  4  2  1  0  0  0  0
  4 34  1  0  0  0  0
  5  6  1  0  0  0  0
  5  4  1  0  0  0  0
  5 35  1  6  0  0  0
  6 11  1  0  0  0  0
  7  6  2  0  0  0  0
  8  5  1  0  0  0  0
  8 36  1  0  0  0  0
  9  8  1  0  0  0  0
  9 37  1  0  0  0  0
  9 38  1  0  0  0  0
  9 39  1  0  0  0  0
 10  8  1  0  0  0  0
 10 40  1  0  0  0  0
 10 41  1  0  0  0  0
 10 42  1  0  0  0  0
 11 12  1  0  0  0  0
 11 43  1  0  0  0  0
 12 15  1  0  0  0  0
 12 13  1  0  0  0  0
 12 44  1  6  0  0  0
 13 19  1  0  0  0  0
 14 13  2  0  0  0  0
 15 45  1  0  0  0  0
 15 46  1  0  0  0  0
 16 17  1  0  0  0  0
 16 15  1  0  0  0  0
 18 16  2  0  0  0  0
 19 20  1  0  0  0  0
 19 47  1  0  0  0  0
 20 23  1  0  0  0  0
 20 48  1  1  0  0  0
 21 22  2  0  0  0  0
 21 20  1  0  0  0  0
 23 49  1  0  0  0  0
 23 50  1  0  0  0  0
 23 51  1  0  0  0  0
 24 21  1  0  0  0  0
 24 52  1  0  0  0  0
 25 24  1  0  0  0  0
 25 53  1  1  0  0  0
 26 25  1  0  0  0  0
 27 26  2  0  0  0  0
 28 25  1  0  0  0  0
 28 54  1  0  0  0  0
 28 55  1  0  0  0  0
 28 56  1  0  0  0  0
 29 26  1  0  0  0  0
 29 57  1  0  0  0  0
 30 29  1  0  0  0  0
 30 58  1  0  0  0  0
 30 59  1  0  0  0  0
 30 60  1  0  0  0  0
M  CHG  1  17  -1
M  END
>  <MODEL>
       0

$$$$
selected_4mers/VDAA/831_noH.pdb
 OpenBabel03042518353D

 60 59  0  0  1  0  0  0  0  0999 V2000
   21.0910   26.4330  -13.9230 C   0  0  0  0  0  0  0  0  0  0  0  0
   19.8380   26.0100  -13.2270 C   0  0  0  0  0  0  0  0  0  0  0  0
   19.6270   26.2720  -12.0080 O   0  0  0  0  0  0  0  0  0  0  0  0
   18.9950   25.3380  -13.9910 N   0  0  0  0  0  0  0  0  0  0  0  0
   17.8020   24.7260  -13.4270 C   0  0  2  0  0  0  0  0  0  0  0  0
   18.1620   23.5210  -12.5670 C   0  0  0  0  0  0  0  0  0  0  0  0
   19.1780   22.8350  -12.8010 O   0  0  0  0  0  0  0  0  0  0  0  0
   16.7530   24.3740  -14.5360 C   0  0  0  0  0  0  0  0  0  0  0  0
   16.5500   25.5910  -15.4620 C   0  0  0  0  0  0  0  0  0  0  0  0
   17.1820   23.1310  -15.3390 C   0  0  0  0  0  0  0  0  0  0  0  0
   17.3640   23.2580  -11.5330 N   0  0  0  0  0  0  0  0  0  0  0  0
   17.7050   22.2310  -10.5520 C   0  0  2  0  0  0  0  0  0  0  0  0
   18.0590   20.8750  -11.1660 C   0  0  0  0  0  0  0  0  0  0  0  0
   19.0210   20.2300  -10.7780 O   0  0  0  0  0  0  0  0  0  0  0  0
   16.5390   22.0130   -9.6050 C   0  0  0  0  0  0  0  0  0  0  0  0
   16.2000   23.2530   -8.7910 C   0  0  0  0  0  0  0  0  0  0  0  0
   17.0020   24.2610   -8.8020 O   0  0  0  0  0  0  0  0  0  0  0  0
   15.1370   23.2400   -8.0940 O   0  0  0  0  0  0  0  0  0  0  0  0
   17.2750   20.4660  -12.1440 N   0  0  0  0  0  0  0  0  0  0  0  0
   17.4580   19.1580  -12.7800 C   0  0  2  0  0  0  0  0  0  0  0  0
   18.7620   19.0050  -13.5550 C   0  0  0  0  0  0  0  0  0  0  0  0
   19.1910   17.8550  -13.8060 O   0  0  0  0  0  0  0  0  0  0  0  0
   16.2630   18.8740  -13.7140 C   0  0  0  0  0  0  0  0  0  0  0  0
   19.3470   20.1250  -13.9840 N   0  0  0  0  0  0  0  0  0  0  0  0
   20.5580   20.1660  -14.7690 C   0  0  2  0  0  0  0  0  0  0  0  0
   21.8090   20.2590  -13.9390 C   0  0  0  0  0  0  0  0  0  0  0  0
   22.8760   20.0510  -14.4600 O   0  0  0  0  0  0  0  0  0  0  0  0
   20.5190   21.3100  -15.7540 C   0  0  0  0  0  0  0  0  0  0  0  0
   21.6960   20.5830  -12.6420 N   0  0  0  0  0  0  0  0  0  0  0  0
   22.8840   20.8140  -11.8550 C   0  0  0  0  0  0  0  0  0  0  0  0
   21.0596   26.1089  -14.9422 H   0  0  0  0  0  0  0  0  0  0  0  0
   21.9358   25.9938  -13.4349 H   0  0  0  0  0  0  0  0  0  0  0  0
   21.1747   27.4992  -13.8902 H   0  0  0  0  0  0  0  0  0  0  0  0
   19.1767   25.2504  -14.9546 H   0  0  0  0  0  0  0  0  0  0  0  0
   17.3350   25.4441  -12.7858 H   0  0  0  0  0  0  0  0  0  0  0  0
   15.8219   24.1381  -14.0644 H   0  0  0  0  0  0  0  0  0  0  0  0
   17.4764   25.8349  -15.9387 H   0  0  0  0  0  0  0  0  0  0  0  0
   16.2153   26.4270  -14.8841 H   0  0  0  0  0  0  0  0  0  0  0  0
   15.8175   25.3552  -16.2055 H   0  0  0  0  0  0  0  0  0  0  0  0
   18.1133   23.3264  -15.8283 H   0  0  0  0  0  0  0  0  0  0  0  0
   16.4353   22.9041  -16.0710 H   0  0  0  0  0  0  0  0  0  0  0  0
   17.2953   22.2993  -14.6754 H   0  0  0  0  0  0  0  0  0  0  0  0
   16.5274   23.7663  -11.4280 H   0  0  0  0  0  0  0  0  0  0  0  0
   18.5730   22.5992  -10.0460 H   0  0  0  0  0  0  0  0  0  0  0  0
   16.7893   21.2200   -8.9316 H   0  0  0  0  0  0  0  0  0  0  0  0
   15.6820   21.7738  -10.1993 H   0  0  0  0  0  0  0  0  0  0  0  0
   16.5488   21.0536  -12.4548 H   0  0  0  0  0  0  0  0  0  0  0  0
   17.5095   18.4456  -11.9833 H   0  0  0  0  0  0  0  0  0  0  0  0
   16.2413   19.6028  -14.4971 H   0  0  0  0  0  0  0  0  0  0  0  0
   15.3527   18.9249  -13.1540 H   0  0  0  0  0  0  0  0  0  0  0  0
   16.3664   17.8973  -14.1386 H   0  0  0  0  0  0  0  0  0  0  0  0
   18.9237   20.9823  -13.7491 H   0  0  0  0  0  0  0  0  0  0  0  0
   20.5968   19.2332  -15.2917 H   0  0  0  0  0  0  0  0  0  0  0  0
   20.4803   22.2376  -15.2220 H   0  0  0  0  0  0  0  0  0  0  0  0
   19.6515   21.2178  -16.3736 H   0  0  0  0  0  0  0  0  0  0  0  0
   21.3975   21.2853  -16.3643 H   0  0  0  0  0  0  0  0  0  0  0  0
   20.8062   20.6629  -12.2285 H   0  0  0  0  0  0  0  0  0  0  0  0
   23.7500   20.6827  -12.4695 H   0  0  0  0  0  0  0  0  0  0  0  0
   22.9144   20.1184  -11.0425 H   0  0  0  0  0  0  0  0  0  0  0  0
   22.8681   21.8121  -11.4696 H   0  0  0  0  0  0  0  0  0  0  0  0
  1  2  1  0  0  0  0
  1 31  1  0  0  0  0
  1 32  1  0  0  0  0
  1 33  1  0  0  0  0
  2  3  2  0  0  0  0
  4  5  1  0  0  0  0
  4  2  1  0  0  0  0
  4 34  1  0  0  0  0
  5  6  1  0  0  0  0
  5 35  1  1  0  0  0
  6 11  1  0  0  0  0
  7  6  2  0  0  0  0
  8  5  1  0  0  0  0
  8 36  1  0  0  0  0
  9  8  1  0  0  0  0
  9 37  1  0  0  0  0
  9 38  1  0  0  0  0
  9 39  1  0  0  0  0
 10  8  1  0  0  0  0
 10 40  1  0  0  0  0
 10 41  1  0  0  0  0
 10 42  1  0  0  0  0
 11 12  1  0  0  0  0
 11 43  1  0  0  0  0
 12 15  1  0  0  0  0
 12 44  1  1  0  0  0
 13 14  2  0  0  0  0
 13 12  1  0  0  0  0
 15 16  1  0  0  0  0
 15 45  1  0  0  0  0
 15 46  1  0  0  0  0
 16 18  1  0  0  0  0
 17 16  2  0  0  0  0
 19 13  1  0  0  0  0
 19 47  1  0  0  0  0
 20 19  1  0  0  0  0
 20 48  1  1  0  0  0
 21 20  1  0  0  0  0
 22 21  2  0  0  0  0
 23 20  1  0  0  0  0
 23 49  1  0  0  0  0
 23 50  1  0  0  0  0
 23 51  1  0  0  0  0
 24 21  1  0  0  0  0
 24 52  1  0  0  0  0
 25 24  1  0  0  0  0
 25 26  1  0  0  0  0
 25 53  1  6  0  0  0
 26 29  1  0  0  0  0
 27 26  2  0  0  0  0
 28 25  1  0  0  0  0
 28 54  1  0  0  0  0
 28 55  1  0  0  0  0
 28 56  1  0  0  0  0
 29 30  1  0  0  0  0
 29 57  1  0  0  0  0
 30 58  1  0  0  0  0
 30 59  1  0  0  0  0
 30 60  1  0  0  0  0
M  CHG  1  18  -1
M  END
>  <MODEL>
       0

$$$$
selected_4mers/VDAA/832_noH.pdb
 OpenBabel03042518353D

 60 59  0  0  1  0  0  0  0  0999 V2000
   21.8830   -7.2440  -31.7050 C   0  0  0  0  0  0  0  0  0  0  0  0
   23.2070   -7.0920  -30.9750 C   0  0  0  0  0  0  0  0  0  0  0  0
   24.2480   -7.2920  -31.5720 O   0  0  0  0  0  0  0  0  0  0  0  0
   23.1500   -6.7980  -29.6800 N   0  0  0  0  0  0  0  0  0  0  0  0
   24.3590   -6.6170  -28.8840 C   0  0  2  0  0  0  0  0  0  0  0  0
   24.5710   -7.8320  -27.9760 C   0  0  0  0  0  0  0  0  0  0  0  0
   23.7470   -8.1090  -27.1270 O   0  0  0  0  0  0  0  0  0  0  0  0
   24.2930   -5.3460  -28.0490 C   0  0  0  0  0  0  0  0  0  0  0  0
   25.5850   -5.2270  -27.2030 C   0  0  0  0  0  0  0  0  0  0  0  0
   24.1100   -4.1420  -28.9860 C   0  0  0  0  0  0  0  0  0  0  0  0
   25.6520   -8.5590  -28.2350 N   0  0  0  0  0  0  0  0  0  0  0  0
   26.0610   -9.7310  -27.4370 C   0  0  2  0  0  0  0  0  0  0  0  0
   27.1080   -9.2190  -26.4500 C   0  0  0  0  0  0  0  0  0  0  0  0
   28.2700   -9.0170  -26.8140 O   0  0  0  0  0  0  0  0  0  0  0  0
   26.6470  -10.8240  -28.3260 C   0  0  0  0  0  0  0  0  0  0  0  0
   27.1720  -12.0360  -27.5270 C   0  0  0  0  0  0  0  0  0  0  0  0
   27.0600  -12.0160  -26.2820 O   0  0  0  0  0  0  0  0  0  0  0  0
   27.7710  -12.9470  -28.1370 O   0  0  0  0  0  0  0  0  0  0  0  0
   26.6730   -9.0480  -25.2140 N   0  0  0  0  0  0  0  0  0  0  0  0
   27.5200   -8.6180  -24.1110 C   0  0  2  0  0  0  0  0  0  0  0  0
   27.4940   -9.7010  -23.0060 C   0  0  0  0  0  0  0  0  0  0  0  0
   27.4690   -9.3880  -21.8090 O   0  0  0  0  0  0  0  0  0  0  0  0
   27.0360   -7.2790  -23.5660 C   0  0  0  0  0  0  0  0  0  0  0  0
   27.4950  -10.9620  -23.4300 N   0  0  0  0  0  0  0  0  0  0  0  0
   27.1750  -12.0750  -22.5100 C   0  0  2  0  0  0  0  0  0  0  0  0
   27.9560  -12.0220  -21.1970 C   0  0  0  0  0  0  0  0  0  0  0  0
   27.3670  -12.2290  -20.1360 O   0  0  0  0  0  0  0  0  0  0  0  0
   27.4460  -13.3950  -23.2150 C   0  0  0  0  0  0  0  0  0  0  0  0
   29.2790  -11.8300  -21.2940 N   0  0  0  0  0  0  0  0  0  0  0  0
   30.1590  -11.7480  -20.1250 C   0  0  0  0  0  0  0  0  0  0  0  0
   22.0672   -7.4787  -32.7326 H   0  0  0  0  0  0  0  0  0  0  0  0
   21.3334   -6.3282  -31.6413 H   0  0  0  0  0  0  0  0  0  0  0  0
   21.3161   -8.0322  -31.2552 H   0  0  0  0  0  0  0  0  0  0  0  0
   22.2709   -6.7001  -29.2477 H   0  0  0  0  0  0  0  0  0  0  0  0
   25.1865   -6.5241  -29.5559 H   0  0  0  0  0  0  0  0  0  0  0  0
   23.4607   -5.3739  -27.3772 H   0  0  0  0  0  0  0  0  0  0  0  0
   26.4350   -5.1971  -27.8523 H   0  0  0  0  0  0  0  0  0  0  0  0
   25.6636   -6.0719  -26.5512 H   0  0  0  0  0  0  0  0  0  0  0  0
   25.5489   -4.3298  -26.6211 H   0  0  0  0  0  0  0  0  0  0  0  0
   24.9324   -4.0932  -29.6688 H   0  0  0  0  0  0  0  0  0  0  0  0
   24.0727   -3.2425  -28.4078 H   0  0  0  0  0  0  0  0  0  0  0  0
   23.1975   -4.2519  -29.5339 H   0  0  0  0  0  0  0  0  0  0  0  0
   26.2120   -8.3014  -29.0027 H   0  0  0  0  0  0  0  0  0  0  0  0
   25.2240  -10.1674  -26.9331 H   0  0  0  0  0  0  0  0  0  0  0  0
   25.8853  -11.1623  -28.9971 H   0  0  0  0  0  0  0  0  0  0  0  0
   27.4797  -10.3998  -28.8472 H   0  0  0  0  0  0  0  0  0  0  0  0
   25.7218   -9.2213  -25.0286 H   0  0  0  0  0  0  0  0  0  0  0  0
   28.5250   -8.4897  -24.4553 H   0  0  0  0  0  0  0  0  0  0  0  0
   26.0306   -7.3796  -23.2141 H   0  0  0  0  0  0  0  0  0  0  0  0
   27.0700   -6.5443  -24.3431 H   0  0  0  0  0  0  0  0  0  0  0  0
   27.6677   -6.9733  -22.7583 H   0  0  0  0  0  0  0  0  0  0  0  0
   27.7120  -11.1572  -24.3702 H   0  0  0  0  0  0  0  0  0  0  0  0
   26.1409  -11.9828  -22.2511 H   0  0  0  0  0  0  0  0  0  0  0  0
   28.4851  -13.4608  -23.4619 H   0  0  0  0  0  0  0  0  0  0  0  0
   26.8627  -13.4474  -24.1105 H   0  0  0  0  0  0  0  0  0  0  0  0
   27.1810  -14.2055  -22.5687 H   0  0  0  0  0  0  0  0  0  0  0  0
   29.6771  -11.7401  -22.1899 H   0  0  0  0  0  0  0  0  0  0  0  0
   29.5791  -11.8636  -19.2332 H   0  0  0  0  0  0  0  0  0  0  0  0
   30.6471  -10.7959  -20.1121 H   0  0  0  0  0  0  0  0  0  0  0  0
   30.8933  -12.5246  -20.1762 H   0  0  0  0  0  0  0  0  0  0  0  0
  1  2  1  0  0  0  0
  1 31  1  0  0  0  0
  1 32  1  0  0  0  0
  1 33  1  0  0  0  0
  2  4  1  0  0  0  0
  3  2  2  0  0  0  0
  4  5  1  0  0  0  0
  4 34  1  0  0  0  0
  5  8  1  0  0  0  0
  5  6  1  0  0  0  0
  5 35  1  6  0  0  0
  6  7  2  0  0  0  0
  8  9  1  0  0  0  0
  8 36  1  0  0  0  0
  9 37  1  0  0  0  0
  9 38  1  0  0  0  0
  9 39  1  0  0  0  0
 10  8  1  0  0  0  0
 10 40  1  0  0  0  0
 10 41  1  0  0  0  0
 10 42  1  0  0  0  0
 11  6  1  0  0  0  0
 11 12  1  0  0  0  0
 11 43  1  0  0  0  0
 12 13  1  0  0  0  0
 12 44  1  1  0  0  0
 13 19  1  0  0  0  0
 14 13  2  0  0  0  0
 15 16  1  0  0  0  0
 15 12  1  0  0  0  0
 15 45  1  0  0  0  0
 15 46  1  0  0  0  0
 16 17  1  0  0  0  0
 18 16  2  0  0  0  0
 19 20  1  0  0  0  0
 19 47  1  0  0  0  0
 20 23  1  0  0  0  0
 20 21  1  0  0  0  0
 20 48  1  6  0  0  0
 21 22  2  0  0  0  0
 23 49  1  0  0  0  0
 23 50  1  0  0  0  0
 23 51  1  0  0  0  0
 24 21  1  0  0  0  0
 24 25  1  0  0  0  0
 24 52  1  0  0  0  0
 25 26  1  0  0  0  0
 25 53  1  1  0  0  0
 26 27  2  0  0  0  0
 28 25  1  0  0  0  0
 28 54  1  0  0  0  0
 28 55  1  0  0  0  0
 28 56  1  0  0  0  0
 29 26  1  0  0  0  0
 29 30  1  0  0  0  0
 29 57  1  0  0  0  0
 30 58  1  0  0  0  0
 30 59  1  0  0  0  0
 30 60  1  0  0  0  0
M  CHG  1  17  -1
M  END
>  <MODEL>
       0

$$$$
selected_4mers/VDAA/833_noH.pdb
 OpenBabel03042518353D

 60 59  0  0  1  0  0  0  0  0999 V2000
   48.8360   51.9980  -10.0880 C   0  0  0  0  0  0  0  0  0  0  0  0
   50.3110   51.7200   -9.9800 C   0  0  0  0  0  0  0  0  0  0  0  0
   51.1140   52.6460  -10.1000 O   0  0  0  0  0  0  0  0  0  0  0  0
   50.6780   50.4620   -9.7890 N   0  0  0  0  0  0  0  0  0  0  0  0
   52.0780   50.1110   -9.6070 C   0  0  2  0  0  0  0  0  0  0  0  0
   52.8490   50.3720  -10.8780 C   0  0  0  0  0  0  0  0  0  0  0  0
   53.8710   51.0610  -10.8510 O   0  0  0  0  0  0  0  0  0  0  0  0
   52.2420   48.6620   -9.0640 C   0  0  0  0  0  0  0  0  0  0  0  0
   53.6820   48.2220   -9.0910 C   0  0  0  0  0  0  0  0  0  0  0  0
   51.6660   48.5940   -7.6210 C   0  0  0  0  0  0  0  0  0  0  0  0
   52.3480   49.8260  -11.9740 N   0  0  0  0  0  0  0  0  0  0  0  0
   53.0010   49.9860  -13.2610 C   0  0  2  0  0  0  0  0  0  0  0  0
   53.0220   51.4670  -13.6950 C   0  0  0  0  0  0  0  0  0  0  0  0
   54.0140   51.9070  -14.2690 O   0  0  0  0  0  0  0  0  0  0  0  0
   52.3600   49.0590  -14.3000 C   0  0  0  0  0  0  0  0  0  0  0  0
   52.8570   47.5760  -14.1860 C   0  0  0  0  0  0  0  0  0  0  0  0
   53.5590   47.2360  -13.2000 O   0  0  0  0  0  0  0  0  0  0  0  0
   52.5570   46.7520  -15.0840 O   0  0  0  0  0  0  0  0  0  0  0  0
   51.9320   52.2050  -13.4740 N   0  0  0  0  0  0  0  0  0  0  0  0
   51.8730   53.6630  -13.6980 C   0  0  2  0  0  0  0  0  0  0  0  0
   52.9090   54.3970  -12.8810 C   0  0  0  0  0  0  0  0  0  0  0  0
   53.6640   55.1980  -13.4090 O   0  0  0  0  0  0  0  0  0  0  0  0
   50.4990   54.2110  -13.3580 C   0  0  0  0  0  0  0  0  0  0  0  0
   52.9130   54.1650  -11.5570 N   0  0  0  0  0  0  0  0  0  0  0  0
   53.9150   54.7780  -10.7040 C   0  0  2  0  0  0  0  0  0  0  0  0
   55.3440   54.5140  -11.2210 C   0  0  0  0  0  0  0  0  0  0  0  0
   56.1550   55.4340  -11.2910 O   0  0  0  0  0  0  0  0  0  0  0  0
   53.7440   54.3260   -9.2130 C   0  0  0  0  0  0  0  0  0  0  0  0
   55.6410   53.2760  -11.5850 N   0  0  0  0  0  0  0  0  0  0  0  0
   56.9770   52.9240  -12.0490 C   0  0  0  0  0  0  0  0  0  0  0  0
   48.6807   53.0457  -10.2400 H   0  0  0  0  0  0  0  0  0  0  0  0
   48.3485   51.6923   -9.1859 H   0  0  0  0  0  0  0  0  0  0  0  0
   48.4301   51.4536  -10.9149 H   0  0  0  0  0  0  0  0  0  0  0  0
   49.9938   49.7544   -9.7699 H   0  0  0  0  0  0  0  0  0  0  0  0
   52.5003   50.7417   -8.8528 H   0  0  0  0  0  0  0  0  0  0  0  0
   51.7001   47.9905   -9.6967 H   0  0  0  0  0  0  0  0  0  0  0  0
   54.2643   48.8688   -8.4685 H   0  0  0  0  0  0  0  0  0  0  0  0
   54.0499   48.2668  -10.0948 H   0  0  0  0  0  0  0  0  0  0  0  0
   53.7549   47.2178   -8.7289 H   0  0  0  0  0  0  0  0  0  0  0  0
   52.2081   49.2656   -6.9886 H   0  0  0  0  0  0  0  0  0  0  0  0
   51.7604   47.5963   -7.2459 H   0  0  0  0  0  0  0  0  0  0  0  0
   50.6332   48.8733   -7.6357 H   0  0  0  0  0  0  0  0  0  0  0  0
   51.5169   49.3014  -11.9159 H   0  0  0  0  0  0  0  0  0  0  0  0
   54.0262   49.6924  -13.1738 H   0  0  0  0  0  0  0  0  0  0  0  0
   51.2990   49.0747  -14.1627 H   0  0  0  0  0  0  0  0  0  0  0  0
   52.6424   49.4182  -15.2675 H   0  0  0  0  0  0  0  0  0  0  0  0
   51.1228   51.7521  -13.1434 H   0  0  0  0  0  0  0  0  0  0  0  0
   52.0759   53.8220  -14.7365 H   0  0  0  0  0  0  0  0  0  0  0  0
   50.2982   54.0509  -12.3193 H   0  0  0  0  0  0  0  0  0  0  0  0
   49.7593   53.7088  -13.9458 H   0  0  0  0  0  0  0  0  0  0  0  0
   50.4709   55.2596  -13.5693 H   0  0  0  0  0  0  0  0  0  0  0  0
   52.2310   53.5746  -11.1626 H   0  0  0  0  0  0  0  0  0  0  0  0
   53.7624   55.8365  -10.7382 H   0  0  0  0  0  0  0  0  0  0  0  0
   53.8906   53.2685   -9.1419 H   0  0  0  0  0  0  0  0  0  0  0  0
   52.7589   54.5730   -8.8762 H   0  0  0  0  0  0  0  0  0  0  0  0
   54.4658   54.8279   -8.6031 H   0  0  0  0  0  0  0  0  0  0  0  0
   54.9461   52.5800  -11.5414 H   0  0  0  0  0  0  0  0  0  0  0  0
   57.6006   53.7933  -12.0331 H   0  0  0  0  0  0  0  0  0  0  0  0
   56.9192   52.5447  -13.0478 H   0  0  0  0  0  0  0  0  0  0  0  0
   57.3920   52.1756  -11.4067 H   0  0  0  0  0  0  0  0  0  0  0  0
  1  2  1  0  0  0  0
  1 31  1  0  0  0  0
  1 32  1  0  0  0  0
  1 33  1  0  0  0  0
  2  4  1  0  0  0  0
  3  2  2  0  0  0  0
  4  5  1  0  0  0  0
  4 34  1  0  0  0  0
  5  8  1  0  0  0  0
  5 35  1  1  0  0  0
  6  7  2  0  0  0  0
  6  5  1  0  0  0  0
  8 10  1  0  0  0  0
  8 36  1  0  0  0  0
  9  8  1  0  0  0  0
  9 37  1  0  0  0  0
  9 38  1  0  0  0  0
  9 39  1  0  0  0  0
 10 40  1  0  0  0  0
 10 41  1  0  0  0  0
 10 42  1  0  0  0  0
 11  6  1  0  0  0  0
 11 43  1  0  0  0  0
 12 11  1  0  0  0  0
 12 44  1  1  0  0  0
 13 19  1  0  0  0  0
 13 12  1  0  0  0  0
 14 13  2  0  0  0  0
 15 16  1  0  0  0  0
 15 12  1  0  0  0  0
 15 45  1  0  0  0  0
 15 46  1  0  0  0  0
 16 17  1  0  0  0  0
 18 16  2  0  0  0  0
 19 47  1  0  0  0  0
 20 19  1  0  0  0  0
 20 23  1  0  0  0  0
 20 21  1  0  0  0  0
 20 48  1  6  0  0  0
 21 24  1  0  0  0  0
 22 21  2  0  0  0  0
 23 49  1  0  0  0  0
 23 50  1  0  0  0  0
 23 51  1  0  0  0  0
 24 25  1  0  0  0  0
 24 52  1  0  0  0  0
 25 28  1  0  0  0  0
 25 53  1  6  0  0  0
 26 25  1  0  0  0  0
 27 26  2  0  0  0  0
 28 54  1  0  0  0  0
 28 55  1  0  0  0  0
 28 56  1  0  0  0  0
 29 26  1  0  0  0  0
 29 57  1  0  0  0  0
 30 29  1  0  0  0  0
 30 58  1  0  0  0  0
 30 59  1  0  0  0  0
 30 60  1  0  0  0  0
M  CHG  1  17  -1
M  END
>  <MODEL>
       0

$$$$
selected_4mers/VDAA/834_noH.pdb
 OpenBabel03042518353D

 60 59  0  0  1  0  0  0  0  0999 V2000
   35.3350   20.7360   17.4860 C   0  0  0  0  0  0  0  0  0  0  0  0
   34.4440   21.8590   18.0120 C   0  0  0  0  0  0  0  0  0  0  0  0
   33.2490   21.6270   18.2670 O   0  0  0  0  0  0  0  0  0  0  0  0
   34.9770   23.0630   18.1890 N   0  0  0  0  0  0  0  0  0  0  0  0
   34.0930   24.1730   18.5870 C   0  0  2  0  0  0  0  0  0  0  0  0
   33.2020   24.5030   17.4030 C   0  0  0  0  0  0  0  0  0  0  0  0
   33.5970   24.3320   16.2290 O   0  0  0  0  0  0  0  0  0  0  0  0
   34.8350   25.4550   19.1550 C   0  0  0  0  0  0  0  0  0  0  0  0
   35.7880   25.1100   20.2870 C   0  0  0  0  0  0  0  0  0  0  0  0
   35.5260   26.2420   18.0910 C   0  0  0  0  0  0  0  0  0  0  0  0
   31.9870   24.9290   17.6800 N   0  0  0  0  0  0  0  0  0  0  0  0
   31.0230   25.1970   16.6110 C   0  0  2  0  0  0  0  0  0  0  0  0
   31.2770   26.5340   15.9390 C   0  0  0  0  0  0  0  0  0  0  0  0
   31.0520   26.6860   14.7420 O   0  0  0  0  0  0  0  0  0  0  0  0
   29.6120   25.1110   17.1890 C   0  0  0  0  0  0  0  0  0  0  0  0
   29.3350   23.7380   17.7460 C   0  0  0  0  0  0  0  0  0  0  0  0
   29.2020   22.8160   16.9210 O   0  0  0  0  0  0  0  0  0  0  0  0
   29.3230   23.5530   18.9920 O   0  0  0  0  0  0  0  0  0  0  0  0
   31.7720   27.5000   16.6960 N   0  0  0  0  0  0  0  0  0  0  0  0
   32.0570   28.8060   16.1190 C   0  0  2  0  0  0  0  0  0  0  0  0
   33.2510   29.4310   16.8410 C   0  0  0  0  0  0  0  0  0  0  0  0
   33.3730   29.2990   18.0610 O   0  0  0  0  0  0  0  0  0  0  0  0
   30.8420   29.7030   16.2490 C   0  0  0  0  0  0  0  0  0  0  0  0
   34.1530   30.0680   16.0950 N   0  0  0  0  0  0  0  0  0  0  0  0
   35.2700   30.7380   16.7420 C   0  0  2  0  0  0  0  0  0  0  0  0
   35.5080   32.1110   16.1460 C   0  0  0  0  0  0  0  0  0  0  0  0
   35.3080   32.3210   14.9210 O   0  0  0  0  0  0  0  0  0  0  0  0
   36.5590   29.8700   16.6250 C   0  0  0  0  0  0  0  0  0  0  0  0
   35.9660   33.0280   16.9970 N   0  0  0  0  0  0  0  0  0  0  0  0
   36.0800   34.4420   16.6640 C   0  0  0  0  0  0  0  0  0  0  0  0
   36.3235   21.1118   17.3227 H   0  0  0  0  0  0  0  0  0  0  0  0
   34.9369   20.3670   16.5639 H   0  0  0  0  0  0  0  0  0  0  0  0
   35.3690   19.9423   18.2028 H   0  0  0  0  0  0  0  0  0  0  0  0
   35.9414   23.2105   18.0572 H   0  0  0  0  0  0  0  0  0  0  0  0
   33.5122   23.8439   19.4232 H   0  0  0  0  0  0  0  0  0  0  0  0
   34.0668   26.0821   19.5570 H   0  0  0  0  0  0  0  0  0  0  0  0
   36.5703   24.4815   19.9156 H   0  0  0  0  0  0  0  0  0  0  0  0
   35.2539   24.5963   21.0588 H   0  0  0  0  0  0  0  0  0  0  0  0
   36.2110   26.0092   20.6837 H   0  0  0  0  0  0  0  0  0  0  0  0
   36.3060   25.6502   17.6594 H   0  0  0  0  0  0  0  0  0  0  0  0
   35.9459   27.1283   18.5188 H   0  0  0  0  0  0  0  0  0  0  0  0
   34.8213   26.5115   17.3322 H   0  0  0  0  0  0  0  0  0  0  0  0
   31.7234   25.0691   18.6182 H   0  0  0  0  0  0  0  0  0  0  0  0
   31.1360   24.4587   15.8448 H   0  0  0  0  0  0  0  0  0  0  0  0
   28.9041   25.3233   16.4152 H   0  0  0  0  0  0  0  0  0  0  0  0
   29.5268   25.8229   17.9833 H   0  0  0  0  0  0  0  0  0  0  0  0
   31.9478   27.3353   17.6506 H   0  0  0  0  0  0  0  0  0  0  0  0
   32.2923   28.6934   15.0813 H   0  0  0  0  0  0  0  0  0  0  0  0
   30.5966   29.8234   17.2835 H   0  0  0  0  0  0  0  0  0  0  0  0
   30.0147   29.2595   15.7354 H   0  0  0  0  0  0  0  0  0  0  0  0
   31.0571   30.6593   15.8199 H   0  0  0  0  0  0  0  0  0  0  0  0
   34.0640   30.0849   15.1147 H   0  0  0  0  0  0  0  0  0  0  0  0
   35.0253   30.8645   17.7759 H   0  0  0  0  0  0  0  0  0  0  0  0
   36.8089   29.7399   15.5928 H   0  0  0  0  0  0  0  0  0  0  0  0
   36.3871   28.9139   17.0736 H   0  0  0  0  0  0  0  0  0  0  0  0
   37.3660   30.3602   17.1283 H   0  0  0  0  0  0  0  0  0  0  0  0
   36.2412   32.7357   17.8959 H   0  0  0  0  0  0  0  0  0  0  0  0
   35.7448   34.6002   15.6602 H   0  0  0  0  0  0  0  0  0  0  0  0
   37.1017   34.7477   16.7512 H   0  0  0  0  0  0  0  0  0  0  0  0
   35.4772   35.0164   17.3360 H   0  0  0  0  0  0  0  0  0  0  0  0
  1  2  1  0  0  0  0
  1 31  1  0  0  0  0
  1 32  1  0  0  0  0
  1 33  1  0  0  0  0
  2  4  1  0  0  0  0
  2  3  2  0  0  0  0
  4  5  1  0  0  0  0
  4 34  1  0  0  0  0
  5  8  1  0  0  0  0
  5 35  1  1  0  0  0
  6 11  1  0  0  0  0
  6  5  1  0  0  0  0
  7  6  2  0  0  0  0
  8  9  1  0  0  0  0
  8 36  1  0  0  0  0
  9 37  1  0  0  0  0
  9 38  1  0  0  0  0
  9 39  1  0  0  0  0
 10  8  1  0  0  0  0
 10 40  1  0  0  0  0
 10 41  1  0  0  0  0
 10 42  1  0  0  0  0
 11 43  1  0  0  0  0
 12 15  1  0  0  0  0
 12 11  1  0  0  0  0
 12 44  1  6  0  0  0
 13 12  1  0  0  0  0
 13 19  1  0  0  0  0
 14 13  2  0  0  0  0
 15 16  1  0  0  0  0
 15 45  1  0  0  0  0
 15 46  1  0  0  0  0
 16 18  1  0  0  0  0
 17 16  2  0  0  0  0
 19 47  1  0  0  0  0
 20 23  1  0  0  0  0
 20 19  1  0  0  0  0
 20 21  1  0  0  0  0
 20 48  1  6  0  0  0
 21 22  2  0  0  0  0
 23 49  1  0  0  0  0
 23 50  1  0  0  0  0
 23 51  1  0  0  0  0
 24 25  1  0  0  0  0
 24 21  1  0  0  0  0
 24 52  1  0  0  0  0
 25 53  1  1  0  0  0
 26 25  1  0  0  0  0
 26 29  1  0  0  0  0
 27 26  2  0  0  0  0
 28 25  1  0  0  0  0
 28 54  1  0  0  0  0
 28 55  1  0  0  0  0
 28 56  1  0  0  0  0
 29 57  1  0  0  0  0
 30 29  1  0  0  0  0
 30 58  1  0  0  0  0
 30 59  1  0  0  0  0
 30 60  1  0  0  0  0
M  CHG  1  18  -1
M  END
>  <MODEL>
       0

$$$$
