selected_4mers/VEAL/820_noH.pdb
 OpenBabel03042518353D

 72 71  0  0  1  0  0  0  0  0999 V2000
   12.0140  -40.6000    3.7110 C   0  0  0  0  0  0  0  0  0  0  0  0
   11.0480  -41.0530    2.6250 C   0  0  0  0  0  0  0  0  0  0  0  0
   10.0410  -41.6810    2.9440 O   0  0  0  0  0  0  0  0  0  0  0  0
   11.3540  -40.7690    1.3530 N   0  0  0  0  0  0  0  0  0  0  0  0
   10.4800  -41.2120    0.2530 C   0  0  2  0  0  0  0  0  0  0  0  0
   10.4240  -42.7610    0.2230 C   0  0  0  0  0  0  0  0  0  0  0  0
    9.3550  -43.3590    0.0570 O   0  0  0  0  0  0  0  0  0  0  0  0
   10.9500  -40.6550   -1.1120 C   0  0  0  0  0  0  0  0  0  0  0  0
   10.1660  -41.2890   -2.2470 C   0  0  0  0  0  0  0  0  0  0  0  0
   10.7630  -39.1460   -1.1310 C   0  0  0  0  0  0  0  0  0  0  0  0
   11.5640  -43.4150    0.4270 N   0  0  0  0  0  0  0  0  0  0  0  0
   11.6000  -44.8820    0.4720 C   0  0  2  0  0  0  0  0  0  0  0  0
   10.7750  -45.4060    1.6820 C   0  0  0  0  0  0  0  0  0  0  0  0
   10.0290  -46.3850    1.5730 O   0  0  0  0  0  0  0  0  0  0  0  0
   13.0480  -45.3840    0.5610 C   0  0  0  0  0  0  0  0  0  0  0  0
   13.2030  -46.9170    0.5820 C   0  0  0  0  0  0  0  0  0  0  0  0
   12.7710  -47.5810   -0.6980 C   0  0  0  0  0  0  0  0  0  0  0  0
   12.6990  -46.9060   -1.7430 O   0  0  0  0  0  0  0  0  0  0  0  0
   12.5160  -48.7940   -0.6630 O   0  0  0  0  0  0  0  0  0  0  0  0
   10.8910  -44.7540    2.8330 N   0  0  0  0  0  0  0  0  0  0  0  0
   10.1350  -45.1910    4.0000 C   0  0  2  0  0  0  0  0  0  0  0  0
    8.6310  -45.0600    3.7290 C   0  0  0  0  0  0  0  0  0  0  0  0
    7.8520  -45.9610    4.0640 O   0  0  0  0  0  0  0  0  0  0  0  0
   10.5400  -44.3870    5.2450 C   0  0  0  0  0  0  0  0  0  0  0  0
    8.2230  -43.9510    3.1050 N   0  0  0  0  0  0  0  0  0  0  0  0
    6.8210  -43.7470    2.7760 C   0  0  2  0  0  0  0  0  0  0  0  0
    6.3370  -44.7550    1.7470 C   0  0  0  0  0  0  0  0  0  0  0  0
    5.1940  -45.2230    1.8140 O   0  0  0  0  0  0  0  0  0  0  0  0
    6.5970  -42.3200    2.2690 C   0  0  0  0  0  0  0  0  0  0  0  0
    6.7960  -41.2730    3.3670 C   0  0  0  0  0  0  0  0  0  0  0  0
    6.8620  -39.8860    2.7120 C   0  0  0  0  0  0  0  0  0  0  0  0
    5.6540  -41.3500    4.3960 C   0  0  0  0  0  0  0  0  0  0  0  0
    7.1820  -45.0730    0.7720 N   0  0  0  0  0  0  0  0  0  0  0  0
    6.7930  -46.0610   -0.2340 C   0  0  0  0  0  0  0  0  0  0  0  0
   12.8299  -40.0710    3.2646 H   0  0  0  0  0  0  0  0  0  0  0  0
   12.3874  -41.4547    4.2354 H   0  0  0  0  0  0  0  0  0  0  0  0
   11.5037  -39.9559    4.3963 H   0  0  0  0  0  0  0  0  0  0  0  0
   12.1714  -40.2589    1.1507 H   0  0  0  0  0  0  0  0  0  0  0  0
    9.4979  -40.8259    0.4296 H   0  0  0  0  0  0  0  0  0  0  0  0
   11.9851  -40.8907   -1.2459 H   0  0  0  0  0  0  0  0  0  0  0  0
    9.1262  -41.0646   -2.1312 H   0  0  0  0  0  0  0  0  0  0  0  0
   10.3062  -42.3496   -2.2284 H   0  0  0  0  0  0  0  0  0  0  0  0
   10.5130  -40.8997   -3.1813 H   0  0  0  0  0  0  0  0  0  0  0  0
    9.7273  -38.9132   -0.9969 H   0  0  0  0  0  0  0  0  0  0  0  0
   11.0973  -38.7570   -2.0700 H   0  0  0  0  0  0  0  0  0  0  0  0
   11.3328  -38.7060   -0.3394 H   0  0  0  0  0  0  0  0  0  0  0  0
   12.3981  -42.9066    0.5499 H   0  0  0  0  0  0  0  0  0  0  0  0
   11.1648  -45.2578   -0.4304 H   0  0  0  0  0  0  0  0  0  0  0  0
   13.4805  -44.9939    1.4586 H   0  0  0  0  0  0  0  0  0  0  0  0
   13.5383  -45.0449   -0.3275 H   0  0  0  0  0  0  0  0  0  0  0  0
   14.2328  -47.1511    0.7544 H   0  0  0  0  0  0  0  0  0  0  0  0
   12.5675  -47.2873    1.3591 H   0  0  0  0  0  0  0  0  0  0  0  0
   11.4885  -43.9743    2.8982 H   0  0  0  0  0  0  0  0  0  0  0  0
   10.3595  -46.2199    4.1891 H   0  0  0  0  0  0  0  0  0  0  0  0
   10.3267  -43.3507    5.0853 H   0  0  0  0  0  0  0  0  0  0  0  0
   11.5873  -44.5119    5.4251 H   0  0  0  0  0  0  0  0  0  0  0  0
    9.9881  -44.7384    6.0916 H   0  0  0  0  0  0  0  0  0  0  0  0
    8.8823  -43.2607    2.8640 H   0  0  0  0  0  0  0  0  0  0  0  0
    6.2509  -43.8939    3.6695 H   0  0  0  0  0  0  0  0  0  0  0  0
    5.5973  -42.2409    1.8958 H   0  0  0  0  0  0  0  0  0  0  0  0
    7.3181  -42.1293    1.5018 H   0  0  0  0  0  0  0  0  0  0  0  0
    7.7099  -41.4595    3.8913 H   0  0  0  0  0  0  0  0  0  0  0  0
    5.9495  -39.6959    2.1865 H   0  0  0  0  0  0  0  0  0  0  0  0
    7.6821  -39.8544    2.0255 H   0  0  0  0  0  0  0  0  0  0  0  0
    7.0004  -39.1410    3.4675 H   0  0  0  0  0  0  0  0  0  0  0  0
    4.7201  -41.1680    3.9066 H   0  0  0  0  0  0  0  0  0  0  0  0
    5.8082  -40.6125    5.1558 H   0  0  0  0  0  0  0  0  0  0  0  0
    5.6398  -42.3230    4.8410 H   0  0  0  0  0  0  0  0  0  0  0  0
    8.0674  -44.6448    0.7269 H   0  0  0  0  0  0  0  0  0  0  0  0
    5.8051  -46.4141   -0.0238 H   0  0  0  0  0  0  0  0  0  0  0  0
    7.4780  -46.8827   -0.2105 H   0  0  0  0  0  0  0  0  0  0  0  0
    6.8114  -45.6090   -1.2036 H   0  0  0  0  0  0  0  0  0  0  0  0
  1 35  1  0  0  0  0
  1 36  1  0  0  0  0
  1 37  1  0  0  0  0
  2  3  2  0  0  0  0
  2  1  1  0  0  0  0
  4  2  1  0  0  0  0
  4 38  1  0  0  0  0
  5  4  1  0  0  0  0
  5 39  1  1  0  0  0
  6  5  1  0  0  0  0
  6 11  1  0  0  0  0
  7  6  2  0  0  0  0
  8  5  1  0  0  0  0
  8 40  1  0  0  0  0
  9  8  1  0  0  0  0
  9 41  1  0  0  0  0
  9 42  1  0  0  0  0
  9 43  1  0  0  0  0
 10  8  1  0  0  0  0
 10 44  1  0  0  0  0
 10 45  1  0  0  0  0
 10 46  1  0  0  0  0
 11 12  1  0  0  0  0
 11 47  1  0  0  0  0
 12 15  1  0  0  0  0
 12 13  1  0  0  0  0
 12 48  1  6  0  0  0
 13 20  1  0  0  0  0
 14 13  2  0  0  0  0
 15 16  1  0  0  0  0
 15 49  1  0  0  0  0
 15 50  1  0  0  0  0
 16 51  1  0  0  0  0
 16 52  1  0  0  0  0
 17 19  1  0  0  0  0
 17 16  1  0  0  0  0
 18 17  2  0  0  0  0
 20 21  1  0  0  0  0
 20 53  1  0  0  0  0
 21 24  1  0  0  0  0
 21 54  1  1  0  0  0
 22 21  1  0  0  0  0
 22 23  2  0  0  0  0
 24 55  1  0  0  0  0
 24 56  1  0  0  0  0
 24 57  1  0  0  0  0
 25 22  1  0  0  0  0
 25 58  1  0  0  0  0
 26 25  1  0  0  0  0
 26 59  1  1  0  0  0
 27 28  2  0  0  0  0
 27 26  1  0  0  0  0
 29 26  1  0  0  0  0
 29 30  1  0  0  0  0
 29 60  1  0  0  0  0
 29 61  1  0  0  0  0
 30 32  1  0  0  0  0
 30 62  1  0  0  0  0
 31 30  1  0  0  0  0
 31 63  1  0  0  0  0
 31 64  1  0  0  0  0
 31 65  1  0  0  0  0
 32 66  1  0  0  0  0
 32 67  1  0  0  0  0
 32 68  1  0  0  0  0
 33 27  1  0  0  0  0
 33 69  1  0  0  0  0
 34 33  1  0  0  0  0
 34 70  1  0  0  0  0
 34 71  1  0  0  0  0
 34 72  1  0  0  0  0
M  CHG  1  19  -1
M  END
>  <MODEL>
       0

$$$$
selected_4mers/VEAL/821_noH.pdb
 OpenBabel03042518353D

 72 71  0  0  1  0  0  0  0  0999 V2000
   42.8940   32.7770   13.7730 C   0  0  0  0  0  0  0  0  0  0  0  0
   42.6600   34.1660   13.1980 C   0  0  0  0  0  0  0  0  0  0  0  0
   43.1900   34.4960   12.1310 O   0  0  0  0  0  0  0  0  0  0  0  0
   41.8670   34.9720   13.9090 N   0  0  0  0  0  0  0  0  0  0  0  0
   41.6790   36.3870   13.5470 C   0  0  2  0  0  0  0  0  0  0  0  0
   42.8650   37.2200   14.0570 C   0  0  0  0  0  0  0  0  0  0  0  0
   42.8900   37.7130   15.2060 O   0  0  0  0  0  0  0  0  0  0  0  0
   40.3540   36.9680   14.0740 C   0  0  0  0  0  0  0  0  0  0  0  0
   40.1910   38.4210   13.6040 C   0  0  0  0  0  0  0  0  0  0  0  0
   39.1590   36.1300   13.5690 C   0  0  0  0  0  0  0  0  0  0  0  0
   43.8390   37.4020   13.1720 N   0  0  0  0  0  0  0  0  0  0  0  0
   45.1310   37.9750   13.5760 C   0  0  2  0  0  0  0  0  0  0  0  0
   45.0120   39.4140   14.0520 C   0  0  0  0  0  0  0  0  0  0  0  0
   45.7500   39.8420   14.9340 O   0  0  0  0  0  0  0  0  0  0  0  0
   46.1070   37.8830   12.4170 C   0  0  0  0  0  0  0  0  0  0  0  0
   46.3760   36.4450   12.0250 C   0  0  0  0  0  0  0  0  0  0  0  0
   47.3710   36.3180   10.9010 C   0  0  0  0  0  0  0  0  0  0  0  0
   48.1470   37.2750   10.6890 O   0  0  0  0  0  0  0  0  0  0  0  0
   47.3700   35.2620   10.2310 O   0  0  0  0  0  0  0  0  0  0  0  0
   44.0500   40.1490   13.5030 N   0  0  0  0  0  0  0  0  0  0  0  0
   43.9150   41.5790   13.8190 C   0  0  2  0  0  0  0  0  0  0  0  0
   43.4950   41.8260   15.2600 C   0  0  0  0  0  0  0  0  0  0  0  0
   43.6780   42.9440   15.7830 O   0  0  0  0  0  0  0  0  0  0  0  0
   42.9280   42.2380   12.8910 C   0  0  0  0  0  0  0  0  0  0  0  0
   42.9100   40.8100   15.8920 N   0  0  0  0  0  0  0  0  0  0  0  0
   42.5210   40.9420   17.2900 C   0  0  2  0  0  0  0  0  0  0  0  0
   43.5780   40.4400   18.2670 C   0  0  0  0  0  0  0  0  0  0  0  0
   43.4090   40.5920   19.4830 O   0  0  0  0  0  0  0  0  0  0  0  0
   41.1990   40.2170   17.5570 C   0  0  0  0  0  0  0  0  0  0  0  0
   39.9760   41.0220   17.1490 C   0  0  0  0  0  0  0  0  0  0  0  0
   38.7400   40.1420   17.0330 C   0  0  0  0  0  0  0  0  0  0  0  0
   39.6700   42.1830   18.0990 C   0  0  0  0  0  0  0  0  0  0  0  0
   44.6620   39.8370   17.7750 N   0  0  0  0  0  0  0  0  0  0  0  0
   45.6960   39.3840   18.7290 C   0  0  0  0  0  0  0  0  0  0  0  0
   43.5400   32.2257   13.1221 H   0  0  0  0  0  0  0  0  0  0  0  0
   41.9582   32.2661   13.8634 H   0  0  0  0  0  0  0  0  0  0  0  0
   43.3484   32.8623   14.7380 H   0  0  0  0  0  0  0  0  0  0  0  0
   41.3964   34.6111   14.6948 H   0  0  0  0  0  0  0  0  0  0  0  0
   41.6336   36.4350   12.4790 H   0  0  0  0  0  0  0  0  0  0  0  0
   40.3752   36.9393   15.1434 H   0  0  0  0  0  0  0  0  0  0  0  0
   40.1698   38.4497   12.5346 H   0  0  0  0  0  0  0  0  0  0  0  0
   41.0134   39.0055   13.9602 H   0  0  0  0  0  0  0  0  0  0  0  0
   39.2762   38.8201   13.9897 H   0  0  0  0  0  0  0  0  0  0  0  0
   39.1325   36.1549   12.4996 H   0  0  0  0  0  0  0  0  0  0  0  0
   38.2488   36.5363   13.9579 H   0  0  0  0  0  0  0  0  0  0  0  0
   39.2679   35.1182   13.8996 H   0  0  0  0  0  0  0  0  0  0  0  0
   43.6933   37.1494   12.2317 H   0  0  0  0  0  0  0  0  0  0  0  0
   45.4913   37.4062   14.4076 H   0  0  0  0  0  0  0  0  0  0  0  0
   45.6962   38.4009   11.5756 H   0  0  0  0  0  0  0  0  0  0  0  0
   47.0323   38.3241   12.7239 H   0  0  0  0  0  0  0  0  0  0  0  0
   46.7574   35.9245   12.8785 H   0  0  0  0  0  0  0  0  0  0  0  0
   45.4518   36.0280   11.6832 H   0  0  0  0  0  0  0  0  0  0  0  0
   43.4182   39.7296   12.8752 H   0  0  0  0  0  0  0  0  0  0  0  0
   44.8853   42.0096   13.6844 H   0  0  0  0  0  0  0  0  0  0  0  0
   41.9608   41.8024   13.0314 H   0  0  0  0  0  0  0  0  0  0  0  0
   43.2403   42.0942   11.8777 H   0  0  0  0  0  0  0  0  0  0  0  0
   42.8819   43.2854   13.1048 H   0  0  0  0  0  0  0  0  0  0  0  0
   42.7398   39.9669   15.4130 H   0  0  0  0  0  0  0  0  0  0  0  0
   42.4070   41.9923   17.4595 H   0  0  0  0  0  0  0  0  0  0  0  0
   41.1990   39.2985   17.0082 H   0  0  0  0  0  0  0  0  0  0  0  0
   41.1341   40.0571   18.6130 H   0  0  0  0  0  0  0  0  0  0  0  0
   40.2203   41.4337   16.1921 H   0  0  0  0  0  0  0  0  0  0  0  0
   38.5014   39.7338   17.9929 H   0  0  0  0  0  0  0  0  0  0  0  0
   38.9324   39.3457   16.3446 H   0  0  0  0  0  0  0  0  0  0  0  0
   37.9171   40.7277   16.6799 H   0  0  0  0  0  0  0  0  0  0  0  0
   39.4220   41.7970   19.0656 H   0  0  0  0  0  0  0  0  0  0  0  0
   38.8448   42.7476   17.7180 H   0  0  0  0  0  0  0  0  0  0  0  0
   40.5293   42.8157   18.1773 H   0  0  0  0  0  0  0  0  0  0  0  0
   44.7697   39.6981   16.8063 H   0  0  0  0  0  0  0  0  0  0  0  0
   45.3924   39.6267   19.7259 H   0  0  0  0  0  0  0  0  0  0  0  0
   46.6224   39.8724   18.5095 H   0  0  0  0  0  0  0  0  0  0  0  0
   45.8219   38.3250   18.6423 H   0  0  0  0  0  0  0  0  0  0  0  0
  1 35  1  0  0  0  0
  1 36  1  0  0  0  0
  1 37  1  0  0  0  0
  2  1  1  0  0  0  0
  2  4  1  0  0  0  0
  3  2  2  0  0  0  0
  4 38  1  0  0  0  0
  5  4  1  0  0  0  0
  5  6  1  0  0  0  0
  5  8  1  0  0  0  0
  5 39  1  6  0  0  0
  6  7  2  0  0  0  0
  8 40  1  0  0  0  0
  9  8  1  0  0  0  0
  9 41  1  0  0  0  0
  9 42  1  0  0  0  0
  9 43  1  0  0  0  0
 10  8  1  0  0  0  0
 10 44  1  0  0  0  0
 10 45  1  0  0  0  0
 10 46  1  0  0  0  0
 11 12  1  0  0  0  0
 11  6  1  0  0  0  0
 11 47  1  0  0  0  0
 12 13  1  0  0  0  0
 12 48  1  1  0  0  0
 13 14  2  0  0  0  0
 15 12  1  0  0  0  0
 15 49  1  0  0  0  0
 15 50  1  0  0  0  0
 16 15  1  0  0  0  0
 16 51  1  0  0  0  0
 16 52  1  0  0  0  0
 17 16  1  0  0  0  0
 18 17  1  0  0  0  0
 19 17  2  0  0  0  0
 20 21  1  0  0  0  0
 20 13  1  0  0  0  0
 20 53  1  0  0  0  0
 21 22  1  0  0  0  0
 21 54  1  6  0  0  0
 22 23  2  0  0  0  0
 22 25  1  0  0  0  0
 24 21  1  0  0  0  0
 24 55  1  0  0  0  0
 24 56  1  0  0  0  0
 24 57  1  0  0  0  0
 25 26  1  0  0  0  0
 25 58  1  0  0  0  0
 26 29  1  0  0  0  0
 26 27  1  0  0  0  0
 26 59  1  1  0  0  0
 27 28  2  0  0  0  0
 29 60  1  0  0  0  0
 29 61  1  0  0  0  0
 30 29  1  0  0  0  0
 30 32  1  0  0  0  0
 30 62  1  0  0  0  0
 31 30  1  0  0  0  0
 31 63  1  0  0  0  0
 31 64  1  0  0  0  0
 31 65  1  0  0  0  0
 32 66  1  0  0  0  0
 32 67  1  0  0  0  0
 32 68  1  0  0  0  0
 33 27  1  0  0  0  0
 33 34  1  0  0  0  0
 33 69  1  0  0  0  0
 34 70  1  0  0  0  0
 34 71  1  0  0  0  0
 34 72  1  0  0  0  0
M  CHG  1  18  -1
M  END
>  <MODEL>
       0

$$$$
selected_4mers/VEAL/822_noH.pdb
 OpenBabel03042518353D

 72 71  0  0  1  0  0  0  0  0999 V2000
   35.2200   -9.2540   41.2170 C   0  0  0  0  0  0  0  0  0  0  0  0
   34.1860   -9.9600   40.3430 C   0  0  0  0  0  0  0  0  0  0  0  0
   34.0090   -9.6060   39.1760 O   0  0  0  0  0  0  0  0  0  0  0  0
   33.4890  -10.9430   40.9040 N   0  0  0  0  0  0  0  0  0  0  0  0
   32.4840  -11.6730   40.1450 C   0  0  2  0  0  0  0  0  0  0  0  0
   31.2480  -10.8190   39.8680 C   0  0  0  0  0  0  0  0  0  0  0  0
   30.4450  -11.1400   38.9910 O   0  0  0  0  0  0  0  0  0  0  0  0
   32.0710  -12.9770   40.8770 C   0  0  0  0  0  0  0  0  0  0  0  0
   31.0600  -13.7500   40.0500 C   0  0  0  0  0  0  0  0  0  0  0  0
   33.2990  -13.8320   41.1210 C   0  0  0  0  0  0  0  0  0  0  0  0
   31.1010   -9.7240   40.6080 N   0  0  0  0  0  0  0  0  0  0  0  0
   29.9640   -8.8350   40.4110 C   0  0  2  0  0  0  0  0  0  0  0  0
   30.0890   -8.0510   39.1100 C   0  0  0  0  0  0  0  0  0  0  0  0
   29.1710   -7.3360   38.7110 O   0  0  0  0  0  0  0  0  0  0  0  0
   29.8160   -7.8790   41.5980 C   0  0  0  0  0  0  0  0  0  0  0  0
   29.1040   -8.5180   42.7830 C   0  0  0  0  0  0  0  0  0  0  0  0
   28.8180   -7.5370   43.9000 C   0  0  0  0  0  0  0  0  0  0  0  0
   29.7020   -7.3340   44.7610 O   0  0  0  0  0  0  0  0  0  0  0  0
   27.7080   -6.9630   43.9080 O   0  0  0  0  0  0  0  0  0  0  0  0
   31.2290   -8.1870   38.4450 N   0  0  0  0  0  0  0  0  0  0  0  0
   31.4330   -7.5020   37.1760 C   0  0  2  0  0  0  0  0  0  0  0  0
   30.3230   -7.9420   36.2210 C   0  0  0  0  0  0  0  0  0  0  0  0
   29.8870   -7.1770   35.3640 O   0  0  0  0  0  0  0  0  0  0  0  0
   32.8090   -7.8490   36.6030 C   0  0  0  0  0  0  0  0  0  0  0  0
   29.8540   -9.1770   36.3850 N   0  0  0  0  0  0  0  0  0  0  0  0
   28.7910   -9.6990   35.5420 C   0  0  2  0  0  0  0  0  0  0  0  0
   27.4820   -8.9380   35.7310 C   0  0  0  0  0  0  0  0  0  0  0  0
   26.5970   -8.9950   34.8740 O   0  0  0  0  0  0  0  0  0  0  0  0
   28.5790  -11.1940   35.8100 C   0  0  0  0  0  0  0  0  0  0  0  0
   29.3500  -12.1580   34.8970 C   0  0  0  0  0  0  0  0  0  0  0  0
   30.8260  -11.8040   34.8770 C   0  0  0  0  0  0  0  0  0  0  0  0
   29.1440  -13.5900   35.3700 C   0  0  0  0  0  0  0  0  0  0  0  0
   27.3530   -8.2290   36.8480 N   0  0  0  0  0  0  0  0  0  0  0  0
   26.1450   -7.4450   37.1000 C   0  0  0  0  0  0  0  0  0  0  0  0
   35.7062   -8.4897   40.6475 H   0  0  0  0  0  0  0  0  0  0  0  0
   35.9461   -9.9638   41.5545 H   0  0  0  0  0  0  0  0  0  0  0  0
   34.7323   -8.8138   42.0615 H   0  0  0  0  0  0  0  0  0  0  0  0
   33.6546  -11.1804   41.8450 H   0  0  0  0  0  0  0  0  0  0  0  0
   32.9292  -11.9274   39.2059 H   0  0  0  0  0  0  0  0  0  0  0  0
   31.6219  -12.7222   41.8142 H   0  0  0  0  0  0  0  0  0  0  0  0
   31.4953  -14.0122   39.1084 H   0  0  0  0  0  0  0  0  0  0  0  0
   30.1944  -13.1427   39.8860 H   0  0  0  0  0  0  0  0  0  0  0  0
   30.7775  -14.6400   40.5726 H   0  0  0  0  0  0  0  0  0  0  0  0
   33.7481  -14.0869   40.1838 H   0  0  0  0  0  0  0  0  0  0  0  0
   33.0146  -14.7262   41.6351 H   0  0  0  0  0  0  0  0  0  0  0  0
   34.0010  -13.2863   41.7162 H   0  0  0  0  0  0  0  0  0  0  0  0
   31.7698   -9.5112   41.2985 H   0  0  0  0  0  0  0  0  0  0  0  0
   29.0849   -9.4415   40.3458 H   0  0  0  0  0  0  0  0  0  0  0  0
   29.2546   -7.0248   41.2815 H   0  0  0  0  0  0  0  0  0  0  0  0
   30.8001   -7.6091   41.9199 H   0  0  0  0  0  0  0  0  0  0  0  0
   29.7204   -9.3032   43.1682 H   0  0  0  0  0  0  0  0  0  0  0  0
   28.1628   -8.8855   42.4308 H   0  0  0  0  0  0  0  0  0  0  0  0
   31.9434   -8.7560   38.8126 H   0  0  0  0  0  0  0  0  0  0  0  0
   31.3974   -6.4415   37.3135 H   0  0  0  0  0  0  0  0  0  0  0  0
   32.8768   -8.9063   36.4534 H   0  0  0  0  0  0  0  0  0  0  0  0
   33.5696   -7.5362   37.2875 H   0  0  0  0  0  0  0  0  0  0  0  0
   32.9427   -7.3471   35.6675 H   0  0  0  0  0  0  0  0  0  0  0  0
   30.2345   -9.7480   37.0910 H   0  0  0  0  0  0  0  0  0  0  0  0
   29.0973   -9.5636   34.5258 H   0  0  0  0  0  0  0  0  0  0  0  0
   28.8759  -11.3909   36.8190 H   0  0  0  0  0  0  0  0  0  0  0  0
   27.5433  -11.3779   35.6142 H   0  0  0  0  0  0  0  0  0  0  0  0
   28.9754  -12.0688   33.8987 H   0  0  0  0  0  0  0  0  0  0  0  0
   31.2258  -11.8856   35.8661 H   0  0  0  0  0  0  0  0  0  0  0  0
   30.9475  -10.8009   34.5248 H   0  0  0  0  0  0  0  0  0  0  0  0
   31.3451  -12.4759   34.2259 H   0  0  0  0  0  0  0  0  0  0  0  0
   29.5149  -13.6927   36.3684 H   0  0  0  0  0  0  0  0  0  0  0  0
   29.6719  -14.2588   34.7228 H   0  0  0  0  0  0  0  0  0  0  0  0
   28.1003  -13.8251   35.3513 H   0  0  0  0  0  0  0  0  0  0  0  0
   28.0790   -8.2319   37.5130 H   0  0  0  0  0  0  0  0  0  0  0  0
   25.4686   -7.5581   36.2787 H   0  0  0  0  0  0  0  0  0  0  0  0
   26.4057   -6.4129   37.2078 H   0  0  0  0  0  0  0  0  0  0  0  0
   25.6766   -7.7903   37.9979 H   0  0  0  0  0  0  0  0  0  0  0  0
  1 35  1  0  0  0  0
  1 36  1  0  0  0  0
  1 37  1  0  0  0  0
  2  4  1  0  0  0  0
  2  1  1  0  0  0  0
  3  2  2  0  0  0  0
  4 38  1  0  0  0  0
  5  8  1  0  0  0  0
  5  4  1  0  0  0  0
  5 39  1  6  0  0  0
  6  5  1  0  0  0  0
  6 11  1  0  0  0  0
  7  6  2  0  0  0  0
  8 10  1  0  0  0  0
  8 40  1  0  0  0  0
  9  8  1  0  0  0  0
  9 41  1  0  0  0  0
  9 42  1  0  0  0  0
  9 43  1  0  0  0  0
 10 44  1  0  0  0  0
 10 45  1  0  0  0  0
 10 46  1  0  0  0  0
 11 47  1  0  0  0  0
 12 11  1  0  0  0  0
 12 15  1  0  0  0  0
 12 48  1  6  0  0  0
 13 12  1  0  0  0  0
 14 13  2  0  0  0  0
 15 16  1  0  0  0  0
 15 49  1  0  0  0  0
 15 50  1  0  0  0  0
 16 17  1  0  0  0  0
 16 51  1  0  0  0  0
 16 52  1  0  0  0  0
 17 19  2  0  0  0  0
 17 18  1  0  0  0  0
 20 13  1  0  0  0  0
 20 53  1  0  0  0  0
 21 20  1  0  0  0  0
 21 54  1  1  0  0  0
 22 25  1  0  0  0  0
 22 21  1  0  0  0  0
 23 22  2  0  0  0  0
 24 21  1  0  0  0  0
 24 55  1  0  0  0  0
 24 56  1  0  0  0  0
 24 57  1  0  0  0  0
 25 58  1  0  0  0  0
 26 27  1  0  0  0  0
 26 29  1  0  0  0  0
 26 25  1  0  0  0  0
 26 59  1  6  0  0  0
 27 33  1  0  0  0  0
 28 27  2  0  0  0  0
 29 60  1  0  0  0  0
 29 61  1  0  0  0  0
 30 32  1  0  0  0  0
 30 29  1  0  0  0  0
 30 62  1  0  0  0  0
 31 30  1  0  0  0  0
 31 63  1  0  0  0  0
 31 64  1  0  0  0  0
 31 65  1  0  0  0  0
 32 66  1  0  0  0  0
 32 67  1  0  0  0  0
 32 68  1  0  0  0  0
 33 34  1  0  0  0  0
 33 69  1  0  0  0  0
 34 70  1  0  0  0  0
 34 71  1  0  0  0  0
 34 72  1  0  0  0  0
M  CHG  1  18  -1
M  END
>  <MODEL>
       0

$$$$
selected_4mers/VEAL/823_noH.pdb
 OpenBabel03042518353D

 72 71  0  0  1  0  0  0  0  0999 V2000
   40.3050   53.0130   11.9140 C   0  0  0  0  0  0  0  0  0  0  0  0
   41.0870   52.9330   10.6150 C   0  0  0  0  0  0  0  0  0  0  0  0
   42.0100   53.7060   10.3880 O   0  0  0  0  0  0  0  0  0  0  0  0
   40.6990   51.9930    9.7610 N   0  0  0  0  0  0  0  0  0  0  0  0
   41.3490   51.7960    8.4730 C   0  0  2  0  0  0  0  0  0  0  0  0
   40.4140   52.3770    7.4220 C   0  0  0  0  0  0  0  0  0  0  0  0
   39.2890   51.9050    7.2530 O   0  0  0  0  0  0  0  0  0  0  0  0
   41.5840   50.2940    8.2190 C   0  0  0  0  0  0  0  0  0  0  0  0
   42.3940   50.0870    6.9500 C   0  0  0  0  0  0  0  0  0  0  0  0
   42.3030   49.6900    9.4110 C   0  0  0  0  0  0  0  0  0  0  0  0
   40.8800   53.4090    6.7270 N   0  0  0  0  0  0  0  0  0  0  0  0
   40.0680   54.0820    5.7190 C   0  0  2  0  0  0  0  0  0  0  0  0
   40.5100   53.7570    4.2990 C   0  0  0  0  0  0  0  0  0  0  0  0
   41.7010   53.7640    3.9910 O   0  0  0  0  0  0  0  0  0  0  0  0
   40.1490   55.6080    5.9070 C   0  0  0  0  0  0  0  0  0  0  0  0
   40.0070   56.1160    7.3470 C   0  0  0  0  0  0  0  0  0  0  0  0
   40.2190   57.6210    7.4610 C   0  0  0  0  0  0  0  0  0  0  0  0
   41.0530   58.1630    6.7070 O   0  0  0  0  0  0  0  0  0  0  0  0
   39.5690   58.2640    8.3140 O   0  0  0  0  0  0  0  0  0  0  0  0
   39.5440   53.4750    3.4340 N   0  0  0  0  0  0  0  0  0  0  0  0
   39.8290   53.2120    2.0360 C   0  0  2  0  0  0  0  0  0  0  0  0
   38.6560   53.7810    1.2510 C   0  0  0  0  0  0  0  0  0  0  0  0
   37.5130   53.7170    1.6990 O   0  0  0  0  0  0  0  0  0  0  0  0
   39.9750   51.7100    1.7710 C   0  0  0  0  0  0  0  0  0  0  0  0
   38.9500   54.3660    0.0970 N   0  0  0  0  0  0  0  0  0  0  0  0
   37.9130   54.9380   -0.7560 C   0  0  2  0  0  0  0  0  0  0  0  0
   37.1790   53.8290   -1.5040 C   0  0  0  0  0  0  0  0  0  0  0  0
   37.7780   52.8110   -1.8390 O   0  0  0  0  0  0  0  0  0  0  0  0
   38.5390   55.8760   -1.7900 C   0  0  0  0  0  0  0  0  0  0  0  0
   39.1760   57.1970   -1.3440 C   0  0  0  0  0  0  0  0  0  0  0  0
   39.9220   57.8100   -2.5220 C   0  0  0  0  0  0  0  0  0  0  0  0
   38.0830   58.1490   -0.8440 C   0  0  0  0  0  0  0  0  0  0  0  0
   35.8840   54.0320   -1.7600 N   0  0  0  0  0  0  0  0  0  0  0  0
   35.0650   53.0760   -2.5130 C   0  0  0  0  0  0  0  0  0  0  0  0
   39.5465   52.2583   11.9207 H   0  0  0  0  0  0  0  0  0  0  0  0
   39.8493   53.9775   11.9971 H   0  0  0  0  0  0  0  0  0  0  0  0
   40.9682   52.8595   12.7396 H   0  0  0  0  0  0  0  0  0  0  0  0
   39.9457   51.4090   10.0073 H   0  0  0  0  0  0  0  0  0  0  0  0
   42.3042   52.2771    8.4423 H   0  0  0  0  0  0  0  0  0  0  0  0
   40.6396   49.8074    8.0916 H   0  0  0  0  0  0  0  0  0  0  0  0
   43.3456   50.5655    7.0522 H   0  0  0  0  0  0  0  0  0  0  0  0
   41.8694   50.5103    6.1190 H   0  0  0  0  0  0  0  0  0  0  0  0
   42.5373   49.0395    6.7852 H   0  0  0  0  0  0  0  0  0  0  0  0
   43.2480   50.1749    9.5407 H   0  0  0  0  0  0  0  0  0  0  0  0
   42.4586   48.6450    9.2417 H   0  0  0  0  0  0  0  0  0  0  0  0
   41.7094   49.8242   10.2911 H   0  0  0  0  0  0  0  0  0  0  0  0
   41.7960   53.7275    6.8964 H   0  0  0  0  0  0  0  0  0  0  0  0
   39.0665   53.7298    5.8523 H   0  0  0  0  0  0  0  0  0  0  0  0
   39.3684   56.0515    5.3248 H   0  0  0  0  0  0  0  0  0  0  0  0
   41.1357   55.8848    5.5993 H   0  0  0  0  0  0  0  0  0  0  0  0
   40.7320   55.6205    7.9583 H   0  0  0  0  0  0  0  0  0  0  0  0
   39.0087   55.9040    7.6685 H   0  0  0  0  0  0  0  0  0  0  0  0
   38.6116   53.4435    3.7485 H   0  0  0  0  0  0  0  0  0  0  0  0
   40.7544   53.6632    1.7443 H   0  0  0  0  0  0  0  0  0  0  0  0
   39.0707   51.2094    2.0477 H   0  0  0  0  0  0  0  0  0  0  0  0
   40.7880   51.3232    2.3491 H   0  0  0  0  0  0  0  0  0  0  0  0
   40.1682   51.5484    0.7311 H   0  0  0  0  0  0  0  0  0  0  0  0
   39.8902   54.4154   -0.1908 H   0  0  0  0  0  0  0  0  0  0  0  0
   37.2303   55.4786   -0.1342 H   0  0  0  0  0  0  0  0  0  0  0  0
   39.3034   55.3182   -2.2895 H   0  0  0  0  0  0  0  0  0  0  0  0
   37.6994   56.1935   -2.3724 H   0  0  0  0  0  0  0  0  0  0  0  0
   39.8666   57.0223   -0.5456 H   0  0  0  0  0  0  0  0  0  0  0  0
   39.2370   57.9875   -3.3246 H   0  0  0  0  0  0  0  0  0  0  0  0
   40.6874   57.1373   -2.8485 H   0  0  0  0  0  0  0  0  0  0  0  0
   40.3657   58.7358   -2.2204 H   0  0  0  0  0  0  0  0  0  0  0  0
   37.3833   58.3340   -1.6321 H   0  0  0  0  0  0  0  0  0  0  0  0
   38.5275   59.0728   -0.5375 H   0  0  0  0  0  0  0  0  0  0  0  0
   37.5755   57.7046   -0.0135 H   0  0  0  0  0  0  0  0  0  0  0  0
   35.4615   54.8576   -1.4296 H   0  0  0  0  0  0  0  0  0  0  0  0
   35.6666   52.2387   -2.7991 H   0  0  0  0  0  0  0  0  0  0  0  0
   34.6763   53.5518   -3.3890 H   0  0  0  0  0  0  0  0  0  0  0  0
   34.2547   52.7402   -1.9002 H   0  0  0  0  0  0  0  0  0  0  0  0
  1 35  1  0  0  0  0
  1 36  1  0  0  0  0
  1 37  1  0  0  0  0
  2  1  1  0  0  0  0
  3  2  2  0  0  0  0
  4  2  1  0  0  0  0
  4 38  1  0  0  0  0
  5  4  1  0  0  0  0
  5 39  1  6  0  0  0
  6  5  1  0  0  0  0
  7  6  2  0  0  0  0
  8  5  1  0  0  0  0
  8 10  1  0  0  0  0
  8 40  1  0  0  0  0
  9  8  1  0  0  0  0
  9 41  1  0  0  0  0
  9 42  1  0  0  0  0
  9 43  1  0  0  0  0
 10 44  1  0  0  0  0
 10 45  1  0  0  0  0
 10 46  1  0  0  0  0
 11  6  1  0  0  0  0
 11 47  1  0  0  0  0
 12 15  1  0  0  0  0
 12 11  1  0  0  0  0
 12 48  1  1  0  0  0
 13 12  1  0  0  0  0
 14 13  2  0  0  0  0
 15 16  1  0  0  0  0
 15 49  1  0  0  0  0
 15 50  1  0  0  0  0
 16 17  1  0  0  0  0
 16 51  1  0  0  0  0
 16 52  1  0  0  0  0
 17 19  1  0  0  0  0
 18 17  2  0  0  0  0
 20 13  1  0  0  0  0
 20 53  1  0  0  0  0
 21 20  1  0  0  0  0
 21 54  1  6  0  0  0
 22 23  2  0  0  0  0
 22 21  1  0  0  0  0
 24 21  1  0  0  0  0
 24 55  1  0  0  0  0
 24 56  1  0  0  0  0
 24 57  1  0  0  0  0
 25 22  1  0  0  0  0
 25 58  1  0  0  0  0
 26 25  1  0  0  0  0
 26 59  1  1  0  0  0
 27 26  1  0  0  0  0
 28 27  2  0  0  0  0
 29 30  1  0  0  0  0
 29 26  1  0  0  0  0
 29 60  1  0  0  0  0
 29 61  1  0  0  0  0
 30 32  1  0  0  0  0
 30 62  1  0  0  0  0
 31 30  1  0  0  0  0
 31 63  1  0  0  0  0
 31 64  1  0  0  0  0
 31 65  1  0  0  0  0
 32 66  1  0  0  0  0
 32 67  1  0  0  0  0
 32 68  1  0  0  0  0
 33 27  1  0  0  0  0
 33 69  1  0  0  0  0
 34 33  1  0  0  0  0
 34 70  1  0  0  0  0
 34 71  1  0  0  0  0
 34 72  1  0  0  0  0
M  CHG  1  19  -1
M  END
>  <MODEL>
       0

$$$$
selected_4mers/VEAL/824_noH.pdb
 OpenBabel03042518353D

 72 71  0  0  1  0  0  0  0  0999 V2000
   64.0650   58.2550  139.7760 C   0  0  0  0  0  0  0  0  0  0  0  0
   64.5180   59.5380  140.3860 C   0  0  0  0  0  0  0  0  0  0  0  0
   65.5540   60.1140  140.0070 O   0  0  0  0  0  0  0  0  0  0  0  0
   63.7650   60.0620  141.3470 N   0  0  0  0  0  0  0  0  0  0  0  0
   64.1210   61.3240  142.0020 C   0  0  2  0  0  0  0  0  0  0  0  0
   65.2510   61.1050  143.0030 C   0  0  0  0  0  0  0  0  0  0  0  0
   65.8090   62.0680  143.5530 O   0  0  0  0  0  0  0  0  0  0  0  0
   62.8740   61.9580  142.6060 C   0  0  0  0  0  0  0  0  0  0  0  0
   62.3820   61.2070  143.8470 C   0  0  0  0  0  0  0  0  0  0  0  0
   63.0440   63.4220  142.9840 C   0  0  0  0  0  0  0  0  0  0  0  0
   65.6140   59.8500  143.3250 N   0  0  0  0  0  0  0  0  0  0  0  0
   66.6330   59.4780  144.2820 C   0  0  2  0  0  0  0  0  0  0  0  0
   66.2160   60.0630  145.6500 C   0  0  0  0  0  0  0  0  0  0  0  0
   66.9410   60.7900  146.3180 O   0  0  0  0  0  0  0  0  0  0  0  0
   68.0510   59.8060  143.8900 C   0  0  0  0  0  0  0  0  0  0  0  0
   68.4220   59.0340  142.6450 C   0  0  0  0  0  0  0  0  0  0  0  0
   69.7730   59.1770  142.0760 C   0  0  0  0  0  0  0  0  0  0  0  0
   70.5580   59.9540  142.5570 O   0  0  0  0  0  0  0  0  0  0  0  0
   70.0740   58.5210  141.0230 O   0  0  0  0  0  0  0  0  0  0  0  0
   65.0210   59.6490  146.0490 N   0  0  0  0  0  0  0  0  0  0  0  0
   64.5530   59.8820  147.4090 C   0  0  2  0  0  0  0  0  0  0  0  0
   65.5460   59.2880  148.4180 C   0  0  0  0  0  0  0  0  0  0  0  0
   66.2770   58.3420  148.0840 O   0  0  0  0  0  0  0  0  0  0  0  0
   63.1900   59.2350  147.5630 C   0  0  0  0  0  0  0  0  0  0  0  0
   65.5490   59.8070  149.6440 N   0  0  0  0  0  0  0  0  0  0  0  0
   66.2810   59.1940  150.6850 C   0  0  2  0  0  0  0  0  0  0  0  0
   65.9310   57.6740  150.7210 C   0  0  0  0  0  0  0  0  0  0  0  0
   64.7940   57.3060  150.5440 O   0  0  0  0  0  0  0  0  0  0  0  0
   65.8950   59.8330  152.0450 C   0  0  0  0  0  0  0  0  0  0  0  0
   66.8790   59.5770  153.1800 C   0  0  0  0  0  0  0  0  0  0  0  0
   68.1820   60.3300  152.9550 C   0  0  0  0  0  0  0  0  0  0  0  0
   66.2650   59.8950  154.5330 C   0  0  0  0  0  0  0  0  0  0  0  0
   66.9850   56.8990  150.9630 N   0  0  0  0  0  0  0  0  0  0  0  0
   66.9150   55.4450  151.0490 C   0  0  0  0  0  0  0  0  0  0  0  0
   64.7619   57.9527  139.0224 H   0  0  0  0  0  0  0  0  0  0  0  0
   63.0996   58.3910  139.3351 H   0  0  0  0  0  0  0  0  0  0  0  0
   64.0085   57.5006  140.5327 H   0  0  0  0  0  0  0  0  0  0  0  0
   62.9470   59.5906  141.6263 H   0  0  0  0  0  0  0  0  0  0  0  0
   64.5006   62.0211  141.2845 H   0  0  0  0  0  0  0  0  0  0  0  0
   62.1512   61.8918  141.8199 H   0  0  0  0  0  0  0  0  0  0  0  0
   63.1146   61.2823  144.6232 H   0  0  0  0  0  0  0  0  0  0  0  0
   62.2263   60.1771  143.6022 H   0  0  0  0  0  0  0  0  0  0  0  0
   61.4614   61.6370  144.1825 H   0  0  0  0  0  0  0  0  0  0  0  0
   63.7648   63.5060  143.7703 H   0  0  0  0  0  0  0  0  0  0  0  0
   62.1062   63.8158  143.3162 H   0  0  0  0  0  0  0  0  0  0  0  0
   63.3805   63.9738  142.1313 H   0  0  0  0  0  0  0  0  0  0  0  0
   65.1425   59.1171  142.8669 H   0  0  0  0  0  0  0  0  0  0  0  0
   66.6750   58.4098  144.3274 H   0  0  0  0  0  0  0  0  0  0  0  0
   68.1338   60.8552  143.6968 H   0  0  0  0  0  0  0  0  0  0  0  0
   68.7123   59.5362  144.6867 H   0  0  0  0  0  0  0  0  0  0  0  0
   68.2882   57.9968  142.8711 H   0  0  0  0  0  0  0  0  0  0  0  0
   67.7877   59.4534  141.8922 H   0  0  0  0  0  0  0  0  0  0  0  0
   64.4381   59.1745  145.4132 H   0  0  0  0  0  0  0  0  0  0  0  0
   64.4782   60.9326  147.5975 H   0  0  0  0  0  0  0  0  0  0  0  0
   63.2702   58.1850  147.3736 H   0  0  0  0  0  0  0  0  0  0  0  0
   62.5068   59.6722  146.8652 H   0  0  0  0  0  0  0  0  0  0  0  0
   62.8314   59.3914  148.5589 H   0  0  0  0  0  0  0  0  0  0  0  0
   65.0355   60.6268  149.8270 H   0  0  0  0  0  0  0  0  0  0  0  0
   67.3284   59.3296  150.5131 H   0  0  0  0  0  0  0  0  0  0  0  0
   64.9427   59.4420  152.3369 H   0  0  0  0  0  0  0  0  0  0  0  0
   65.8899   60.8913  151.8871 H   0  0  0  0  0  0  0  0  0  0  0  0
   67.1108   58.5324  153.1827 H   0  0  0  0  0  0  0  0  0  0  0  0
   67.9888   61.3824  152.9462 H   0  0  0  0  0  0  0  0  0  0  0  0
   68.6057   60.0373  152.0171 H   0  0  0  0  0  0  0  0  0  0  0  0
   68.8677   60.0999  153.7435 H   0  0  0  0  0  0  0  0  0  0  0  0
   66.0159   60.9347  154.5761 H   0  0  0  0  0  0  0  0  0  0  0  0
   66.9673   59.6641  155.3065 H   0  0  0  0  0  0  0  0  0  0  0  0
   65.3794   59.3101  154.6691 H   0  0  0  0  0  0  0  0  0  0  0  0
   67.8604   57.3309  151.0911 H   0  0  0  0  0  0  0  0  0  0  0  0
   65.9061   55.1264  150.8893 H   0  0  0  0  0  0  0  0  0  0  0  0
   67.2396   55.1290  152.0184 H   0  0  0  0  0  0  0  0  0  0  0  0
   67.5480   55.0127  150.3025 H   0  0  0  0  0  0  0  0  0  0  0  0
  1  2  1  0  0  0  0
  1 35  1  0  0  0  0
  1 36  1  0  0  0  0
  1 37  1  0  0  0  0
  2  4  1  0  0  0  0
  3  2  2  0  0  0  0
  4  5  1  0  0  0  0
  4 38  1  0  0  0  0
  5  8  1  0  0  0  0
  5  6  1  0  0  0  0
  5 39  1  6  0  0  0
  6 11  1  0  0  0  0
  6  7  2  0  0  0  0
  8 10  1  0  0  0  0
  8  9  1  0  0  0  0
  8 40  1  0  0  0  0
  9 41  1  0  0  0  0
  9 42  1  0  0  0  0
  9 43  1  0  0  0  0
 10 44  1  0  0  0  0
 10 45  1  0  0  0  0
 10 46  1  0  0  0  0
 11 12  1  0  0  0  0
 11 47  1  0  0  0  0
 12 13  1  0  0  0  0
 12 48  1  1  0  0  0
 13 20  1  0  0  0  0
 13 14  2  0  0  0  0
 15 12  1  0  0  0  0
 15 49  1  0  0  0  0
 15 50  1  0  0  0  0
 16 15  1  0  0  0  0
 16 51  1  0  0  0  0
 16 52  1  0  0  0  0
 17 18  1  0  0  0  0
 17 16  1  0  0  0  0
 19 17  2  0  0  0  0
 20 21  1  0  0  0  0
 20 53  1  0  0  0  0
 21 24  1  0  0  0  0
 21 22  1  0  0  0  0
 21 54  1  1  0  0  0
 22 25  1  0  0  0  0
 23 22  2  0  0  0  0
 24 55  1  0  0  0  0
 24 56  1  0  0  0  0
 24 57  1  0  0  0  0
 25 26  1  0  0  0  0
 25 58  1  0  0  0  0
 26 27  1  0  0  0  0
 26 29  1  0  0  0  0
 26 59  1  6  0  0  0
 27 33  1  0  0  0  0
 28 27  2  0  0  0  0
 29 30  1  0  0  0  0
 29 60  1  0  0  0  0
 29 61  1  0  0  0  0
 30 32  1  0  0  0  0
 30 62  1  0  0  0  0
 31 30  1  0  0  0  0
 31 63  1  0  0  0  0
 31 64  1  0  0  0  0
 31 65  1  0  0  0  0
 32 66  1  0  0  0  0
 32 67  1  0  0  0  0
 32 68  1  0  0  0  0
 33 34  1  0  0  0  0
 33 69  1  0  0  0  0
 34 70  1  0  0  0  0
 34 71  1  0  0  0  0
 34 72  1  0  0  0  0
M  CHG  1  18  -1
M  END
>  <MODEL>
       0

$$$$
