selected_4mers/VEEV/890_noH.pdb
 OpenBabel03042518353D

 74 73  0  0  1  0  0  0  0  0999 V2000
   13.0350   -7.0520   21.6360 C   0  0  0  0  0  0  0  0  0  0  0  0
   13.7270   -7.0670   22.9960 C   0  0  0  0  0  0  0  0  0  0  0  0
   14.6210   -7.8810   23.2380 O   0  0  0  0  0  0  0  0  0  0  0  0
   13.2980   -6.1620   23.8740 N   0  0  0  0  0  0  0  0  0  0  0  0
   13.7660   -6.1180   25.2610 C   0  0  2  0  0  0  0  0  0  0  0  0
   13.4410   -7.4280   25.9840 C   0  0  0  0  0  0  0  0  0  0  0  0
   14.2790   -7.9640   26.7110 O   0  0  0  0  0  0  0  0  0  0  0  0
   13.1730   -4.8980   26.0210 C   0  0  0  0  0  0  0  0  0  0  0  0
   13.3130   -5.0560   27.5340 C   0  0  0  0  0  0  0  0  0  0  0  0
   13.8430   -3.6120   25.5600 C   0  0  0  0  0  0  0  0  0  0  0  0
   12.2350   -7.9490   25.7610 N   0  0  0  0  0  0  0  0  0  0  0  0
   11.8180   -9.2140   26.3750 C   0  0  2  0  0  0  0  0  0  0  0  0
   12.7160  -10.3940   25.9930 C   0  0  0  0  0  0  0  0  0  0  0  0
   13.0320  -11.2310   26.8430 O   0  0  0  0  0  0  0  0  0  0  0  0
   10.3450   -9.5230   26.0830 C   0  0  0  0  0  0  0  0  0  0  0  0
    9.3450   -8.6210   26.8220 C   0  0  0  0  0  0  0  0  0  0  0  0
    9.4940   -8.6420   28.3450 C   0  0  0  0  0  0  0  0  0  0  0  0
    9.2010   -7.6060   28.9780 O   0  0  0  0  0  0  0  0  0  0  0  0
    9.8980   -9.6800   28.9140 O   0  0  0  0  0  0  0  0  0  0  0  0
   13.1180  -10.4530   24.7220 N   0  0  0  0  0  0  0  0  0  0  0  0
   14.0400  -11.4830   24.2350 C   0  0  2  0  0  0  0  0  0  0  0  0
   15.4060  -11.3780   24.9090 C   0  0  0  0  0  0  0  0  0  0  0  0
   16.0010  -12.3920   25.2840 O   0  0  0  0  0  0  0  0  0  0  0  0
   14.2060  -11.3980   22.7140 C   0  0  0  0  0  0  0  0  0  0  0  0
   13.0800  -12.0390   21.9130 C   0  0  0  0  0  0  0  0  0  0  0  0
   13.4480  -12.2880   20.4550 C   0  0  0  0  0  0  0  0  0  0  0  0
   12.5890  -12.8000   19.7070 O   0  0  0  0  0  0  0  0  0  0  0  0
   14.5920  -11.9820   20.0520 O   0  0  0  0  0  0  0  0  0  0  0  0
   15.8880  -10.1440   25.0570 N   0  0  0  0  0  0  0  0  0  0  0  0
   17.1770   -9.8610   25.6990 C   0  0  2  0  0  0  0  0  0  0  0  0
   17.1520  -10.2510   27.1800 C   0  0  0  0  0  0  0  0  0  0  0  0
   18.0820  -10.8950   27.6700 O   0  0  0  0  0  0  0  0  0  0  0  0
   17.5740   -8.3630   25.5510 C   0  0  0  0  0  0  0  0  0  0  0  0
   18.8460   -8.0530   26.3260 C   0  0  0  0  0  0  0  0  0  0  0  0
   17.7610   -8.0010   24.0920 C   0  0  0  0  0  0  0  0  0  0  0  0
   16.0820   -9.8620   27.8750 N   0  0  0  0  0  0  0  0  0  0  0  0
   15.9000  -10.1850   29.2940 C   0  0  0  0  0  0  0  0  0  0  0  0
   13.4549   -7.8144   21.0137 H   0  0  0  0  0  0  0  0  0  0  0  0
   13.1762   -6.0970   21.1745 H   0  0  0  0  0  0  0  0  0  0  0  0
   11.9887   -7.2340   21.7662 H   0  0  0  0  0  0  0  0  0  0  0  0
   12.6381   -5.4941   23.5779 H   0  0  0  0  0  0  0  0  0  0  0  0
   14.8294   -6.0004   25.2448 H   0  0  0  0  0  0  0  0  0  0  0  0
   12.1285   -4.8490   25.7938 H   0  0  0  0  0  0  0  0  0  0  0  0
   14.3499   -5.1081   27.7927 H   0  0  0  0  0  0  0  0  0  0  0  0
   12.8221   -5.9542   27.8458 H   0  0  0  0  0  0  0  0  0  0  0  0
   12.8650   -4.2164   28.0232 H   0  0  0  0  0  0  0  0  0  0  0  0
   14.8884   -3.6543   25.7842 H   0  0  0  0  0  0  0  0  0  0  0  0
   13.4029   -2.7789   26.0671 H   0  0  0  0  0  0  0  0  0  0  0  0
   13.7089   -3.4985   24.5045 H   0  0  0  0  0  0  0  0  0  0  0  0
   11.6083   -7.4730   25.1694 H   0  0  0  0  0  0  0  0  0  0  0  0
   11.9287   -9.0792   27.4307 H   0  0  0  0  0  0  0  0  0  0  0  0
   10.1537  -10.5367   26.3672 H   0  0  0  0  0  0  0  0  0  0  0  0
   10.1989   -9.3461   25.0379 H   0  0  0  0  0  0  0  0  0  0  0  0
    8.3551   -8.9446   26.5765 H   0  0  0  0  0  0  0  0  0  0  0  0
    9.5414   -7.6178   26.5059 H   0  0  0  0  0  0  0  0  0  0  0  0
   12.7826   -9.7792   24.0874 H   0  0  0  0  0  0  0  0  0  0  0  0
   13.6115  -12.4308   24.4858 H   0  0  0  0  0  0  0  0  0  0  0  0
   14.2617  -10.3646   22.4422 H   0  0  0  0  0  0  0  0  0  0  0  0
   15.0945  -11.9448   22.4764 H   0  0  0  0  0  0  0  0  0  0  0  0
   12.8309  -12.9759   22.3658 H   0  0  0  0  0  0  0  0  0  0  0  0
   12.2553  -11.3573   21.9213 H   0  0  0  0  0  0  0  0  0  0  0  0
   15.3549   -9.3879   24.7202 H   0  0  0  0  0  0  0  0  0  0  0  0
   17.9138  -10.4540   25.1986 H   0  0  0  0  0  0  0  0  0  0  0  0
   16.7771   -7.7754   25.9567 H   0  0  0  0  0  0  0  0  0  0  0  0
   19.6540   -8.6335   25.9322 H   0  0  0  0  0  0  0  0  0  0  0  0
   18.7027   -8.2954   27.3583 H   0  0  0  0  0  0  0  0  0  0  0  0
   19.0759   -7.0122   26.2326 H   0  0  0  0  0  0  0  0  0  0  0  0
   18.5568   -8.5849   23.6788 H   0  0  0  0  0  0  0  0  0  0  0  0
   18.0017   -6.9616   24.0104 H   0  0  0  0  0  0  0  0  0  0  0  0
   16.8566   -8.2008   23.5562 H   0  0  0  0  0  0  0  0  0  0  0  0
   15.3864   -9.3369   27.4170 H   0  0  0  0  0  0  0  0  0  0  0  0
   16.7366  -10.7553   29.6401 H   0  0  0  0  0  0  0  0  0  0  0  0
   15.0035  -10.7559   29.4177 H   0  0  0  0  0  0  0  0  0  0  0  0
   15.8271   -9.2795   29.8594 H   0  0  0  0  0  0  0  0  0  0  0  0
  1  2  1  0  0  0  0
  1 38  1  0  0  0  0
  1 39  1  0  0  0  0
  1 40  1  0  0  0  0
  2  3  2  0  0  0  0
  2  4  1  0  0  0  0
  4  5  1  0  0  0  0
  4 41  1  0  0  0  0
  5  6  1  0  0  0  0
  5  8  1  0  0  0  0
  5 42  1  6  0  0  0
  6  7  2  0  0  0  0
  8  9  1  0  0  0  0
  8 43  1  0  0  0  0
  9 44  1  0  0  0  0
  9 45  1  0  0  0  0
  9 46  1  0  0  0  0
 10  8  1  0  0  0  0
 10 47  1  0  0  0  0
 10 48  1  0  0  0  0
 10 49  1  0  0  0  0
 11  6  1  0  0  0  0
 11 12  1  0  0  0  0
 11 50  1  0  0  0  0
 12 51  1  1  0  0  0
 13 12  1  0  0  0  0
 13 14  2  0  0  0  0
 15 12  1  0  0  0  0
 15 16  1  0  0  0  0
 15 52  1  0  0  0  0
 15 53  1  0  0  0  0
 16 17  1  0  0  0  0
 16 54  1  0  0  0  0
 16 55  1  0  0  0  0
 17 19  2  0  0  0  0
 17 18  1  0  0  0  0
 20 13  1  0  0  0  0
 20 56  1  0  0  0  0
 21 20  1  0  0  0  0
 21 22  1  0  0  0  0
 21 57  1  1  0  0  0
 22 29  1  0  0  0  0
 22 23  2  0  0  0  0
 24 21  1  0  0  0  0
 24 58  1  0  0  0  0
 24 59  1  0  0  0  0
 25 24  1  0  0  0  0
 25 60  1  0  0  0  0
 25 61  1  0  0  0  0
 26 25  1  0  0  0  0
 27 26  2  0  0  0  0
 28 26  1  0  0  0  0
 29 30  1  0  0  0  0
 29 62  1  0  0  0  0
 30 31  1  0  0  0  0
 30 63  1  6  0  0  0
 31 32  2  0  0  0  0
 31 36  1  0  0  0  0
 33 30  1  0  0  0  0
 33 34  1  0  0  0  0
 33 64  1  0  0  0  0
 34 65  1  0  0  0  0
 34 66  1  0  0  0  0
 34 67  1  0  0  0  0
 35 33  1  0  0  0  0
 35 68  1  0  0  0  0
 35 69  1  0  0  0  0
 35 70  1  0  0  0  0
 36 37  1  0  0  0  0
 36 71  1  0  0  0  0
 37 72  1  0  0  0  0
 37 73  1  0  0  0  0
 37 74  1  0  0  0  0
M  CHG  1  18  -1
M  CHG  1  28  -1
M  END
>  <MODEL>
       0

$$$$
selected_4mers/VEEV/891_noH.pdb
 OpenBabel03042518353D

 74 73  0  0  1  0  0  0  0  0999 V2000
   28.9380   -9.4680   -3.4330 C   0  0  0  0  0  0  0  0  0  0  0  0
   29.0880   -9.3040   -1.9330 C   0  0  0  0  0  0  0  0  0  0  0  0
   29.9380   -8.5380   -1.4720 O   0  0  0  0  0  0  0  0  0  0  0  0
   28.2460   -9.9890   -1.1720 N   0  0  0  0  0  0  0  0  0  0  0  0
   28.2950   -9.8900    0.2750 C   0  0  2  0  0  0  0  0  0  0  0  0
   28.4310  -11.2640    0.9210 C   0  0  0  0  0  0  0  0  0  0  0  0
   27.5610  -12.1160    0.7640 O   0  0  0  0  0  0  0  0  0  0  0  0
   27.0170   -9.2120    0.8200 C   0  0  0  0  0  0  0  0  0  0  0  0
   27.0790   -9.1250    2.3290 C   0  0  0  0  0  0  0  0  0  0  0  0
   26.8580   -7.8230    0.2010 C   0  0  0  0  0  0  0  0  0  0  0  0
   29.5260  -11.4750    1.6420 N   0  0  0  0  0  0  0  0  0  0  0  0
   29.7460  -12.7440    2.3190 C   0  0  2  0  0  0  0  0  0  0  0  0
   29.8990  -12.5310    3.8170 C   0  0  0  0  0  0  0  0  0  0  0  0
   30.5820  -11.6050    4.2690 O   0  0  0  0  0  0  0  0  0  0  0  0
   30.9930  -13.4610    1.7700 C   0  0  0  0  0  0  0  0  0  0  0  0
   32.2950  -12.6790    1.8830 C   0  0  0  0  0  0  0  0  0  0  0  0
   33.5310  -13.5510    1.6670 C   0  0  0  0  0  0  0  0  0  0  0  0
   33.5360  -14.3670    0.7190 O   0  0  0  0  0  0  0  0  0  0  0  0
   34.5020  -13.4150    2.4420 O   0  0  0  0  0  0  0  0  0  0  0  0
   29.2540  -13.3890    4.5950 N   0  0  0  0  0  0  0  0  0  0  0  0
   29.3460  -13.2760    6.0370 C   0  0  2  0  0  0  0  0  0  0  0  0
   30.6990  -13.7910    6.5000 C   0  0  0  0  0  0  0  0  0  0  0  0
   31.1160  -14.8910    6.1360 O   0  0  0  0  0  0  0  0  0  0  0  0
   28.2420  -14.0840    6.7100 C   0  0  0  0  0  0  0  0  0  0  0  0
   28.1790  -13.8770    8.2110 C   0  0  0  0  0  0  0  0  0  0  0  0
   27.0190  -14.6060    8.8480 C   0  0  0  0  0  0  0  0  0  0  0  0
   25.9020  -14.5110    8.3030 O   0  0  0  0  0  0  0  0  0  0  0  0
   27.2210  -15.2610    9.8930 O   0  0  0  0  0  0  0  0  0  0  0  0
   31.3890  -12.9870    7.2940 N   0  0  0  0  0  0  0  0  0  0  0  0
   32.6840  -13.3820    7.8200 C   0  0  2  0  0  0  0  0  0  0  0  0
   32.4620  -14.1120    9.1350 C   0  0  0  0  0  0  0  0  0  0  0  0
   33.0530  -15.1630    9.3810 O   0  0  0  0  0  0  0  0  0  0  0  0
   33.5820  -12.1630    8.0850 C   0  0  0  0  0  0  0  0  0  0  0  0
   34.8870  -12.6130    8.7410 C   0  0  0  0  0  0  0  0  0  0  0  0
   33.8670  -11.4380    6.7750 C   0  0  0  0  0  0  0  0  0  0  0  0
   31.5860  -13.5580    9.9690 N   0  0  0  0  0  0  0  0  0  0  0  0
   31.2980  -14.1470   11.2700 C   0  0  0  0  0  0  0  0  0  0  0  0
   29.6701   -8.8683   -3.9323 H   0  0  0  0  0  0  0  0  0  0  0  0
   27.9585   -9.1558   -3.7297 H   0  0  0  0  0  0  0  0  0  0  0  0
   29.0796  -10.4956   -3.6954 H   0  0  0  0  0  0  0  0  0  0  0  0
   27.5768  -10.5741   -1.5952 H   0  0  0  0  0  0  0  0  0  0  0  0
   29.1528   -9.2994    0.5206 H   0  0  0  0  0  0  0  0  0  0  0  0
   26.1646   -9.8007    0.5520 H   0  0  0  0  0  0  0  0  0  0  0  0
   27.9264   -8.5391    2.6180 H   0  0  0  0  0  0  0  0  0  0  0  0
   27.1690  -10.1090    2.7396 H   0  0  0  0  0  0  0  0  0  0  0  0
   26.1855   -8.6654    2.6968 H   0  0  0  0  0  0  0  0  0  0  0  0
   27.7027   -7.2189    0.4587 H   0  0  0  0  0  0  0  0  0  0  0  0
   25.9655   -7.3661    0.5745 H   0  0  0  0  0  0  0  0  0  0  0  0
   26.7946   -7.9120   -0.8634 H   0  0  0  0  0  0  0  0  0  0  0  0
   30.1997  -10.7614    1.7197 H   0  0  0  0  0  0  0  0  0  0  0  0
   28.8905  -13.3598    2.1352 H   0  0  0  0  0  0  0  0  0  0  0  0
   31.1106  -14.3785    2.3078 H   0  0  0  0  0  0  0  0  0  0  0  0
   30.8193  -13.5975    0.7230 H   0  0  0  0  0  0  0  0  0  0  0  0
   32.2920  -11.9022    1.1472 H   0  0  0  0  0  0  0  0  0  0  0  0
   32.3487  -12.2851    2.8764 H   0  0  0  0  0  0  0  0  0  0  0  0
   28.7111  -14.1048    4.1922 H   0  0  0  0  0  0  0  0  0  0  0  0
   29.2345  -12.2468    6.3076 H   0  0  0  0  0  0  0  0  0  0  0  0
   28.4148  -15.1222    6.5170 H   0  0  0  0  0  0  0  0  0  0  0  0
   27.3106  -13.7487    6.3039 H   0  0  0  0  0  0  0  0  0  0  0  0
   28.0768  -12.8304    8.4090 H   0  0  0  0  0  0  0  0  0  0  0  0
   29.0806  -14.2710    8.6314 H   0  0  0  0  0  0  0  0  0  0  0  0
   31.0181  -12.1066    7.5319 H   0  0  0  0  0  0  0  0  0  0  0  0
   33.1683  -14.0067    7.0988 H   0  0  0  0  0  0  0  0  0  0  0  0
   33.0797  -11.4900    8.7480 H   0  0  0  0  0  0  0  0  0  0  0  0
   35.4004  -13.2875    8.0880 H   0  0  0  0  0  0  0  0  0  0  0  0
   34.6699  -13.1070    9.6650 H   0  0  0  0  0  0  0  0  0  0  0  0
   35.5043  -11.7596    8.9293 H   0  0  0  0  0  0  0  0  0  0  0  0
   34.3698  -12.1011    6.1024 H   0  0  0  0  0  0  0  0  0  0  0  0
   34.4863  -10.5866    6.9660 H   0  0  0  0  0  0  0  0  0  0  0  0
   32.9450  -11.1173    6.3369 H   0  0  0  0  0  0  0  0  0  0  0  0
   31.1222  -12.7319    9.7012 H   0  0  0  0  0  0  0  0  0  0  0  0
   31.8842  -15.0330   11.3980 H   0  0  0  0  0  0  0  0  0  0  0  0
   30.2588  -14.3956   11.3268 H   0  0  0  0  0  0  0  0  0  0  0  0
   31.5395  -13.4451   12.0406 H   0  0  0  0  0  0  0  0  0  0  0  0
  1  2  1  0  0  0  0
  1 38  1  0  0  0  0
  1 39  1  0  0  0  0
  1 40  1  0  0  0  0
  2  3  2  0  0  0  0
  2  4  1  0  0  0  0
  4  5  1  0  0  0  0
  4 41  1  0  0  0  0
  5  8  1  0  0  0  0
  5  6  1  0  0  0  0
  5 42  1  1  0  0  0
  6 11  1  0  0  0  0
  7  6  2  0  0  0  0
  8  9  1  0  0  0  0
  8 43  1  0  0  0  0
  9 44  1  0  0  0  0
  9 45  1  0  0  0  0
  9 46  1  0  0  0  0
 10  8  1  0  0  0  0
 10 47  1  0  0  0  0
 10 48  1  0  0  0  0
 10 49  1  0  0  0  0
 11 12  1  0  0  0  0
 11 50  1  0  0  0  0
 12 13  1  0  0  0  0
 12 51  1  6  0  0  0
 13 14  2  0  0  0  0
 13 20  1  0  0  0  0
 15 16  1  0  0  0  0
 15 12  1  0  0  0  0
 15 52  1  0  0  0  0
 15 53  1  0  0  0  0
 16 54  1  0  0  0  0
 16 55  1  0  0  0  0
 17 16  1  0  0  0  0
 17 19  1  0  0  0  0
 18 17  2  0  0  0  0
 20 21  1  0  0  0  0
 20 56  1  0  0  0  0
 21 22  1  0  0  0  0
 21 24  1  0  0  0  0
 21 57  1  1  0  0  0
 22 29  1  0  0  0  0
 23 22  2  0  0  0  0
 24 25  1  0  0  0  0
 24 58  1  0  0  0  0
 24 59  1  0  0  0  0
 25 26  1  0  0  0  0
 25 60  1  0  0  0  0
 25 61  1  0  0  0  0
 26 28  1  0  0  0  0
 27 26  2  0  0  0  0
 29 30  1  0  0  0  0
 29 62  1  0  0  0  0
 30 33  1  0  0  0  0
 30 31  1  0  0  0  0
 30 63  1  6  0  0  0
 31 32  2  0  0  0  0
 31 36  1  0  0  0  0
 33 34  1  0  0  0  0
 33 64  1  0  0  0  0
 34 65  1  0  0  0  0
 34 66  1  0  0  0  0
 34 67  1  0  0  0  0
 35 33  1  0  0  0  0
 35 68  1  0  0  0  0
 35 69  1  0  0  0  0
 35 70  1  0  0  0  0
 36 37  1  0  0  0  0
 36 71  1  0  0  0  0
 37 72  1  0  0  0  0
 37 73  1  0  0  0  0
 37 74  1  0  0  0  0
M  CHG  1  19  -1
M  CHG  1  28  -1
M  END
>  <MODEL>
       0

$$$$
selected_4mers/VEEV/892_noH.pdb
 OpenBabel03042518353D

 74 73  0  0  1  0  0  0  0  0999 V2000
   24.1180   34.9610  -23.0770 C   0  0  0  0  0  0  0  0  0  0  0  0
   22.6180   35.1520  -22.8910 C   0  0  0  0  0  0  0  0  0  0  0  0
   21.8970   34.2240  -22.5160 O   0  0  0  0  0  0  0  0  0  0  0  0
   22.1610   36.3700  -23.1680 N   0  0  0  0  0  0  0  0  0  0  0  0
   20.7580   36.7240  -23.0270 C   0  0  2  0  0  0  0  0  0  0  0  0
   20.0800   37.0380  -24.3630 C   0  0  0  0  0  0  0  0  0  0  0  0
   20.6810   37.6360  -25.2590 O   0  0  0  0  0  0  0  0  0  0  0  0
   20.5990   37.9450  -22.0990 C   0  0  0  0  0  0  0  0  0  0  0  0
   21.1820   37.6330  -20.7250 C   0  0  0  0  0  0  0  0  0  0  0  0
   21.3120   39.1490  -22.6950 C   0  0  0  0  0  0  0  0  0  0  0  0
   18.8250   36.6160  -24.4860 N   0  0  0  0  0  0  0  0  0  0  0  0
   18.0310   36.8650  -25.6850 C   0  0  2  0  0  0  0  0  0  0  0  0
   18.6330   36.2980  -26.9650 C   0  0  0  0  0  0  0  0  0  0  0  0
   18.4700   36.8880  -28.0300 O   0  0  0  0  0  0  0  0  0  0  0  0
   17.8270   38.3710  -25.8710 C   0  0  0  0  0  0  0  0  0  0  0  0
   17.4400   39.1240  -24.6110 C   0  0  0  0  0  0  0  0  0  0  0  0
   17.3120   40.6210  -24.8480 C   0  0  0  0  0  0  0  0  0  0  0  0
   18.2600   41.2270  -25.4030 O   0  0  0  0  0  0  0  0  0  0  0  0
   16.2650   41.1930  -24.4750 O   0  0  0  0  0  0  0  0  0  0  0  0
   19.3250   35.1660  -26.8730 N   0  0  0  0  0  0  0  0  0  0  0  0
   19.9260   34.5600  -28.0590 C   0  0  2  0  0  0  0  0  0  0  0  0
   19.5490   33.0910  -28.2250 C   0  0  0  0  0  0  0  0  0  0  0  0
   19.3480   32.6190  -29.3460 O   0  0  0  0  0  0  0  0  0  0  0  0
   21.4510   34.7160  -28.0290 C   0  0  0  0  0  0  0  0  0  0  0  0
   21.9090   36.1270  -28.3560 C   0  0  0  0  0  0  0  0  0  0  0  0
   23.4190   36.2790  -28.3950 C   0  0  0  0  0  0  0  0  0  0  0  0
   24.1110   35.3220  -28.7930 O   0  0  0  0  0  0  0  0  0  0  0  0
   23.9130   37.3690  -28.0470 O   0  0  0  0  0  0  0  0  0  0  0  0
   19.4480   32.3680  -27.1140 N   0  0  0  0  0  0  0  0  0  0  0  0
   19.0700   30.9610  -27.1680 C   0  0  2  0  0  0  0  0  0  0  0  0
   17.5550   30.8650  -27.3120 C   0  0  0  0  0  0  0  0  0  0  0  0
   16.8090   31.3370  -26.4530 O   0  0  0  0  0  0  0  0  0  0  0  0
   19.4870   30.2050  -25.8850 C   0  0  0  0  0  0  0  0  0  0  0  0
   18.9310   28.7850  -25.9160 C   0  0  0  0  0  0  0  0  0  0  0  0
   21.0060   30.1780  -25.7700 C   0  0  0  0  0  0  0  0  0  0  0  0
   17.1050   30.2490  -28.3990 N   0  0  0  0  0  0  0  0  0  0  0  0
   15.6780   30.1060  -28.6410 C   0  0  0  0  0  0  0  0  0  0  0  0
   24.5567   35.8803  -23.4045 H   0  0  0  0  0  0  0  0  0  0  0  0
   24.2926   34.2014  -23.8101 H   0  0  0  0  0  0  0  0  0  0  0  0
   24.5582   34.6671  -22.1471 H   0  0  0  0  0  0  0  0  0  0  0  0
   22.7950   37.0558  -23.4794 H   0  0  0  0  0  0  0  0  0  0  0  0
   20.2797   35.8639  -22.6071 H   0  0  0  0  0  0  0  0  0  0  0  0
   19.5575   38.1686  -21.9979 H   0  0  0  0  0  0  0  0  0  0  0  0
   22.2237   37.4088  -20.8221 H   0  0  0  0  0  0  0  0  0  0  0  0
   20.6735   36.7906  -20.3047 H   0  0  0  0  0  0  0  0  0  0  0  0
   21.0579   38.4807  -20.0840 H   0  0  0  0  0  0  0  0  0  0  0  0
   22.3544   38.9310  -22.7985 H   0  0  0  0  0  0  0  0  0  0  0  0
   21.1865   39.9933  -22.0497 H   0  0  0  0  0  0  0  0  0  0  0  0
   20.8967   39.3698  -23.6561 H   0  0  0  0  0  0  0  0  0  0  0  0
   18.4168   36.1177  -23.7415 H   0  0  0  0  0  0  0  0  0  0  0  0
   17.1030   36.3572  -25.5239 H   0  0  0  0  0  0  0  0  0  0  0  0
   17.0525   38.5146  -26.5951 H   0  0  0  0  0  0  0  0  0  0  0  0
   18.7727   38.7662  -26.1783 H   0  0  0  0  0  0  0  0  0  0  0  0
   18.1899   38.9566  -23.8664 H   0  0  0  0  0  0  0  0  0  0  0  0
   16.4850   38.7606  -24.2934 H   0  0  0  0  0  0  0  0  0  0  0  0
   19.4335   34.7316  -25.9962 H   0  0  0  0  0  0  0  0  0  0  0  0
   19.5321   35.0829  -28.9053 H   0  0  0  0  0  0  0  0  0  0  0  0
   21.8007   34.4621  -27.0502 H   0  0  0  0  0  0  0  0  0  0  0  0
   21.8543   34.0666  -28.7777 H   0  0  0  0  0  0  0  0  0  0  0  0
   21.5164   36.3972  -29.3140 H   0  0  0  0  0  0  0  0  0  0  0  0
   21.5483   36.7641  -27.5757 H   0  0  0  0  0  0  0  0  0  0  0  0
   19.6310   32.7885  -26.2428 H   0  0  0  0  0  0  0  0  0  0  0  0
   19.5714   30.5150  -28.0014 H   0  0  0  0  0  0  0  0  0  0  0  0
   19.0872   30.7117  -25.0316 H   0  0  0  0  0  0  0  0  0  0  0  0
   19.3235   28.2667  -26.7658 H   0  0  0  0  0  0  0  0  0  0  0  0
   17.8637   28.8212  -25.9821 H   0  0  0  0  0  0  0  0  0  0  0  0
   19.2158   28.2709  -25.0219 H   0  0  0  0  0  0  0  0  0  0  0  0
   21.4190   29.6734  -26.6183 H   0  0  0  0  0  0  0  0  0  0  0  0
   21.2869   29.6614  -24.8761 H   0  0  0  0  0  0  0  0  0  0  0  0
   21.3789   31.1803  -25.7348 H   0  0  0  0  0  0  0  0  0  0  0  0
   17.7466   29.8839  -29.0504 H   0  0  0  0  0  0  0  0  0  0  0  0
   15.1331   30.5571  -27.8382 H   0  0  0  0  0  0  0  0  0  0  0  0
   15.4289   29.0672  -28.7017 H   0  0  0  0  0  0  0  0  0  0  0  0
   15.4222   30.5885  -29.5611 H   0  0  0  0  0  0  0  0  0  0  0  0
  1  2  1  0  0  0  0
  1 38  1  0  0  0  0
  1 39  1  0  0  0  0
  1 40  1  0  0  0  0
  2  3  2  0  0  0  0
  4  5  1  0  0  0  0
  4  2  1  0  0  0  0
  4 41  1  0  0  0  0
  5  8  1  0  0  0  0
  5 42  1  1  0  0  0
  6  5  1  0  0  0  0
  7  6  2  0  0  0  0
  8  9  1  0  0  0  0
  8 43  1  0  0  0  0
  9 44  1  0  0  0  0
  9 45  1  0  0  0  0
  9 46  1  0  0  0  0
 10  8  1  0  0  0  0
 10 47  1  0  0  0  0
 10 48  1  0  0  0  0
 10 49  1  0  0  0  0
 11  6  1  0  0  0  0
 11 50  1  0  0  0  0
 12 11  1  0  0  0  0
 12 51  1  1  0  0  0
 13 20  1  0  0  0  0
 13 12  1  0  0  0  0
 14 13  2  0  0  0  0
 15 12  1  0  0  0  0
 15 16  1  0  0  0  0
 15 52  1  0  0  0  0
 15 53  1  0  0  0  0
 16 54  1  0  0  0  0
 16 55  1  0  0  0  0
 17 16  1  0  0  0  0
 17 19  1  0  0  0  0
 18 17  2  0  0  0  0
 20 56  1  0  0  0  0
 21 24  1  0  0  0  0
 21 20  1  0  0  0  0
 21 57  1  6  0  0  0
 22 21  1  0  0  0  0
 22 29  1  0  0  0  0
 23 22  2  0  0  0  0
 24 58  1  0  0  0  0
 24 59  1  0  0  0  0
 25 24  1  0  0  0  0
 25 60  1  0  0  0  0
 25 61  1  0  0  0  0
 26 25  1  0  0  0  0
 26 28  1  0  0  0  0
 27 26  2  0  0  0  0
 29 62  1  0  0  0  0
 30 29  1  0  0  0  0
 30 33  1  0  0  0  0
 30 63  1  6  0  0  0
 31 30  1  0  0  0  0
 31 32  2  0  0  0  0
 33 35  1  0  0  0  0
 33 64  1  0  0  0  0
 34 33  1  0  0  0  0
 34 65  1  0  0  0  0
 34 66  1  0  0  0  0
 34 67  1  0  0  0  0
 35 68  1  0  0  0  0
 35 69  1  0  0  0  0
 35 70  1  0  0  0  0
 36 31  1  0  0  0  0
 36 71  1  0  0  0  0
 37 36  1  0  0  0  0
 37 72  1  0  0  0  0
 37 73  1  0  0  0  0
 37 74  1  0  0  0  0
M  CHG  1  19  -1
M  CHG  1  28  -1
M  END
>  <MODEL>
       0

$$$$
selected_4mers/VEEV/893_noH.pdb
 OpenBabel03042518353D

 74 73  0  0  1  0  0  0  0  0999 V2000
   31.8410   -1.0640   -6.3530 C   0  0  0  0  0  0  0  0  0  0  0  0
   32.6240   -0.0660   -5.5080 C   0  0  0  0  0  0  0  0  0  0  0  0
   32.1070    1.0140   -5.1690 O   0  0  0  0  0  0  0  0  0  0  0  0
   33.8640   -0.4100   -5.1730 N   0  0  0  0  0  0  0  0  0  0  0  0
   34.6250    0.4120   -4.2180 C   0  0  2  0  0  0  0  0  0  0  0  0
   34.7910    1.8580   -4.7150 C   0  0  0  0  0  0  0  0  0  0  0  0
   34.8880    2.7460   -3.9180 O   0  0  0  0  0  0  0  0  0  0  0  0
   35.9990   -0.2450   -3.8510 C   0  0  0  0  0  0  0  0  0  0  0  0
   36.8800   -0.3240   -5.0680 C   0  0  0  0  0  0  0  0  0  0  0  0
   36.6730    0.4340   -2.6710 C   0  0  0  0  0  0  0  0  0  0  0  0
   34.8020    2.0680   -6.0240 N   0  0  0  0  0  0  0  0  0  0  0  0
   34.9670    3.4120   -6.6100 C   0  0  2  0  0  0  0  0  0  0  0  0
   33.8260    4.3700   -6.2310 C   0  0  0  0  0  0  0  0  0  0  0  0
   33.9810    5.5980   -6.3170 O   0  0  0  0  0  0  0  0  0  0  0  0
   35.0870    3.3300   -8.1400 C   0  0  0  0  0  0  0  0  0  0  0  0
   36.3330    2.5770   -8.6410 C   0  0  0  0  0  0  0  0  0  0  0  0
   36.1890    1.0440   -8.6010 C   0  0  0  0  0  0  0  0  0  0  0  0
   35.0500    0.5170   -8.4560 O   0  0  0  0  0  0  0  0  0  0  0  0
   37.2510    0.3690   -8.6910 O   0  0  0  0  0  0  0  0  0  0  0  0
   32.6900    3.8010   -5.8150 N   0  0  0  0  0  0  0  0  0  0  0  0
   31.5200    4.5940   -5.4460 C   0  0  2  0  0  0  0  0  0  0  0  0
   31.5590    5.0480   -3.9940 C   0  0  0  0  0  0  0  0  0  0  0  0
   30.7000    5.8260   -3.5880 O   0  0  0  0  0  0  0  0  0  0  0  0
   30.2150    3.8140   -5.7140 C   0  0  0  0  0  0  0  0  0  0  0  0
   29.9800    3.6220   -7.1820 C   0  0  0  0  0  0  0  0  0  0  0  0
   28.6610    2.9200   -7.5110 C   0  0  0  0  0  0  0  0  0  0  0  0
   27.7690    2.8570   -6.6440 O   0  0  0  0  0  0  0  0  0  0  0  0
   28.5440    2.4480   -8.6470 O   0  0  0  0  0  0  0  0  0  0  0  0
   32.5210    4.5390   -3.2040 N   0  0  0  0  0  0  0  0  0  0  0  0
   32.6230    4.9490   -1.7950 C   0  0  2  0  0  0  0  0  0  0  0  0
   33.1900    6.3760   -1.7520 C   0  0  0  0  0  0  0  0  0  0  0  0
   34.2000    6.6640   -2.4100 O   0  0  0  0  0  0  0  0  0  0  0  0
   33.5420    4.0170   -0.9360 C   0  0  0  0  0  0  0  0  0  0  0  0
   33.6330    4.5410    0.5140 C   0  0  0  0  0  0  0  0  0  0  0  0
   33.0620    2.5710   -0.9750 C   0  0  0  0  0  0  0  0  0  0  0  0
   32.5490    7.2340   -0.9670 N   0  0  0  0  0  0  0  0  0  0  0  0
   33.0060    8.6320   -0.8040 C   0  0  0  0  0  0  0  0  0  0  0  0
   32.4475   -1.9251   -6.5413 H   0  0  0  0  0  0  0  0  0  0  0  0
   31.5695   -0.6087   -7.2825 H   0  0  0  0  0  0  0  0  0  0  0  0
   30.9562   -1.3588   -5.8284 H   0  0  0  0  0  0  0  0  0  0  0  0
   34.2735   -1.2153   -5.5641 H   0  0  0  0  0  0  0  0  0  0  0  0
   34.0523    0.4580   -3.3153 H   0  0  0  0  0  0  0  0  0  0  0  0
   35.8118   -1.2462   -3.5233 H   0  0  0  0  0  0  0  0  0  0  0  0
   37.0874    0.6639   -5.4229 H   0  0  0  0  0  0  0  0  0  0  0  0
   36.3814   -0.8807   -5.8337 H   0  0  0  0  0  0  0  0  0  0  0  0
   37.7978   -0.8114   -4.8129 H   0  0  0  0  0  0  0  0  0  0  0  0
   36.8945    1.4500   -2.9230 H   0  0  0  0  0  0  0  0  0  0  0  0
   37.5807   -0.0807   -2.4341 H   0  0  0  0  0  0  0  0  0  0  0  0
   36.0186    0.4109   -1.8248 H   0  0  0  0  0  0  0  0  0  0  0  0
   34.6960    1.2978   -6.6280 H   0  0  0  0  0  0  0  0  0  0  0  0
   35.8717    3.8097   -6.1998 H   0  0  0  0  0  0  0  0  0  0  0  0
   34.2196    2.8299   -8.5174 H   0  0  0  0  0  0  0  0  0  0  0  0
   35.1755    4.3360   -8.4936 H   0  0  0  0  0  0  0  0  0  0  0  0
   36.5220    2.8721   -9.6520 H   0  0  0  0  0  0  0  0  0  0  0  0
   37.1375    2.8323   -7.9834 H   0  0  0  0  0  0  0  0  0  0  0  0
   32.6406    2.8195   -5.7557 H   0  0  0  0  0  0  0  0  0  0  0  0
   31.5419    5.4687   -6.0619 H   0  0  0  0  0  0  0  0  0  0  0  0
   30.2807    2.8549   -5.2443 H   0  0  0  0  0  0  0  0  0  0  0  0
   29.3987    4.3791   -5.3149 H   0  0  0  0  0  0  0  0  0  0  0  0
   29.9763    4.5835   -7.6514 H   0  0  0  0  0  0  0  0  0  0  0  0
   30.7660    2.9922   -7.5431 H   0  0  0  0  0  0  0  0  0  0  0  0
   33.1613    3.8875   -3.5712 H   0  0  0  0  0  0  0  0  0  0  0  0
   31.6416    4.8882   -1.3731 H   0  0  0  0  0  0  0  0  0  0  0  0
   34.5240    4.0335   -1.3607 H   0  0  0  0  0  0  0  0  0  0  0  0
   32.6595    4.5327    0.9580 H   0  0  0  0  0  0  0  0  0  0  0  0
   34.0141    5.5408    0.5087 H   0  0  0  0  0  0  0  0  0  0  0  0
   34.2885    3.9125    1.0799 H   0  0  0  0  0  0  0  0  0  0  0  0
   32.0787    2.5102   -0.5574 H   0  0  0  0  0  0  0  0  0  0  0  0
   33.7296    1.9581   -0.4062 H   0  0  0  0  0  0  0  0  0  0  0  0
   33.0406    2.2295   -1.9888 H   0  0  0  0  0  0  0  0  0  0  0  0
   31.7482    6.9319   -0.4804 H   0  0  0  0  0  0  0  0  0  0  0  0
   33.8818    8.7924   -1.3974 H   0  0  0  0  0  0  0  0  0  0  0  0
   33.2341    8.8150    0.2253 H   0  0  0  0  0  0  0  0  0  0  0  0
   32.2325    9.2995   -1.1221 H   0  0  0  0  0  0  0  0  0  0  0  0
  1  2  1  0  0  0  0
  1 38  1  0  0  0  0
  1 39  1  0  0  0  0
  1 40  1  0  0  0  0
  2  4  1  0  0  0  0
  2  3  2  0  0  0  0
  4  5  1  0  0  0  0
  4 41  1  0  0  0  0
  5  8  1  0  0  0  0
  5 42  1  1  0  0  0
  6  5  1  0  0  0  0
  6  7  2  0  0  0  0
  8 10  1  0  0  0  0
  8 43  1  0  0  0  0
  9  8  1  0  0  0  0
  9 44  1  0  0  0  0
  9 45  1  0  0  0  0
  9 46  1  0  0  0  0
 10 47  1  0  0  0  0
 10 48  1  0  0  0  0
 10 49  1  0  0  0  0
 11  6  1  0  0  0  0
 11 50  1  0  0  0  0
 12 13  1  0  0  0  0
 12 11  1  0  0  0  0
 12 51  1  1  0  0  0
 13 20  1  0  0  0  0
 14 13  2  0  0  0  0
 15 12  1  0  0  0  0
 15 52  1  0  0  0  0
 15 53  1  0  0  0  0
 16 17  1  0  0  0  0
 16 15  1  0  0  0  0
 16 54  1  0  0  0  0
 16 55  1  0  0  0  0
 17 18  1  0  0  0  0
 19 17  2  0  0  0  0
 20 21  1  0  0  0  0
 20 56  1  0  0  0  0
 21 22  1  0  0  0  0
 21 57  1  6  0  0  0
 22 23  2  0  0  0  0
 22 29  1  0  0  0  0
 24 21  1  0  0  0  0
 24 58  1  0  0  0  0
 24 59  1  0  0  0  0
 25 24  1  0  0  0  0
 25 60  1  0  0  0  0
 25 61  1  0  0  0  0
 26 25  1  0  0  0  0
 26 27  1  0  0  0  0
 28 26  2  0  0  0  0
 29 30  1  0  0  0  0
 29 62  1  0  0  0  0
 30 31  1  0  0  0  0
 30 33  1  0  0  0  0
 30 63  1  1  0  0  0
 31 36  1  0  0  0  0
 32 31  2  0  0  0  0
 33 34  1  0  0  0  0
 33 64  1  0  0  0  0
 34 65  1  0  0  0  0
 34 66  1  0  0  0  0
 34 67  1  0  0  0  0
 35 33  1  0  0  0  0
 35 68  1  0  0  0  0
 35 69  1  0  0  0  0
 35 70  1  0  0  0  0
 36 37  1  0  0  0  0
 36 71  1  0  0  0  0
 37 72  1  0  0  0  0
 37 73  1  0  0  0  0
 37 74  1  0  0  0  0
M  CHG  1  18  -1
M  CHG  1  27  -1
M  END
>  <MODEL>
       0

$$$$
selected_4mers/VEEV/894_noH.pdb
 OpenBabel03042518353D

 74 73  0  0  1  0  0  0  0  0999 V2000
  -25.8100   26.9430   87.1070 C   0  0  0  0  0  0  0  0  0  0  0  0
  -24.8890   26.8760   85.8840 C   0  0  0  0  0  0  0  0  0  0  0  0
  -25.0940   27.6000   84.8660 O   0  0  0  0  0  0  0  0  0  0  0  0
  -23.8620   26.0460   85.9600 N   0  0  0  0  0  0  0  0  0  0  0  0
  -22.9510   25.9350   84.8120 C   0  0  2  0  0  0  0  0  0  0  0  0
  -23.6300   25.5870   83.4780 C   0  0  0  0  0  0  0  0  0  0  0  0
  -23.3360   26.2320   82.4450 O   0  0  0  0  0  0  0  0  0  0  0  0
  -21.7600   25.0180   85.1560 C   0  0  0  0  0  0  0  0  0  0  0  0
  -20.8720   24.8270   83.9080 C   0  0  0  0  0  0  0  0  0  0  0  0
  -20.9420   25.6390   86.2620 C   0  0  0  0  0  0  0  0  0  0  0  0
  -24.5630   24.6390   83.4820 N   0  0  0  0  0  0  0  0  0  0  0  0
  -25.2680   24.2910   82.2300 C   0  0  2  0  0  0  0  0  0  0  0  0
  -25.9480   25.5170   81.6450 C   0  0  0  0  0  0  0  0  0  0  0  0
  -25.8880   25.7480   80.4450 O   0  0  0  0  0  0  0  0  0  0  0  0
  -26.2870   23.1730   82.4700 C   0  0  0  0  0  0  0  0  0  0  0  0
  -25.6840   21.9070   83.0010 C   0  0  0  0  0  0  0  0  0  0  0  0
  -26.7020   20.9320   83.5560 C   0  0  0  0  0  0  0  0  0  0  0  0
  -27.2400   20.1130   82.7600 O   0  0  0  0  0  0  0  0  0  0  0  0
  -26.9290   20.9440   84.7850 O   0  0  0  0  0  0  0  0  0  0  0  0
  -26.6030   26.3170   82.4810 N   0  0  0  0  0  0  0  0  0  0  0  0
  -27.2860   27.5310   82.0020 C   0  0  2  0  0  0  0  0  0  0  0  0
  -26.3210   28.5750   81.4620 C   0  0  0  0  0  0  0  0  0  0  0  0
  -26.5530   29.1910   80.4200 O   0  0  0  0  0  0  0  0  0  0  0  0
  -28.1460   28.1070   83.1320 C   0  0  0  0  0  0  0  0  0  0  0  0
  -29.3020   27.1670   83.4770 C   0  0  0  0  0  0  0  0  0  0  0  0
  -30.0370   27.5520   84.7720 C   0  0  0  0  0  0  0  0  0  0  0  0
  -29.4260   27.6220   85.8730 O   0  0  0  0  0  0  0  0  0  0  0  0
  -31.2660   27.7420   84.6910 O   0  0  0  0  0  0  0  0  0  0  0  0
  -25.2190   28.7590   82.1660 N   0  0  0  0  0  0  0  0  0  0  0  0
  -24.2510   29.7340   81.7550 C   0  0  2  0  0  0  0  0  0  0  0  0
  -23.5840   29.3260   80.4430 C   0  0  0  0  0  0  0  0  0  0  0  0
  -23.3360   30.1870   79.6120 O   0  0  0  0  0  0  0  0  0  0  0  0
  -23.1630   29.9420   82.8420 C   0  0  0  0  0  0  0  0  0  0  0  0
  -22.0740   30.8670   82.3140 C   0  0  0  0  0  0  0  0  0  0  0  0
  -23.7750   30.5120   84.1220 C   0  0  0  0  0  0  0  0  0  0  0  0
  -23.3050   28.0350   80.2660 N   0  0  0  0  0  0  0  0  0  0  0  0
  -22.7500   27.5330   79.0000 C   0  0  0  0  0  0  0  0  0  0  0  0
  -26.5966   27.6447   86.9231 H   0  0  0  0  0  0  0  0  0  0  0  0
  -25.2463   27.2549   87.9613 H   0  0  0  0  0  0  0  0  0  0  0  0
  -26.2301   25.9762   87.2905 H   0  0  0  0  0  0  0  0  0  0  0  0
  -23.7102   25.5111   86.7725 H   0  0  0  0  0  0  0  0  0  0  0  0
  -22.5695   26.9184   84.6325 H   0  0  0  0  0  0  0  0  0  0  0  0
  -22.1315   24.0676   85.4779 H   0  0  0  0  0  0  0  0  0  0  0  0
  -20.5004   25.7773   83.5859 H   0  0  0  0  0  0  0  0  0  0  0  0
  -21.4499   24.3854   83.1232 H   0  0  0  0  0  0  0  0  0  0  0  0
  -20.0501   24.1859   84.1498 H   0  0  0  0  0  0  0  0  0  0  0  0
  -20.5705   26.5894   85.9403 H   0  0  0  0  0  0  0  0  0  0  0  0
  -20.1200   24.9971   86.5012 H   0  0  0  0  0  0  0  0  0  0  0  0
  -21.5556   25.7707   87.1286 H   0  0  0  0  0  0  0  0  0  0  0  0
  -24.7840   24.1692   84.3185 H   0  0  0  0  0  0  0  0  0  0  0  0
  -24.5444   23.9355   81.5264 H   0  0  0  0  0  0  0  0  0  0  0  0
  -26.7706   22.9525   81.5413 H   0  0  0  0  0  0  0  0  0  0  0  0
  -26.9695   23.5283   83.2135 H   0  0  0  0  0  0  0  0  0  0  0  0
  -24.9991   22.1613   83.7827 H   0  0  0  0  0  0  0  0  0  0  0  0
  -25.2030   21.4212   82.1779 H   0  0  0  0  0  0  0  0  0  0  0  0
  -26.6321   26.0935   83.4393 H   0  0  0  0  0  0  0  0  0  0  0  0
  -27.9108   27.2538   81.1788 H   0  0  0  0  0  0  0  0  0  0  0  0
  -28.5435   29.0510   82.8224 H   0  0  0  0  0  0  0  0  0  0  0  0
  -27.5322   28.2244   84.0006 H   0  0  0  0  0  0  0  0  0  0  0  0
  -28.9120   26.1770   83.5899 H   0  0  0  0  0  0  0  0  0  0  0  0
  -30.0120   27.2336   82.6792 H   0  0  0  0  0  0  0  0  0  0  0  0
  -25.0611   28.2240   82.9773 H   0  0  0  0  0  0  0  0  0  0  0  0
  -24.7754   30.6553   81.6100 H   0  0  0  0  0  0  0  0  0  0  0  0
  -22.7294   28.9926   83.0775 H   0  0  0  0  0  0  0  0  0  0  0  0
  -22.4996   31.8194   82.0759 H   0  0  0  0  0  0  0  0  0  0  0  0
  -21.6394   30.4405   81.4342 H   0  0  0  0  0  0  0  0  0  0  0  0
  -21.3181   30.9909   83.0611 H   0  0  0  0  0  0  0  0  0  0  0  0
  -24.2165   31.4640   83.9130 H   0  0  0  0  0  0  0  0  0  0  0  0
  -23.0107   30.6280   84.8618 H   0  0  0  0  0  0  0  0  0  0  0  0
  -24.5260   29.8429   84.4869 H   0  0  0  0  0  0  0  0  0  0  0  0
  -23.4745   27.4019   81.0006 H   0  0  0  0  0  0  0  0  0  0  0  0
  -22.6291   28.3469   78.3160 H   0  0  0  0  0  0  0  0  0  0  0  0
  -23.4175   26.8100   78.5797 H   0  0  0  0  0  0  0  0  0  0  0  0
  -21.7996   27.0769   79.1832 H   0  0  0  0  0  0  0  0  0  0  0  0
  1 38  1  0  0  0  0
  1 39  1  0  0  0  0
  1 40  1  0  0  0  0
  2  4  1  0  0  0  0
  2  1  1  0  0  0  0
  3  2  2  0  0  0  0
  4 41  1  0  0  0  0
  5  8  1  0  0  0  0
  5  4  1  0  0  0  0
  5 42  1  6  0  0  0
  6 11  1  0  0  0  0
  6  5  1  0  0  0  0
  7  6  2  0  0  0  0
  8 10  1  0  0  0  0
  8 43  1  0  0  0  0
  9  8  1  0  0  0  0
  9 44  1  0  0  0  0
  9 45  1  0  0  0  0
  9 46  1  0  0  0  0
 10 47  1  0  0  0  0
 10 48  1  0  0  0  0
 10 49  1  0  0  0  0
 11 50  1  0  0  0  0
 12 15  1  0  0  0  0
 12 11  1  0  0  0  0
 12 51  1  6  0  0  0
 13 12  1  0  0  0  0
 13 20  1  0  0  0  0
 14 13  2  0  0  0  0
 15 16  1  0  0  0  0
 15 52  1  0  0  0  0
 15 53  1  0  0  0  0
 16 17  1  0  0  0  0
 16 54  1  0  0  0  0
 16 55  1  0  0  0  0
 17 19  1  0  0  0  0
 18 17  2  0  0  0  0
 20 56  1  0  0  0  0
 21 20  1  0  0  0  0
 21 24  1  0  0  0  0
 21 57  1  6  0  0  0
 22 21  1  0  0  0  0
 22 29  1  0  0  0  0
 23 22  2  0  0  0  0
 24 25  1  0  0  0  0
 24 58  1  0  0  0  0
 24 59  1  0  0  0  0
 25 26  1  0  0  0  0
 25 60  1  0  0  0  0
 25 61  1  0  0  0  0
 26 27  1  0  0  0  0
 28 26  2  0  0  0  0
 29 62  1  0  0  0  0
 30 29  1  0  0  0  0
 30 33  1  0  0  0  0
 30 63  1  6  0  0  0
 31 30  1  0  0  0  0
 32 31  2  0  0  0  0
 33 35  1  0  0  0  0
 33 64  1  0  0  0  0
 34 33  1  0  0  0  0
 34 65  1  0  0  0  0
 34 66  1  0  0  0  0
 34 67  1  0  0  0  0
 35 68  1  0  0  0  0
 35 69  1  0  0  0  0
 35 70  1  0  0  0  0
 36 31  1  0  0  0  0
 36 71  1  0  0  0  0
 37 36  1  0  0  0  0
 37 72  1  0  0  0  0
 37 73  1  0  0  0  0
 37 74  1  0  0  0  0
M  CHG  1  19  -1
M  CHG  1  27  -1
M  END
>  <MODEL>
       0

$$$$
