selected_4mers/VEGL/895_noH.pdb
 OpenBabel03042518353D

 69 68  0  0  1  0  0  0  0  0999 V2000
   11.6850  -15.1370    4.6970 C   0  0  0  0  0  0  0  0  0  0  0  0
   11.3970  -16.3770    5.5350 C   0  0  0  0  0  0  0  0  0  0  0  0
   11.4130  -17.4930    5.0130 O   0  0  0  0  0  0  0  0  0  0  0  0
   11.1180  -16.1830    6.8210 N   0  0  0  0  0  0  0  0  0  0  0  0
   10.8730  -17.3010    7.7260 C   0  0  2  0  0  0  0  0  0  0  0  0
    9.4030  -17.6270    7.9700 C   0  0  0  0  0  0  0  0  0  0  0  0
    9.0070  -18.7900    7.9070 O   0  0  0  0  0  0  0  0  0  0  0  0
   11.5390  -17.0570    9.1060 C   0  0  0  0  0  0  0  0  0  0  0  0
   11.3290  -18.2670   10.0130 C   0  0  0  0  0  0  0  0  0  0  0  0
   13.0220  -16.7820    8.9310 C   0  0  0  0  0  0  0  0  0  0  0  0
    8.5930  -16.6100    8.2400 N   0  0  0  0  0  0  0  0  0  0  0  0
    7.1790  -16.8370    8.5310 C   0  0  2  0  0  0  0  0  0  0  0  0
    6.1840  -16.2270    7.5420 C   0  0  0  0  0  0  0  0  0  0  0  0
    4.9750  -16.4350    7.6650 O   0  0  0  0  0  0  0  0  0  0  0  0
    6.8690  -16.3220    9.9360 C   0  0  0  0  0  0  0  0  0  0  0  0
    7.8490  -16.8070   10.9830 C   0  0  0  0  0  0  0  0  0  0  0  0
    7.5480  -16.2610   12.3610 C   0  0  0  0  0  0  0  0  0  0  0  0
    6.9140  -15.1860   12.4520 O   0  0  0  0  0  0  0  0  0  0  0  0
    7.9580  -16.8980   13.3560 O   0  0  0  0  0  0  0  0  0  0  0  0
    6.6810  -15.4780    6.5660 N   0  0  0  0  0  0  0  0  0  0  0  0
    5.7880  -14.8680    5.5980 C   0  0  0  0  0  0  0  0  0  0  0  0
    5.4840  -13.4180    5.9170 C   0  0  0  0  0  0  0  0  0  0  0  0
    5.7550  -12.9440    7.0210 O   0  0  0  0  0  0  0  0  0  0  0  0
    4.8920  -12.7210    4.9570 N   0  0  0  0  0  0  0  0  0  0  0  0
    4.5780  -11.3060    5.1070 C   0  0  2  0  0  0  0  0  0  0  0  0
    3.6090  -10.9470    6.2320 C   0  0  0  0  0  0  0  0  0  0  0  0
    3.8960  -10.0620    7.0370 O   0  0  0  0  0  0  0  0  0  0  0  0
    4.0620  -10.7570    3.7730 C   0  0  0  0  0  0  0  0  0  0  0  0
    3.9230   -9.2380    3.5950 C   0  0  0  0  0  0  0  0  0  0  0  0
    2.7520   -8.7140    4.3950 C   0  0  0  0  0  0  0  0  0  0  0  0
    5.2140   -8.5520    4.0230 C   0  0  0  0  0  0  0  0  0  0  0  0
    2.4610  -11.6120    6.3040 N   0  0  0  0  0  0  0  0  0  0  0  0
    1.5050  -11.2710    7.3530 C   0  0  0  0  0  0  0  0  0  0  0  0
   11.8929  -15.4284    3.6887 H   0  0  0  0  0  0  0  0  0  0  0  0
   12.5314  -14.6220    5.1012 H   0  0  0  0  0  0  0  0  0  0  0  0
   10.8329  -14.4900    4.7128 H   0  0  0  0  0  0  0  0  0  0  0  0
   11.0758  -15.2635    7.1704 H   0  0  0  0  0  0  0  0  0  0  0  0
   11.3055  -18.1385    7.2196 H   0  0  0  0  0  0  0  0  0  0  0  0
   11.0836  -16.2029    9.5622 H   0  0  0  0  0  0  0  0  0  0  0  0
   11.7803  -19.1290    9.5678 H   0  0  0  0  0  0  0  0  0  0  0  0
   10.2807  -18.4392   10.1410 H   0  0  0  0  0  0  0  0  0  0  0  0
   11.7788  -18.0809   10.9658 H   0  0  0  0  0  0  0  0  0  0  0  0
   13.4905  -17.6292    8.4752 H   0  0  0  0  0  0  0  0  0  0  0  0
   13.4663  -16.6003    9.8873 H   0  0  0  0  0  0  0  0  0  0  0  0
   13.1542  -15.9228    8.3072 H   0  0  0  0  0  0  0  0  0  0  0  0
    8.9493  -15.6922    8.2442 H   0  0  0  0  0  0  0  0  0  0  0  0
    7.0433  -17.8947    8.4434 H   0  0  0  0  0  0  0  0  0  0  0  0
    5.8888  -16.6523   10.2099 H   0  0  0  0  0  0  0  0  0  0  0  0
    6.9418  -15.2549    9.9049 H   0  0  0  0  0  0  0  0  0  0  0  0
    8.8335  -16.4979   10.6998 H   0  0  0  0  0  0  0  0  0  0  0  0
    7.7680  -17.8728   11.0327 H   0  0  0  0  0  0  0  0  0  0  0  0
    7.6529  -15.3364    6.4986 H   0  0  0  0  0  0  0  0  0  0  0  0
    6.2448  -14.9176    4.6317 H   0  0  0  0  0  0  0  0  0  0  0  0
    4.8637  -15.4063    5.6262 H   0  0  0  0  0  0  0  0  0  0  0  0
    4.6569  -13.1743    4.1153 H   0  0  0  0  0  0  0  0  0  0  0  0
    5.4995  -10.8454    5.3962 H   0  0  0  0  0  0  0  0  0  0  0  0
    4.7313  -11.1015    3.0126 H   0  0  0  0  0  0  0  0  0  0  0  0
    3.0545  -11.1138    3.7220 H   0  0  0  0  0  0  0  0  0  0  0  0
    3.7407   -9.0237    2.5626 H   0  0  0  0  0  0  0  0  0  0  0  0
    2.9105   -8.9165    5.4336 H   0  0  0  0  0  0  0  0  0  0  0  0
    1.8539   -9.1966    4.0705 H   0  0  0  0  0  0  0  0  0  0  0  0
    2.6629   -7.6580    4.2470 H   0  0  0  0  0  0  0  0  0  0  0  0
    5.4039   -8.7613    5.0550 H   0  0  0  0  0  0  0  0  0  0  0  0
    5.1190   -7.4952    3.8850 H   0  0  0  0  0  0  0  0  0  0  0  0
    6.0259   -8.9177    3.4296 H   0  0  0  0  0  0  0  0  0  0  0  0
    2.2576  -12.3262    5.6576 H   0  0  0  0  0  0  0  0  0  0  0  0
    1.9007  -10.4775    7.9519 H   0  0  0  0  0  0  0  0  0  0  0  0
    1.3295  -12.1287    7.9681 H   0  0  0  0  0  0  0  0  0  0  0  0
    0.5841  -10.9568    6.9079 H   0  0  0  0  0  0  0  0  0  0  0  0
  1  2  1  0  0  0  0
  1 34  1  0  0  0  0
  1 35  1  0  0  0  0
  1 36  1  0  0  0  0
  2  4  1  0  0  0  0
  3  2  2  0  0  0  0
  4  5  1  0  0  0  0
  4 37  1  0  0  0  0
  5  6  1  0  0  0  0
  5  8  1  0  0  0  0
  5 38  1  6  0  0  0
  6 11  1  0  0  0  0
  7  6  2  0  0  0  0
  8  9  1  0  0  0  0
  8 39  1  0  0  0  0
  9 40  1  0  0  0  0
  9 41  1  0  0  0  0
  9 42  1  0  0  0  0
 10  8  1  0  0  0  0
 10 43  1  0  0  0  0
 10 44  1  0  0  0  0
 10 45  1  0  0  0  0
 11 12  1  0  0  0  0
 11 46  1  0  0  0  0
 12 15  1  0  0  0  0
 12 47  1  1  0  0  0
 13 14  2  0  0  0  0
 13 12  1  0  0  0  0
 15 16  1  0  0  0  0
 15 48  1  0  0  0  0
 15 49  1  0  0  0  0
 16 17  1  0  0  0  0
 16 50  1  0  0  0  0
 16 51  1  0  0  0  0
 17 18  2  0  0  0  0
 17 19  1  0  0  0  0
 20 13  1  0  0  0  0
 20 52  1  0  0  0  0
 21 22  1  0  0  0  0
 21 20  1  0  0  0  0
 21 53  1  0  0  0  0
 21 54  1  0  0  0  0
 22 23  2  0  0  0  0
 24 25  1  0  0  0  0
 24 22  1  0  0  0  0
 24 55  1  0  0  0  0
 25 26  1  0  0  0  0
 25 56  1  1  0  0  0
 26 32  1  0  0  0  0
 26 27  2  0  0  0  0
 28 25  1  0  0  0  0
 28 57  1  0  0  0  0
 28 58  1  0  0  0  0
 29 28  1  0  0  0  0
 29 31  1  0  0  0  0
 29 30  1  0  0  0  0
 29 59  1  0  0  0  0
 30 60  1  0  0  0  0
 30 61  1  0  0  0  0
 30 62  1  0  0  0  0
 31 63  1  0  0  0  0
 31 64  1  0  0  0  0
 31 65  1  0  0  0  0
 32 33  1  0  0  0  0
 32 66  1  0  0  0  0
 33 67  1  0  0  0  0
 33 68  1  0  0  0  0
 33 69  1  0  0  0  0
M  CHG  1  19  -1
M  END
>  <MODEL>
       0

$$$$
selected_4mers/VEGL/896_noH.pdb
 OpenBabel03042518353D

 69 68  0  0  1  0  0  0  0  0999 V2000
  -23.3670   45.6960   22.8160 C   0  0  0  0  0  0  0  0  0  0  0  0
  -22.5020   44.8870   21.8610 C   0  0  0  0  0  0  0  0  0  0  0  0
  -21.4290   44.3960   22.2330 O   0  0  0  0  0  0  0  0  0  0  0  0
  -22.9880   44.7430   20.6290 N   0  0  0  0  0  0  0  0  0  0  0  0
  -22.1800   44.1970   19.5540 C   0  0  2  0  0  0  0  0  0  0  0  0
  -21.4480   45.3780   18.9260 C   0  0  0  0  0  0  0  0  0  0  0  0
  -22.0030   46.1010   18.0860 O   0  0  0  0  0  0  0  0  0  0  0  0
  -23.0190   43.4400   18.5120 C   0  0  0  0  0  0  0  0  0  0  0  0
  -22.1020   42.6470   17.5760 C   0  0  0  0  0  0  0  0  0  0  0  0
  -24.0050   42.5040   19.2060 C   0  0  0  0  0  0  0  0  0  0  0  0
  -20.2150   45.5830   19.3890 N   0  0  0  0  0  0  0  0  0  0  0  0
  -19.3710   46.6920   18.9540 C   0  0  2  0  0  0  0  0  0  0  0  0
  -18.8540   46.4440   17.5480 C   0  0  0  0  0  0  0  0  0  0  0  0
  -18.3890   45.3380   17.2330 O   0  0  0  0  0  0  0  0  0  0  0  0
  -18.1790   46.8890   19.9090 C   0  0  0  0  0  0  0  0  0  0  0  0
  -18.5260   47.5270   21.2580 C   0  0  0  0  0  0  0  0  0  0  0  0
  -19.0220   48.9650   21.1340 C   0  0  0  0  0  0  0  0  0  0  0  0
  -18.4950   49.7240   20.2870 O   0  0  0  0  0  0  0  0  0  0  0  0
  -19.9420   49.3370   21.8930 O   0  0  0  0  0  0  0  0  0  0  0  0
  -18.9570   47.4720   16.7160 N   0  0  0  0  0  0  0  0  0  0  0  0
  -18.4350   47.4250   15.3460 C   0  0  0  0  0  0  0  0  0  0  0  0
  -19.3400   46.7910   14.2930 C   0  0  0  0  0  0  0  0  0  0  0  0
  -18.8980   46.5430   13.1720 O   0  0  0  0  0  0  0  0  0  0  0  0
  -20.5970   46.5150   14.6540 N   0  0  0  0  0  0  0  0  0  0  0  0
  -21.5840   45.9870   13.7000 C   0  0  2  0  0  0  0  0  0  0  0  0
  -22.6530   47.0200   13.3900 C   0  0  0  0  0  0  0  0  0  0  0  0
  -23.1970   47.6660   14.2900 O   0  0  0  0  0  0  0  0  0  0  0  0
  -22.2230   44.6950   14.2150 C   0  0  0  0  0  0  0  0  0  0  0  0
  -23.2760   43.9730   13.3540 C   0  0  0  0  0  0  0  0  0  0  0  0
  -22.7020   43.5490   12.0010 C   0  0  0  0  0  0  0  0  0  0  0  0
  -23.8060   42.7660   14.0890 C   0  0  0  0  0  0  0  0  0  0  0  0
  -22.9260   47.1990   12.0960 N   0  0  0  0  0  0  0  0  0  0  0  0
  -24.0290   48.0300   11.6490 C   0  0  0  0  0  0  0  0  0  0  0  0
  -24.2458   46.0302   22.3051 H   0  0  0  0  0  0  0  0  0  0  0  0
  -22.8149   46.5426   23.1671 H   0  0  0  0  0  0  0  0  0  0  0  0
  -23.6487   45.0841   23.6474 H   0  0  0  0  0  0  0  0  0  0  0  0
  -23.9164   45.0131   20.4435 H   0  0  0  0  0  0  0  0  0  0  0  0
  -21.4940   43.4716   19.9387 H   0  0  0  0  0  0  0  0  0  0  0  0
  -23.5728   44.1491   17.9329 H   0  0  0  0  0  0  0  0  0  0  0  0
  -21.5425   41.9339   18.1447 H   0  0  0  0  0  0  0  0  0  0  0  0
  -21.4290   43.3175   17.0836 H   0  0  0  0  0  0  0  0  0  0  0  0
  -22.6938   42.1356   16.8458 H   0  0  0  0  0  0  0  0  0  0  0  0
  -23.4660   41.7877   19.7902 H   0  0  0  0  0  0  0  0  0  0  0  0
  -24.5919   41.9951   18.4702 H   0  0  0  0  0  0  0  0  0  0  0  0
  -24.6483   43.0731   19.8441 H   0  0  0  0  0  0  0  0  0  0  0  0
  -19.8557   44.9556   20.0573 H   0  0  0  0  0  0  0  0  0  0  0  0
  -19.9694   47.5790   18.9628 H   0  0  0  0  0  0  0  0  0  0  0  0
  -17.4627   47.5159   19.4203 H   0  0  0  0  0  0  0  0  0  0  0  0
  -17.8082   45.9097   20.1289 H   0  0  0  0  0  0  0  0  0  0  0  0
  -17.6498   47.5214   21.8721 H   0  0  0  0  0  0  0  0  0  0  0  0
  -19.3209   46.9526   21.6859 H   0  0  0  0  0  0  0  0  0  0  0  0
  -19.3988   48.2944   17.0286 H   0  0  0  0  0  0  0  0  0  0  0  0
  -18.2351   48.4306   15.0398 H   0  0  0  0  0  0  0  0  0  0  0  0
  -17.5718   46.7946   15.3937 H   0  0  0  0  0  0  0  0  0  0  0  0
  -20.8705   46.6699   15.5870 H   0  0  0  0  0  0  0  0  0  0  0  0
  -21.0616   45.7606   12.7941 H   0  0  0  0  0  0  0  0  0  0  0  0
  -21.4272   43.9993   14.3814 H   0  0  0  0  0  0  0  0  0  0  0  0
  -22.7767   45.0138   15.0733 H   0  0  0  0  0  0  0  0  0  0  0  0
  -24.0758   44.6600   13.1714 H   0  0  0  0  0  0  0  0  0  0  0  0
  -21.8981   42.8598   12.1548 H   0  0  0  0  0  0  0  0  0  0  0  0
  -22.3384   44.4111   11.4819 H   0  0  0  0  0  0  0  0  0  0  0  0
  -23.4680   43.0795   11.4199 H   0  0  0  0  0  0  0  0  0  0  0  0
  -23.0057   42.0795   14.2712 H   0  0  0  0  0  0  0  0  0  0  0  0
  -24.5573   42.2885   13.4954 H   0  0  0  0  0  0  0  0  0  0  0  0
  -24.2307   43.0743   15.0215 H   0  0  0  0  0  0  0  0  0  0  0  0
  -22.3616   46.7535   11.4235 H   0  0  0  0  0  0  0  0  0  0  0  0
  -24.5367   48.4363   12.4988 H   0  0  0  0  0  0  0  0  0  0  0  0
  -24.7114   47.4385   11.0750 H   0  0  0  0  0  0  0  0  0  0  0  0
  -23.6520   48.8278   11.0437 H   0  0  0  0  0  0  0  0  0  0  0  0
  1 34  1  0  0  0  0
  1 35  1  0  0  0  0
  1 36  1  0  0  0  0
  2  3  2  0  0  0  0
  2  1  1  0  0  0  0
  4  2  1  0  0  0  0
  4 37  1  0  0  0  0
  5  4  1  0  0  0  0
  5 38  1  1  0  0  0
  6 11  1  0  0  0  0
  6  5  1  0  0  0  0
  7  6  2  0  0  0  0
  8 10  1  0  0  0  0
  8  5  1  0  0  0  0
  8 39  1  0  0  0  0
  9  8  1  0  0  0  0
  9 40  1  0  0  0  0
  9 41  1  0  0  0  0
  9 42  1  0  0  0  0
 10 43  1  0  0  0  0
 10 44  1  0  0  0  0
 10 45  1  0  0  0  0
 11 46  1  0  0  0  0
 12 11  1  0  0  0  0
 12 15  1  0  0  0  0
 12 47  1  6  0  0  0
 13 12  1  0  0  0  0
 14 13  2  0  0  0  0
 15 16  1  0  0  0  0
 15 48  1  0  0  0  0
 15 49  1  0  0  0  0
 16 50  1  0  0  0  0
 16 51  1  0  0  0  0
 17 16  1  0  0  0  0
 17 19  1  0  0  0  0
 18 17  2  0  0  0  0
 20 13  1  0  0  0  0
 20 52  1  0  0  0  0
 21 20  1  0  0  0  0
 21 53  1  0  0  0  0
 21 54  1  0  0  0  0
 22 24  1  0  0  0  0
 22 21  1  0  0  0  0
 23 22  2  0  0  0  0
 24 55  1  0  0  0  0
 25 28  1  0  0  0  0
 25 24  1  0  0  0  0
 25 56  1  6  0  0  0
 26 25  1  0  0  0  0
 26 27  2  0  0  0  0
 28 57  1  0  0  0  0
 28 58  1  0  0  0  0
 29 31  1  0  0  0  0
 29 28  1  0  0  0  0
 29 59  1  0  0  0  0
 30 29  1  0  0  0  0
 30 60  1  0  0  0  0
 30 61  1  0  0  0  0
 30 62  1  0  0  0  0
 31 63  1  0  0  0  0
 31 64  1  0  0  0  0
 31 65  1  0  0  0  0
 32 26  1  0  0  0  0
 32 66  1  0  0  0  0
 33 32  1  0  0  0  0
 33 67  1  0  0  0  0
 33 68  1  0  0  0  0
 33 69  1  0  0  0  0
M  CHG  1  19  -1
M  END
>  <MODEL>
       0

$$$$
selected_4mers/VEGL/897_noH.pdb
 OpenBabel03042518353D

 69 68  0  0  1  0  0  0  0  0999 V2000
   16.3450    4.5970   40.2090 C   0  0  0  0  0  0  0  0  0  0  0  0
   15.1710    3.6480   39.9780 C   0  0  0  0  0  0  0  0  0  0  0  0
   15.3290    2.4280   40.0430 O   0  0  0  0  0  0  0  0  0  0  0  0
   13.9990    4.2100   39.7060 N   0  0  0  0  0  0  0  0  0  0  0  0
   12.8170    3.3880   39.4990 C   0  0  2  0  0  0  0  0  0  0  0  0
   12.9490    2.5120   38.2660 C   0  0  0  0  0  0  0  0  0  0  0  0
   12.5600    1.3500   38.2940 O   0  0  0  0  0  0  0  0  0  0  0  0
   11.5440    4.2560   39.4190 C   0  0  0  0  0  0  0  0  0  0  0  0
   10.3280    3.3910   39.1050 C   0  0  0  0  0  0  0  0  0  0  0  0
   11.3350    4.9610   40.7600 C   0  0  0  0  0  0  0  0  0  0  0  0
   13.5120    3.0620   37.1940 N   0  0  0  0  0  0  0  0  0  0  0  0
   13.6910    2.3060   35.9580 C   0  0  2  0  0  0  0  0  0  0  0  0
   14.6510    1.1420   36.1820 C   0  0  0  0  0  0  0  0  0  0  0  0
   14.4300    0.0370   35.6870 O   0  0  0  0  0  0  0  0  0  0  0  0
   14.2410    3.2120   34.8520 C   0  0  0  0  0  0  0  0  0  0  0  0
   13.3910    4.4400   34.5780 C   0  0  0  0  0  0  0  0  0  0  0  0
   13.9900    5.3530   33.5260 C   0  0  0  0  0  0  0  0  0  0  0  0
   15.2310    5.5110   33.4950 O   0  0  0  0  0  0  0  0  0  0  0  0
   13.2130    5.9280   32.7380 O   0  0  0  0  0  0  0  0  0  0  0  0
   15.7160    1.3980   36.9340 N   0  0  0  0  0  0  0  0  0  0  0  0
   16.6990    0.3650   37.2130 C   0  0  0  0  0  0  0  0  0  0  0  0
   16.0720   -0.7470   38.0350 C   0  0  0  0  0  0  0  0  0  0  0  0
   16.2650   -1.9310   37.7500 O   0  0  0  0  0  0  0  0  0  0  0  0
   15.3130   -0.3690   39.0580 N   0  0  0  0  0  0  0  0  0  0  0  0
   14.6620   -1.3630   39.9040 C   0  0  2  0  0  0  0  0  0  0  0  0
   13.6460   -2.1650   39.0890 C   0  0  0  0  0  0  0  0  0  0  0  0
   13.5100   -3.3750   39.2820 O   0  0  0  0  0  0  0  0  0  0  0  0
   13.9880   -0.6700   41.0910 C   0  0  0  0  0  0  0  0  0  0  0  0
   13.2810   -1.5480   42.1300 C   0  0  0  0  0  0  0  0  0  0  0  0
   14.1740   -2.6960   42.5780 C   0  0  0  0  0  0  0  0  0  0  0  0
   12.9040   -0.6800   43.3230 C   0  0  0  0  0  0  0  0  0  0  0  0
   12.9480   -1.4900   38.1820 N   0  0  0  0  0  0  0  0  0  0  0  0
   11.9580   -2.1410   37.3300 C   0  0  0  0  0  0  0  0  0  0  0  0
   16.0105    5.6086   40.1109 H   0  0  0  0  0  0  0  0  0  0  0  0
   17.1088    4.4022   39.4855 H   0  0  0  0  0  0  0  0  0  0  0  0
   16.7382    4.4451   41.1925 H   0  0  0  0  0  0  0  0  0  0  0  0
   13.9296    5.1901   39.6440 H   0  0  0  0  0  0  0  0  0  0  0  0
   12.7295    2.7410   40.3467 H   0  0  0  0  0  0  0  0  0  0  0  0
   11.6617    4.9783   38.6384 H   0  0  0  0  0  0  0  0  0  0  0  0
   10.1986    2.6633   39.8787 H   0  0  0  0  0  0  0  0  0  0  0  0
   10.4759    2.8940   38.1690 H   0  0  0  0  0  0  0  0  0  0  0  0
    9.4563    4.0088   39.0469 H   0  0  0  0  0  0  0  0  0  0  0  0
   11.2186    4.2302   41.5328 H   0  0  0  0  0  0  0  0  0  0  0  0
   10.4566    5.5700   40.7097 H   0  0  0  0  0  0  0  0  0  0  0  0
   12.1836    5.5761   40.9757 H   0  0  0  0  0  0  0  0  0  0  0  0
   13.8142    3.9981   37.2348 H   0  0  0  0  0  0  0  0  0  0  0  0
   12.7371    1.9246   35.6589 H   0  0  0  0  0  0  0  0  0  0  0  0
   15.2190    3.5373   35.1392 H   0  0  0  0  0  0  0  0  0  0  0  0
   14.2463    2.6329   33.9523 H   0  0  0  0  0  0  0  0  0  0  0  0
   12.4270    4.1193   34.2421 H   0  0  0  0  0  0  0  0  0  0  0  0
   13.3316    4.9977   35.4892 H   0  0  0  0  0  0  0  0  0  0  0  0
   15.8409    2.3003   37.3074 H   0  0  0  0  0  0  0  0  0  0  0  0
   17.5145    0.7913   37.7589 H   0  0  0  0  0  0  0  0  0  0  0  0
   17.0513   -0.0408   36.2877 H   0  0  0  0  0  0  0  0  0  0  0  0
   15.1891    0.5893   39.2464 H   0  0  0  0  0  0  0  0  0  0  0  0
   15.3967   -2.0437   40.2806 H   0  0  0  0  0  0  0  0  0  0  0  0
   13.2576    0.0034   40.6935 H   0  0  0  0  0  0  0  0  0  0  0  0
   14.7942   -0.2161   41.6286 H   0  0  0  0  0  0  0  0  0  0  0  0
   12.4031   -1.9740   41.6911 H   0  0  0  0  0  0  0  0  0  0  0  0
   15.0641   -2.3028   43.0230 H   0  0  0  0  0  0  0  0  0  0  0  0
   14.4338   -3.2970   41.7317 H   0  0  0  0  0  0  0  0  0  0  0  0
   13.6519   -3.2954   43.2943 H   0  0  0  0  0  0  0  0  0  0  0  0
   13.7895   -0.2602   43.7526 H   0  0  0  0  0  0  0  0  0  0  0  0
   12.4015   -1.2778   44.0545 H   0  0  0  0  0  0  0  0  0  0  0  0
   12.2561    0.1080   43.0002 H   0  0  0  0  0  0  0  0  0  0  0  0
   13.1031   -0.5230   38.0819 H   0  0  0  0  0  0  0  0  0  0  0  0
   11.9144   -3.1837   37.5664 H   0  0  0  0  0  0  0  0  0  0  0  0
   12.2353   -2.0192   36.3038 H   0  0  0  0  0  0  0  0  0  0  0  0
   10.9984   -1.6974   37.4952 H   0  0  0  0  0  0  0  0  0  0  0  0
  1 34  1  0  0  0  0
  1 35  1  0  0  0  0
  1 36  1  0  0  0  0
  2  3  2  0  0  0  0
  2  1  1  0  0  0  0
  4  2  1  0  0  0  0
  4 37  1  0  0  0  0
  5  4  1  0  0  0  0
  5 38  1  1  0  0  0
  6  7  2  0  0  0  0
  6  5  1  0  0  0  0
  8  5  1  0  0  0  0
  8 10  1  0  0  0  0
  8 39  1  0  0  0  0
  9  8  1  0  0  0  0
  9 40  1  0  0  0  0
  9 41  1  0  0  0  0
  9 42  1  0  0  0  0
 10 43  1  0  0  0  0
 10 44  1  0  0  0  0
 10 45  1  0  0  0  0
 11  6  1  0  0  0  0
 11 46  1  0  0  0  0
 12 13  1  0  0  0  0
 12 11  1  0  0  0  0
 12 47  1  6  0  0  0
 13 20  1  0  0  0  0
 14 13  2  0  0  0  0
 15 12  1  0  0  0  0
 15 48  1  0  0  0  0
 15 49  1  0  0  0  0
 16 15  1  0  0  0  0
 16 50  1  0  0  0  0
 16 51  1  0  0  0  0
 17 16  1  0  0  0  0
 18 17  1  0  0  0  0
 19 17  2  0  0  0  0
 20 21  1  0  0  0  0
 20 52  1  0  0  0  0
 21 22  1  0  0  0  0
 21 53  1  0  0  0  0
 21 54  1  0  0  0  0
 22 24  1  0  0  0  0
 23 22  2  0  0  0  0
 24 25  1  0  0  0  0
 24 55  1  0  0  0  0
 25 28  1  0  0  0  0
 25 56  1  1  0  0  0
 26 27  2  0  0  0  0
 26 25  1  0  0  0  0
 28 29  1  0  0  0  0
 28 57  1  0  0  0  0
 28 58  1  0  0  0  0
 29 30  1  0  0  0  0
 29 31  1  0  0  0  0
 29 59  1  0  0  0  0
 30 60  1  0  0  0  0
 30 61  1  0  0  0  0
 30 62  1  0  0  0  0
 31 63  1  0  0  0  0
 31 64  1  0  0  0  0
 31 65  1  0  0  0  0
 32 26  1  0  0  0  0
 32 66  1  0  0  0  0
 33 32  1  0  0  0  0
 33 67  1  0  0  0  0
 33 68  1  0  0  0  0
 33 69  1  0  0  0  0
M  CHG  1  18  -1
M  END
>  <MODEL>
       0

$$$$
selected_4mers/VEGL/898_noH.pdb
 OpenBabel03042518353D

 69 68  0  0  1  0  0  0  0  0999 V2000
   41.2990   12.1520   27.1370 C   0  0  0  0  0  0  0  0  0  0  0  0
   40.3240   12.7560   26.1160 C   0  0  0  0  0  0  0  0  0  0  0  0
   40.2060   13.9740   25.9940 O   0  0  0  0  0  0  0  0  0  0  0  0
   39.6090   11.8990   25.3970 N   0  0  0  0  0  0  0  0  0  0  0  0
   38.6630   12.3720   24.3940 C   0  0  2  0  0  0  0  0  0  0  0  0
   37.5030   13.1410   25.0270 C   0  0  0  0  0  0  0  0  0  0  0  0
   36.9800   14.0810   24.4320 O   0  0  0  0  0  0  0  0  0  0  0  0
   38.1350   11.1910   23.5480 C   0  0  0  0  0  0  0  0  0  0  0  0
   37.0480   11.6600   22.5920 C   0  0  0  0  0  0  0  0  0  0  0  0
   39.2890   10.5770   22.7630 C   0  0  0  0  0  0  0  0  0  0  0  0
   37.1150   12.7520   26.2400 N   0  0  0  0  0  0  0  0  0  0  0  0
   36.0300   13.4320   26.9430 C   0  0  2  0  0  0  0  0  0  0  0  0
   36.4010   14.8560   27.3290 C   0  0  0  0  0  0  0  0  0  0  0  0
   35.5420   15.6350   27.7310 O   0  0  0  0  0  0  0  0  0  0  0  0
   35.6310   12.6530   28.1940 C   0  0  0  0  0  0  0  0  0  0  0  0
   34.7760   11.4340   27.9020 C   0  0  0  0  0  0  0  0  0  0  0  0
   34.4970   10.6100   29.1350 C   0  0  0  0  0  0  0  0  0  0  0  0
   34.6730   11.1320   30.2560 O   0  0  0  0  0  0  0  0  0  0  0  0
   34.0900    9.4410   28.9870 O   0  0  0  0  0  0  0  0  0  0  0  0
   37.6820   15.1930   27.2210 N   0  0  0  0  0  0  0  0  0  0  0  0
   38.1010   16.5420   27.5420 C   0  0  0  0  0  0  0  0  0  0  0  0
   37.6760   17.5280   26.4700 C   0  0  0  0  0  0  0  0  0  0  0  0
   37.7200   18.7430   26.6810 O   0  0  0  0  0  0  0  0  0  0  0  0
   37.2740   17.0070   25.3130 N   0  0  0  0  0  0  0  0  0  0  0  0
   36.8280   17.8450   24.2060 C   0  0  2  0  0  0  0  0  0  0  0  0
   35.4700   18.4570   24.5230 C   0  0  0  0  0  0  0  0  0  0  0  0
   34.6570   17.8570   25.2260 O   0  0  0  0  0  0  0  0  0  0  0  0
   36.7260   17.0180   22.9230 C   0  0  0  0  0  0  0  0  0  0  0  0
   38.0590   16.5150   22.3680 C   0  0  0  0  0  0  0  0  0  0  0  0
   37.8130   15.5290   21.2490 C   0  0  0  0  0  0  0  0  0  0  0  0
   38.8860   17.6980   21.8820 C   0  0  0  0  0  0  0  0  0  0  0  0
   35.2070   19.6670   24.0100 N   0  0  0  0  0  0  0  0  0  0  0  0
   33.9210   20.3180   24.2680 C   0  0  0  0  0  0  0  0  0  0  0  0
   41.2522   11.0842   27.0865 H   0  0  0  0  0  0  0  0  0  0  0  0
   41.0300   12.4746   28.1211 H   0  0  0  0  0  0  0  0  0  0  0  0
   42.2942   12.4763   26.9149 H   0  0  0  0  0  0  0  0  0  0  0  0
   39.7192   10.9317   25.5431 H   0  0  0  0  0  0  0  0  0  0  0  0
   39.1854   13.0499   23.7518 H   0  0  0  0  0  0  0  0  0  0  0  0
   37.7135   10.4562   24.2018 H   0  0  0  0  0  0  0  0  0  0  0  0
   37.4502   12.3967   21.9284 H   0  0  0  0  0  0  0  0  0  0  0  0
   36.2410   12.0859   23.1508 H   0  0  0  0  0  0  0  0  0  0  0  0
   36.6884   10.8272   22.0246 H   0  0  0  0  0  0  0  0  0  0  0  0
   39.7083   11.3139   22.1103 H   0  0  0  0  0  0  0  0  0  0  0  0
   38.9281    9.7523   22.1847 H   0  0  0  0  0  0  0  0  0  0  0  0
   40.0404   10.2340   23.4431 H   0  0  0  0  0  0  0  0  0  0  0  0
   37.5680   11.9917   26.6712 H   0  0  0  0  0  0  0  0  0  0  0  0
   35.2017   13.4773   26.2671 H   0  0  0  0  0  0  0  0  0  0  0  0
   35.0804   13.3062   28.8383 H   0  0  0  0  0  0  0  0  0  0  0  0
   36.5345   12.3020   28.6472 H   0  0  0  0  0  0  0  0  0  0  0  0
   35.2861   10.8209   27.1887 H   0  0  0  0  0  0  0  0  0  0  0  0
   33.8364   11.7807   27.5253 H   0  0  0  0  0  0  0  0  0  0  0  0
   38.3442   14.5279   26.9237 H   0  0  0  0  0  0  0  0  0  0  0  0
   37.6603   16.8302   28.4735 H   0  0  0  0  0  0  0  0  0  0  0  0
   39.1691   16.5551   27.6047 H   0  0  0  0  0  0  0  0  0  0  0  0
   37.2779   16.0288   25.2015 H   0  0  0  0  0  0  0  0  0  0  0  0
   37.5439   18.6276   24.0649 H   0  0  0  0  0  0  0  0  0  0  0  0
   36.1089   16.1675   23.1250 H   0  0  0  0  0  0  0  0  0  0  0  0
   36.3208   17.6713   22.1787 H   0  0  0  0  0  0  0  0  0  0  0  0
   38.6037   16.0125   23.1398 H   0  0  0  0  0  0  0  0  0  0  0  0
   37.2683   16.0097   20.4634 H   0  0  0  0  0  0  0  0  0  0  0  0
   37.2463   14.7012   21.6212 H   0  0  0  0  0  0  0  0  0  0  0  0
   38.7502   15.1782   20.8703 H   0  0  0  0  0  0  0  0  0  0  0  0
   38.3538   18.2115   21.1087 H   0  0  0  0  0  0  0  0  0  0  0  0
   39.8208   17.3461   21.4984 H   0  0  0  0  0  0  0  0  0  0  0  0
   39.0643   18.3675   22.6974 H   0  0  0  0  0  0  0  0  0  0  0  0
   35.8827   20.1209   23.4563 H   0  0  0  0  0  0  0  0  0  0  0  0
   33.3172   19.6838   24.8829 H   0  0  0  0  0  0  0  0  0  0  0  0
   33.4195   20.4974   23.3400 H   0  0  0  0  0  0  0  0  0  0  0  0
   34.0866   21.2485   24.7696 H   0  0  0  0  0  0  0  0  0  0  0  0
  1 34  1  0  0  0  0
  1 35  1  0  0  0  0
  1 36  1  0  0  0  0
  2  1  1  0  0  0  0
  3  2  2  0  0  0  0
  4  2  1  0  0  0  0
  4 37  1  0  0  0  0
  5  6  1  0  0  0  0
  5  4  1  0  0  0  0
  5 38  1  6  0  0  0
  6 11  1  0  0  0  0
  7  6  2  0  0  0  0
  8  5  1  0  0  0  0
  8 39  1  0  0  0  0
  9  8  1  0  0  0  0
  9 40  1  0  0  0  0
  9 41  1  0  0  0  0
  9 42  1  0  0  0  0
 10  8  1  0  0  0  0
 10 43  1  0  0  0  0
 10 44  1  0  0  0  0
 10 45  1  0  0  0  0
 11 12  1  0  0  0  0
 11 46  1  0  0  0  0
 12 13  1  0  0  0  0
 12 15  1  0  0  0  0
 12 47  1  6  0  0  0
 13 14  2  0  0  0  0
 15 48  1  0  0  0  0
 15 49  1  0  0  0  0
 16 15  1  0  0  0  0
 16 17  1  0  0  0  0
 16 50  1  0  0  0  0
 16 51  1  0  0  0  0
 17 18  1  0  0  0  0
 19 17  2  0  0  0  0
 20 13  1  0  0  0  0
 20 21  1  0  0  0  0
 20 52  1  0  0  0  0
 21 53  1  0  0  0  0
 21 54  1  0  0  0  0
 22 23  2  0  0  0  0
 22 21  1  0  0  0  0
 24 22  1  0  0  0  0
 24 55  1  0  0  0  0
 25 26  1  0  0  0  0
 25 24  1  0  0  0  0
 25 56  1  6  0  0  0
 26 27  2  0  0  0  0
 28 25  1  0  0  0  0
 28 57  1  0  0  0  0
 28 58  1  0  0  0  0
 29 28  1  0  0  0  0
 29 59  1  0  0  0  0
 30 29  1  0  0  0  0
 30 60  1  0  0  0  0
 30 61  1  0  0  0  0
 30 62  1  0  0  0  0
 31 29  1  0  0  0  0
 31 63  1  0  0  0  0
 31 64  1  0  0  0  0
 31 65  1  0  0  0  0
 32 33  1  0  0  0  0
 32 26  1  0  0  0  0
 32 66  1  0  0  0  0
 33 67  1  0  0  0  0
 33 68  1  0  0  0  0
 33 69  1  0  0  0  0
M  CHG  1  18  -1
M  END
>  <MODEL>
       0

$$$$
selected_4mers/VEGL/899_noH.pdb
 OpenBabel03042518353D

 69 68  0  0  1  0  0  0  0  0999 V2000
   -1.2580  145.4500   28.1610 C   0  0  0  0  0  0  0  0  0  0  0  0
   -2.5310  144.6470   28.0090 C   0  0  0  0  0  0  0  0  0  0  0  0
   -2.5030  143.4690   27.6830 O   0  0  0  0  0  0  0  0  0  0  0  0
   -3.6710  145.2930   28.2630 N   0  0  0  0  0  0  0  0  0  0  0  0
   -4.9370  144.5950   28.1220 C   0  0  2  0  0  0  0  0  0  0  0  0
   -5.1220  144.1250   26.6780 C   0  0  0  0  0  0  0  0  0  0  0  0
   -5.5090  142.9720   26.4270 O   0  0  0  0  0  0  0  0  0  0  0  0
   -6.1240  145.4230   28.6210 C   0  0  0  0  0  0  0  0  0  0  0  0
   -7.4450  144.6490   28.3180 C   0  0  0  0  0  0  0  0  0  0  0  0
   -5.9260  145.6880   30.1210 C   0  0  0  0  0  0  0  0  0  0  0  0
   -4.7840  144.9810   25.7080 N   0  0  0  0  0  0  0  0  0  0  0  0
   -4.9530  144.5790   24.2900 C   0  0  2  0  0  0  0  0  0  0  0  0
   -3.9960  143.4260   23.9230 C   0  0  0  0  0  0  0  0  0  0  0  0
   -4.3810  142.5130   23.1860 O   0  0  0  0  0  0  0  0  0  0  0  0
   -4.7230  145.7940   23.4080 C   0  0  0  0  0  0  0  0  0  0  0  0
   -4.8400  145.4690   21.9320 C   0  0  0  0  0  0  0  0  0  0  0  0
   -6.2630  145.2680   21.4180 C   0  0  0  0  0  0  0  0  0  0  0  0
   -7.2520  145.1490   22.2080 O   0  0  0  0  0  0  0  0  0  0  0  0
   -6.3950  145.2400   20.1820 O   0  0  0  0  0  0  0  0  0  0  0  0
   -2.7880  143.4680   24.4580 N   0  0  0  0  0  0  0  0  0  0  0  0
   -1.8050  142.3820   24.1780 C   0  0  0  0  0  0  0  0  0  0  0  0
   -2.3010  141.0830   24.7680 C   0  0  0  0  0  0  0  0  0  0  0  0
   -2.2000  140.0180   24.1290 O   0  0  0  0  0  0  0  0  0  0  0  0
   -2.8590  141.1480   25.9860 N   0  0  0  0  0  0  0  0  0  0  0  0
   -3.4460  139.9390   26.6080 C   0  0  2  0  0  0  0  0  0  0  0  0
   -4.6000  139.4170   25.7870 C   0  0  0  0  0  0  0  0  0  0  0  0
   -4.6950  138.1830   25.5450 O   0  0  0  0  0  0  0  0  0  0  0  0
   -3.8520  140.2080   28.0600 C   0  0  0  0  0  0  0  0  0  0  0  0
   -2.6280  140.4340   28.9760 C   0  0  0  0  0  0  0  0  0  0  0  0
   -3.1020  141.2020   30.2090 C   0  0  0  0  0  0  0  0  0  0  0  0
   -2.0190  139.1320   29.4400 C   0  0  0  0  0  0  0  0  0  0  0  0
   -5.4850  140.3150   25.3610 N   0  0  0  0  0  0  0  0  0  0  0  0
   -6.6210  139.9130   24.5530 C   0  0  0  0  0  0  0  0  0  0  0  0
   -0.4161  144.8304   27.9327 H   0  0  0  0  0  0  0  0  0  0  0  0
   -1.1777  145.8041   29.1675 H   0  0  0  0  0  0  0  0  0  0  0  0
   -1.2798  146.2834   27.4903 H   0  0  0  0  0  0  0  0  0  0  0  0
   -3.6539  146.2364   28.5441 H   0  0  0  0  0  0  0  0  0  0  0  0
   -4.9071  143.7308   28.7523 H   0  0  0  0  0  0  0  0  0  0  0  0
   -6.1873  146.3675   28.1222 H   0  0  0  0  0  0  0  0  0  0  0  0
   -7.4186  143.6952   28.8023 H   0  0  0  0  0  0  0  0  0  0  0  0
   -7.5427  144.5100   27.2616 H   0  0  0  0  0  0  0  0  0  0  0  0
   -8.2793  145.2111   28.6824 H   0  0  0  0  0  0  0  0  0  0  0  0
   -5.8598  144.7559   30.6422 H   0  0  0  0  0  0  0  0  0  0  0  0
   -6.7563  146.2485   30.4968 H   0  0  0  0  0  0  0  0  0  0  0  0
   -5.0240  146.2442   30.2689 H   0  0  0  0  0  0  0  0  0  0  0  0
   -4.4261  145.8702   25.9328 H   0  0  0  0  0  0  0  0  0  0  0  0
   -5.9476  144.2157   24.1359 H   0  0  0  0  0  0  0  0  0  0  0  0
   -5.4500  146.5395   23.6541 H   0  0  0  0  0  0  0  0  0  0  0  0
   -3.7272  146.1423   23.5868 H   0  0  0  0  0  0  0  0  0  0  0  0
   -4.4002  146.2737   21.3807 H   0  0  0  0  0  0  0  0  0  0  0  0
   -4.3415  144.5321   21.7954 H   0  0  0  0  0  0  0  0  0  0  0  0
   -2.5364  144.2186   25.0432 H   0  0  0  0  0  0  0  0  0  0  0  0
   -0.8617  142.6343   24.6156 H   0  0  0  0  0  0  0  0  0  0  0  0
   -1.6914  142.2705   23.1199 H   0  0  0  0  0  0  0  0  0  0  0  0
   -2.8785  142.0052   26.4698 H   0  0  0  0  0  0  0  0  0  0  0  0
   -2.6972  139.1749   26.6267 H   0  0  0  0  0  0  0  0  0  0  0  0
   -4.4048  139.3675   28.4246 H   0  0  0  0  0  0  0  0  0  0  0  0
   -4.4434  141.0996   28.0760 H   0  0  0  0  0  0  0  0  0  0  0  0
   -1.8860  140.9707   28.4225 H   0  0  0  0  0  0  0  0  0  0  0  0
   -3.8403  140.6256   30.7262 H   0  0  0  0  0  0  0  0  0  0  0  0
   -3.5267  142.1361   29.9059 H   0  0  0  0  0  0  0  0  0  0  0  0
   -2.2708  141.3821   30.8584 H   0  0  0  0  0  0  0  0  0  0  0  0
   -2.7448  138.5773   29.9971 H   0  0  0  0  0  0  0  0  0  0  0  0
   -1.1721  139.3358   30.0614 H   0  0  0  0  0  0  0  0  0  0  0  0
   -1.7086  138.5606   28.5903 H   0  0  0  0  0  0  0  0  0  0  0  0
   -5.3674  141.2635   25.5970 H   0  0  0  0  0  0  0  0  0  0  0  0
   -6.5901  138.8551   24.3954 H   0  0  0  0  0  0  0  0  0  0  0  0
   -6.5829  140.4155   23.6091 H   0  0  0  0  0  0  0  0  0  0  0  0
   -7.5278  140.1719   25.0586 H   0  0  0  0  0  0  0  0  0  0  0  0
  1 34  1  0  0  0  0
  1 35  1  0  0  0  0
  1 36  1  0  0  0  0
  2  1  1  0  0  0  0
  2  4  1  0  0  0  0
  3  2  2  0  0  0  0
  4 37  1  0  0  0  0
  5  4  1  0  0  0  0
  5  8  1  0  0  0  0
  5 38  1  1  0  0  0
  6  5  1  0  0  0  0
  7  6  2  0  0  0  0
  8 10  1  0  0  0  0
  8 39  1  0  0  0  0
  9  8  1  0  0  0  0
  9 40  1  0  0  0  0
  9 41  1  0  0  0  0
  9 42  1  0  0  0  0
 10 43  1  0  0  0  0
 10 44  1  0  0  0  0
 10 45  1  0  0  0  0
 11  6  1  0  0  0  0
 11 46  1  0  0  0  0
 12 11  1  0  0  0  0
 12 47  1  6  0  0  0
 13 12  1  0  0  0  0
 13 20  1  0  0  0  0
 14 13  2  0  0  0  0
 15 12  1  0  0  0  0
 15 48  1  0  0  0  0
 15 49  1  0  0  0  0
 16 15  1  0  0  0  0
 16 50  1  0  0  0  0
 16 51  1  0  0  0  0
 17 16  1  0  0  0  0
 17 18  1  0  0  0  0
 19 17  2  0  0  0  0
 20 52  1  0  0  0  0
 21 20  1  0  0  0  0
 21 22  1  0  0  0  0
 21 53  1  0  0  0  0
 21 54  1  0  0  0  0
 22 24  1  0  0  0  0
 23 22  2  0  0  0  0
 24 25  1  0  0  0  0
 24 55  1  0  0  0  0
 25 28  1  0  0  0  0
 25 56  1  1  0  0  0
 26 25  1  0  0  0  0
 27 26  2  0  0  0  0
 28 29  1  0  0  0  0
 28 57  1  0  0  0  0
 28 58  1  0  0  0  0
 29 31  1  0  0  0  0
 29 30  1  0  0  0  0
 29 59  1  0  0  0  0
 30 60  1  0  0  0  0
 30 61  1  0  0  0  0
 30 62  1  0  0  0  0
 31 63  1  0  0  0  0
 31 64  1  0  0  0  0
 31 65  1  0  0  0  0
 32 26  1  0  0  0  0
 32 66  1  0  0  0  0
 33 32  1  0  0  0  0
 33 67  1  0  0  0  0
 33 68  1  0  0  0  0
 33 69  1  0  0  0  0
M  CHG  1  18  -1
M  END
>  <MODEL>
       0

$$$$
