selected_4mers/VGVL/945_noH.pdb
 OpenBabel03042518353D

 70 69  0  0  1  0  0  0  0  0999 V2000
   44.1660   16.2220   85.8380 C   0  0  0  0  0  0  0  0  0  0  0  0
   44.7810   17.4010   85.1100 C   0  0  0  0  0  0  0  0  0  0  0  0
   44.3230   17.7720   83.9960 O   0  0  0  0  0  0  0  0  0  0  0  0
   45.8900   17.9250   85.6790 N   0  0  0  0  0  0  0  0  0  0  0  0
   46.5880   19.0460   85.0470 C   0  0  2  0  0  0  0  0  0  0  0  0
   47.1030   18.6760   83.6400 C   0  0  0  0  0  0  0  0  0  0  0  0
   46.9940   19.4130   82.6730 O   0  0  0  0  0  0  0  0  0  0  0  0
   47.7410   19.4950   85.9450 C   0  0  0  0  0  0  0  0  0  0  0  0
   48.6080   20.5020   85.2180 C   0  0  0  0  0  0  0  0  0  0  0  0
   47.1550   20.1170   87.2350 C   0  0  0  0  0  0  0  0  0  0  0  0
   47.7260   17.5040   83.5380 N   0  0  0  0  0  0  0  0  0  0  0  0
   48.2420   17.0960   82.2390 C   0  0  0  0  0  0  0  0  0  0  0  0
   47.1910   16.9430   81.1570 C   0  0  0  0  0  0  0  0  0  0  0  0
   47.4520   17.2610   79.9690 O   0  0  0  0  0  0  0  0  0  0  0  0
   46.0420   16.3630   81.5210 N   0  0  0  0  0  0  0  0  0  0  0  0
   44.9340   16.2400   80.5570 C   0  0  2  0  0  0  0  0  0  0  0  0
   44.5060   17.6070   80.1090 C   0  0  0  0  0  0  0  0  0  0  0  0
   44.2800   17.8440   78.9200 O   0  0  0  0  0  0  0  0  0  0  0  0
   43.7560   15.4140   81.1630 C   0  0  0  0  0  0  0  0  0  0  0  0
   42.4670   15.5210   80.2890 C   0  0  0  0  0  0  0  0  0  0  0  0
   44.1840   13.9380   81.4230 C   0  0  0  0  0  0  0  0  0  0  0  0
   44.4300   18.5180   81.0620 N   0  0  0  0  0  0  0  0  0  0  0  0
   43.9670   19.8920   80.7680 C   0  0  2  0  0  0  0  0  0  0  0  0
   44.9830   20.6380   79.8680 C   0  0  0  0  0  0  0  0  0  0  0  0
   44.5830   21.3540   78.9580 O   0  0  0  0  0  0  0  0  0  0  0  0
   43.6080   20.6160   82.0180 C   0  0  0  0  0  0  0  0  0  0  0  0
   42.3560   20.0500   82.7240 C   0  0  0  0  0  0  0  0  0  0  0  0
   42.0290   20.9420   83.9390 C   0  0  0  0  0  0  0  0  0  0  0  0
   41.1530   19.8470   81.7730 C   0  0  0  0  0  0  0  0  0  0  0  0
   46.2730   20.5080   80.1250 N   0  0  0  0  0  0  0  0  0  0  0  0
   47.2530   21.1280   79.2300 C   0  0  0  0  0  0  0  0  0  0  0  0
   43.2999   15.8870   85.3065 H   0  0  0  0  0  0  0  0  0  0  0  0
   43.8847   16.5204   86.8263 H   0  0  0  0  0  0  0  0  0  0  0  0
   44.8793   15.4265   85.8951 H   0  0  0  0  0  0  0  0  0  0  0  0
   46.2302   17.5504   86.5235 H   0  0  0  0  0  0  0  0  0  0  0  0
   45.8955   19.8526   84.9253 H   0  0  0  0  0  0  0  0  0  0  0  0
   48.3510   18.6535   86.1993 H   0  0  0  0  0  0  0  0  0  0  0  0
   48.0184   21.3546   84.9528 H   0  0  0  0  0  0  0  0  0  0  0  0
   49.0073   20.0548   84.3317 H   0  0  0  0  0  0  0  0  0  0  0  0
   49.4107   20.8079   85.8559 H   0  0  0  0  0  0  0  0  0  0  0  0
   46.5451   20.9584   86.9801 H   0  0  0  0  0  0  0  0  0  0  0  0
   47.9535   20.4353   87.8721 H   0  0  0  0  0  0  0  0  0  0  0  0
   46.5611   19.3874   87.7448 H   0  0  0  0  0  0  0  0  0  0  0  0
   47.8358   16.9241   84.3260 H   0  0  0  0  0  0  0  0  0  0  0  0
   48.9483   17.8317   81.9154 H   0  0  0  0  0  0  0  0  0  0  0  0
   48.6750   16.1274   82.3775 H   0  0  0  0  0  0  0  0  0  0  0  0
   45.9360   16.0169   82.4365 H   0  0  0  0  0  0  0  0  0  0  0  0
   45.2677   15.7009   79.6951 H   0  0  0  0  0  0  0  0  0  0  0  0
   43.5085   15.8389   82.1133 H   0  0  0  0  0  0  0  0  0  0  0  0
   42.6575   15.1081   79.3204 H   0  0  0  0  0  0  0  0  0  0  0  0
   42.1876   16.5491   80.1898 H   0  0  0  0  0  0  0  0  0  0  0  0
   41.6723   14.9791   80.7577 H   0  0  0  0  0  0  0  0  0  0  0  0
   44.4414   13.4725   80.4946 H   0  0  0  0  0  0  0  0  0  0  0  0
   43.3736   13.4062   81.8760 H   0  0  0  0  0  0  0  0  0  0  0  0
   45.0308   13.9221   82.0769 H   0  0  0  0  0  0  0  0  0  0  0  0
   44.6854   18.2791   81.9823 H   0  0  0  0  0  0  0  0  0  0  0  0
   43.0620   19.8431   80.1992 H   0  0  0  0  0  0  0  0  0  0  0  0
   43.4239   21.6414   81.7738 H   0  0  0  0  0  0  0  0  0  0  0  0
   44.4288   20.4992   82.6944 H   0  0  0  0  0  0  0  0  0  0  0  0
   42.5739   19.0610   83.0693 H   0  0  0  0  0  0  0  0  0  0  0  0
   41.8094   21.9343   83.6042 H   0  0  0  0  0  0  0  0  0  0  0  0
   42.8700   20.9666   84.6001 H   0  0  0  0  0  0  0  0  0  0  0  0
   41.1807   20.5440   84.4557 H   0  0  0  0  0  0  0  0  0  0  0  0
   40.8543   20.7917   81.3690 H   0  0  0  0  0  0  0  0  0  0  0  0
   40.3374   19.4175   82.3163 H   0  0  0  0  0  0  0  0  0  0  0  0
   41.4352   19.1913   80.9759 H   0  0  0  0  0  0  0  0  0  0  0  0
   46.5730   19.9983   80.9121 H   0  0  0  0  0  0  0  0  0  0  0  0
   46.7422   21.6346   78.4379 H   0  0  0  0  0  0  0  0  0  0  0  0
   47.8886   20.3720   78.8185 H   0  0  0  0  0  0  0  0  0  0  0  0
   47.8440   21.8303   79.7799 H   0  0  0  0  0  0  0  0  0  0  0  0
  1 32  1  0  0  0  0
  1 33  1  0  0  0  0
  1 34  1  0  0  0  0
  2  4  1  0  0  0  0
  2  1  1  0  0  0  0
  3  2  2  0  0  0  0
  4 35  1  0  0  0  0
  5  4  1  0  0  0  0
  5  8  1  0  0  0  0
  5 36  1  6  0  0  0
  6  5  1  0  0  0  0
  7  6  2  0  0  0  0
  8 10  1  0  0  0  0
  8 37  1  0  0  0  0
  9  8  1  0  0  0  0
  9 38  1  0  0  0  0
  9 39  1  0  0  0  0
  9 40  1  0  0  0  0
 10 41  1  0  0  0  0
 10 42  1  0  0  0  0
 10 43  1  0  0  0  0
 11  6  1  0  0  0  0
 11 44  1  0  0  0  0
 12 11  1  0  0  0  0
 12 45  1  0  0  0  0
 12 46  1  0  0  0  0
 13 15  1  0  0  0  0
 13 12  1  0  0  0  0
 14 13  2  0  0  0  0
 15 47  1  0  0  0  0
 16 19  1  0  0  0  0
 16 15  1  0  0  0  0
 16 48  1  6  0  0  0
 17 16  1  0  0  0  0
 17 22  1  0  0  0  0
 18 17  2  0  0  0  0
 19 21  1  0  0  0  0
 19 49  1  0  0  0  0
 20 19  1  0  0  0  0
 20 50  1  0  0  0  0
 20 51  1  0  0  0  0
 20 52  1  0  0  0  0
 21 53  1  0  0  0  0
 21 54  1  0  0  0  0
 21 55  1  0  0  0  0
 22 56  1  0  0  0  0
 23 22  1  0  0  0  0
 23 26  1  0  0  0  0
 23 57  1  6  0  0  0
 24 30  1  0  0  0  0
 24 23  1  0  0  0  0
 25 24  2  0  0  0  0
 26 27  1  0  0  0  0
 26 58  1  0  0  0  0
 26 59  1  0  0  0  0
 27 28  1  0  0  0  0
 27 60  1  0  0  0  0
 28 61  1  0  0  0  0
 28 62  1  0  0  0  0
 28 63  1  0  0  0  0
 29 27  1  0  0  0  0
 29 64  1  0  0  0  0
 29 65  1  0  0  0  0
 29 66  1  0  0  0  0
 30 67  1  0  0  0  0
 31 30  1  0  0  0  0
 31 68  1  0  0  0  0
 31 69  1  0  0  0  0
 31 70  1  0  0  0  0
M  END
>  <MODEL>
       0

$$$$
selected_4mers/VGVL/946_noH.pdb
 OpenBabel03042518353D

 70 69  0  0  1  0  0  0  0  0999 V2000
   25.2500   19.4540   15.8690 C   0  0  0  0  0  0  0  0  0  0  0  0
   24.3180   18.7290   16.8410 C   0  0  0  0  0  0  0  0  0  0  0  0
   23.8570   17.6480   16.5470 O   0  0  0  0  0  0  0  0  0  0  0  0
   24.1150   19.3030   18.0150 N   0  0  0  0  0  0  0  0  0  0  0  0
   23.2650   18.6710   19.0330 C   0  0  2  0  0  0  0  0  0  0  0  0
   22.3480   19.6820   19.6460 C   0  0  0  0  0  0  0  0  0  0  0  0
   22.6910   20.8280   19.8320 O   0  0  0  0  0  0  0  0  0  0  0  0
   24.1210   18.1100   20.1860 C   0  0  0  0  0  0  0  0  0  0  0  0
   25.3010   18.8840   20.7050 C   0  0  0  0  0  0  0  0  0  0  0  0
   23.3200   17.4150   21.3210 C   0  0  0  0  0  0  0  0  0  0  0  0
   21.1480   19.2280   19.9500 N   0  0  0  0  0  0  0  0  0  0  0  0
   20.2180   20.0110   20.7240 C   0  0  0  0  0  0  0  0  0  0  0  0
   20.0140   19.3640   22.0580 C   0  0  0  0  0  0  0  0  0  0  0  0
   20.0610   18.1650   22.1640 O   0  0  0  0  0  0  0  0  0  0  0  0
   19.7850   20.1760   23.0690 N   0  0  0  0  0  0  0  0  0  0  0  0
   19.5460   19.6940   24.4110 C   0  0  2  0  0  0  0  0  0  0  0  0
   18.1010   20.0230   24.8250 C   0  0  0  0  0  0  0  0  0  0  0  0
   17.6670   21.1930   24.7560 O   0  0  0  0  0  0  0  0  0  0  0  0
   20.5260   20.3050   25.4130 C   0  0  0  0  0  0  0  0  0  0  0  0
   20.2880   19.7370   26.7500 C   0  0  0  0  0  0  0  0  0  0  0  0
   21.9580   19.9750   25.0110 C   0  0  0  0  0  0  0  0  0  0  0  0
   17.3670   18.9720   25.2080 N   0  0  0  0  0  0  0  0  0  0  0  0
   15.9560   19.0650   25.5940 C   0  0  2  0  0  0  0  0  0  0  0  0
   15.8170   18.9990   27.1110 C   0  0  0  0  0  0  0  0  0  0  0  0
   16.2690   18.0360   27.7240 O   0  0  0  0  0  0  0  0  0  0  0  0
   15.2210   17.8670   25.0030 C   0  0  0  0  0  0  0  0  0  0  0  0
   13.8070   17.9820   24.4580 C   0  0  0  0  0  0  0  0  0  0  0  0
   13.6220   19.1410   23.4610 C   0  0  0  0  0  0  0  0  0  0  0  0
   13.5090   16.6520   23.7600 C   0  0  0  0  0  0  0  0  0  0  0  0
   15.2240   20.0310   27.7130 N   0  0  0  0  0  0  0  0  0  0  0  0
   15.0010   20.0810   29.1510 C   0  0  0  0  0  0  0  0  0  0  0  0
   25.3294   18.8899   14.9632 H   0  0  0  0  0  0  0  0  0  0  0  0
   26.2186   19.5554   16.3122 H   0  0  0  0  0  0  0  0  0  0  0  0
   24.8540   20.4239   15.6515 H   0  0  0  0  0  0  0  0  0  0  0  0
   24.5409   20.1689   18.2102 H   0  0  0  0  0  0  0  0  0  0  0  0
   22.7178   17.8917   18.5450 H   0  0  0  0  0  0  0  0  0  0  0  0
   24.6207   17.3569   19.6132 H   0  0  0  0  0  0  0  0  0  0  0  0
   24.9566   19.6941   21.3132 H   0  0  0  0  0  0  0  0  0  0  0  0
   25.8641   19.2707   19.8814 H   0  0  0  0  0  0  0  0  0  0  0  0
   25.9221   18.2380   21.2897 H   0  0  0  0  0  0  0  0  0  0  0  0
   22.8133   18.1550   21.9046 H   0  0  0  0  0  0  0  0  0  0  0  0
   23.9919   16.8657   21.9469 H   0  0  0  0  0  0  0  0  0  0  0  0
   22.6031   16.7456   20.8933 H   0  0  0  0  0  0  0  0  0  0  0  0
   20.8808   18.3323   19.6407 H   0  0  0  0  0  0  0  0  0  0  0  0
   19.2825   20.0675   20.2077 H   0  0  0  0  0  0  0  0  0  0  0  0
   20.6086   20.9977   20.8611 H   0  0  0  0  0  0  0  0  0  0  0  0
   19.7762   21.1467   22.9051 H   0  0  0  0  0  0  0  0  0  0  0  0
   19.6947   18.6344   24.4152 H   0  0  0  0  0  0  0  0  0  0  0  0
   20.3808   21.3650   25.4246 H   0  0  0  0  0  0  0  0  0  0  0  0
   20.4376   18.6779   26.7194 H   0  0  0  0  0  0  0  0  0  0  0  0
   19.2834   19.9467   27.0530 H   0  0  0  0  0  0  0  0  0  0  0  0
   20.9700   20.1735   27.4495 H   0  0  0  0  0  0  0  0  0  0  0  0
   22.0906   18.9133   25.0031 H   0  0  0  0  0  0  0  0  0  0  0  0
   22.6357   20.4139   25.7131 H   0  0  0  0  0  0  0  0  0  0  0  0
   22.1534   20.3661   24.0344 H   0  0  0  0  0  0  0  0  0  0  0  0
   17.7984   18.0874   25.2319 H   0  0  0  0  0  0  0  0  0  0  0  0
   15.5525   19.9897   25.2376 H   0  0  0  0  0  0  0  0  0  0  0  0
   15.8262   17.5124   24.1949 H   0  0  0  0  0  0  0  0  0  0  0  0
   15.0827   17.2415   25.8600 H   0  0  0  0  0  0  0  0  0  0  0  0
   13.1382   18.1901   25.2669 H   0  0  0  0  0  0  0  0  0  0  0  0
   14.2673   18.9946   22.6202 H   0  0  0  0  0  0  0  0  0  0  0  0
   13.8652   20.0661   23.9404 H   0  0  0  0  0  0  0  0  0  0  0  0
   12.6049   19.1675   23.1297 H   0  0  0  0  0  0  0  0  0  0  0  0
   14.2086   16.5022   22.9644 H   0  0  0  0  0  0  0  0  0  0  0  0
   12.5158   16.6725   23.3625 H   0  0  0  0  0  0  0  0  0  0  0  0
   13.5944   15.8520   24.4654 H   0  0  0  0  0  0  0  0  0  0  0  0
   14.9247   20.7902   27.1623 H   0  0  0  0  0  0  0  0  0  0  0  0
   15.3802   19.1878   29.6020 H   0  0  0  0  0  0  0  0  0  0  0  0
   13.9522   20.1618   29.3467 H   0  0  0  0  0  0  0  0  0  0  0  0
   15.5068   20.9301   29.5611 H   0  0  0  0  0  0  0  0  0  0  0  0
  1  2  1  0  0  0  0
  1 32  1  0  0  0  0
  1 33  1  0  0  0  0
  1 34  1  0  0  0  0
  2  4  1  0  0  0  0
  3  2  2  0  0  0  0
  4  5  1  0  0  0  0
  4 35  1  0  0  0  0
  5  6  1  0  0  0  0
  5  8  1  0  0  0  0
  5 36  1  6  0  0  0
  6  7  2  0  0  0  0
  6 11  1  0  0  0  0
  8  9  1  0  0  0  0
  8 10  1  0  0  0  0
  8 37  1  0  0  0  0
  9 38  1  0  0  0  0
  9 39  1  0  0  0  0
  9 40  1  0  0  0  0
 10 41  1  0  0  0  0
 10 42  1  0  0  0  0
 10 43  1  0  0  0  0
 11 12  1  0  0  0  0
 11 44  1  0  0  0  0
 12 13  1  0  0  0  0
 12 45  1  0  0  0  0
 12 46  1  0  0  0  0
 13 14  2  0  0  0  0
 13 15  1  0  0  0  0
 15 16  1  0  0  0  0
 15 47  1  0  0  0  0
 16 17  1  0  0  0  0
 16 19  1  0  0  0  0
 16 48  1  1  0  0  0
 17 22  1  0  0  0  0
 18 17  2  0  0  0  0
 19 20  1  0  0  0  0
 19 49  1  0  0  0  0
 20 50  1  0  0  0  0
 20 51  1  0  0  0  0
 20 52  1  0  0  0  0
 21 19  1  0  0  0  0
 21 53  1  0  0  0  0
 21 54  1  0  0  0  0
 21 55  1  0  0  0  0
 22 23  1  0  0  0  0
 22 56  1  0  0  0  0
 23 24  1  0  0  0  0
 23 57  1  6  0  0  0
 24 30  1  0  0  0  0
 24 25  2  0  0  0  0
 26 23  1  0  0  0  0
 26 58  1  0  0  0  0
 26 59  1  0  0  0  0
 27 26  1  0  0  0  0
 27 60  1  0  0  0  0
 28 27  1  0  0  0  0
 28 61  1  0  0  0  0
 28 62  1  0  0  0  0
 28 63  1  0  0  0  0
 29 27  1  0  0  0  0
 29 64  1  0  0  0  0
 29 65  1  0  0  0  0
 29 66  1  0  0  0  0
 30 31  1  0  0  0  0
 30 67  1  0  0  0  0
 31 68  1  0  0  0  0
 31 69  1  0  0  0  0
 31 70  1  0  0  0  0
M  END
>  <MODEL>
       0

$$$$
selected_4mers/VGVL/947_noH.pdb
 OpenBabel03042518353D

 70 69  0  0  1  0  0  0  0  0999 V2000
   62.3700   41.3660   27.2210 C   0  0  0  0  0  0  0  0  0  0  0  0
   62.7340   40.5360   26.0020 C   0  0  0  0  0  0  0  0  0  0  0  0
   63.8550   39.9660   25.9360 O   0  0  0  0  0  0  0  0  0  0  0  0
   61.8300   40.4770   25.0380 N   0  0  0  0  0  0  0  0  0  0  0  0
   62.0820   39.7350   23.7950 C   0  0  2  0  0  0  0  0  0  0  0  0
   62.0070   40.6060   22.5360 C   0  0  0  0  0  0  0  0  0  0  0  0
   62.3780   40.1460   21.4420 O   0  0  0  0  0  0  0  0  0  0  0  0
   61.1860   38.4710   23.6230 C   0  0  0  0  0  0  0  0  0  0  0  0
   61.4120   37.4950   24.7960 C   0  0  0  0  0  0  0  0  0  0  0  0
   59.6720   38.8150   23.4110 C   0  0  0  0  0  0  0  0  0  0  0  0
   61.5670   41.8450   22.6760 N   0  0  0  0  0  0  0  0  0  0  0  0
   61.4800   42.7370   21.5330 C   0  0  0  0  0  0  0  0  0  0  0  0
   60.8380   44.0360   21.9330 C   0  0  0  0  0  0  0  0  0  0  0  0
   60.4650   44.2580   23.0990 O   0  0  0  0  0  0  0  0  0  0  0  0
   60.7180   44.9190   20.9720 N   0  0  0  0  0  0  0  0  0  0  0  0
   60.0830   46.1950   21.2150 C   0  0  2  0  0  0  0  0  0  0  0  0
   59.3960   46.6730   19.9510 C   0  0  0  0  0  0  0  0  0  0  0  0
   59.9610   46.5470   18.8600 O   0  0  0  0  0  0  0  0  0  0  0  0
   61.0890   47.2070   21.7700 C   0  0  0  0  0  0  0  0  0  0  0  0
   62.3420   47.3100   20.8870 C   0  0  0  0  0  0  0  0  0  0  0  0
   60.4240   48.5330   22.0160 C   0  0  0  0  0  0  0  0  0  0  0  0
   58.1740   47.1770   20.1110 N   0  0  0  0  0  0  0  0  0  0  0  0
   57.4360   47.7260   18.9970 C   0  0  2  0  0  0  0  0  0  0  0  0
   57.6010   49.2250   19.0750 C   0  0  0  0  0  0  0  0  0  0  0  0
   57.1590   49.8680   20.0360 O   0  0  0  0  0  0  0  0  0  0  0  0
   55.9580   47.3400   19.0580 C   0  0  0  0  0  0  0  0  0  0  0  0
   55.0750   47.7880   17.9100 C   0  0  0  0  0  0  0  0  0  0  0  0
   55.6020   47.2790   16.5510 C   0  0  0  0  0  0  0  0  0  0  0  0
   53.6000   47.3270   18.1840 C   0  0  0  0  0  0  0  0  0  0  0  0
   58.2440   49.8030   18.0620 N   0  0  0  0  0  0  0  0  0  0  0  0
   58.3900   51.2490   18.0190 C   0  0  0  0  0  0  0  0  0  0  0  0
   61.3863   41.7685   27.0976 H   0  0  0  0  0  0  0  0  0  0  0  0
   63.0718   42.1663   27.3301 H   0  0  0  0  0  0  0  0  0  0  0  0
   62.3955   40.7478   28.0940 H   0  0  0  0  0  0  0  0  0  0  0  0
   60.9694   40.9404   25.1560 H   0  0  0  0  0  0  0  0  0  0  0  0
   63.0928   39.4015   23.9041 H   0  0  0  0  0  0  0  0  0  0  0  0
   61.4868   37.9826   22.7197 H   0  0  0  0  0  0  0  0  0  0  0  0
   61.1173   37.9636   25.7117 H   0  0  0  0  0  0  0  0  0  0  0  0
   62.4480   37.2325   24.8470 H   0  0  0  0  0  0  0  0  0  0  0  0
   60.8275   36.6119   24.6429 H   0  0  0  0  0  0  0  0  0  0  0  0
   59.2938   39.3108   24.2805 H   0  0  0  0  0  0  0  0  0  0  0  0
   59.1208   37.9127   23.2468 H   0  0  0  0  0  0  0  0  0  0  0  0
   59.5676   39.4564   22.5609 H   0  0  0  0  0  0  0  0  0  0  0  0
   61.2951   42.1668   23.5658 H   0  0  0  0  0  0  0  0  0  0  0  0
   62.4641   42.9298   21.1599 H   0  0  0  0  0  0  0  0  0  0  0  0
   60.8847   42.2736   20.7742 H   0  0  0  0  0  0  0  0  0  0  0  0
   61.0643   44.7110   20.0742 H   0  0  0  0  0  0  0  0  0  0  0  0
   59.3282   46.0850   21.9654 H   0  0  0  0  0  0  0  0  0  0  0  0
   61.4368   46.8541   22.7184 H   0  0  0  0  0  0  0  0  0  0  0  0
   62.0653   47.6604   19.9146 H   0  0  0  0  0  0  0  0  0  0  0  0
   62.7987   46.3461   20.8021 H   0  0  0  0  0  0  0  0  0  0  0  0
   63.0347   47.9952   21.3293 H   0  0  0  0  0  0  0  0  0  0  0  0
   60.0587   48.9260   21.0903 H   0  0  0  0  0  0  0  0  0  0  0  0
   61.1327   49.2146   22.4379 H   0  0  0  0  0  0  0  0  0  0  0  0
   59.6074   48.4020   22.6949 H   0  0  0  0  0  0  0  0  0  0  0  0
   57.7651   47.1755   21.0066 H   0  0  0  0  0  0  0  0  0  0  0  0
   57.8080   47.3395   18.0712 H   0  0  0  0  0  0  0  0  0  0  0  0
   55.9062   46.2723   19.1057 H   0  0  0  0  0  0  0  0  0  0  0  0
   55.5751   47.8526   19.9156 H   0  0  0  0  0  0  0  0  0  0  0  0
   55.0936   48.8562   17.8500 H   0  0  0  0  0  0  0  0  0  0  0  0
   55.6074   46.2090   16.5487 H   0  0  0  0  0  0  0  0  0  0  0  0
   56.5969   47.6411   16.3960 H   0  0  0  0  0  0  0  0  0  0  0  0
   54.9669   47.6341   15.7665 H   0  0  0  0  0  0  0  0  0  0  0  0
   53.5658   46.2594   18.2466 H   0  0  0  0  0  0  0  0  0  0  0  0
   52.9688   47.6579   17.3859 H   0  0  0  0  0  0  0  0  0  0  0  0
   53.2598   47.7494   19.1063 H   0  0  0  0  0  0  0  0  0  0  0  0
   58.6214   49.2497   17.3404 H   0  0  0  0  0  0  0  0  0  0  0  0
   57.9213   51.6805   18.8787 H   0  0  0  0  0  0  0  0  0  0  0  0
   57.9266   51.6281   17.1322 H   0  0  0  0  0  0  0  0  0  0  0  0
   59.4295   51.5025   18.0145 H   0  0  0  0  0  0  0  0  0  0  0  0
  1 32  1  0  0  0  0
  1 33  1  0  0  0  0
  1 34  1  0  0  0  0
  2  1  1  0  0  0  0
  3  2  2  0  0  0  0
  4  2  1  0  0  0  0
  4 35  1  0  0  0  0
  5  4  1  0  0  0  0
  5 36  1  1  0  0  0
  6 11  1  0  0  0  0
  6  5  1  0  0  0  0
  7  6  2  0  0  0  0
  8  5  1  0  0  0  0
  8  9  1  0  0  0  0
  8 37  1  0  0  0  0
  9 38  1  0  0  0  0
  9 39  1  0  0  0  0
  9 40  1  0  0  0  0
 10  8  1  0  0  0  0
 10 41  1  0  0  0  0
 10 42  1  0  0  0  0
 10 43  1  0  0  0  0
 11 44  1  0  0  0  0
 12 13  1  0  0  0  0
 12 11  1  0  0  0  0
 12 45  1  0  0  0  0
 12 46  1  0  0  0  0
 13 14  2  0  0  0  0
 15 16  1  0  0  0  0
 15 13  1  0  0  0  0
 15 47  1  0  0  0  0
 16 19  1  0  0  0  0
 16 48  1  1  0  0  0
 17 22  1  0  0  0  0
 17 16  1  0  0  0  0
 18 17  2  0  0  0  0
 19 21  1  0  0  0  0
 19 49  1  0  0  0  0
 20 19  1  0  0  0  0
 20 50  1  0  0  0  0
 20 51  1  0  0  0  0
 20 52  1  0  0  0  0
 21 53  1  0  0  0  0
 21 54  1  0  0  0  0
 21 55  1  0  0  0  0
 22 56  1  0  0  0  0
 23 26  1  0  0  0  0
 23 24  1  0  0  0  0
 23 22  1  0  0  0  0
 23 57  1  6  0  0  0
 24 25  2  0  0  0  0
 26 58  1  0  0  0  0
 26 59  1  0  0  0  0
 27 29  1  0  0  0  0
 27 26  1  0  0  0  0
 27 60  1  0  0  0  0
 28 27  1  0  0  0  0
 28 61  1  0  0  0  0
 28 62  1  0  0  0  0
 28 63  1  0  0  0  0
 29 64  1  0  0  0  0
 29 65  1  0  0  0  0
 29 66  1  0  0  0  0
 30 24  1  0  0  0  0
 30 67  1  0  0  0  0
 31 30  1  0  0  0  0
 31 68  1  0  0  0  0
 31 69  1  0  0  0  0
 31 70  1  0  0  0  0
M  END
>  <MODEL>
       0

$$$$
selected_4mers/VGVL/948_noH.pdb
 OpenBabel03042518353D

 70 69  0  0  1  0  0  0  0  0999 V2000
   -8.3550   12.6410    2.7810 C   0  0  0  0  0  0  0  0  0  0  0  0
   -9.2680   12.2630    3.9520 C   0  0  0  0  0  0  0  0  0  0  0  0
   -9.7440   13.1390    4.6870 O   0  0  0  0  0  0  0  0  0  0  0  0
   -9.5160   10.9680    4.1100 N   0  0  0  0  0  0  0  0  0  0  0  0
  -10.3030   10.4670    5.2370 C   0  0  2  0  0  0  0  0  0  0  0  0
   -9.4860   10.4260    6.5500 C   0  0  0  0  0  0  0  0  0  0  0  0
   -9.3470    9.3740    7.1780 O   0  0  0  0  0  0  0  0  0  0  0  0
  -10.9240    9.0850    4.9030 C   0  0  0  0  0  0  0  0  0  0  0  0
  -11.9800    9.2630    3.8010 C   0  0  0  0  0  0  0  0  0  0  0  0
   -9.8230    8.0750    4.4820 C   0  0  0  0  0  0  0  0  0  0  0  0
   -8.9800   11.5990    6.9430 N   0  0  0  0  0  0  0  0  0  0  0  0
   -8.1640   11.7430    8.1380 C   0  0  0  0  0  0  0  0  0  0  0  0
   -8.9550   11.6080    9.4300 C   0  0  0  0  0  0  0  0  0  0  0  0
  -10.1920   11.5440    9.4320 O   0  0  0  0  0  0  0  0  0  0  0  0
   -8.2280   11.6880   10.5390 N   0  0  0  0  0  0  0  0  0  0  0  0
   -8.7910   11.3100   11.8190 C   0  0  2  0  0  0  0  0  0  0  0  0
   -9.6440   12.3360   12.5790 C   0  0  0  0  0  0  0  0  0  0  0  0
  -10.6060   11.9540   13.2410 O   0  0  0  0  0  0  0  0  0  0  0  0
   -7.6650   10.7170   12.6860 C   0  0  0  0  0  0  0  0  0  0  0  0
   -6.8490   11.8150   13.3370 C   0  0  0  0  0  0  0  0  0  0  0  0
   -8.1990    9.7020   13.6670 C   0  0  0  0  0  0  0  0  0  0  0  0
   -9.3540   13.6250   12.4410 N   0  0  0  0  0  0  0  0  0  0  0  0
  -10.0500   14.6670   13.2070 C   0  0  2  0  0  0  0  0  0  0  0  0
  -10.9750   15.5040   12.3380 C   0  0  0  0  0  0  0  0  0  0  0  0
  -10.5220   16.1340   11.3760 O   0  0  0  0  0  0  0  0  0  0  0  0
   -9.0350   15.6080   13.8710 C   0  0  0  0  0  0  0  0  0  0  0  0
   -9.6020   16.6620   14.8340 C   0  0  0  0  0  0  0  0  0  0  0  0
  -10.1340   15.9810   16.1010 C   0  0  0  0  0  0  0  0  0  0  0  0
   -8.5180   17.6650   15.2020 C   0  0  0  0  0  0  0  0  0  0  0  0
  -12.2690   15.4800   12.6530 N   0  0  0  0  0  0  0  0  0  0  0  0
  -13.2620   16.2910   11.9410 C   0  0  0  0  0  0  0  0  0  0  0  0
   -8.0469   11.7539    2.2682 H   0  0  0  0  0  0  0  0  0  0  0  0
   -7.4935   13.1558    3.1522 H   0  0  0  0  0  0  0  0  0  0  0  0
   -8.8870   13.2773    2.1049 H   0  0  0  0  0  0  0  0  0  0  0  0
   -9.1609   10.3282    3.4514 H   0  0  0  0  0  0  0  0  0  0  0  0
  -11.1033   11.1579    5.4015 H   0  0  0  0  0  0  0  0  0  0  0  0
  -11.3996    8.6842    5.7736 H   0  0  0  0  0  0  0  0  0  0  0  0
  -11.5162    9.6637    2.9240 H   0  0  0  0  0  0  0  0  0  0  0  0
  -12.7405    9.9346    4.1409 H   0  0  0  0  0  0  0  0  0  0  0  0
  -12.4187    8.3146    3.5708 H   0  0  0  0  0  0  0  0  0  0  0  0
   -9.3198    8.4387    3.6106 H   0  0  0  0  0  0  0  0  0  0  0  0
  -10.2716    7.1280    4.2657 H   0  0  0  0  0  0  0  0  0  0  0  0
   -9.1187    7.9622    5.2796 H   0  0  0  0  0  0  0  0  0  0  0  0
   -9.1676   12.3990    6.4007 H   0  0  0  0  0  0  0  0  0  0  0  0
   -7.7051   12.7094    8.1208 H   0  0  0  0  0  0  0  0  0  0  0  0
   -7.4431   10.9524    8.1251 H   0  0  0  0  0  0  0  0  0  0  0  0
   -7.2979   12.0072   10.4905 H   0  0  0  0  0  0  0  0  0  0  0  0
   -9.5430   10.5851   11.5867 H   0  0  0  0  0  0  0  0  0  0  0  0
   -6.9929   10.1791   12.0505 H   0  0  0  0  0  0  0  0  0  0  0  0
   -7.4764   12.3877   13.9876 H   0  0  0  0  0  0  0  0  0  0  0  0
   -6.4423   12.4533   12.5807 H   0  0  0  0  0  0  0  0  0  0  0  0
   -6.0519   11.3794   13.9025 H   0  0  0  0  0  0  0  0  0  0  0  0
   -8.8832   10.1793   14.3371 H   0  0  0  0  0  0  0  0  0  0  0  0
   -7.3873    9.2834   14.2244 H   0  0  0  0  0  0  0  0  0  0  0  0
   -8.7052    8.9238   13.1350 H   0  0  0  0  0  0  0  0  0  0  0  0
   -8.6505   13.8901   11.8053 H   0  0  0  0  0  0  0  0  0  0  0  0
  -10.6375   14.1605   13.9440 H   0  0  0  0  0  0  0  0  0  0  0  0
   -8.5149   16.1260   13.0925 H   0  0  0  0  0  0  0  0  0  0  0  0
   -8.4181   14.9764   14.4755 H   0  0  0  0  0  0  0  0  0  0  0  0
  -10.4058   17.1776   14.3513 H   0  0  0  0  0  0  0  0  0  0  0  0
   -9.3354   15.4629   16.5896 H   0  0  0  0  0  0  0  0  0  0  0  0
  -10.9017   15.2844   15.8360 H   0  0  0  0  0  0  0  0  0  0  0  0
  -10.5361   16.7206   16.7615 H   0  0  0  0  0  0  0  0  0  0  0  0
   -7.7104   17.1561   15.6854 H   0  0  0  0  0  0  0  0  0  0  0  0
   -8.9232   18.4011   15.8644 H   0  0  0  0  0  0  0  0  0  0  0  0
   -8.1583   18.1430   14.3148 H   0  0  0  0  0  0  0  0  0  0  0  0
  -12.5689   14.8983   13.3885 H   0  0  0  0  0  0  0  0  0  0  0  0
  -12.7755   16.8612   11.1773 H   0  0  0  0  0  0  0  0  0  0  0  0
  -13.7415   16.9541   12.6304 H   0  0  0  0  0  0  0  0  0  0  0  0
  -13.9935   15.6494   11.4958 H   0  0  0  0  0  0  0  0  0  0  0  0
  1  2  1  0  0  0  0
  1 32  1  0  0  0  0
  1 33  1  0  0  0  0
  1 34  1  0  0  0  0
  2  4  1  0  0  0  0
  2  3  2  0  0  0  0
  4  5  1  0  0  0  0
  4 35  1  0  0  0  0
  5  6  1  0  0  0  0
  5 36  1  1  0  0  0
  6 11  1  0  0  0  0
  6  7  2  0  0  0  0
  8  5  1  0  0  0  0
  8 37  1  0  0  0  0
  9  8  1  0  0  0  0
  9 38  1  0  0  0  0
  9 39  1  0  0  0  0
  9 40  1  0  0  0  0
 10  8  1  0  0  0  0
 10 41  1  0  0  0  0
 10 42  1  0  0  0  0
 10 43  1  0  0  0  0
 11 12  1  0  0  0  0
 11 44  1  0  0  0  0
 12 13  1  0  0  0  0
 12 45  1  0  0  0  0
 12 46  1  0  0  0  0
 13 14  2  0  0  0  0
 13 15  1  0  0  0  0
 15 16  1  0  0  0  0
 15 47  1  0  0  0  0
 16 17  1  0  0  0  0
 16 19  1  0  0  0  0
 16 48  1  6  0  0  0
 17 18  2  0  0  0  0
 19 20  1  0  0  0  0
 19 21  1  0  0  0  0
 19 49  1  0  0  0  0
 20 50  1  0  0  0  0
 20 51  1  0  0  0  0
 20 52  1  0  0  0  0
 21 53  1  0  0  0  0
 21 54  1  0  0  0  0
 21 55  1  0  0  0  0
 22 17  1  0  0  0  0
 22 23  1  0  0  0  0
 22 56  1  0  0  0  0
 23 26  1  0  0  0  0
 23 57  1  1  0  0  0
 24 30  1  0  0  0  0
 24 23  1  0  0  0  0
 25 24  2  0  0  0  0
 26 27  1  0  0  0  0
 26 58  1  0  0  0  0
 26 59  1  0  0  0  0
 27 29  1  0  0  0  0
 27 28  1  0  0  0  0
 27 60  1  0  0  0  0
 28 61  1  0  0  0  0
 28 62  1  0  0  0  0
 28 63  1  0  0  0  0
 29 64  1  0  0  0  0
 29 65  1  0  0  0  0
 29 66  1  0  0  0  0
 30 67  1  0  0  0  0
 31 30  1  0  0  0  0
 31 68  1  0  0  0  0
 31 69  1  0  0  0  0
 31 70  1  0  0  0  0
M  END
>  <MODEL>
       0

$$$$
selected_4mers/VGVL/949_noH.pdb
 OpenBabel03042518353D

 70 69  0  0  1  0  0  0  0  0999 V2000
   37.8590   21.3190   42.4240 C   0  0  0  0  0  0  0  0  0  0  0  0
   38.1750   22.8080   42.3320 C   0  0  0  0  0  0  0  0  0  0  0  0
   38.3340   23.3200   41.2170 O   0  0  0  0  0  0  0  0  0  0  0  0
   38.3060   23.5060   43.4710 N   0  0  0  0  0  0  0  0  0  0  0  0
   38.6450   24.9330   43.3990 C   0  0  2  0  0  0  0  0  0  0  0  0
   40.0780   25.1220   42.8620 C   0  0  0  0  0  0  0  0  0  0  0  0
   40.4180   26.1890   42.3030 O   0  0  0  0  0  0  0  0  0  0  0  0
   38.4550   25.6540   44.7720 C   0  0  0  0  0  0  0  0  0  0  0  0
   39.5770   25.3090   45.7380 C   0  0  0  0  0  0  0  0  0  0  0  0
   38.3190   27.1640   44.5750 C   0  0  0  0  0  0  0  0  0  0  0  0
   40.9120   24.0890   43.0320 N   0  0  0  0  0  0  0  0  0  0  0  0
   42.3020   24.0780   42.5410 C   0  0  0  0  0  0  0  0  0  0  0  0
   42.4400   23.5940   41.0940 C   0  0  0  0  0  0  0  0  0  0  0  0
   43.5510   23.4680   40.5950 O   0  0  0  0  0  0  0  0  0  0  0  0
   41.3220   23.2990   40.4390 N   0  0  0  0  0  0  0  0  0  0  0  0
   41.3040   22.9720   39.0270 C   0  0  2  0  0  0  0  0  0  0  0  0
   40.8690   24.2390   38.2810 C   0  0  0  0  0  0  0  0  0  0  0  0
   39.8810   24.8830   38.6540 O   0  0  0  0  0  0  0  0  0  0  0  0
   40.3040   21.8440   38.7500 C   0  0  0  0  0  0  0  0  0  0  0  0
   40.2140   21.5350   37.2360 C   0  0  0  0  0  0  0  0  0  0  0  0
   40.6840   20.6020   39.5450 C   0  0  0  0  0  0  0  0  0  0  0  0
   41.6060   24.6030   37.2250 N   0  0  0  0  0  0  0  0  0  0  0  0
   41.2550   25.8040   36.4680 C   0  0  2  0  0  0  0  0  0  0  0  0
   40.1510   25.5160   35.4620 C   0  0  0  0  0  0  0  0  0  0  0  0
   40.3070   24.6740   34.5720 O   0  0  0  0  0  0  0  0  0  0  0  0
   42.4670   26.4050   35.7600 C   0  0  0  0  0  0  0  0  0  0  0  0
   42.2010   27.7460   35.0680 C   0  0  0  0  0  0  0  0  0  0  0  0
   41.6610   28.7970   36.0490 C   0  0  0  0  0  0  0  0  0  0  0  0
   43.4790   28.2370   34.4180 C   0  0  0  0  0  0  0  0  0  0  0  0
   39.0410   26.2290   35.6370 N   0  0  0  0  0  0  0  0  0  0  0  0
   37.8940   26.1800   34.7490 C   0  0  0  0  0  0  0  0  0  0  0  0
   37.7865   20.9082   41.4386 H   0  0  0  0  0  0  0  0  0  0  0  0
   36.9297   21.1826   42.9366 H   0  0  0  0  0  0  0  0  0  0  0  0
   38.6391   20.8214   42.9613 H   0  0  0  0  0  0  0  0  0  0  0  0
   38.1766   23.0673   44.3428 H   0  0  0  0  0  0  0  0  0  0  0  0
   37.9629   25.3914   42.7138 H   0  0  0  0  0  0  0  0  0  0  0  0
   37.5455   25.3008   45.2112 H   0  0  0  0  0  0  0  0  0  0  0  0
   40.5097   25.6459   45.3363 H   0  0  0  0  0  0  0  0  0  0  0  0
   39.6120   24.2491   45.8801 H   0  0  0  0  0  0  0  0  0  0  0  0
   39.3990   25.7892   46.6775 H   0  0  0  0  0  0  0  0  0  0  0  0
   39.2157   27.5486   44.1358 H   0  0  0  0  0  0  0  0  0  0  0  0
   38.1558   27.6340   45.5223 H   0  0  0  0  0  0  0  0  0  0  0  0
   37.4903   27.3662   43.9290 H   0  0  0  0  0  0  0  0  0  0  0  0
   40.5798   23.2950   43.5099 H   0  0  0  0  0  0  0  0  0  0  0  0
   42.6900   25.0733   42.6028 H   0  0  0  0  0  0  0  0  0  0  0  0
   42.8449   23.3894   43.1542 H   0  0  0  0  0  0  0  0  0  0  0  0
   40.4706   23.3027   40.9333 H   0  0  0  0  0  0  0  0  0  0  0  0
   42.2698   22.6417   38.7061 H   0  0  0  0  0  0  0  0  0  0  0  0
   39.3337   22.1651   39.0666 H   0  0  0  0  0  0  0  0  0  0  0  0
   41.1694   21.2093   36.8810 H   0  0  0  0  0  0  0  0  0  0  0  0
   39.9197   22.4182   36.7086 H   0  0  0  0  0  0  0  0  0  0  0  0
   39.4907   20.7638   37.0718 H   0  0  0  0  0  0  0  0  0  0  0  0
   41.6534   20.2665   39.2407 H   0  0  0  0  0  0  0  0  0  0  0  0
   39.9662   19.8294   39.3642 H   0  0  0  0  0  0  0  0  0  0  0  0
   40.6994   20.8374   40.5887 H   0  0  0  0  0  0  0  0  0  0  0  0
   42.3842   24.0624   36.9578 H   0  0  0  0  0  0  0  0  0  0  0  0
   40.8964   26.5224   37.1753 H   0  0  0  0  0  0  0  0  0  0  0  0
   43.2391   26.5515   36.4862 H   0  0  0  0  0  0  0  0  0  0  0  0
   42.7412   25.7151   34.9894 H   0  0  0  0  0  0  0  0  0  0  0  0
   41.4498   27.5956   34.3210 H   0  0  0  0  0  0  0  0  0  0  0  0
   42.3865   28.9761   36.8148 H   0  0  0  0  0  0  0  0  0  0  0  0
   40.7554   28.4390   36.4924 H   0  0  0  0  0  0  0  0  0  0  0  0
   41.4649   29.7081   35.5233 H   0  0  0  0  0  0  0  0  0  0  0  0
   44.2267   28.3858   35.1688 H   0  0  0  0  0  0  0  0  0  0  0  0
   43.2904   29.1620   33.9143 H   0  0  0  0  0  0  0  0  0  0  0  0
   43.8222   27.5099   33.7120 H   0  0  0  0  0  0  0  0  0  0  0  0
   38.9950   26.8271   36.4176 H   0  0  0  0  0  0  0  0  0  0  0  0
   38.0885   25.4922   33.9527 H   0  0  0  0  0  0  0  0  0  0  0  0
   37.7151   27.1538   34.3434 H   0  0  0  0  0  0  0  0  0  0  0  0
   37.0328   25.8578   35.2962 H   0  0  0  0  0  0  0  0  0  0  0  0
  1 32  1  0  0  0  0
  1 33  1  0  0  0  0
  1 34  1  0  0  0  0
  2  1  1  0  0  0  0
  2  4  1  0  0  0  0
  3  2  2  0  0  0  0
  4 35  1  0  0  0  0
  5  4  1  0  0  0  0
  5  8  1  0  0  0  0
  5 36  1  6  0  0  0
  6 11  1  0  0  0  0
  6  5  1  0  0  0  0
  7  6  2  0  0  0  0
  8  9  1  0  0  0  0
  8 37  1  0  0  0  0
  9 38  1  0  0  0  0
  9 39  1  0  0  0  0
  9 40  1  0  0  0  0
 10  8  1  0  0  0  0
 10 41  1  0  0  0  0
 10 42  1  0  0  0  0
 10 43  1  0  0  0  0
 11 44  1  0  0  0  0
 12 11  1  0  0  0  0
 12 45  1  0  0  0  0
 12 46  1  0  0  0  0
 13 12  1  0  0  0  0
 14 13  2  0  0  0  0
 15 13  1  0  0  0  0
 15 47  1  0  0  0  0
 16 15  1  0  0  0  0
 16 48  1  6  0  0  0
 17 18  2  0  0  0  0
 17 16  1  0  0  0  0
 19 16  1  0  0  0  0
 19 21  1  0  0  0  0
 19 49  1  0  0  0  0
 20 19  1  0  0  0  0
 20 50  1  0  0  0  0
 20 51  1  0  0  0  0
 20 52  1  0  0  0  0
 21 53  1  0  0  0  0
 21 54  1  0  0  0  0
 21 55  1  0  0  0  0
 22 17  1  0  0  0  0
 22 56  1  0  0  0  0
 23 22  1  0  0  0  0
 23 57  1  1  0  0  0
 24 30  1  0  0  0  0
 24 23  1  0  0  0  0
 25 24  2  0  0  0  0
 26 23  1  0  0  0  0
 26 58  1  0  0  0  0
 26 59  1  0  0  0  0
 27 26  1  0  0  0  0
 27 28  1  0  0  0  0
 27 60  1  0  0  0  0
 28 61  1  0  0  0  0
 28 62  1  0  0  0  0
 28 63  1  0  0  0  0
 29 27  1  0  0  0  0
 29 64  1  0  0  0  0
 29 65  1  0  0  0  0
 29 66  1  0  0  0  0
 30 67  1  0  0  0  0
 31 30  1  0  0  0  0
 31 68  1  0  0  0  0
 31 69  1  0  0  0  0
 31 70  1  0  0  0  0
M  END
>  <MODEL>
       0

$$$$
