selected_4mers/VKAA/855_noH.pdb
 OpenBabel03042518353D

 69 68  0  0  1  0  0  0  0  0999 V2000
   45.9730   29.5790   36.8130 C   0  0  0  0  0  0  0  0  0  0  0  0
   45.9140   28.2830   36.0140 C   0  0  0  0  0  0  0  0  0  0  0  0
   46.9440   27.7630   35.5860 O   0  0  0  0  0  0  0  0  0  0  0  0
   44.7050   27.7670   35.8130 N   0  0  0  0  0  0  0  0  0  0  0  0
   44.5190   26.5350   35.0550 C   0  0  2  0  0  0  0  0  0  0  0  0
   44.9820   26.7340   33.6180 C   0  0  0  0  0  0  0  0  0  0  0  0
   45.6560   25.8760   33.0460 O   0  0  0  0  0  0  0  0  0  0  0  0
   43.0340   26.1020   35.0380 C   0  0  0  0  0  0  0  0  0  0  0  0
   42.8560   24.8680   34.1600 C   0  0  0  0  0  0  0  0  0  0  0  0
   42.5700   25.8140   36.4470 C   0  0  0  0  0  0  0  0  0  0  0  0
   44.6150   27.8730   33.0400 N   0  0  0  0  0  0  0  0  0  0  0  0
   44.9920   28.1830   31.6690 C   0  0  2  0  0  0  0  0  0  0  0  0
   46.5060   28.1780   31.5220 C   0  0  0  0  0  0  0  0  0  0  0  0
   47.0410   27.6410   30.5540 O   0  0  0  0  0  0  0  0  0  0  0  0
   44.4400   29.5520   31.2620 C   0  0  0  0  0  0  0  0  0  0  0  0
   44.8610   29.9910   29.8630 C   0  0  0  0  0  0  0  0  0  0  0  0
   44.2630   31.3410   29.5030 C   0  0  0  0  0  0  0  0  0  0  0  0
   44.7250   31.8020   28.1310 C   0  0  0  0  0  0  0  0  0  0  0  0
   46.1930   32.0510   28.0850 N   0  0  0  0  0  0  0  0  0  0  0  0
   47.1960   28.7710   32.4910 N   0  0  0  0  0  0  0  0  0  0  0  0
   48.6530   28.8330   32.4510 C   0  0  2  0  0  0  0  0  0  0  0  0
   49.2660   27.4370   32.5420 C   0  0  0  0  0  0  0  0  0  0  0  0
   50.2260   27.1240   31.8380 O   0  0  0  0  0  0  0  0  0  0  0  0
   49.1670   29.7150   33.5840 C   0  0  0  0  0  0  0  0  0  0  0  0
   48.7130   26.5970   33.4130 N   0  0  0  0  0  0  0  0  0  0  0  0
   49.2150   25.2330   33.5640 C   0  0  2  0  0  0  0  0  0  0  0  0
   48.9830   24.4710   32.2660 C   0  0  0  0  0  0  0  0  0  0  0  0
   49.8560   23.7460   31.7930 O   0  0  0  0  0  0  0  0  0  0  0  0
   48.5040   24.5330   34.7160 C   0  0  0  0  0  0  0  0  0  0  0  0
   47.7980   24.6390   31.6890 N   0  0  0  0  0  0  0  0  0  0  0  0
   47.4720   23.9670   30.4360 C   0  0  0  0  0  0  0  0  0  0  0  0
   46.9913   29.8935   36.9077 H   0  0  0  0  0  0  0  0  0  0  0  0
   45.5576   29.4175   37.7858 H   0  0  0  0  0  0  0  0  0  0  0  0
   45.4115   30.3361   36.3066 H   0  0  0  0  0  0  0  0  0  0  0  0
   43.9177   28.2270   36.1842 H   0  0  0  0  0  0  0  0  0  0  0  0
   45.0984   25.7723   35.5319 H   0  0  0  0  0  0  0  0  0  0  0  0
   42.4425   26.8961   34.6325 H   0  0  0  0  0  0  0  0  0  0  0  0
   43.4420   24.0634   34.5526 H   0  0  0  0  0  0  0  0  0  0  0  0
   43.1769   25.0899   33.1637 H   0  0  0  0  0  0  0  0  0  0  0  0
   41.8242   24.5849   34.1477 H   0  0  0  0  0  0  0  0  0  0  0  0
   43.1566   25.0204   36.8605 H   0  0  0  0  0  0  0  0  0  0  0  0
   41.5398   25.5252   36.4312 H   0  0  0  0  0  0  0  0  0  0  0  0
   42.6850   26.6925   37.0470 H   0  0  0  0  0  0  0  0  0  0  0  0
   44.0768   28.5207   33.5500 H   0  0  0  0  0  0  0  0  0  0  0  0
   44.5765   27.4336   31.0281 H   0  0  0  0  0  0  0  0  0  0  0  0
   43.3714   29.5090   31.2954 H   0  0  0  0  0  0  0  0  0  0  0  0
   44.8411   30.2679   31.9486 H   0  0  0  0  0  0  0  0  0  0  0  0
   45.9280   30.0618   29.8265 H   0  0  0  0  0  0  0  0  0  0  0  0
   44.5048   29.2664   29.1608 H   0  0  0  0  0  0  0  0  0  0  0  0
   43.1960   31.2605   29.5025 H   0  0  0  0  0  0  0  0  0  0  0  0
   44.5885   32.0582   30.2273 H   0  0  0  0  0  0  0  0  0  0  0  0
   44.4811   31.0465   27.4136 H   0  0  0  0  0  0  0  0  0  0  0  0
   44.2287   32.7239   27.9103 H   0  0  0  0  0  0  0  0  0  0  0  0
   46.6913   31.1855   28.2925 H   0  0  0  0  0  0  0  0  0  0  0  0
   46.4395   32.7594   28.7762 H   0  0  0  0  0  0  0  0  0  0  0  0
   46.7154   29.1755   33.2490 H   0  0  0  0  0  0  0  0  0  0  0  0
   48.9467   29.2596   31.5147 H   0  0  0  0  0  0  0  0  0  0  0  0
   48.8765   29.2938   34.5237 H   0  0  0  0  0  0  0  0  0  0  0  0
   48.7509   30.6962   33.4891 H   0  0  0  0  0  0  0  0  0  0  0  0
   50.2342   29.7738   33.5341 H   0  0  0  0  0  0  0  0  0  0  0  0
   47.9547   26.8987   33.9637 H   0  0  0  0  0  0  0  0  0  0  0  0
   50.2623   25.2615   33.7814 H   0  0  0  0  0  0  0  0  0  0  0  0
   47.4535   24.4948   34.5163 H   0  0  0  0  0  0  0  0  0  0  0  0
   48.6752   25.0748   35.6227 H   0  0  0  0  0  0  0  0  0  0  0  0
   48.8841   23.5380   34.8179 H   0  0  0  0  0  0  0  0  0  0  0  0
   47.1305   25.2253   32.1131 H   0  0  0  0  0  0  0  0  0  0  0  0
   48.3061   23.3754   30.1210 H   0  0  0  0  0  0  0  0  0  0  0  0
   47.2498   24.6978   29.6867 H   0  0  0  0  0  0  0  0  0  0  0  0
   46.6210   23.3349   30.5812 H   0  0  0  0  0  0  0  0  0  0  0  0
  1 32  1  0  0  0  0
  1 33  1  0  0  0  0
  1 34  1  0  0  0  0
  2  1  1  0  0  0  0
  3  2  2  0  0  0  0
  4  2  1  0  0  0  0
  4 35  1  0  0  0  0
  5  4  1  0  0  0  0
  5 36  1  1  0  0  0
  6  5  1  0  0  0  0
  7  6  2  0  0  0  0
  8  5  1  0  0  0  0
  8 10  1  0  0  0  0
  8 37  1  0  0  0  0
  9  8  1  0  0  0  0
  9 38  1  0  0  0  0
  9 39  1  0  0  0  0
  9 40  1  0  0  0  0
 10 41  1  0  0  0  0
 10 42  1  0  0  0  0
 10 43  1  0  0  0  0
 11  6  1  0  0  0  0
 11 44  1  0  0  0  0
 12 11  1  0  0  0  0
 12 45  1  6  0  0  0
 13 12  1  0  0  0  0
 13 20  1  0  0  0  0
 14 13  2  0  0  0  0
 15 12  1  0  0  0  0
 15 46  1  0  0  0  0
 15 47  1  0  0  0  0
 16 15  1  0  0  0  0
 16 48  1  0  0  0  0
 16 49  1  0  0  0  0
 17 16  1  0  0  0  0
 17 50  1  0  0  0  0
 17 51  1  0  0  0  0
 18 17  1  0  0  0  0
 18 52  1  0  0  0  0
 18 53  1  0  0  0  0
 19 18  1  0  0  0  0
 19 54  1  0  0  0  0
 19 55  1  0  0  0  0
 20 56  1  0  0  0  0
 21 20  1  0  0  0  0
 21 22  1  0  0  0  0
 21 24  1  0  0  0  0
 21 57  1  6  0  0  0
 22 25  1  0  0  0  0
 23 22  2  0  0  0  0
 24 58  1  0  0  0  0
 24 59  1  0  0  0  0
 24 60  1  0  0  0  0
 25 26  1  0  0  0  0
 25 61  1  0  0  0  0
 26 29  1  0  0  0  0
 26 62  1  1  0  0  0
 27 26  1  0  0  0  0
 28 27  2  0  0  0  0
 29 63  1  0  0  0  0
 29 64  1  0  0  0  0
 29 65  1  0  0  0  0
 30 27  1  0  0  0  0
 30 66  1  0  0  0  0
 31 30  1  0  0  0  0
 31 67  1  0  0  0  0
 31 68  1  0  0  0  0
 31 69  1  0  0  0  0
M  END
>  <MODEL>
       0

$$$$
selected_4mers/VKAA/856_noH.pdb
 OpenBabel03042518353D

 69 68  0  0  1  0  0  0  0  0999 V2000
   -1.7080   29.7720   24.5830 C   0  0  0  0  0  0  0  0  0  0  0  0
   -1.5710   28.5890   25.5240 C   0  0  0  0  0  0  0  0  0  0  0  0
   -1.7410   28.7240   26.7760 O   0  0  0  0  0  0  0  0  0  0  0  0
   -1.3110   27.4220   24.9380 N   0  0  0  0  0  0  0  0  0  0  0  0
   -1.1690   26.1670   25.6990 C   0  0  2  0  0  0  0  0  0  0  0  0
    0.2520   25.6280   25.6210 C   0  0  0  0  0  0  0  0  0  0  0  0
    0.8600   25.5800   24.5370 O   0  0  0  0  0  0  0  0  0  0  0  0
   -2.1240   25.0890   25.2000 C   0  0  0  0  0  0  0  0  0  0  0  0
   -1.9360   23.7940   26.0140 C   0  0  0  0  0  0  0  0  0  0  0  0
   -3.5920   25.5970   25.3340 C   0  0  0  0  0  0  0  0  0  0  0  0
    0.8250   25.2910   26.7820 N   0  0  0  0  0  0  0  0  0  0  0  0
    2.1380   24.6290   26.8560 C   0  0  2  0  0  0  0  0  0  0  0  0
    1.9540   23.1580   27.3010 C   0  0  0  0  0  0  0  0  0  0  0  0
    1.3240   22.8600   28.3210 O   0  0  0  0  0  0  0  0  0  0  0  0
    3.0790   25.3530   27.8300 C   0  0  0  0  0  0  0  0  0  0  0  0
    4.4190   24.6160   28.0620 C   0  0  0  0  0  0  0  0  0  0  0  0
    5.4630   25.4550   28.8090 C   0  0  0  0  0  0  0  0  0  0  0  0
    6.6800   24.5660   29.1840 C   0  0  0  0  0  0  0  0  0  0  0  0
    7.6380   25.3020   30.0750 N   0  0  0  0  0  0  0  0  0  0  0  0
    2.4720   22.2310   26.5050 N   0  0  0  0  0  0  0  0  0  0  0  0
    2.4610   20.8330   26.8620 C   0  0  2  0  0  0  0  0  0  0  0  0
    3.8030   20.4700   27.4830 C   0  0  0  0  0  0  0  0  0  0  0  0
    4.8670   20.8130   26.9610 O   0  0  0  0  0  0  0  0  0  0  0  0
    2.1530   19.9230   25.5870 C   0  0  0  0  0  0  0  0  0  0  0  0
    3.7580   19.7660   28.6010 N   0  0  0  0  0  0  0  0  0  0  0  0
    4.9970   19.4030   29.3200 C   0  0  2  0  0  0  0  0  0  0  0  0
    4.8680   18.1020   30.0330 C   0  0  0  0  0  0  0  0  0  0  0  0
    3.7700   17.7280   30.4670 O   0  0  0  0  0  0  0  0  0  0  0  0
    5.3760   20.4710   30.3520 C   0  0  0  0  0  0  0  0  0  0  0  0
    6.0200   17.4440   30.2020 N   0  0  0  0  0  0  0  0  0  0  0  0
    6.1020   16.1870   30.9290 C   0  0  0  0  0  0  0  0  0  0  0  0
   -1.5278   29.4513   23.5782 H   0  0  0  0  0  0  0  0  0  0  0  0
   -0.9960   30.5247   24.8503 H   0  0  0  0  0  0  0  0  0  0  0  0
   -2.6968   30.1741   24.6571 H   0  0  0  0  0  0  0  0  0  0  0  0
   -1.2097   27.3960   23.9591 H   0  0  0  0  0  0  0  0  0  0  0  0
   -1.4083   26.4057   26.7142 H   0  0  0  0  0  0  0  0  0  0  0  0
   -1.9134   24.8786   24.1723 H   0  0  0  0  0  0  0  0  0  0  0  0
   -2.1432   23.9879   27.0457 H   0  0  0  0  0  0  0  0  0  0  0  0
   -0.9276   23.4513   25.9111 H   0  0  0  0  0  0  0  0  0  0  0  0
   -2.6066   23.0437   25.6504 H   0  0  0  0  0  0  0  0  0  0  0  0
   -3.8041   25.8078   26.3614 H   0  0  0  0  0  0  0  0  0  0  0  0
   -4.2639   24.8440   24.9784 H   0  0  0  0  0  0  0  0  0  0  0  0
   -3.7155   26.4878   24.7542 H   0  0  0  0  0  0  0  0  0  0  0  0
    0.3499   25.4937   27.6201 H   0  0  0  0  0  0  0  0  0  0  0  0
    2.5822   24.6617   25.8831 H   0  0  0  0  0  0  0  0  0  0  0  0
    2.5802   25.4517   28.7714 H   0  0  0  0  0  0  0  0  0  0  0  0
    3.3145   26.3004   27.3920 H   0  0  0  0  0  0  0  0  0  0  0  0
    4.8236   24.3430   27.1098 H   0  0  0  0  0  0  0  0  0  0  0  0
    4.2057   23.7649   28.6743 H   0  0  0  0  0  0  0  0  0  0  0  0
    5.0264   25.8543   29.7005 H   0  0  0  0  0  0  0  0  0  0  0  0
    5.7903   26.2554   28.1789 H   0  0  0  0  0  0  0  0  0  0  0  0
    7.1891   24.2761   28.2886 H   0  0  0  0  0  0  0  0  0  0  0  0
    6.3212   23.7062   29.7103 H   0  0  0  0  0  0  0  0  0  0  0  0
    7.9904   26.1261   29.5881 H   0  0  0  0  0  0  0  0  0  0  0  0
    8.4176   24.6898   30.3153 H   0  0  0  0  0  0  0  0  0  0  0  0
    2.8741   22.5042   25.6489 H   0  0  0  0  0  0  0  0  0  0  0  0
    1.6835   20.6538   27.5749 H   0  0  0  0  0  0  0  0  0  0  0  0
    2.9122   20.0751   24.8485 H   0  0  0  0  0  0  0  0  0  0  0  0
    1.2004   20.1905   25.1796 H   0  0  0  0  0  0  0  0  0  0  0  0
    2.1400   18.8935   25.8783 H   0  0  0  0  0  0  0  0  0  0  0  0
    2.8870   19.4796   28.9596 H   0  0  0  0  0  0  0  0  0  0  0  0
    5.7585   19.3257   28.5723 H   0  0  0  0  0  0  0  0  0  0  0  0
    4.6077   20.5389   31.0936 H   0  0  0  0  0  0  0  0  0  0  0  0
    5.4845   21.4167   29.8632 H   0  0  0  0  0  0  0  0  0  0  0  0
    6.3004   20.2030   30.8196 H   0  0  0  0  0  0  0  0  0  0  0  0
    6.8435   17.8248   29.8199 H   0  0  0  0  0  0  0  0  0  0  0  0
    5.1283   15.9121   31.2771 H   0  0  0  0  0  0  0  0  0  0  0  0
    6.7606   16.3006   31.7646 H   0  0  0  0  0  0  0  0  0  0  0  0
    6.4774   15.4235   30.2801 H   0  0  0  0  0  0  0  0  0  0  0  0
  1  2  1  0  0  0  0
  1 32  1  0  0  0  0
  1 33  1  0  0  0  0
  1 34  1  0  0  0  0
  2  3  2  0  0  0  0
  4  2  1  0  0  0  0
  4  5  1  0  0  0  0
  4 35  1  0  0  0  0
  5 36  1  1  0  0  0
  6  5  1  0  0  0  0
  6 11  1  0  0  0  0
  7  6  2  0  0  0  0
  8 10  1  0  0  0  0
  8  5  1  0  0  0  0
  8  9  1  0  0  0  0
  8 37  1  0  0  0  0
  9 38  1  0  0  0  0
  9 39  1  0  0  0  0
  9 40  1  0  0  0  0
 10 41  1  0  0  0  0
 10 42  1  0  0  0  0
 10 43  1  0  0  0  0
 11 12  1  0  0  0  0
 11 44  1  0  0  0  0
 12 13  1  0  0  0  0
 12 15  1  0  0  0  0
 12 45  1  6  0  0  0
 13 14  2  0  0  0  0
 15 16  1  0  0  0  0
 15 46  1  0  0  0  0
 15 47  1  0  0  0  0
 16 17  1  0  0  0  0
 16 48  1  0  0  0  0
 16 49  1  0  0  0  0
 17 18  1  0  0  0  0
 17 50  1  0  0  0  0
 17 51  1  0  0  0  0
 18 19  1  0  0  0  0
 18 52  1  0  0  0  0
 18 53  1  0  0  0  0
 19 54  1  0  0  0  0
 19 55  1  0  0  0  0
 20 21  1  0  0  0  0
 20 13  1  0  0  0  0
 20 56  1  0  0  0  0
 21 22  1  0  0  0  0
 21 57  1  1  0  0  0
 22 25  1  0  0  0  0
 23 22  2  0  0  0  0
 24 21  1  0  0  0  0
 24 58  1  0  0  0  0
 24 59  1  0  0  0  0
 24 60  1  0  0  0  0
 25 26  1  0  0  0  0
 25 61  1  0  0  0  0
 26 27  1  0  0  0  0
 26 29  1  0  0  0  0
 26 62  1  6  0  0  0
 27 30  1  0  0  0  0
 27 28  2  0  0  0  0
 29 63  1  0  0  0  0
 29 64  1  0  0  0  0
 29 65  1  0  0  0  0
 30 31  1  0  0  0  0
 30 66  1  0  0  0  0
 31 67  1  0  0  0  0
 31 68  1  0  0  0  0
 31 69  1  0  0  0  0
M  END
>  <MODEL>
       0

$$$$
selected_4mers/VKAA/857_noH.pdb
 OpenBabel03042518353D

 69 68  0  0  1  0  0  0  0  0999 V2000
   58.6790   38.2270   10.3400 C   0  0  0  0  0  0  0  0  0  0  0  0
   59.4050   39.0060   11.4430 C   0  0  0  0  0  0  0  0  0  0  0  0
   59.0180   40.1350   11.7710 O   0  0  0  0  0  0  0  0  0  0  0  0
   60.4600   38.4200   11.9940 N   0  0  0  0  0  0  0  0  0  0  0  0
   61.2310   39.0850   13.0530 C   0  0  2  0  0  0  0  0  0  0  0  0
   61.8900   40.3530   12.5240 C   0  0  0  0  0  0  0  0  0  0  0  0
   61.7540   41.4160   13.1320 O   0  0  0  0  0  0  0  0  0  0  0  0
   62.2730   38.1620   13.6880 C   0  0  0  0  0  0  0  0  0  0  0  0
   63.1790   38.9660   14.6530 C   0  0  0  0  0  0  0  0  0  0  0  0
   61.5780   36.9890   14.4140 C   0  0  0  0  0  0  0  0  0  0  0  0
   62.5620   40.2510   11.3770 N   0  0  0  0  0  0  0  0  0  0  0  0
   63.1620   41.4450   10.7480 C   0  0  2  0  0  0  0  0  0  0  0  0
   62.1290   42.5600   10.5080 C   0  0  0  0  0  0  0  0  0  0  0  0
   62.4020   43.7160   10.7820 O   0  0  0  0  0  0  0  0  0  0  0  0
   63.8800   41.1050    9.4290 C   0  0  0  0  0  0  0  0  0  0  0  0
   64.5970   42.3130    8.7930 C   0  0  0  0  0  0  0  0  0  0  0  0
   65.0060   42.0110    7.3650 C   0  0  0  0  0  0  0  0  0  0  0  0
   65.7690   43.1600    6.6970 C   0  0  0  0  0  0  0  0  0  0  0  0
   65.3910   44.5130    7.1750 N   0  0  0  0  0  0  0  0  0  0  0  0
   60.9480   42.2090    9.9930 N   0  0  0  0  0  0  0  0  0  0  0  0
   59.8820   43.1950    9.7770 C   0  0  2  0  0  0  0  0  0  0  0  0
   59.4260   43.8590   11.0820 C   0  0  0  0  0  0  0  0  0  0  0  0
   59.3290   45.0820   11.1610 O   0  0  0  0  0  0  0  0  0  0  0  0
   58.6840   42.5460    9.0680 C   0  0  0  0  0  0  0  0  0  0  0  0
   59.1760   43.0400   12.1000 N   0  0  0  0  0  0  0  0  0  0  0  0
   58.7830   43.5260   13.4170 C   0  0  2  0  0  0  0  0  0  0  0  0
   59.8100   44.4980   13.9800 C   0  0  0  0  0  0  0  0  0  0  0  0
   59.4530   45.5560   14.4960 O   0  0  0  0  0  0  0  0  0  0  0  0
   58.5650   42.3540   14.3760 C   0  0  0  0  0  0  0  0  0  0  0  0
   61.0860   44.1340   13.8740 N   0  0  0  0  0  0  0  0  0  0  0  0
   62.1600   45.0090   14.3390 C   0  0  0  0  0  0  0  0  0  0  0  0
   57.8526   38.8040    9.9807 H   0  0  0  0  0  0  0  0  0  0  0  0
   58.3212   37.2992   10.7350 H   0  0  0  0  0  0  0  0  0  0  0  0
   59.3564   38.0342    9.5345 H   0  0  0  0  0  0  0  0  0  0  0  0
   60.7308   37.5243   11.6880 H   0  0  0  0  0  0  0  0  0  0  0  0
   60.5367   39.3490   13.8232 H   0  0  0  0  0  0  0  0  0  0  0  0
   62.8924   37.7502   12.9188 H   0  0  0  0  0  0  0  0  0  0  0  0
   62.5818   39.3892   15.4335 H   0  0  0  0  0  0  0  0  0  0  0  0
   63.6680   39.7498   14.1132 H   0  0  0  0  0  0  0  0  0  0  0  0
   63.9131   38.3145   15.0790 H   0  0  0  0  0  0  0  0  0  0  0  0
   60.9501   37.3723   15.1910 H   0  0  0  0  0  0  0  0  0  0  0  0
   62.3182   36.3439   14.8393 H   0  0  0  0  0  0  0  0  0  0  0  0
   60.9843   36.4383   13.7147 H   0  0  0  0  0  0  0  0  0  0  0  0
   62.6592   39.3716   10.9453 H   0  0  0  0  0  0  0  0  0  0  0  0
   63.8884   41.8071   11.4452 H   0  0  0  0  0  0  0  0  0  0  0  0
   64.6063   40.3440    9.6246 H   0  0  0  0  0  0  0  0  0  0  0  0
   63.1315   40.7813    8.7363 H   0  0  0  0  0  0  0  0  0  0  0  0
   63.9360   43.1544    8.7973 H   0  0  0  0  0  0  0  0  0  0  0  0
   65.4776   42.5256    9.3624 H   0  0  0  0  0  0  0  0  0  0  0  0
   65.6324   41.1435    7.3674 H   0  0  0  0  0  0  0  0  0  0  0  0
   64.1079   41.8584    6.8037 H   0  0  0  0  0  0  0  0  0  0  0  0
   66.8133   43.0199    6.8833 H   0  0  0  0  0  0  0  0  0  0  0  0
   65.5198   43.1253    5.6570 H   0  0  0  0  0  0  0  0  0  0  0  0
   65.6103   44.5965    8.1676 H   0  0  0  0  0  0  0  0  0  0  0  0
   64.3909   44.6561    7.0346 H   0  0  0  0  0  0  0  0  0  0  0  0
   60.7886   41.2677    9.7527 H   0  0  0  0  0  0  0  0  0  0  0  0
   60.2900   43.9631    9.1538 H   0  0  0  0  0  0  0  0  0  0  0  0
   58.2749   41.7775    9.6901 H   0  0  0  0  0  0  0  0  0  0  0  0
   59.0061   42.1204    8.1406 H   0  0  0  0  0  0  0  0  0  0  0  0
   57.9364   43.2879    8.8794 H   0  0  0  0  0  0  0  0  0  0  0  0
   59.2595   42.0693   11.9587 H   0  0  0  0  0  0  0  0  0  0  0  0
   57.8599   44.0564   13.3096 H   0  0  0  0  0  0  0  0  0  0  0  0
   59.4812   41.8138   14.4930 H   0  0  0  0  0  0  0  0  0  0  0  0
   57.8151   41.7025   13.9784 H   0  0  0  0  0  0  0  0  0  0  0  0
   58.2463   42.7261   15.3273 H   0  0  0  0  0  0  0  0  0  0  0  0
   61.3096   43.2617   13.4761 H   0  0  0  0  0  0  0  0  0  0  0  0
   61.7396   45.9078   14.7393 H   0  0  0  0  0  0  0  0  0  0  0  0
   62.8035   45.2506   13.5190 H   0  0  0  0  0  0  0  0  0  0  0  0
   62.7233   44.5093   15.0992 H   0  0  0  0  0  0  0  0  0  0  0  0
  1  2  1  0  0  0  0
  1 32  1  0  0  0  0
  1 33  1  0  0  0  0
  1 34  1  0  0  0  0
  2  3  2  0  0  0  0
  2  4  1  0  0  0  0
  4  5  1  0  0  0  0
  4 35  1  0  0  0  0
  5  8  1  0  0  0  0
  5 36  1  1  0  0  0
  6  5  1  0  0  0  0
  6  7  2  0  0  0  0
  8 10  1  0  0  0  0
  8  9  1  0  0  0  0
  8 37  1  0  0  0  0
  9 38  1  0  0  0  0
  9 39  1  0  0  0  0
  9 40  1  0  0  0  0
 10 41  1  0  0  0  0
 10 42  1  0  0  0  0
 10 43  1  0  0  0  0
 11  6  1  0  0  0  0
 11 44  1  0  0  0  0
 12 11  1  0  0  0  0
 12 45  1  1  0  0  0
 13 12  1  0  0  0  0
 13 14  2  0  0  0  0
 15 12  1  0  0  0  0
 15 46  1  0  0  0  0
 15 47  1  0  0  0  0
 16 15  1  0  0  0  0
 16 48  1  0  0  0  0
 16 49  1  0  0  0  0
 17 16  1  0  0  0  0
 17 50  1  0  0  0  0
 17 51  1  0  0  0  0
 18 19  1  0  0  0  0
 18 17  1  0  0  0  0
 18 52  1  0  0  0  0
 18 53  1  0  0  0  0
 19 54  1  0  0  0  0
 19 55  1  0  0  0  0
 20 13  1  0  0  0  0
 20 56  1  0  0  0  0
 21 20  1  0  0  0  0
 21 22  1  0  0  0  0
 21 57  1  6  0  0  0
 22 23  2  0  0  0  0
 22 25  1  0  0  0  0
 24 21  1  0  0  0  0
 24 58  1  0  0  0  0
 24 59  1  0  0  0  0
 24 60  1  0  0  0  0
 25 26  1  0  0  0  0
 25 61  1  0  0  0  0
 26 27  1  0  0  0  0
 26 29  1  0  0  0  0
 26 62  1  6  0  0  0
 27 28  2  0  0  0  0
 29 63  1  0  0  0  0
 29 64  1  0  0  0  0
 29 65  1  0  0  0  0
 30 27  1  0  0  0  0
 30 31  1  0  0  0  0
 30 66  1  0  0  0  0
 31 67  1  0  0  0  0
 31 68  1  0  0  0  0
 31 69  1  0  0  0  0
M  END
>  <MODEL>
       0

$$$$
selected_4mers/VKAA/858_noH.pdb
 OpenBabel03042518353D

 69 68  0  0  1  0  0  0  0  0999 V2000
  -52.3060    8.4170    5.9800 C   0  0  0  0  0  0  0  0  0  0  0  0
  -52.1060    7.6130    7.2650 C   0  0  0  0  0  0  0  0  0  0  0  0
  -51.1730    6.8160    7.3600 O   0  0  0  0  0  0  0  0  0  0  0  0
  -52.9880    7.7980    8.2460 N   0  0  0  0  0  0  0  0  0  0  0  0
  -52.7700    7.1190    9.5550 C   0  0  2  0  0  0  0  0  0  0  0  0
  -53.0700    5.6190    9.4880 C   0  0  0  0  0  0  0  0  0  0  0  0
  -52.6380    4.8330   10.3480 O   0  0  0  0  0  0  0  0  0  0  0  0
  -53.5380    7.8030   10.7260 C   0  0  0  0  0  0  0  0  0  0  0  0
  -52.9790    9.1810   10.9920 C   0  0  0  0  0  0  0  0  0  0  0  0
  -55.0460    7.8410   10.4720 C   0  0  0  0  0  0  0  0  0  0  0  0
  -53.8340    5.2130    8.4850 N   0  0  0  0  0  0  0  0  0  0  0  0
  -54.1720    3.7960    8.3150 C   0  0  2  0  0  0  0  0  0  0  0  0
  -53.1300    3.0280    7.5100 C   0  0  0  0  0  0  0  0  0  0  0  0
  -53.0400    1.7910    7.5860 O   0  0  0  0  0  0  0  0  0  0  0  0
  -55.5250    3.6920    7.6230 C   0  0  0  0  0  0  0  0  0  0  0  0
  -56.6840    3.9070    8.5290 C   0  0  0  0  0  0  0  0  0  0  0  0
  -57.9620    3.9220    7.7560 C   0  0  0  0  0  0  0  0  0  0  0  0
  -59.1400    4.0030    8.7110 C   0  0  0  0  0  0  0  0  0  0  0  0
  -60.4180    4.1550    7.9630 N   0  0  0  0  0  0  0  0  0  0  0  0
  -52.3230    3.7570    6.7560 N   0  0  0  0  0  0  0  0  0  0  0  0
  -51.4190    3.1540    5.7920 C   0  0  2  0  0  0  0  0  0  0  0  0
  -50.0940    2.7380    6.3970 C   0  0  0  0  0  0  0  0  0  0  0  0
  -49.4080    1.8720    5.8360 O   0  0  0  0  0  0  0  0  0  0  0  0
  -51.1470    4.1390    4.6600 C   0  0  0  0  0  0  0  0  0  0  0  0
  -49.7090    3.3870    7.4960 N   0  0  0  0  0  0  0  0  0  0  0  0
  -48.3610    3.2370    8.0700 C   0  0  2  0  0  0  0  0  0  0  0  0
  -48.3200    3.6530    9.5180 C   0  0  0  0  0  0  0  0  0  0  0  0
  -49.3190    4.1390   10.0640 O   0  0  0  0  0  0  0  0  0  0  0  0
  -47.3170    4.0190    7.2630 C   0  0  0  0  0  0  0  0  0  0  0  0
  -47.1620    3.4660   10.1460 N   0  0  0  0  0  0  0  0  0  0  0  0
  -47.0280    3.7880   11.5550 C   0  0  0  0  0  0  0  0  0  0  0  0
  -51.5325    8.1725    5.2823 H   0  0  0  0  0  0  0  0  0  0  0  0
  -52.2671    9.4626    6.2038 H   0  0  0  0  0  0  0  0  0  0  0  0
  -53.2584    8.1785    5.5546 H   0  0  0  0  0  0  0  0  0  0  0  0
  -53.7734    8.3755    8.1083 H   0  0  0  0  0  0  0  0  0  0  0  0
  -51.7268    7.2255    9.7681 H   0  0  0  0  0  0  0  0  0  0  0  0
  -53.3920    7.2118   11.6058 H   0  0  0  0  0  0  0  0  0  0  0  0
  -53.1129    9.7937   10.1250 H   0  0  0  0  0  0  0  0  0  0  0  0
  -51.9358    9.1053   11.2176 H   0  0  0  0  0  0  0  0  0  0  0  0
  -53.4924    9.6201   11.8218 H   0  0  0  0  0  0  0  0  0  0  0  0
  -55.2458    8.4239    9.5972 H   0  0  0  0  0  0  0  0  0  0  0  0
  -55.5385    8.2810   11.3139 H   0  0  0  0  0  0  0  0  0  0  0  0
  -55.4085    6.8447   10.3272 H   0  0  0  0  0  0  0  0  0  0  0  0
  -54.1808    5.8736    7.8427 H   0  0  0  0  0  0  0  0  0  0  0  0
  -54.2010    3.3532    9.2886 H   0  0  0  0  0  0  0  0  0  0  0  0
  -55.6096    2.7155    7.1939 H   0  0  0  0  0  0  0  0  0  0  0  0
  -55.5578    4.4685    6.8876 H   0  0  0  0  0  0  0  0  0  0  0  0
  -56.5671    4.8437    9.0328 H   0  0  0  0  0  0  0  0  0  0  0  0
  -56.7199    3.1064    9.2380 H   0  0  0  0  0  0  0  0  0  0  0  0
  -58.0364    3.0264    7.1753 H   0  0  0  0  0  0  0  0  0  0  0  0
  -57.9731    4.7736    7.1083 H   0  0  0  0  0  0  0  0  0  0  0  0
  -59.0099    4.8454    9.3578 H   0  0  0  0  0  0  0  0  0  0  0  0
  -59.1820    3.0985    9.2810 H   0  0  0  0  0  0  0  0  0  0  0  0
  -60.3909    5.0147    7.4147 H   0  0  0  0  0  0  0  0  0  0  0  0
  -61.1950    4.1967    8.6224 H   0  0  0  0  0  0  0  0  0  0  0  0
  -52.3357    4.7368    6.8512 H   0  0  0  0  0  0  0  0  0  0  0  0
  -51.9030    2.2704    5.4316 H   0  0  0  0  0  0  0  0  0  0  0  0
  -50.6638    5.0091    5.0528 H   0  0  0  0  0  0  0  0  0  0  0  0
  -52.0722    4.4208    4.2024 H   0  0  0  0  0  0  0  0  0  0  0  0
  -50.5141    3.6782    3.9306 H   0  0  0  0  0  0  0  0  0  0  0  0
  -50.3493    3.9886    7.9402 H   0  0  0  0  0  0  0  0  0  0  0  0
  -48.1178    2.1963    8.0174 H   0  0  0  0  0  0  0  0  0  0  0  0
  -47.5440    5.0639    7.3040 H   0  0  0  0  0  0  0  0  0  0  0  0
  -47.3336    3.6901    6.2449 H   0  0  0  0  0  0  0  0  0  0  0  0
  -46.3452    3.8486    7.6771 H   0  0  0  0  0  0  0  0  0  0  0  0
  -46.3904    3.1066    9.6514 H   0  0  0  0  0  0  0  0  0  0  0  0
  -47.9591    4.1634   11.9252 H   0  0  0  0  0  0  0  0  0  0  0  0
  -46.2686    4.5313   11.6803 H   0  0  0  0  0  0  0  0  0  0  0  0
  -46.7575    2.9067   12.0981 H   0  0  0  0  0  0  0  0  0  0  0  0
  1  2  1  0  0  0  0
  1 32  1  0  0  0  0
  1 33  1  0  0  0  0
  1 34  1  0  0  0  0
  2  3  2  0  0  0  0
  2  4  1  0  0  0  0
  4  5  1  0  0  0  0
  4 35  1  0  0  0  0
  5  8  1  0  0  0  0
  5 36  1  1  0  0  0
  6  5  1  0  0  0  0
  6  7  2  0  0  0  0
  8  9  1  0  0  0  0
  8 37  1  0  0  0  0
  9 38  1  0  0  0  0
  9 39  1  0  0  0  0
  9 40  1  0  0  0  0
 10  8  1  0  0  0  0
 10 41  1  0  0  0  0
 10 42  1  0  0  0  0
 10 43  1  0  0  0  0
 11  6  1  0  0  0  0
 11 44  1  0  0  0  0
 12 11  1  0  0  0  0
 12 45  1  1  0  0  0
 13 14  2  0  0  0  0
 13 12  1  0  0  0  0
 15 12  1  0  0  0  0
 15 16  1  0  0  0  0
 15 46  1  0  0  0  0
 15 47  1  0  0  0  0
 16 48  1  0  0  0  0
 16 49  1  0  0  0  0
 17 16  1  0  0  0  0
 17 18  1  0  0  0  0
 17 50  1  0  0  0  0
 17 51  1  0  0  0  0
 18 52  1  0  0  0  0
 18 53  1  0  0  0  0
 19 18  1  0  0  0  0
 19 54  1  0  0  0  0
 19 55  1  0  0  0  0
 20 13  1  0  0  0  0
 20 56  1  0  0  0  0
 21 22  1  0  0  0  0
 21 20  1  0  0  0  0
 21 57  1  6  0  0  0
 22 25  1  0  0  0  0
 23 22  2  0  0  0  0
 24 21  1  0  0  0  0
 24 58  1  0  0  0  0
 24 59  1  0  0  0  0
 24 60  1  0  0  0  0
 25 26  1  0  0  0  0
 25 61  1  0  0  0  0
 26 27  1  0  0  0  0
 26 62  1  6  0  0  0
 27 28  2  0  0  0  0
 27 30  1  0  0  0  0
 29 26  1  0  0  0  0
 29 63  1  0  0  0  0
 29 64  1  0  0  0  0
 29 65  1  0  0  0  0
 30 31  1  0  0  0  0
 30 66  1  0  0  0  0
 31 67  1  0  0  0  0
 31 68  1  0  0  0  0
 31 69  1  0  0  0  0
M  END
>  <MODEL>
       0

$$$$
selected_4mers/VKAA/859_noH.pdb
 OpenBabel03042518353D

 69 68  0  0  1  0  0  0  0  0999 V2000
   -7.0280   20.3090   36.1540 C   0  0  0  0  0  0  0  0  0  0  0  0
   -5.6770   19.7490   36.5920 C   0  0  0  0  0  0  0  0  0  0  0  0
   -5.5430   19.2470   37.7100 O   0  0  0  0  0  0  0  0  0  0  0  0
   -4.6880   19.8060   35.7030 N   0  0  0  0  0  0  0  0  0  0  0  0
   -3.3450   19.3200   36.0260 C   0  0  2  0  0  0  0  0  0  0  0  0
   -2.7230   20.2950   37.0270 C   0  0  0  0  0  0  0  0  0  0  0  0
   -2.6490   21.4950   36.7680 O   0  0  0  0  0  0  0  0  0  0  0  0
   -2.4500   19.2100   34.7560 C   0  0  0  0  0  0  0  0  0  0  0  0
   -1.0180   18.8380   35.1390 C   0  0  0  0  0  0  0  0  0  0  0  0
   -3.0180   18.1620   33.8030 C   0  0  0  0  0  0  0  0  0  0  0  0
   -2.3330   19.7820   38.1900 N   0  0  0  0  0  0  0  0  0  0  0  0
   -1.7420   20.6130   39.2340 C   0  0  2  0  0  0  0  0  0  0  0  0
   -0.2310   20.4530   39.3330 C   0  0  0  0  0  0  0  0  0  0  0  0
    0.4740   21.4000   39.6850 O   0  0  0  0  0  0  0  0  0  0  0  0
   -2.3750   20.2970   40.5950 C   0  0  0  0  0  0  0  0  0  0  0  0
   -3.8880   20.3910   40.6160 C   0  0  0  0  0  0  0  0  0  0  0  0
   -4.3750   21.7500   40.1460 C   0  0  0  0  0  0  0  0  0  0  0  0
   -5.8920   21.7770   40.0390 C   0  0  0  0  0  0  0  0  0  0  0  0
   -6.3930   23.0380   39.4200 N   0  0  0  0  0  0  0  0  0  0  0  0
    0.2620   19.2580   39.0260 N   0  0  0  0  0  0  0  0  0  0  0  0
    1.6920   18.9820   39.0990 C   0  0  2  0  0  0  0  0  0  0  0  0
    2.1090   17.9100   38.1050 C   0  0  0  0  0  0  0  0  0  0  0  0
    1.3560   16.9750   37.8320 O   0  0  0  0  0  0  0  0  0  0  0  0
    2.0650   18.5490   40.5100 C   0  0  0  0  0  0  0  0  0  0  0  0
    3.3170   18.0570   37.5700 N   0  0  0  0  0  0  0  0  0  0  0  0
    3.8750   17.1040   36.6160 C   0  0  2  0  0  0  0  0  0  0  0  0
    5.3320   16.8430   36.9880 C   0  0  0  0  0  0  0  0  0  0  0  0
    6.1410   17.7700   37.0590 O   0  0  0  0  0  0  0  0  0  0  0  0
    3.7740   17.6440   35.1980 C   0  0  0  0  0  0  0  0  0  0  0  0
    5.6450   15.5800   37.2520 N   0  0  0  0  0  0  0  0  0  0  0  0
    6.9880   15.1610   37.6340 C   0  0  0  0  0  0  0  0  0  0  0  0
   -6.9474   20.6991   35.1609 H   0  0  0  0  0  0  0  0  0  0  0  0
   -7.3232   21.0914   36.8216 H   0  0  0  0  0  0  0  0  0  0  0  0
   -7.7603   19.5291   36.1725 H   0  0  0  0  0  0  0  0  0  0  0  0
   -4.8630   20.1825   34.8103 H   0  0  0  0  0  0  0  0  0  0  0  0
   -3.4151   18.3372   36.4432 H   0  0  0  0  0  0  0  0  0  0  0  0
   -2.4391   20.1617   34.2671 H   0  0  0  0  0  0  0  0  0  0  0  0
   -1.0156   17.8870   35.6293 H   0  0  0  0  0  0  0  0  0  0  0  0
   -0.6210   19.5806   35.7991 H   0  0  0  0  0  0  0  0  0  0  0  0
   -0.4149   18.7859   34.2567 H   0  0  0  0  0  0  0  0  0  0  0  0
   -3.0307   17.2084   34.2881 H   0  0  0  0  0  0  0  0  0  0  0  0
   -2.4066   18.1082   32.9265 H   0  0  0  0  0  0  0  0  0  0  0  0
   -4.0150   18.4346   33.5262 H   0  0  0  0  0  0  0  0  0  0  0  0
   -2.4458   18.8173   38.3509 H   0  0  0  0  0  0  0  0  0  0  0  0
   -1.9433   21.6278   38.9609 H   0  0  0  0  0  0  0  0  0  0  0  0
   -1.9863   20.9877   41.3139 H   0  0  0  0  0  0  0  0  0  0  0  0
   -2.1279   19.2804   40.8193 H   0  0  0  0  0  0  0  0  0  0  0  0
   -4.2908   19.6371   39.9723 H   0  0  0  0  0  0  0  0  0  0  0  0
   -4.2160   20.2508   41.6248 H   0  0  0  0  0  0  0  0  0  0  0  0
   -4.0600   22.4959   40.8455 H   0  0  0  0  0  0  0  0  0  0  0  0
   -3.9610   21.9452   39.1788 H   0  0  0  0  0  0  0  0  0  0  0  0
   -6.2095   20.9495   39.4395 H   0  0  0  0  0  0  0  0  0  0  0  0
   -6.2913   21.7174   41.0299 H   0  0  0  0  0  0  0  0  0  0  0  0
   -6.0264   23.1203   38.4717 H   0  0  0  0  0  0  0  0  0  0  0  0
   -6.0829   23.8357   39.9749 H   0  0  0  0  0  0  0  0  0  0  0  0
   -0.3521   18.5426   38.7428 H   0  0  0  0  0  0  0  0  0  0  0  0
    2.2115   19.8831   38.8480 H   0  0  0  0  0  0  0  0  0  0  0  0
    1.5432   17.6479   40.7562 H   0  0  0  0  0  0  0  0  0  0  0  0
    1.7943   19.3185   41.2025 H   0  0  0  0  0  0  0  0  0  0  0  0
    3.1196   18.3763   40.5630 H   0  0  0  0  0  0  0  0  0  0  0  0
    3.8563   18.8394   37.8274 H   0  0  0  0  0  0  0  0  0  0  0  0
    3.3220   16.1888   36.6543 H   0  0  0  0  0  0  0  0  0  0  0  0
    4.3187   18.5622   35.1264 H   0  0  0  0  0  0  0  0  0  0  0  0
    2.7467   17.8189   34.9553 H   0  0  0  0  0  0  0  0  0  0  0  0
    4.1856   16.9309   34.5146 H   0  0  0  0  0  0  0  0  0  0  0  0
    4.9393   14.8966   37.1869 H   0  0  0  0  0  0  0  0  0  0  0  0
    7.6339   16.0137   37.6594 H   0  0  0  0  0  0  0  0  0  0  0  0
    7.3577   14.4546   36.9204 H   0  0  0  0  0  0  0  0  0  0  0  0
    6.9581   14.7072   38.6025 H   0  0  0  0  0  0  0  0  0  0  0  0
  1  2  1  0  0  0  0
  1 32  1  0  0  0  0
  1 33  1  0  0  0  0
  1 34  1  0  0  0  0
  2  3  2  0  0  0  0
  4  5  1  0  0  0  0
  4  2  1  0  0  0  0
  4 35  1  0  0  0  0
  5  6  1  0  0  0  0
  5 36  1  1  0  0  0
  6 11  1  0  0  0  0
  7  6  2  0  0  0  0
  8  9  1  0  0  0  0
  8  5  1  0  0  0  0
  8 37  1  0  0  0  0
  9 38  1  0  0  0  0
  9 39  1  0  0  0  0
  9 40  1  0  0  0  0
 10  8  1  0  0  0  0
 10 41  1  0  0  0  0
 10 42  1  0  0  0  0
 10 43  1  0  0  0  0
 11 12  1  0  0  0  0
 11 44  1  0  0  0  0
 12 13  1  0  0  0  0
 12 15  1  0  0  0  0
 12 45  1  6  0  0  0
 13 14  2  0  0  0  0
 15 16  1  0  0  0  0
 15 46  1  0  0  0  0
 15 47  1  0  0  0  0
 16 48  1  0  0  0  0
 16 49  1  0  0  0  0
 17 16  1  0  0  0  0
 17 50  1  0  0  0  0
 17 51  1  0  0  0  0
 18 17  1  0  0  0  0
 18 52  1  0  0  0  0
 18 53  1  0  0  0  0
 19 18  1  0  0  0  0
 19 54  1  0  0  0  0
 19 55  1  0  0  0  0
 20 21  1  0  0  0  0
 20 13  1  0  0  0  0
 20 56  1  0  0  0  0
 21 24  1  0  0  0  0
 21 57  1  6  0  0  0
 22 21  1  0  0  0  0
 23 22  2  0  0  0  0
 24 58  1  0  0  0  0
 24 59  1  0  0  0  0
 24 60  1  0  0  0  0
 25 22  1  0  0  0  0
 25 61  1  0  0  0  0
 26 27  1  0  0  0  0
 26 25  1  0  0  0  0
 26 62  1  1  0  0  0
 27 28  2  0  0  0  0
 27 30  1  0  0  0  0
 29 26  1  0  0  0  0
 29 63  1  0  0  0  0
 29 64  1  0  0  0  0
 29 65  1  0  0  0  0
 30 31  1  0  0  0  0
 30 66  1  0  0  0  0
 31 67  1  0  0  0  0
 31 68  1  0  0  0  0
 31 69  1  0  0  0  0
M  END
>  <MODEL>
       0

$$$$
