selected_4mers/VKAL/845_noH.pdb
 OpenBabel03042518353D

 78 77  0  0  1  0  0  0  0  0999 V2000
   -5.5970   13.3800   20.5500 C   0  0  0  0  0  0  0  0  0  0  0  0
   -6.8530   13.8450   19.8070 C   0  0  0  0  0  0  0  0  0  0  0  0
   -6.7760   14.7570   18.9780 O   0  0  0  0  0  0  0  0  0  0  0  0
   -8.0070   13.2350   20.0920 N   0  0  0  0  0  0  0  0  0  0  0  0
   -9.2590   13.6530   19.4330 C   0  0  2  0  0  0  0  0  0  0  0  0
   -9.5180   15.1210   19.7840 C   0  0  0  0  0  0  0  0  0  0  0  0
   -9.8100   15.9330   18.9090 O   0  0  0  0  0  0  0  0  0  0  0  0
  -10.4960   12.7940   19.8770 C   0  0  0  0  0  0  0  0  0  0  0  0
  -11.7930   13.4030   19.3490 C   0  0  0  0  0  0  0  0  0  0  0  0
  -10.3660   11.3560   19.3700 C   0  0  0  0  0  0  0  0  0  0  0  0
   -9.3250   15.4690   21.0530 N   0  0  0  0  0  0  0  0  0  0  0  0
   -9.5520   16.8370   21.4980 C   0  0  2  0  0  0  0  0  0  0  0  0
   -8.6580   17.8290   20.7750 C   0  0  0  0  0  0  0  0  0  0  0  0
   -9.1190   18.8910   20.3310 O   0  0  0  0  0  0  0  0  0  0  0  0
   -9.3790   16.9590   23.0130 C   0  0  0  0  0  0  0  0  0  0  0  0
  -10.6090   16.5570   23.7910 C   0  0  0  0  0  0  0  0  0  0  0  0
  -10.4860   16.8910   25.2700 C   0  0  0  0  0  0  0  0  0  0  0  0
   -9.7430   15.8140   26.0180 C   0  0  0  0  0  0  0  0  0  0  0  0
   -9.5910   16.1390   27.4680 N   0  0  0  0  0  0  0  0  0  0  0  0
   -7.3860   17.4770   20.6380 N   0  0  0  0  0  0  0  0  0  0  0  0
   -6.4250   18.3280   19.9540 C   0  0  2  0  0  0  0  0  0  0  0  0
   -6.7540   18.4700   18.4650 C   0  0  0  0  0  0  0  0  0  0  0  0
   -6.6480   19.5630   17.9020 O   0  0  0  0  0  0  0  0  0  0  0  0
   -5.0090   17.7650   20.1370 C   0  0  0  0  0  0  0  0  0  0  0  0
   -7.1490   17.3760   17.8200 N   0  0  0  0  0  0  0  0  0  0  0  0
   -7.4830   17.4280   16.3900 C   0  0  2  0  0  0  0  0  0  0  0  0
   -8.7760   18.2140   16.1590 C   0  0  0  0  0  0  0  0  0  0  0  0
   -8.8860   18.9960   15.1980 O   0  0  0  0  0  0  0  0  0  0  0  0
   -7.6130   16.0150   15.8080 C   0  0  0  0  0  0  0  0  0  0  0  0
   -6.2890   15.2760   15.6260 C   0  0  0  0  0  0  0  0  0  0  0  0
   -6.5280   13.8040   15.3640 C   0  0  0  0  0  0  0  0  0  0  0  0
   -5.5290   15.9120   14.4790 C   0  0  0  0  0  0  0  0  0  0  0  0
   -9.7370   18.0180   17.0570 N   0  0  0  0  0  0  0  0  0  0  0  0
  -11.0200   18.7060   16.9800 C   0  0  0  0  0  0  0  0  0  0  0  0
   -4.7556   13.9538   20.2219 H   0  0  0  0  0  0  0  0  0  0  0  0
   -5.4242   12.3442   20.3449 H   0  0  0  0  0  0  0  0  0  0  0  0
   -5.7338   13.5172   21.6023 H   0  0  0  0  0  0  0  0  0  0  0  0
   -8.0220   12.5004   20.7473 H   0  0  0  0  0  0  0  0  0  0  0  0
   -9.1399   13.5121   18.3790 H   0  0  0  0  0  0  0  0  0  0  0  0
  -10.5221   12.7871   20.9467 H   0  0  0  0  0  0  0  0  0  0  0  0
  -11.7729   13.4127   18.2792 H   0  0  0  0  0  0  0  0  0  0  0  0
  -11.8909   14.4044   19.7130 H   0  0  0  0  0  0  0  0  0  0  0  0
  -12.6240   12.8186   19.6848 H   0  0  0  0  0  0  0  0  0  0  0  0
  -10.3393   11.3560   18.3003 H   0  0  0  0  0  0  0  0  0  0  0  0
  -11.2044   10.7822   19.7059 H   0  0  0  0  0  0  0  0  0  0  0  0
   -9.4634   10.9243   19.7493 H   0  0  0  0  0  0  0  0  0  0  0  0
   -9.0242   14.7918   21.7012 H   0  0  0  0  0  0  0  0  0  0  0  0
  -10.5644   17.0805   21.2516 H   0  0  0  0  0  0  0  0  0  0  0  0
   -9.1473   17.9770   23.2471 H   0  0  0  0  0  0  0  0  0  0  0  0
   -8.5933   16.2901   23.2962 H   0  0  0  0  0  0  0  0  0  0  0  0
  -10.7536   15.5020   23.6865 H   0  0  0  0  0  0  0  0  0  0  0  0
  -11.4404   17.1040   23.3980 H   0  0  0  0  0  0  0  0  0  0  0  0
  -11.4664   16.9911   25.6868 H   0  0  0  0  0  0  0  0  0  0  0  0
   -9.9378   17.8051   25.3639 H   0  0  0  0  0  0  0  0  0  0  0  0
   -8.7706   15.7020   25.5858 H   0  0  0  0  0  0  0  0  0  0  0  0
  -10.3089   14.9092   25.9409 H   0  0  0  0  0  0  0  0  0  0  0  0
   -9.0535   17.0000   27.5689 H   0  0  0  0  0  0  0  0  0  0  0  0
   -9.1031   15.3765   27.9380 H   0  0  0  0  0  0  0  0  0  0  0  0
   -7.0845   16.6165   21.0094 H   0  0  0  0  0  0  0  0  0  0  0  0
   -6.4785   19.3042   20.3889 H   0  0  0  0  0  0  0  0  0  0  0  0
   -4.9544   16.7887   19.7024 H   0  0  0  0  0  0  0  0  0  0  0  0
   -4.7816   17.7040   21.1808 H   0  0  0  0  0  0  0  0  0  0  0  0
   -4.3038   18.4097   19.6554 H   0  0  0  0  0  0  0  0  0  0  0  0
   -7.2183   16.5225   18.3057 H   0  0  0  0  0  0  0  0  0  0  0  0
   -6.6846   17.9319   15.8865 H   0  0  0  0  0  0  0  0  0  0  0  0
   -8.2287   15.4386   16.4664 H   0  0  0  0  0  0  0  0  0  0  0  0
   -8.0331   16.1281   14.8304 H   0  0  0  0  0  0  0  0  0  0  0  0
   -5.7100   15.3520   16.5226 H   0  0  0  0  0  0  0  0  0  0  0  0
   -7.1065   13.6900   14.4711 H   0  0  0  0  0  0  0  0  0  0  0  0
   -7.0579   13.3763   16.1893 H   0  0  0  0  0  0  0  0  0  0  0  0
   -5.5885   13.3055   15.2464 H   0  0  0  0  0  0  0  0  0  0  0  0
   -6.1077   15.8362   13.5822 H   0  0  0  0  0  0  0  0  0  0  0  0
   -4.5959   15.4057   14.3452 H   0  0  0  0  0  0  0  0  0  0  0  0
   -5.3470   16.9430   14.6999 H   0  0  0  0  0  0  0  0  0  0  0  0
   -9.5771   17.3886   17.7970 H   0  0  0  0  0  0  0  0  0  0  0  0
  -11.0297   19.3479   16.1240 H   0  0  0  0  0  0  0  0  0  0  0  0
  -11.1655   19.2895   17.8650 H   0  0  0  0  0  0  0  0  0  0  0  0
  -11.8065   17.9856   16.8945 H   0  0  0  0  0  0  0  0  0  0  0  0
  1 35  1  0  0  0  0
  1 36  1  0  0  0  0
  1 37  1  0  0  0  0
  2  4  1  0  0  0  0
  2  1  1  0  0  0  0
  3  2  2  0  0  0  0
  4 38  1  0  0  0  0
  5  6  1  0  0  0  0
  5  8  1  0  0  0  0
  5  4  1  0  0  0  0
  5 39  1  6  0  0  0
  6 11  1  0  0  0  0
  7  6  2  0  0  0  0
  8 40  1  0  0  0  0
  9  8  1  0  0  0  0
  9 41  1  0  0  0  0
  9 42  1  0  0  0  0
  9 43  1  0  0  0  0
 10  8  1  0  0  0  0
 10 44  1  0  0  0  0
 10 45  1  0  0  0  0
 10 46  1  0  0  0  0
 11 12  1  0  0  0  0
 11 47  1  0  0  0  0
 12 15  1  0  0  0  0
 12 48  1  6  0  0  0
 13 12  1  0  0  0  0
 14 13  2  0  0  0  0
 15 16  1  0  0  0  0
 15 49  1  0  0  0  0
 15 50  1  0  0  0  0
 16 17  1  0  0  0  0
 16 51  1  0  0  0  0
 16 52  1  0  0  0  0
 17 18  1  0  0  0  0
 17 53  1  0  0  0  0
 17 54  1  0  0  0  0
 18 19  1  0  0  0  0
 18 55  1  0  0  0  0
 18 56  1  0  0  0  0
 19 57  1  0  0  0  0
 19 58  1  0  0  0  0
 20 13  1  0  0  0  0
 20 59  1  0  0  0  0
 21 24  1  0  0  0  0
 21 20  1  0  0  0  0
 21 60  1  1  0  0  0
 22 21  1  0  0  0  0
 23 22  2  0  0  0  0
 24 61  1  0  0  0  0
 24 62  1  0  0  0  0
 24 63  1  0  0  0  0
 25 22  1  0  0  0  0
 25 64  1  0  0  0  0
 26 25  1  0  0  0  0
 26 65  1  6  0  0  0
 27 26  1  0  0  0  0
 27 33  1  0  0  0  0
 28 27  2  0  0  0  0
 29 26  1  0  0  0  0
 29 66  1  0  0  0  0
 29 67  1  0  0  0  0
 30 29  1  0  0  0  0
 30 68  1  0  0  0  0
 31 30  1  0  0  0  0
 31 69  1  0  0  0  0
 31 70  1  0  0  0  0
 31 71  1  0  0  0  0
 32 30  1  0  0  0  0
 32 72  1  0  0  0  0
 32 73  1  0  0  0  0
 32 74  1  0  0  0  0
 33 75  1  0  0  0  0
 34 33  1  0  0  0  0
 34 76  1  0  0  0  0
 34 77  1  0  0  0  0
 34 78  1  0  0  0  0
M  END
>  <MODEL>
       0

$$$$
selected_4mers/VKAL/846_noH.pdb
 OpenBabel03042518353D

 78 77  0  0  1  0  0  0  0  0999 V2000
   37.1650   53.4950  107.5980 C   0  0  0  0  0  0  0  0  0  0  0  0
   37.8530   52.7540  108.7310 C   0  0  0  0  0  0  0  0  0  0  0  0
   38.4980   51.7350  108.5080 O   0  0  0  0  0  0  0  0  0  0  0  0
   37.7200   53.2810  109.9440 N   0  0  0  0  0  0  0  0  0  0  0  0
   38.3230   52.6660  111.1190 C   0  0  2  0  0  0  0  0  0  0  0  0
   37.7700   51.2660  111.3100 C   0  0  0  0  0  0  0  0  0  0  0  0
   38.4940   50.3500  111.6860 O   0  0  0  0  0  0  0  0  0  0  0  0
   38.0480   53.4950  112.3830 C   0  0  0  0  0  0  0  0  0  0  0  0
   38.4430   52.7060  113.6300 C   0  0  0  0  0  0  0  0  0  0  0  0
   38.8340   54.7910  112.3200 C   0  0  0  0  0  0  0  0  0  0  0  0
   36.4830   51.1010  111.0430 N   0  0  0  0  0  0  0  0  0  0  0  0
   35.8440   49.7990  111.1750 C   0  0  2  0  0  0  0  0  0  0  0  0
   36.4250   48.8500  110.1290 C   0  0  0  0  0  0  0  0  0  0  0  0
   36.7550   47.6990  110.4310 O   0  0  0  0  0  0  0  0  0  0  0  0
   34.3340   49.9400  110.9780 C   0  0  0  0  0  0  0  0  0  0  0  0
   33.5540   48.6440  111.0930 C   0  0  0  0  0  0  0  0  0  0  0  0
   32.0660   48.8990  110.8790 C   0  0  0  0  0  0  0  0  0  0  0  0
   31.2380   47.6330  111.0200 C   0  0  0  0  0  0  0  0  0  0  0  0
   29.7860   47.9030  110.7870 N   0  0  0  0  0  0  0  0  0  0  0  0
   36.5590   49.3460  108.9000 N   0  0  0  0  0  0  0  0  0  0  0  0
   37.1020   48.5590  107.7940 C   0  0  2  0  0  0  0  0  0  0  0  0
   38.5340   48.1000  108.0750 C   0  0  0  0  0  0  0  0  0  0  0  0
   38.9100   46.9740  107.7520 O   0  0  0  0  0  0  0  0  0  0  0  0
   37.0550   49.3780  106.5000 C   0  0  0  0  0  0  0  0  0  0  0  0
   39.3320   48.9740  108.6750 N   0  0  0  0  0  0  0  0  0  0  0  0
   40.7140   48.6390  108.9910 C   0  0  2  0  0  0  0  0  0  0  0  0
   40.7890   47.6200  110.1330 C   0  0  0  0  0  0  0  0  0  0  0  0
   41.5530   46.6570  110.0670 O   0  0  0  0  0  0  0  0  0  0  0  0
   41.4960   49.9100  109.3560 C   0  0  0  0  0  0  0  0  0  0  0  0
   41.8020   50.8800  108.2060 C   0  0  0  0  0  0  0  0  0  0  0  0
   42.2890   52.2100  108.7520 C   0  0  0  0  0  0  0  0  0  0  0  0
   42.8450   50.2660  107.2900 C   0  0  0  0  0  0  0  0  0  0  0  0
   39.9930   47.8290  111.1760 N   0  0  0  0  0  0  0  0  0  0  0  0
   39.9950   46.9140  112.3110 C   0  0  0  0  0  0  0  0  0  0  0  0
   37.3412   52.9805  106.6765 H   0  0  0  0  0  0  0  0  0  0  0  0
   37.5563   54.4887  107.5322 H   0  0  0  0  0  0  0  0  0  0  0  0
   36.1127   53.5379  107.7870 H   0  0  0  0  0  0  0  0  0  0  0  0
   37.1996   54.1098  110.0514 H   0  0  0  0  0  0  0  0  0  0  0  0
   39.3806   52.6229  110.9621 H   0  0  0  0  0  0  0  0  0  0  0  0
   37.0023   53.7158  112.4354 H   0  0  0  0  0  0  0  0  0  0  0  0
   39.4877   52.4777  113.5916 H   0  0  0  0  0  0  0  0  0  0  0  0
   37.8804   51.7967  113.6698 H   0  0  0  0  0  0  0  0  0  0  0  0
   38.2376   53.2909  114.5021 H   0  0  0  0  0  0  0  0  0  0  0  0
   39.8799   54.5716  112.2675 H   0  0  0  0  0  0  0  0  0  0  0  0
   38.6349   55.3718  113.1963 H   0  0  0  0  0  0  0  0  0  0  0  0
   38.5415   55.3437  111.4517 H   0  0  0  0  0  0  0  0  0  0  0  0
   35.9480   51.8736  110.7496 H   0  0  0  0  0  0  0  0  0  0  0  0
   36.0258   49.4045  112.1529 H   0  0  0  0  0  0  0  0  0  0  0  0
   33.9636   50.6183  111.7180 H   0  0  0  0  0  0  0  0  0  0  0  0
   34.1921   50.2893  109.9766 H   0  0  0  0  0  0  0  0  0  0  0  0
   33.9038   47.9550  110.3528 H   0  0  0  0  0  0  0  0  0  0  0  0
   33.6993   48.2369  112.0718 H   0  0  0  0  0  0  0  0  0  0  0  0
   31.7313   49.6116  111.6036 H   0  0  0  0  0  0  0  0  0  0  0  0
   31.9367   49.2654  109.8820 H   0  0  0  0  0  0  0  0  0  0  0  0
   31.5776   46.9133  110.3047 H   0  0  0  0  0  0  0  0  0  0  0  0
   31.3562   47.2621  112.0167 H   0  0  0  0  0  0  0  0  0  0  0  0
   29.6539   48.2579  109.8399 H   0  0  0  0  0  0  0  0  0  0  0  0
   29.4570   48.5963  111.4589 H   0  0  0  0  0  0  0  0  0  0  0  0
   36.2826   50.2756  108.7304 H   0  0  0  0  0  0  0  0  0  0  0  0
   36.4969   47.6832  107.6857 H   0  0  0  0  0  0  0  0  0  0  0  0
   37.6605   50.2534  106.6097 H   0  0  0  0  0  0  0  0  0  0  0  0
   36.0448   49.6663  106.2968 H   0  0  0  0  0  0  0  0  0  0  0  0
   37.4269   48.7864  105.6897 H   0  0  0  0  0  0  0  0  0  0  0  0
   38.9840   49.8643  108.9107 H   0  0  0  0  0  0  0  0  0  0  0  0
   41.1564   48.1948  108.1239 H   0  0  0  0  0  0  0  0  0  0  0  0
   40.9263   50.4432  110.0881 H   0  0  0  0  0  0  0  0  0  0  0  0
   42.4499   49.5670  109.6985 H   0  0  0  0  0  0  0  0  0  0  0  0
   40.9071   51.0572  107.6468 H   0  0  0  0  0  0  0  0  0  0  0  0
   43.1852   52.0573  109.3162 H   0  0  0  0  0  0  0  0  0  0  0  0
   41.5368   52.6327  109.3848 H   0  0  0  0  0  0  0  0  0  0  0  0
   42.4882   52.8775  107.9398 H   0  0  0  0  0  0  0  0  0  0  0  0
   43.7433   50.0858  107.8426 H   0  0  0  0  0  0  0  0  0  0  0  0
   43.0512   50.9380  106.4833 H   0  0  0  0  0  0  0  0  0  0  0  0
   42.4757   49.3413  106.8983 H   0  0  0  0  0  0  0  0  0  0  0  0
   39.3948   48.6109  111.1825 H   0  0  0  0  0  0  0  0  0  0  0  0
   40.6998   46.1284  112.1346 H   0  0  0  0  0  0  0  0  0  0  0  0
   39.0178   46.4956  112.4336 H   0  0  0  0  0  0  0  0  0  0  0  0
   40.2689   47.4464  113.1978 H   0  0  0  0  0  0  0  0  0  0  0  0
  1  2  1  0  0  0  0
  1 35  1  0  0  0  0
  1 36  1  0  0  0  0
  1 37  1  0  0  0  0
  2  4  1  0  0  0  0
  3  2  2  0  0  0  0
  4  5  1  0  0  0  0
  4 38  1  0  0  0  0
  5  6  1  0  0  0  0
  5  8  1  0  0  0  0
  5 39  1  6  0  0  0
  6  7  2  0  0  0  0
  8  9  1  0  0  0  0
  8 40  1  0  0  0  0
  9 41  1  0  0  0  0
  9 42  1  0  0  0  0
  9 43  1  0  0  0  0
 10  8  1  0  0  0  0
 10 44  1  0  0  0  0
 10 45  1  0  0  0  0
 10 46  1  0  0  0  0
 11 12  1  0  0  0  0
 11  6  1  0  0  0  0
 11 47  1  0  0  0  0
 12 48  1  1  0  0  0
 13 14  2  0  0  0  0
 13 12  1  0  0  0  0
 15 16  1  0  0  0  0
 15 12  1  0  0  0  0
 15 49  1  0  0  0  0
 15 50  1  0  0  0  0
 16 51  1  0  0  0  0
 16 52  1  0  0  0  0
 17 18  1  0  0  0  0
 17 16  1  0  0  0  0
 17 53  1  0  0  0  0
 17 54  1  0  0  0  0
 18 55  1  0  0  0  0
 18 56  1  0  0  0  0
 19 18  1  0  0  0  0
 19 57  1  0  0  0  0
 19 58  1  0  0  0  0
 20 13  1  0  0  0  0
 20 59  1  0  0  0  0
 21 22  1  0  0  0  0
 21 20  1  0  0  0  0
 21 60  1  6  0  0  0
 22 25  1  0  0  0  0
 23 22  2  0  0  0  0
 24 21  1  0  0  0  0
 24 61  1  0  0  0  0
 24 62  1  0  0  0  0
 24 63  1  0  0  0  0
 25 26  1  0  0  0  0
 25 64  1  0  0  0  0
 26 29  1  0  0  0  0
 26 27  1  0  0  0  0
 26 65  1  6  0  0  0
 27 33  1  0  0  0  0
 28 27  2  0  0  0  0
 29 66  1  0  0  0  0
 29 67  1  0  0  0  0
 30 31  1  0  0  0  0
 30 29  1  0  0  0  0
 30 68  1  0  0  0  0
 31 69  1  0  0  0  0
 31 70  1  0  0  0  0
 31 71  1  0  0  0  0
 32 30  1  0  0  0  0
 32 72  1  0  0  0  0
 32 73  1  0  0  0  0
 32 74  1  0  0  0  0
 33 34  1  0  0  0  0
 33 75  1  0  0  0  0
 34 76  1  0  0  0  0
 34 77  1  0  0  0  0
 34 78  1  0  0  0  0
M  END
>  <MODEL>
       0

$$$$
selected_4mers/VKAL/847_noH.pdb
 OpenBabel03042518353D

 78 77  0  0  1  0  0  0  0  0999 V2000
   93.5610   -0.7020   22.8210 C   0  0  0  0  0  0  0  0  0  0  0  0
   94.4140    0.4700   23.2720 C   0  0  0  0  0  0  0  0  0  0  0  0
   94.1740    1.6060   22.8840 O   0  0  0  0  0  0  0  0  0  0  0  0
   95.4020    0.1770   24.1080 N   0  0  0  0  0  0  0  0  0  0  0  0
   96.3340    1.1800   24.5870 C   0  0  2  0  0  0  0  0  0  0  0  0
   97.0140    1.9100   23.4180 C   0  0  0  0  0  0  0  0  0  0  0  0
   97.0920    3.1270   23.4400 O   0  0  0  0  0  0  0  0  0  0  0  0
   97.4100    0.5550   25.5330 C   0  0  0  0  0  0  0  0  0  0  0  0
   98.5150    1.5570   25.8570 C   0  0  0  0  0  0  0  0  0  0  0  0
   96.7620   -0.0280   26.7970 C   0  0  0  0  0  0  0  0  0  0  0  0
   97.5240    1.1650   22.4260 N   0  0  0  0  0  0  0  0  0  0  0  0
   98.1540    1.7550   21.2470 C   0  0  2  0  0  0  0  0  0  0  0  0
   97.1910    2.5300   20.3410 C   0  0  0  0  0  0  0  0  0  0  0  0
   97.5560    3.5970   19.8090 O   0  0  0  0  0  0  0  0  0  0  0  0
   98.8450    0.6970   20.3870 C   0  0  0  0  0  0  0  0  0  0  0  0
   99.9130   -0.1390   21.0540 C   0  0  0  0  0  0  0  0  0  0  0  0
  101.1770    0.5380   21.2500 C   0  0  0  0  0  0  0  0  0  0  0  0
  102.2270   -0.4280   21.8320 C   0  0  0  0  0  0  0  0  0  0  0  0
  103.4080    0.3990   22.2560 N   0  0  0  0  0  0  0  0  0  0  0  0
   95.9830    1.9990   20.1280 N   0  0  0  0  0  0  0  0  0  0  0  0
   94.9620    2.6900   19.3270 C   0  0  2  0  0  0  0  0  0  0  0  0
   94.6330    4.0500   19.9650 C   0  0  0  0  0  0  0  0  0  0  0  0
   94.6120    5.0760   19.3020 O   0  0  0  0  0  0  0  0  0  0  0  0
   93.6670    1.8410   19.1910 C   0  0  0  0  0  0  0  0  0  0  0  0
   94.4140    4.0420   21.2730 N   0  0  0  0  0  0  0  0  0  0  0  0
   94.0290    5.2790   21.9860 C   0  0  2  0  0  0  0  0  0  0  0  0
   95.1910    6.2430   21.9840 C   0  0  0  0  0  0  0  0  0  0  0  0
   95.0010    7.4200   21.7130 O   0  0  0  0  0  0  0  0  0  0  0  0
   93.5810    4.9760   23.4250 C   0  0  0  0  0  0  0  0  0  0  0  0
   93.2960    6.1640   24.3620 C   0  0  0  0  0  0  0  0  0  0  0  0
   92.2440    7.0600   23.7460 C   0  0  0  0  0  0  0  0  0  0  0  0
   92.8280    5.6140   25.7000 C   0  0  0  0  0  0  0  0  0  0  0  0
   96.4060    5.7520   22.2460 N   0  0  0  0  0  0  0  0  0  0  0  0
   97.5470    6.6300   22.2720 C   0  0  0  0  0  0  0  0  0  0  0  0
   92.8003   -0.3537   22.1540 H   0  0  0  0  0  0  0  0  0  0  0  0
   93.1052   -1.1603   23.6737 H   0  0  0  0  0  0  0  0  0  0  0  0
   94.1763   -1.4181   22.3175 H   0  0  0  0  0  0  0  0  0  0  0  0
   95.5060   -0.7531   24.4136 H   0  0  0  0  0  0  0  0  0  0  0  0
   95.7687    1.8935   25.1493 H   0  0  0  0  0  0  0  0  0  0  0  0
   97.8746   -0.2583   25.0157 H   0  0  0  0  0  0  0  0  0  0  0  0
   98.0969    2.3931   26.3776 H   0  0  0  0  0  0  0  0  0  0  0  0
   98.9691    1.8934   24.9484 H   0  0  0  0  0  0  0  0  0  0  0  0
   99.2536    1.0869   26.4721 H   0  0  0  0  0  0  0  0  0  0  0  0
   96.2837    0.7557   27.3465 H   0  0  0  0  0  0  0  0  0  0  0  0
   97.5148   -0.4828   27.4064 H   0  0  0  0  0  0  0  0  0  0  0  0
   96.0360   -0.7632   26.5190 H   0  0  0  0  0  0  0  0  0  0  0  0
   97.4719    0.1843   22.4948 H   0  0  0  0  0  0  0  0  0  0  0  0
   98.8641    2.4450   21.6525 H   0  0  0  0  0  0  0  0  0  0  0  0
   98.0899    0.0294   20.0279 H   0  0  0  0  0  0  0  0  0  0  0  0
   99.3581    1.2484   19.6270 H   0  0  0  0  0  0  0  0  0  0  0  0
  100.0881   -1.0023   20.4466 H   0  0  0  0  0  0  0  0  0  0  0  0
   99.5440   -0.3781   22.0295 H   0  0  0  0  0  0  0  0  0  0  0  0
  101.0370    1.3544   21.9274 H   0  0  0  0  0  0  0  0  0  0  0  0
  101.5259    0.8965   20.3041 H   0  0  0  0  0  0  0  0  0  0  0  0
  102.5246   -1.1370   21.0879 H   0  0  0  0  0  0  0  0  0  0  0  0
  101.8250   -0.9687   22.6632 H   0  0  0  0  0  0  0  0  0  0  0  0
  103.7753    0.9054   21.4503 H   0  0  0  0  0  0  0  0  0  0  0  0
  104.1328   -0.2116   22.6332 H   0  0  0  0  0  0  0  0  0  0  0  0
   95.7710    1.1205   20.5185 H   0  0  0  0  0  0  0  0  0  0  0  0
   95.3591    2.8385   18.3446 H   0  0  0  0  0  0  0  0  0  0  0  0
   93.2456    1.6755   20.1605 H   0  0  0  0  0  0  0  0  0  0  0  0
   93.9031    0.9002   18.7394 H   0  0  0  0  0  0  0  0  0  0  0  0
   92.9609    2.3630   18.5795 H   0  0  0  0  0  0  0  0  0  0  0  0
   94.5090    3.2011   21.7761 H   0  0  0  0  0  0  0  0  0  0  0  0
   93.1990    5.7231   21.4773 H   0  0  0  0  0  0  0  0  0  0  0  0
   94.3515    4.3899   23.8807 H   0  0  0  0  0  0  0  0  0  0  0  0
   92.6329    4.4931   23.3121 H   0  0  0  0  0  0  0  0  0  0  0  0
   94.1800    6.7487   24.5087 H   0  0  0  0  0  0  0  0  0  0  0  0
   91.3463    6.4996   23.5878 H   0  0  0  0  0  0  0  0  0  0  0  0
   92.5996    7.4358   22.8094 H   0  0  0  0  0  0  0  0  0  0  0  0
   92.0421    7.8783   24.4051 H   0  0  0  0  0  0  0  0  0  0  0  0
   91.9439    5.0288   25.5555 H   0  0  0  0  0  0  0  0  0  0  0  0
   92.6141    6.4253   26.3640 H   0  0  0  0  0  0  0  0  0  0  0  0
   93.5966    5.0008   26.1221 H   0  0  0  0  0  0  0  0  0  0  0  0
   96.5210    4.7901   22.4212 H   0  0  0  0  0  0  0  0  0  0  0  0
   97.2320    7.6305   22.0606 H   0  0  0  0  0  0  0  0  0  0  0  0
   98.2557    6.3158   21.5345 H   0  0  0  0  0  0  0  0  0  0  0  0
   98.0011    6.5961   23.2403 H   0  0  0  0  0  0  0  0  0  0  0  0
  1  2  1  0  0  0  0
  1 35  1  0  0  0  0
  1 36  1  0  0  0  0
  1 37  1  0  0  0  0
  2  4  1  0  0  0  0
  3  2  2  0  0  0  0
  4  5  1  0  0  0  0
  4 38  1  0  0  0  0
  5  8  1  0  0  0  0
  5 39  1  1  0  0  0
  6  7  2  0  0  0  0
  6  5  1  0  0  0  0
  8  9  1  0  0  0  0
  8 10  1  0  0  0  0
  8 40  1  0  0  0  0
  9 41  1  0  0  0  0
  9 42  1  0  0  0  0
  9 43  1  0  0  0  0
 10 44  1  0  0  0  0
 10 45  1  0  0  0  0
 10 46  1  0  0  0  0
 11  6  1  0  0  0  0
 11 47  1  0  0  0  0
 12 11  1  0  0  0  0
 12 48  1  1  0  0  0
 13 12  1  0  0  0  0
 14 13  2  0  0  0  0
 15 16  1  0  0  0  0
 15 12  1  0  0  0  0
 15 49  1  0  0  0  0
 15 50  1  0  0  0  0
 16 17  1  0  0  0  0
 16 51  1  0  0  0  0
 16 52  1  0  0  0  0
 17 18  1  0  0  0  0
 17 53  1  0  0  0  0
 17 54  1  0  0  0  0
 18 19  1  0  0  0  0
 18 55  1  0  0  0  0
 18 56  1  0  0  0  0
 19 57  1  0  0  0  0
 19 58  1  0  0  0  0
 20 13  1  0  0  0  0
 20 59  1  0  0  0  0
 21 22  1  0  0  0  0
 21 20  1  0  0  0  0
 21 60  1  6  0  0  0
 22 25  1  0  0  0  0
 23 22  2  0  0  0  0
 24 21  1  0  0  0  0
 24 61  1  0  0  0  0
 24 62  1  0  0  0  0
 24 63  1  0  0  0  0
 25 26  1  0  0  0  0
 25 64  1  0  0  0  0
 26 29  1  0  0  0  0
 26 65  1  6  0  0  0
 27 26  1  0  0  0  0
 27 33  1  0  0  0  0
 28 27  2  0  0  0  0
 29 30  1  0  0  0  0
 29 66  1  0  0  0  0
 29 67  1  0  0  0  0
 30 32  1  0  0  0  0
 30 68  1  0  0  0  0
 31 30  1  0  0  0  0
 31 69  1  0  0  0  0
 31 70  1  0  0  0  0
 31 71  1  0  0  0  0
 32 72  1  0  0  0  0
 32 73  1  0  0  0  0
 32 74  1  0  0  0  0
 33 34  1  0  0  0  0
 33 75  1  0  0  0  0
 34 76  1  0  0  0  0
 34 77  1  0  0  0  0
 34 78  1  0  0  0  0
M  END
>  <MODEL>
       0

$$$$
selected_4mers/VKAL/848_noH.pdb
 OpenBabel03042518353D

 78 77  0  0  1  0  0  0  0  0999 V2000
  110.5610   20.5180   79.1380 C   0  0  0  0  0  0  0  0  0  0  0  0
  109.1930   20.1620   78.6060 C   0  0  0  0  0  0  0  0  0  0  0  0
  109.1140   19.3610   77.6670 O   0  0  0  0  0  0  0  0  0  0  0  0
  108.0900   20.7110   79.1250 N   0  0  0  0  0  0  0  0  0  0  0  0
  106.7800   20.4070   78.5390 C   0  0  2  0  0  0  0  0  0  0  0  0
  106.7400   20.9290   77.1110 C   0  0  0  0  0  0  0  0  0  0  0  0
  107.3200   21.9700   76.8190 O   0  0  0  0  0  0  0  0  0  0  0  0
  105.6400   21.0730   79.3500 C   0  0  0  0  0  0  0  0  0  0  0  0
  105.7070   20.5460   80.7850 C   0  0  0  0  0  0  0  0  0  0  0  0
  105.7490   22.6100   79.3420 C   0  0  0  0  0  0  0  0  0  0  0  0
  106.0490   20.2190   76.2390 N   0  0  0  0  0  0  0  0  0  0  0  0
  105.8740   20.5620   74.8250 C   0  0  2  0  0  0  0  0  0  0  0  0
  104.6470   21.3960   74.5500 C   0  0  0  0  0  0  0  0  0  0  0  0
  104.4980   21.9360   73.4730 O   0  0  0  0  0  0  0  0  0  0  0  0
  105.7610   19.3070   73.9940 C   0  0  0  0  0  0  0  0  0  0  0  0
  106.9900   18.4250   73.9920 C   0  0  0  0  0  0  0  0  0  0  0  0
  108.1280   18.9880   73.1590 C   0  0  0  0  0  0  0  0  0  0  0  0
  109.1370   17.8490   72.9440 C   0  0  0  0  0  0  0  0  0  0  0  0
  110.4850   18.3410   73.2250 N   0  0  0  0  0  0  0  0  0  0  0  0
  103.7140   21.5010   75.5170 N   0  0  0  0  0  0  0  0  0  0  0  0
  102.5330   22.3510   75.4200 C   0  0  2  0  0  0  0  0  0  0  0  0
  102.0820   22.6560   76.8570 C   0  0  0  0  0  0  0  0  0  0  0  0
  102.3980   21.9190   77.7840 O   0  0  0  0  0  0  0  0  0  0  0  0
  101.3720   21.6400   74.6900 C   0  0  0  0  0  0  0  0  0  0  0  0
  101.4420   23.7980   77.0190 N   0  0  0  0  0  0  0  0  0  0  0  0
  100.8380   24.2220   78.2880 C   0  0  2  0  0  0  0  0  0  0  0  0
   99.3400   24.3340   78.1300 C   0  0  0  0  0  0  0  0  0  0  0  0
   98.8760   24.8640   77.1350 O   0  0  0  0  0  0  0  0  0  0  0  0
  101.3480   25.5740   78.6870 C   0  0  0  0  0  0  0  0  0  0  0  0
  102.8100   25.7220   79.1040 C   0  0  0  0  0  0  0  0  0  0  0  0
  103.1100   27.2100   79.1260 C   0  0  0  0  0  0  0  0  0  0  0  0
  103.0730   25.1140   80.4710 C   0  0  0  0  0  0  0  0  0  0  0  0
   98.5430   23.8420   79.0600 N   0  0  0  0  0  0  0  0  0  0  0  0
   97.1030   24.0430   79.0220 C   0  0  0  0  0  0  0  0  0  0  0  0
  111.3070   19.9768   78.5944 H   0  0  0  0  0  0  0  0  0  0  0  0
  110.6185   20.2607   80.1750 H   0  0  0  0  0  0  0  0  0  0  0  0
  110.7267   21.5687   79.0215 H   0  0  0  0  0  0  0  0  0  0  0  0
  108.1567   21.3172   79.8978 H   0  0  0  0  0  0  0  0  0  0  0  0
  106.6383   19.3466   78.5563 H   0  0  0  0  0  0  0  0  0  0  0  0
  104.7018   20.8266   78.8984 H   0  0  0  0  0  0  0  0  0  0  0  0
  106.6520   20.8035   81.2158 H   0  0  0  0  0  0  0  0  0  0  0  0
  105.5955   19.4818   80.7797 H   0  0  0  0  0  0  0  0  0  0  0  0
  104.9203   20.9842   81.3630 H   0  0  0  0  0  0  0  0  0  0  0  0
  106.6768   22.9041   79.7865 H   0  0  0  0  0  0  0  0  0  0  0  0
  104.9376   23.0280   79.9004 H   0  0  0  0  0  0  0  0  0  0  0  0
  105.7082   22.9652   78.3335 H   0  0  0  0  0  0  0  0  0  0  0  0
  105.6179   19.3955   76.5635 H   0  0  0  0  0  0  0  0  0  0  0  0
  106.7373   21.1379   74.5644 H   0  0  0  0  0  0  0  0  0  0  0  0
  104.9413   18.7322   74.3717 H   0  0  0  0  0  0  0  0  0  0  0  0
  105.6252   19.6305   72.9832 H   0  0  0  0  0  0  0  0  0  0  0  0
  107.3297   18.3126   75.0004 H   0  0  0  0  0  0  0  0  0  0  0  0
  106.7093   17.4889   73.5562 H   0  0  0  0  0  0  0  0  0  0  0  0
  107.7572   19.3327   72.2163 H   0  0  0  0  0  0  0  0  0  0  0  0
  108.5890   19.8167   73.6546 H   0  0  0  0  0  0  0  0  0  0  0  0
  109.0837   17.5104   71.9304 H   0  0  0  0  0  0  0  0  0  0  0  0
  108.9069   17.0363   73.6009 H   0  0  0  0  0  0  0  0  0  0  0  0
  110.7019   19.1155   72.5977 H   0  0  0  0  0  0  0  0  0  0  0  0
  111.1584   17.5884   73.0816 H   0  0  0  0  0  0  0  0  0  0  0  0
  103.8372   20.9721   76.3382 H   0  0  0  0  0  0  0  0  0  0  0  0
  102.7788   23.2335   74.8672 H   0  0  0  0  0  0  0  0  0  0  0  0
  101.1059   20.7516   75.2237 H   0  0  0  0  0  0  0  0  0  0  0  0
  101.6793   21.3817   73.6981 H   0  0  0  0  0  0  0  0  0  0  0  0
  100.5266   22.2942   74.6425 H   0  0  0  0  0  0  0  0  0  0  0  0
  101.3650   24.4006   76.2443 H   0  0  0  0  0  0  0  0  0  0  0  0
  101.0919   23.4953   79.0312 H   0  0  0  0  0  0  0  0  0  0  0  0
  100.7519   25.9025   79.5126 H   0  0  0  0  0  0  0  0  0  0  0  0
  101.2789   26.1494   77.7875 H   0  0  0  0  0  0  0  0  0  0  0  0
  103.4410   25.2022   78.4137 H   0  0  0  0  0  0  0  0  0  0  0  0
  102.4612   27.6943   79.8256 H   0  0  0  0  0  0  0  0  0  0  0  0
  102.9524   27.6201   78.1504 H   0  0  0  0  0  0  0  0  0  0  0  0
  104.1279   27.3644   79.4176 H   0  0  0  0  0  0  0  0  0  0  0  0
  102.4625   25.6020   81.2018 H   0  0  0  0  0  0  0  0  0  0  0  0
  104.1045   25.2412   80.7255 H   0  0  0  0  0  0  0  0  0  0  0  0
  102.8372   24.0705   80.4486 H   0  0  0  0  0  0  0  0  0  0  0  0
   98.9343   23.3243   79.8003 H   0  0  0  0  0  0  0  0  0  0  0  0
   96.8463   24.6217   78.1594 H   0  0  0  0  0  0  0  0  0  0  0  0
   96.7918   24.5614   79.9048 H   0  0  0  0  0  0  0  0  0  0  0  0
   96.6115   23.0938   78.9739 H   0  0  0  0  0  0  0  0  0  0  0  0
  1 35  1  0  0  0  0
  1 36  1  0  0  0  0
  1 37  1  0  0  0  0
  2  4  1  0  0  0  0
  2  1  1  0  0  0  0
  3  2  2  0  0  0  0
  4 38  1  0  0  0  0
  5  4  1  0  0  0  0
  5  8  1  0  0  0  0
  5 39  1  6  0  0  0
  6  5  1  0  0  0  0
  7  6  2  0  0  0  0
  8  9  1  0  0  0  0
  8 40  1  0  0  0  0
  9 41  1  0  0  0  0
  9 42  1  0  0  0  0
  9 43  1  0  0  0  0
 10  8  1  0  0  0  0
 10 44  1  0  0  0  0
 10 45  1  0  0  0  0
 10 46  1  0  0  0  0
 11  6  1  0  0  0  0
 11 47  1  0  0  0  0
 12 11  1  0  0  0  0
 12 48  1  6  0  0  0
 13 12  1  0  0  0  0
 13 20  1  0  0  0  0
 14 13  2  0  0  0  0
 15 12  1  0  0  0  0
 15 49  1  0  0  0  0
 15 50  1  0  0  0  0
 16 15  1  0  0  0  0
 16 51  1  0  0  0  0
 16 52  1  0  0  0  0
 17 16  1  0  0  0  0
 17 53  1  0  0  0  0
 17 54  1  0  0  0  0
 18 17  1  0  0  0  0
 18 19  1  0  0  0  0
 18 55  1  0  0  0  0
 18 56  1  0  0  0  0
 19 57  1  0  0  0  0
 19 58  1  0  0  0  0
 20 59  1  0  0  0  0
 21 20  1  0  0  0  0
 21 22  1  0  0  0  0
 21 60  1  6  0  0  0
 22 25  1  0  0  0  0
 22 23  2  0  0  0  0
 24 21  1  0  0  0  0
 24 61  1  0  0  0  0
 24 62  1  0  0  0  0
 24 63  1  0  0  0  0
 25 26  1  0  0  0  0
 25 64  1  0  0  0  0
 26 29  1  0  0  0  0
 26 65  1  1  0  0  0
 27 26  1  0  0  0  0
 27 33  1  0  0  0  0
 28 27  2  0  0  0  0
 29 30  1  0  0  0  0
 29 66  1  0  0  0  0
 29 67  1  0  0  0  0
 30 31  1  0  0  0  0
 30 32  1  0  0  0  0
 30 68  1  0  0  0  0
 31 69  1  0  0  0  0
 31 70  1  0  0  0  0
 31 71  1  0  0  0  0
 32 72  1  0  0  0  0
 32 73  1  0  0  0  0
 32 74  1  0  0  0  0
 33 75  1  0  0  0  0
 34 33  1  0  0  0  0
 34 76  1  0  0  0  0
 34 77  1  0  0  0  0
 34 78  1  0  0  0  0
M  END
>  <MODEL>
       0

$$$$
selected_4mers/VKAL/849_noH.pdb
 OpenBabel03042518353D

 78 77  0  0  1  0  0  0  0  0999 V2000
   14.2780   -3.0900   25.1520 C   0  0  0  0  0  0  0  0  0  0  0  0
   12.8750   -2.5870   24.7790 C   0  0  0  0  0  0  0  0  0  0  0  0
   12.2040   -3.1280   23.8970 O   0  0  0  0  0  0  0  0  0  0  0  0
   12.4370   -1.5590   25.4810 N   0  0  0  0  0  0  0  0  0  0  0  0
   11.1070   -0.9830   25.2620 C   0  0  2  0  0  0  0  0  0  0  0  0
   11.2810    0.4760   24.8810 C   0  0  0  0  0  0  0  0  0  0  0  0
   11.9520    1.2080   25.5750 O   0  0  0  0  0  0  0  0  0  0  0  0
   10.2140   -1.0870   26.5190 C   0  0  0  0  0  0  0  0  0  0  0  0
    8.7960   -0.5140   26.2620 C   0  0  0  0  0  0  0  0  0  0  0  0
   10.1520   -2.5210   27.0300 C   0  0  0  0  0  0  0  0  0  0  0  0
   10.6530    0.8760   23.7920 N   0  0  0  0  0  0  0  0  0  0  0  0
   10.8120    2.2520   23.2710 C   0  0  2  0  0  0  0  0  0  0  0  0
    9.6850    3.1040   23.8490 C   0  0  0  0  0  0  0  0  0  0  0  0
    8.5030    2.7980   23.6300 O   0  0  0  0  0  0  0  0  0  0  0  0
   10.7890    2.2210   21.7360 C   0  0  0  0  0  0  0  0  0  0  0  0
   12.0550    1.5320   21.2010 C   0  0  0  0  0  0  0  0  0  0  0  0
   12.0780    1.3880   19.7090 C   0  0  0  0  0  0  0  0  0  0  0  0
   13.3250    0.6440   19.2610 C   0  0  0  0  0  0  0  0  0  0  0  0
   13.1830   -0.8120   19.5460 N   0  0  0  0  0  0  0  0  0  0  0  0
   10.0660    4.1290   24.6270 N   0  0  0  0  0  0  0  0  0  0  0  0
    9.0990    5.0880   25.1710 C   0  0  2  0  0  0  0  0  0  0  0  0
    8.7380    6.1200   24.1060 C   0  0  0  0  0  0  0  0  0  0  0  0
    9.6320    6.7910   23.5260 O   0  0  0  0  0  0  0  0  0  0  0  0
    9.6470    5.7600   26.4460 C   0  0  0  0  0  0  0  0  0  0  0  0
    7.4310    6.2820   23.9000 N   0  0  0  0  0  0  0  0  0  0  0  0
    6.9190    7.2650   22.9610 C   0  0  2  0  0  0  0  0  0  0  0  0
    6.1340    8.3130   23.7480 C   0  0  0  0  0  0  0  0  0  0  0  0
    5.3050    7.9800   24.5840 O   0  0  0  0  0  0  0  0  0  0  0  0
    6.0210    6.5900   21.9010 C   0  0  0  0  0  0  0  0  0  0  0  0
    6.5440    5.2590   21.3050 C   0  0  0  0  0  0  0  0  0  0  0  0
    5.4950    4.7080   20.3460 C   0  0  0  0  0  0  0  0  0  0  0  0
    7.9220    5.4720   20.6750 C   0  0  0  0  0  0  0  0  0  0  0  0
    6.4040    9.5870   23.4630 N   0  0  0  0  0  0  0  0  0  0  0  0
    5.8060   10.6780   24.2350 C   0  0  0  0  0  0  0  0  0  0  0  0
   14.5369   -3.9199   24.5282 H   0  0  0  0  0  0  0  0  0  0  0  0
   14.2857   -3.3980   26.1767 H   0  0  0  0  0  0  0  0  0  0  0  0
   14.9885   -2.3024   25.0109 H   0  0  0  0  0  0  0  0  0  0  0  0
   13.0199   -1.1679   26.1713 H   0  0  0  0  0  0  0  0  0  0  0  0
   10.6207   -1.5315   24.4826 H   0  0  0  0  0  0  0  0  0  0  0  0
   10.6622   -0.4877   27.2838 H   0  0  0  0  0  0  0  0  0  0  0  0
    8.3120   -1.0883   25.4999 H   0  0  0  0  0  0  0  0  0  0  0  0
    8.8751    0.5048   25.9447 H   0  0  0  0  0  0  0  0  0  0  0  0
    8.2226   -0.5632   27.1640 H   0  0  0  0  0  0  0  0  0  0  0  0
    9.7070   -3.1464   26.2845 H   0  0  0  0  0  0  0  0  0  0  0  0
    9.5634   -2.5563   27.9229 H   0  0  0  0  0  0  0  0  0  0  0  0
   11.1420   -2.8674   27.2415 H   0  0  0  0  0  0  0  0  0  0  0  0
   10.0659    0.2455   23.3156 H   0  0  0  0  0  0  0  0  0  0  0  0
   11.7487    2.6784   23.5637 H   0  0  0  0  0  0  0  0  0  0  0  0
    9.9262    1.6810   21.4061 H   0  0  0  0  0  0  0  0  0  0  0  0
   10.7545    3.2246   21.3665 H   0  0  0  0  0  0  0  0  0  0  0  0
   12.9052    2.1100   21.4977 H   0  0  0  0  0  0  0  0  0  0  0  0
   12.0700    0.5437   21.6108 H   0  0  0  0  0  0  0  0  0  0  0  0
   11.2121    0.8433   19.3952 H   0  0  0  0  0  0  0  0  0  0  0  0
   12.0823    2.3633   19.2690 H   0  0  0  0  0  0  0  0  0  0  0  0
   13.4638    0.7869   18.2097 H   0  0  0  0  0  0  0  0  0  0  0  0
   14.1706    1.0245   19.7950 H   0  0  0  0  0  0  0  0  0  0  0  0
   12.3781   -1.1807   19.0394 H   0  0  0  0  0  0  0  0  0  0  0  0
   13.0472   -0.9508   20.5474 H   0  0  0  0  0  0  0  0  0  0  0  0
   11.0211    4.2402   24.8384 H   0  0  0  0  0  0  0  0  0  0  0  0
    8.2082    4.5637   25.4478 H   0  0  0  0  0  0  0  0  0  0  0  0
   10.5419    6.2968   26.2097 H   0  0  0  0  0  0  0  0  0  0  0  0
    9.8633    5.0112   27.1791 H   0  0  0  0  0  0  0  0  0  0  0  0
    8.9161    6.4383   26.8340 H   0  0  0  0  0  0  0  0  0  0  0  0
    6.7948    5.7196   24.3983 H   0  0  0  0  0  0  0  0  0  0  0  0
    7.7299    7.7320   22.4421 H   0  0  0  0  0  0  0  0  0  0  0  0
    5.0723    6.3933   22.3550 H   0  0  0  0  0  0  0  0  0  0  0  0
    5.9845    7.2752   21.0800 H   0  0  0  0  0  0  0  0  0  0  0  0
    6.6891    4.5207   22.0657 H   0  0  0  0  0  0  0  0  0  0  0  0
    5.3179    5.4177   19.5651 H   0  0  0  0  0  0  0  0  0  0  0  0
    4.5843    4.5287   20.8783 H   0  0  0  0  0  0  0  0  0  0  0  0
    5.8465    3.7909   19.9215 H   0  0  0  0  0  0  0  0  0  0  0  0
    7.8499    6.2051   19.8989 H   0  0  0  0  0  0  0  0  0  0  0  0
    8.2720    4.5489   20.2623 H   0  0  0  0  0  0  0  0  0  0  0  0
    8.6077    5.8110   21.4232 H   0  0  0  0  0  0  0  0  0  0  0  0
    7.0157    9.7978   22.7210 H   0  0  0  0  0  0  0  0  0  0  0  0
    5.1731   10.2713   24.9959 H   0  0  0  0  0  0  0  0  0  0  0  0
    5.2273   11.2998   23.5844 H   0  0  0  0  0  0  0  0  0  0  0  0
    6.5806   11.2601   24.6889 H   0  0  0  0  0  0  0  0  0  0  0  0
  1 35  1  0  0  0  0
  1 36  1  0  0  0  0
  1 37  1  0  0  0  0
  2  1  1  0  0  0  0
  2  4  1  0  0  0  0
  3  2  2  0  0  0  0
  4 38  1  0  0  0  0
  5  4  1  0  0  0  0
  5  8  1  0  0  0  0
  5 39  1  6  0  0  0
  6  5  1  0  0  0  0
  6  7  2  0  0  0  0
  8 10  1  0  0  0  0
  8 40  1  0  0  0  0
  9  8  1  0  0  0  0
  9 41  1  0  0  0  0
  9 42  1  0  0  0  0
  9 43  1  0  0  0  0
 10 44  1  0  0  0  0
 10 45  1  0  0  0  0
 10 46  1  0  0  0  0
 11  6  1  0  0  0  0
 11 47  1  0  0  0  0
 12 11  1  0  0  0  0
 12 13  1  0  0  0  0
 12 48  1  1  0  0  0
 13 20  1  0  0  0  0
 14 13  2  0  0  0  0
 15 12  1  0  0  0  0
 15 49  1  0  0  0  0
 15 50  1  0  0  0  0
 16 15  1  0  0  0  0
 16 51  1  0  0  0  0
 16 52  1  0  0  0  0
 17 16  1  0  0  0  0
 17 53  1  0  0  0  0
 17 54  1  0  0  0  0
 18 19  1  0  0  0  0
 18 17  1  0  0  0  0
 18 55  1  0  0  0  0
 18 56  1  0  0  0  0
 19 57  1  0  0  0  0
 19 58  1  0  0  0  0
 20 21  1  0  0  0  0
 20 59  1  0  0  0  0
 21 24  1  0  0  0  0
 21 60  1  1  0  0  0
 22 21  1  0  0  0  0
 23 22  2  0  0  0  0
 24 61  1  0  0  0  0
 24 62  1  0  0  0  0
 24 63  1  0  0  0  0
 25 22  1  0  0  0  0
 25 64  1  0  0  0  0
 26 27  1  0  0  0  0
 26 25  1  0  0  0  0
 26 65  1  6  0  0  0
 27 28  2  0  0  0  0
 29 26  1  0  0  0  0
 29 66  1  0  0  0  0
 29 67  1  0  0  0  0
 30 29  1  0  0  0  0
 30 68  1  0  0  0  0
 31 30  1  0  0  0  0
 31 69  1  0  0  0  0
 31 70  1  0  0  0  0
 31 71  1  0  0  0  0
 32 30  1  0  0  0  0
 32 72  1  0  0  0  0
 32 73  1  0  0  0  0
 32 74  1  0  0  0  0
 33 27  1  0  0  0  0
 33 34  1  0  0  0  0
 33 75  1  0  0  0  0
 34 76  1  0  0  0  0
 34 77  1  0  0  0  0
 34 78  1  0  0  0  0
M  END
>  <MODEL>
       0

$$$$
