selected_4mers/VLAA/835_noH.pdb
 OpenBabel03042518353D

 67 66  0  0  1  0  0  0  0  0999 V2000
   45.4580  -13.6930   11.1530 C   0  0  0  0  0  0  0  0  0  0  0  0
   44.6010  -14.0600   12.3570 C   0  0  0  0  0  0  0  0  0  0  0  0
   44.9980  -14.8750   13.1860 O   0  0  0  0  0  0  0  0  0  0  0  0
   43.4270  -13.4480   12.4540 N   0  0  0  0  0  0  0  0  0  0  0  0
   42.5220  -13.7410   13.5560 C   0  0  2  0  0  0  0  0  0  0  0  0
   42.1100  -15.2120   13.5290 C   0  0  0  0  0  0  0  0  0  0  0  0
   42.1370  -15.8890   14.5530 O   0  0  0  0  0  0  0  0  0  0  0  0
   41.2560  -12.8570   13.4810 C   0  0  0  0  0  0  0  0  0  0  0  0
   40.1930  -13.3800   14.4440 C   0  0  0  0  0  0  0  0  0  0  0  0
   41.6100  -11.4180   13.8300 C   0  0  0  0  0  0  0  0  0  0  0  0
   41.7320  -15.7170   12.3580 N   0  0  0  0  0  0  0  0  0  0  0  0
   41.3140  -17.1100   12.2710 C   0  0  2  0  0  0  0  0  0  0  0  0
   42.4650  -18.0570   12.5960 C   0  0  0  0  0  0  0  0  0  0  0  0
   42.2670  -19.0830   13.2480 O   0  0  0  0  0  0  0  0  0  0  0  0
   40.7350  -17.4190   10.8860 C   0  0  0  0  0  0  0  0  0  0  0  0
   39.3800  -16.7640   10.5920 C   0  0  0  0  0  0  0  0  0  0  0  0
   38.8810  -17.2000    9.2190 C   0  0  0  0  0  0  0  0  0  0  0  0
   38.3750  -17.1540   11.6780 C   0  0  0  0  0  0  0  0  0  0  0  0
   43.6700  -17.7090   12.1600 N   0  0  0  0  0  0  0  0  0  0  0  0
   44.8280  -18.5500   12.4420 C   0  0  2  0  0  0  0  0  0  0  0  0
   45.0730  -18.5920   13.9450 C   0  0  0  0  0  0  0  0  0  0  0  0
   45.3680  -19.6460   14.5030 O   0  0  0  0  0  0  0  0  0  0  0  0
   46.0530  -18.0090   11.7280 C   0  0  0  0  0  0  0  0  0  0  0  0
   44.9470  -17.4410   14.5980 N   0  0  0  0  0  0  0  0  0  0  0  0
   45.1520  -17.3620   16.0410 C   0  0  2  0  0  0  0  0  0  0  0  0
   44.0910  -18.1790   16.7940 C   0  0  0  0  0  0  0  0  0  0  0  0
   44.4030  -18.8560   17.7760 O   0  0  0  0  0  0  0  0  0  0  0  0
   45.1200  -15.9090   16.4910 C   0  0  0  0  0  0  0  0  0  0  0  0
   42.8420  -18.1110   16.3350 N   0  0  0  0  0  0  0  0  0  0  0  0
   41.7510  -18.8650   16.9570 C   0  0  0  0  0  0  0  0  0  0  0  0
   44.9412  -12.9729   10.5536 H   0  0  0  0  0  0  0  0  0  0  0  0
   45.6495  -14.5701   10.5708 H   0  0  0  0  0  0  0  0  0  0  0  0
   46.3855  -13.2781   11.4885 H   0  0  0  0  0  0  0  0  0  0  0  0
   43.1651  -12.7878   11.7722 H   0  0  0  0  0  0  0  0  0  0  0  0
   43.0396  -13.5307   14.4685 H   0  0  0  0  0  0  0  0  0  0  0  0
   40.8666  -12.8908   12.4849 H   0  0  0  0  0  0  0  0  0  0  0  0
   40.5723  -13.3506   15.4441 H   0  0  0  0  0  0  0  0  0  0  0  0
   39.9436  -14.3882   14.1866 H   0  0  0  0  0  0  0  0  0  0  0  0
   39.3181  -12.7677   14.3762 H   0  0  0  0  0  0  0  0  0  0  0  0
   42.0002  -11.3781   14.8255 H   0  0  0  0  0  0  0  0  0  0  0  0
   40.7323  -10.8093   13.7662 H   0  0  0  0  0  0  0  0  0  0  0  0
   42.3463  -11.0553   13.1436 H   0  0  0  0  0  0  0  0  0  0  0  0
   41.7347  -15.1511   11.5524 H   0  0  0  0  0  0  0  0  0  0  0  0
   40.5467  -17.2646   13.0005 H   0  0  0  0  0  0  0  0  0  0  0  0
   41.4344  -17.0806   10.1503 H   0  0  0  0  0  0  0  0  0  0  0  0
   40.5697  -18.4758   10.8587 H   0  0  0  0  0  0  0  0  0  0  0  0
   39.4905  -15.6997   10.5911 H   0  0  0  0  0  0  0  0  0  0  0  0
   38.7650  -18.2636    9.2029 H   0  0  0  0  0  0  0  0  0  0  0  0
   39.5894  -16.9071    8.4725 H   0  0  0  0  0  0  0  0  0  0  0  0
   37.9384  -16.7353    9.0180 H   0  0  0  0  0  0  0  0  0  0  0  0
   38.2560  -18.2173   11.6886 H   0  0  0  0  0  0  0  0  0  0  0  0
   37.4319  -16.6916   11.4739 H   0  0  0  0  0  0  0  0  0  0  0  0
   38.7343  -16.8258   12.6309 H   0  0  0  0  0  0  0  0  0  0  0  0
   43.7825  -16.8785   11.6434 H   0  0  0  0  0  0  0  0  0  0  0  0
   44.6373  -19.5417   12.0885 H   0  0  0  0  0  0  0  0  0  0  0  0
   46.2567  -17.0163   12.0715 H   0  0  0  0  0  0  0  0  0  0  0  0
   45.8725  -17.9915   10.6735 H   0  0  0  0  0  0  0  0  0  0  0  0
   46.8935  -18.6378   11.9356 H   0  0  0  0  0  0  0  0  0  0  0  0
   44.7108  -16.6261   14.0987 H   0  0  0  0  0  0  0  0  0  0  0  0
   46.1113  -17.7775   16.2692 H   0  0  0  0  0  0  0  0  0  0  0  0
   44.1629  -15.4869   16.2657 H   0  0  0  0  0  0  0  0  0  0  0  0
   45.8817  -15.3599   15.9780 H   0  0  0  0  0  0  0  0  0  0  0  0
   45.2928  -15.8584   17.5457 H   0  0  0  0  0  0  0  0  0  0  0  0
   42.6473  -17.5391   15.5576 H   0  0  0  0  0  0  0  0  0  0  0  0
   42.1327  -19.4300   17.7816 H   0  0  0  0  0  0  0  0  0  0  0  0
   41.3215  -19.5302   16.2373 H   0  0  0  0  0  0  0  0  0  0  0  0
   41.0018  -18.1856   17.3064 H   0  0  0  0  0  0  0  0  0  0  0  0
  1  2  1  0  0  0  0
  1 31  1  0  0  0  0
  1 32  1  0  0  0  0
  1 33  1  0  0  0  0
  2  4  1  0  0  0  0
  2  3  2  0  0  0  0
  4  5  1  0  0  0  0
  4 34  1  0  0  0  0
  5 35  1  1  0  0  0
  6  5  1  0  0  0  0
  6  7  2  0  0  0  0
  8  5  1  0  0  0  0
  8 10  1  0  0  0  0
  8  9  1  0  0  0  0
  8 36  1  0  0  0  0
  9 37  1  0  0  0  0
  9 38  1  0  0  0  0
  9 39  1  0  0  0  0
 10 40  1  0  0  0  0
 10 41  1  0  0  0  0
 10 42  1  0  0  0  0
 11  6  1  0  0  0  0
 11 43  1  0  0  0  0
 12 11  1  0  0  0  0
 12 13  1  0  0  0  0
 12 44  1  1  0  0  0
 13 14  2  0  0  0  0
 15 12  1  0  0  0  0
 15 45  1  0  0  0  0
 15 46  1  0  0  0  0
 16 15  1  0  0  0  0
 16 18  1  0  0  0  0
 16 47  1  0  0  0  0
 17 16  1  0  0  0  0
 17 48  1  0  0  0  0
 17 49  1  0  0  0  0
 17 50  1  0  0  0  0
 18 51  1  0  0  0  0
 18 52  1  0  0  0  0
 18 53  1  0  0  0  0
 19 20  1  0  0  0  0
 19 13  1  0  0  0  0
 19 54  1  0  0  0  0
 20 21  1  0  0  0  0
 20 55  1  6  0  0  0
 21 22  2  0  0  0  0
 21 24  1  0  0  0  0
 23 20  1  0  0  0  0
 23 56  1  0  0  0  0
 23 57  1  0  0  0  0
 23 58  1  0  0  0  0
 24 25  1  0  0  0  0
 24 59  1  0  0  0  0
 25 28  1  0  0  0  0
 25 26  1  0  0  0  0
 25 60  1  1  0  0  0
 26 27  2  0  0  0  0
 28 61  1  0  0  0  0
 28 62  1  0  0  0  0
 28 63  1  0  0  0  0
 29 26  1  0  0  0  0
 29 30  1  0  0  0  0
 29 64  1  0  0  0  0
 30 65  1  0  0  0  0
 30 66  1  0  0  0  0
 30 67  1  0  0  0  0
M  END
>  <MODEL>
       0

$$$$
selected_4mers/VLAA/836_noH.pdb
 OpenBabel03042518353D

 67 66  0  0  1  0  0  0  0  0999 V2000
   26.7210   -4.2270   32.7640 C   0  0  0  0  0  0  0  0  0  0  0  0
   26.1450   -5.1780   31.7230 C   0  0  0  0  0  0  0  0  0  0  0  0
   26.2050   -6.4040   31.8950 O   0  0  0  0  0  0  0  0  0  0  0  0
   25.6030   -4.6190   30.6400 N   0  0  0  0  0  0  0  0  0  0  0  0
   25.0410   -5.4240   29.5350 C   0  0  2  0  0  0  0  0  0  0  0  0
   26.0770   -6.4430   29.0050 C   0  0  0  0  0  0  0  0  0  0  0  0
   25.7450   -7.6000   28.7160 O   0  0  0  0  0  0  0  0  0  0  0  0
   24.5170   -4.5370   28.3900 C   0  0  0  0  0  0  0  0  0  0  0  0
   24.1090   -5.3750   27.1840 C   0  0  0  0  0  0  0  0  0  0  0  0
   23.3520   -3.6750   28.8700 C   0  0  0  0  0  0  0  0  0  0  0  0
   27.3320   -6.0150   28.9030 N   0  0  0  0  0  0  0  0  0  0  0  0
   28.3900   -6.8570   28.3030 C   0  0  2  0  0  0  0  0  0  0  0  0
   29.1530   -7.7190   29.3080 C   0  0  0  0  0  0  0  0  0  0  0  0
   30.0570   -8.4850   28.9170 O   0  0  0  0  0  0  0  0  0  0  0  0
   29.3790   -5.9860   27.5130 C   0  0  0  0  0  0  0  0  0  0  0  0
   28.8530   -5.0420   26.4210 C   0  0  0  0  0  0  0  0  0  0  0  0
   29.8980   -3.9630   26.1380 C   0  0  0  0  0  0  0  0  0  0  0  0
   28.4950   -5.8260   25.1500 C   0  0  0  0  0  0  0  0  0  0  0  0
   28.7850   -7.6460   30.5840 N   0  0  0  0  0  0  0  0  0  0  0  0
   29.4210   -8.4730   31.6280 C   0  0  2  0  0  0  0  0  0  0  0  0
   29.2420   -9.9760   31.3990 C   0  0  0  0  0  0  0  0  0  0  0  0
   28.1570  -10.4210   31.0410 O   0  0  0  0  0  0  0  0  0  0  0  0
   28.8630   -8.1200   32.9710 C   0  0  0  0  0  0  0  0  0  0  0  0
   30.2890  -10.7550   31.6460 N   0  0  0  0  0  0  0  0  0  0  0  0
   30.1820  -12.2230   31.5570 C   0  0  2  0  0  0  0  0  0  0  0  0
   29.4080  -12.7260   32.7730 C   0  0  0  0  0  0  0  0  0  0  0  0
   29.4790  -12.0810   33.8390 O   0  0  0  0  0  0  0  0  0  0  0  0
   31.5610  -12.8620   31.5020 C   0  0  0  0  0  0  0  0  0  0  0  0
   28.6760  -13.8680   32.6390 N   0  0  0  0  0  0  0  0  0  0  0  0
   27.8970  -14.3550   33.7930 C   0  0  0  0  0  0  0  0  0  0  0  0
   26.5764   -3.2166   32.4428 H   0  0  0  0  0  0  0  0  0  0  0  0
   27.7673   -4.4178   32.8812 H   0  0  0  0  0  0  0  0  0  0  0  0
   26.2239   -4.3785   33.6993 H   0  0  0  0  0  0  0  0  0  0  0  0
   25.5764   -3.6370   30.5744 H   0  0  0  0  0  0  0  0  0  0  0  0
   24.2081   -5.9658   29.9322 H   0  0  0  0  0  0  0  0  0  0  0  0
   25.3125   -3.8907   28.0829 H   0  0  0  0  0  0  0  0  0  0  0  0
   23.3124   -6.0337   27.4604 H   0  0  0  0  0  0  0  0  0  0  0  0
   24.9471   -5.9497   26.8491 H   0  0  0  0  0  0  0  0  0  0  0  0
   23.7811   -4.7298   26.3959 H   0  0  0  0  0  0  0  0  0  0  0  0
   22.5460   -4.3061   29.1815 H   0  0  0  0  0  0  0  0  0  0  0  0
   23.0226   -3.0438   28.0713 H   0  0  0  0  0  0  0  0  0  0  0  0
   23.6709   -3.0710   29.6936 H   0  0  0  0  0  0  0  0  0  0  0  0
   27.5623   -5.1170   29.2345 H   0  0  0  0  0  0  0  0  0  0  0  0
   27.8820   -7.5363   27.6508 H   0  0  0  0  0  0  0  0  0  0  0  0
   29.8968   -5.3789   28.2259 H   0  0  0  0  0  0  0  0  0  0  0  0
   29.9615   -6.6994   26.9683 H   0  0  0  0  0  0  0  0  0  0  0  0
   27.9565   -4.5682   26.7625 H   0  0  0  0  0  0  0  0  0  0  0  0
   30.8014   -4.4226   25.7952 H   0  0  0  0  0  0  0  0  0  0  0  0
   30.0953   -3.4137   27.0348 H   0  0  0  0  0  0  0  0  0  0  0  0
   29.5288   -3.2974   25.3860 H   0  0  0  0  0  0  0  0  0  0  0  0
   29.3690   -6.3167   24.7755 H   0  0  0  0  0  0  0  0  0  0  0  0
   28.1194   -5.1517   24.4089 H   0  0  0  0  0  0  0  0  0  0  0  0
   27.7471   -6.5559   25.3799 H   0  0  0  0  0  0  0  0  0  0  0  0
   28.0675   -7.0222   30.8396 H   0  0  0  0  0  0  0  0  0  0  0  0
   30.4689   -8.2617   31.5819 H   0  0  0  0  0  0  0  0  0  0  0  0
   27.8161   -8.3401   32.9913 H   0  0  0  0  0  0  0  0  0  0  0  0
   29.0118   -7.0767   33.1560 H   0  0  0  0  0  0  0  0  0  0  0  0
   29.3622   -8.6908   33.7259 H   0  0  0  0  0  0  0  0  0  0  0  0
   31.1499  -10.3459   31.8923 H   0  0  0  0  0  0  0  0  0  0  0  0
   29.6654  -12.4920   30.6594 H   0  0  0  0  0  0  0  0  0  0  0  0
   32.1057  -12.6117   32.3883 H   0  0  0  0  0  0  0  0  0  0  0  0
   32.0884  -12.4989   30.6448 H   0  0  0  0  0  0  0  0  0  0  0  0
   31.4591  -13.9250   31.4342 H   0  0  0  0  0  0  0  0  0  0  0  0
   28.6674  -14.3597   31.7861 H   0  0  0  0  0  0  0  0  0  0  0  0
   28.0333  -13.6912   34.6211 H   0  0  0  0  0  0  0  0  0  0  0  0
   28.2328  -15.3346   34.0622 H   0  0  0  0  0  0  0  0  0  0  0  0
   26.8598  -14.3924   33.5329 H   0  0  0  0  0  0  0  0  0  0  0  0
  1 31  1  0  0  0  0
  1 32  1  0  0  0  0
  1 33  1  0  0  0  0
  2  3  2  0  0  0  0
  2  1  1  0  0  0  0
  4  2  1  0  0  0  0
  4 34  1  0  0  0  0
  5  4  1  0  0  0  0
  5 35  1  1  0  0  0
  6  5  1  0  0  0  0
  7  6  2  0  0  0  0
  8 10  1  0  0  0  0
  8  5  1  0  0  0  0
  8 36  1  0  0  0  0
  9  8  1  0  0  0  0
  9 37  1  0  0  0  0
  9 38  1  0  0  0  0
  9 39  1  0  0  0  0
 10 40  1  0  0  0  0
 10 41  1  0  0  0  0
 10 42  1  0  0  0  0
 11  6  1  0  0  0  0
 11 43  1  0  0  0  0
 12 11  1  0  0  0  0
 12 13  1  0  0  0  0
 12 44  1  6  0  0  0
 13 19  1  0  0  0  0
 14 13  2  0  0  0  0
 15 12  1  0  0  0  0
 15 45  1  0  0  0  0
 15 46  1  0  0  0  0
 16 15  1  0  0  0  0
 16 47  1  0  0  0  0
 17 16  1  0  0  0  0
 17 48  1  0  0  0  0
 17 49  1  0  0  0  0
 17 50  1  0  0  0  0
 18 16  1  0  0  0  0
 18 51  1  0  0  0  0
 18 52  1  0  0  0  0
 18 53  1  0  0  0  0
 19 20  1  0  0  0  0
 19 54  1  0  0  0  0
 20 23  1  0  0  0  0
 20 55  1  1  0  0  0
 21 20  1  0  0  0  0
 21 24  1  0  0  0  0
 22 21  2  0  0  0  0
 23 56  1  0  0  0  0
 23 57  1  0  0  0  0
 23 58  1  0  0  0  0
 24 59  1  0  0  0  0
 25 24  1  0  0  0  0
 25 26  1  0  0  0  0
 25 60  1  6  0  0  0
 26 27  2  0  0  0  0
 28 25  1  0  0  0  0
 28 61  1  0  0  0  0
 28 62  1  0  0  0  0
 28 63  1  0  0  0  0
 29 26  1  0  0  0  0
 29 30  1  0  0  0  0
 29 64  1  0  0  0  0
 30 65  1  0  0  0  0
 30 66  1  0  0  0  0
 30 67  1  0  0  0  0
M  END
>  <MODEL>
       0

$$$$
selected_4mers/VLAA/837_noH.pdb
 OpenBabel03042518353D

 67 66  0  0  1  0  0  0  0  0999 V2000
   19.5820   46.5270   87.3140 C   0  0  0  0  0  0  0  0  0  0  0  0
   20.1680   47.8700   86.8180 C   0  0  0  0  0  0  0  0  0  0  0  0
   20.3940   48.7850   87.6220 O   0  0  0  0  0  0  0  0  0  0  0  0
   20.4330   47.9850   85.5140 N   0  0  0  0  0  0  0  0  0  0  0  0
   20.8930   49.2560   84.9170 C   0  0  2  0  0  0  0  0  0  0  0  0
   19.9340   49.6920   83.8650 C   0  0  0  0  0  0  0  0  0  0  0  0
   19.5450   48.9080   83.0010 O   0  0  0  0  0  0  0  0  0  0  0  0
   22.3190   49.1170   84.3260 C   0  0  0  0  0  0  0  0  0  0  0  0
   22.8230   50.4840   83.6530 C   0  0  0  0  0  0  0  0  0  0  0  0
   23.2680   48.5830   85.3960 C   0  0  0  0  0  0  0  0  0  0  0  0
   19.4960   50.9350   83.9800 N   0  0  0  0  0  0  0  0  0  0  0  0
   18.7600   51.6130   82.9320 C   0  0  2  0  0  0  0  0  0  0  0  0
   19.7830   52.3750   82.1440 C   0  0  0  0  0  0  0  0  0  0  0  0
   20.5240   53.2450   82.6880 O   0  0  0  0  0  0  0  0  0  0  0  0
   17.7840   52.5860   83.5480 C   0  0  0  0  0  0  0  0  0  0  0  0
   16.3520   52.8090   83.0500 C   0  0  0  0  0  0  0  0  0  0  0  0
   15.9670   54.2630   83.2750 C   0  0  0  0  0  0  0  0  0  0  0  0
   16.0630   52.3130   81.6440 C   0  0  0  0  0  0  0  0  0  0  0  0
   19.8070   52.1260   80.8400 N   0  0  0  0  0  0  0  0  0  0  0  0
   20.8140   52.7220   79.9830 C   0  0  2  0  0  0  0  0  0  0  0  0
   20.1300   53.5000   78.8630 C   0  0  0  0  0  0  0  0  0  0  0  0
   19.0980   53.0500   78.2930 O   0  0  0  0  0  0  0  0  0  0  0  0
   21.7240   51.6070   79.3720 C   0  0  0  0  0  0  0  0  0  0  0  0
   20.7190   54.6460   78.5350 N   0  0  0  0  0  0  0  0  0  0  0  0
   20.2480   55.5110   77.4620 C   0  0  2  0  0  0  0  0  0  0  0  0
   21.4220   56.0170   76.6280 C   0  0  0  0  0  0  0  0  0  0  0  0
   22.4920   56.3540   77.1520 O   0  0  0  0  0  0  0  0  0  0  0  0
   19.4520   56.6470   78.0210 C   0  0  0  0  0  0  0  0  0  0  0  0
   21.2460   56.0090   75.3130 N   0  0  0  0  0  0  0  0  0  0  0  0
   22.2270   56.6130   74.4240 C   0  0  0  0  0  0  0  0  0  0  0  0
   19.4560   45.8644   86.4834 H   0  0  0  0  0  0  0  0  0  0  0  0
   18.6338   46.7013   87.7782 H   0  0  0  0  0  0  0  0  0  0  0  0
   20.2508   46.0864   88.0235 H   0  0  0  0  0  0  0  0  0  0  0  0
   20.3183   47.1988   84.9327 H   0  0  0  0  0  0  0  0  0  0  0  0
   20.9329   49.9967   85.6881 H   0  0  0  0  0  0  0  0  0  0  0  0
   22.3002   48.4046   83.5279 H   0  0  0  0  0  0  0  0  0  0  0  0
   22.8681   51.2522   84.3965 H   0  0  0  0  0  0  0  0  0  0  0  0
   22.1410   50.7742   82.8812 H   0  0  0  0  0  0  0  0  0  0  0  0
   23.7959   50.3370   83.2326 H   0  0  0  0  0  0  0  0  0  0  0  0
   23.3105   49.2738   86.2120 H   0  0  0  0  0  0  0  0  0  0  0  0
   24.2458   48.4640   84.9782 H   0  0  0  0  0  0  0  0  0  0  0  0
   22.9128   47.6369   85.7477 H   0  0  0  0  0  0  0  0  0  0  0  0
   19.6785   51.4218   84.8161 H   0  0  0  0  0  0  0  0  0  0  0  0
   18.2131   50.9241   82.3227 H   0  0  0  0  0  0  0  0  0  0  0  0
   18.2595   53.5431   83.4954 H   0  0  0  0  0  0  0  0  0  0  0  0
   17.5959   52.1108   84.4880 H   0  0  0  0  0  0  0  0  0  0  0  0
   15.7151   52.1813   83.6375 H   0  0  0  0  0  0  0  0  0  0  0  0
   16.6016   54.8947   82.6892 H   0  0  0  0  0  0  0  0  0  0  0  0
   16.0802   54.5057   84.3109 H   0  0  0  0  0  0  0  0  0  0  0  0
   14.9483   54.4115   82.9831 H   0  0  0  0  0  0  0  0  0  0  0  0
   16.6484   52.8695   80.9421 H   0  0  0  0  0  0  0  0  0  0  0  0
   15.0238   52.4450   81.4258 H   0  0  0  0  0  0  0  0  0  0  0  0
   16.3132   51.2751   81.5735 H   0  0  0  0  0  0  0  0  0  0  0  0
   19.1305   51.5273   80.4486 H   0  0  0  0  0  0  0  0  0  0  0  0
   21.4210   53.3869   80.5612 H   0  0  0  0  0  0  0  0  0  0  0  0
   21.1254   50.9365   78.7914 H   0  0  0  0  0  0  0  0  0  0  0  0
   22.2030   51.0655   80.1608 H   0  0  0  0  0  0  0  0  0  0  0  0
   22.4663   52.0559   78.7456 H   0  0  0  0  0  0  0  0  0  0  0  0
   21.5146   54.9243   79.0437 H   0  0  0  0  0  0  0  0  0  0  0  0
   19.6087   54.9436   76.8183 H   0  0  0  0  0  0  0  0  0  0  0  0
   20.0709   57.2310   78.6698 H   0  0  0  0  0  0  0  0  0  0  0  0
   18.6201   56.2620   78.5729 H   0  0  0  0  0  0  0  0  0  0  0  0
   19.0955   57.2608   77.2203 H   0  0  0  0  0  0  0  0  0  0  0  0
   20.4407   55.5887   74.9335 H   0  0  0  0  0  0  0  0  0  0  0  0
   23.0305   57.0188   75.0025 H   0  0  0  0  0  0  0  0  0  0  0  0
   21.7633   57.3950   73.8598 H   0  0  0  0  0  0  0  0  0  0  0  0
   22.6086   55.8693   73.7560 H   0  0  0  0  0  0  0  0  0  0  0  0
  1 31  1  0  0  0  0
  1 32  1  0  0  0  0
  1 33  1  0  0  0  0
  2  1  1  0  0  0  0
  2  3  2  0  0  0  0
  4  2  1  0  0  0  0
  4 34  1  0  0  0  0
  5  4  1  0  0  0  0
  5 35  1  1  0  0  0
  6 11  1  0  0  0  0
  6  5  1  0  0  0  0
  7  6  2  0  0  0  0
  8  5  1  0  0  0  0
  8 10  1  0  0  0  0
  8 36  1  0  0  0  0
  9  8  1  0  0  0  0
  9 37  1  0  0  0  0
  9 38  1  0  0  0  0
  9 39  1  0  0  0  0
 10 40  1  0  0  0  0
 10 41  1  0  0  0  0
 10 42  1  0  0  0  0
 11 43  1  0  0  0  0
 12 15  1  0  0  0  0
 12 11  1  0  0  0  0
 12 44  1  6  0  0  0
 13 14  2  0  0  0  0
 13 12  1  0  0  0  0
 15 45  1  0  0  0  0
 15 46  1  0  0  0  0
 16 17  1  0  0  0  0
 16 15  1  0  0  0  0
 16 47  1  0  0  0  0
 17 48  1  0  0  0  0
 17 49  1  0  0  0  0
 17 50  1  0  0  0  0
 18 16  1  0  0  0  0
 18 51  1  0  0  0  0
 18 52  1  0  0  0  0
 18 53  1  0  0  0  0
 19 13  1  0  0  0  0
 19 54  1  0  0  0  0
 20 19  1  0  0  0  0
 20 55  1  1  0  0  0
 21 20  1  0  0  0  0
 22 21  2  0  0  0  0
 23 20  1  0  0  0  0
 23 56  1  0  0  0  0
 23 57  1  0  0  0  0
 23 58  1  0  0  0  0
 24 21  1  0  0  0  0
 24 59  1  0  0  0  0
 25 28  1  0  0  0  0
 25 24  1  0  0  0  0
 25 60  1  6  0  0  0
 26 27  2  0  0  0  0
 26 25  1  0  0  0  0
 28 61  1  0  0  0  0
 28 62  1  0  0  0  0
 28 63  1  0  0  0  0
 29 26  1  0  0  0  0
 29 64  1  0  0  0  0
 30 29  1  0  0  0  0
 30 65  1  0  0  0  0
 30 66  1  0  0  0  0
 30 67  1  0  0  0  0
M  END
>  <MODEL>
       0

$$$$
selected_4mers/VLAA/838_noH.pdb
 OpenBabel03042518353D

 67 66  0  0  1  0  0  0  0  0999 V2000
   26.8230   25.1480  149.7160 C   0  0  0  0  0  0  0  0  0  0  0  0
   27.8770   24.1680  150.2350 C   0  0  0  0  0  0  0  0  0  0  0  0
   28.9400   24.5840  150.7360 O   0  0  0  0  0  0  0  0  0  0  0  0
   27.5790   22.8730  150.1340 N   0  0  0  0  0  0  0  0  0  0  0  0
   28.5190   21.8180  150.5790 C   0  0  2  0  0  0  0  0  0  0  0  0
   29.8060   21.9150  149.7780 C   0  0  0  0  0  0  0  0  0  0  0  0
   30.9030   21.8960  150.3400 O   0  0  0  0  0  0  0  0  0  0  0  0
   27.8980   20.3900  150.4650 C   0  0  0  0  0  0  0  0  0  0  0  0
   28.9330   19.3020  150.7420 C   0  0  0  0  0  0  0  0  0  0  0  0
   26.6850   20.2260  151.4030 C   0  0  0  0  0  0  0  0  0  0  0  0
   29.6700   22.0580  148.4570 N   0  0  0  0  0  0  0  0  0  0  0  0
   30.8420   22.0680  147.5810 C   0  0  2  0  0  0  0  0  0  0  0  0
   31.6940   23.3370  147.6920 C   0  0  0  0  0  0  0  0  0  0  0  0
   32.8950   23.3120  147.4150 O   0  0  0  0  0  0  0  0  0  0  0  0
   30.3890   21.8250  146.1410 C   0  0  0  0  0  0  0  0  0  0  0  0
   29.6710   20.4870  145.8840 C   0  0  0  0  0  0  0  0  0  0  0  0
   29.2990   20.4310  144.4180 C   0  0  0  0  0  0  0  0  0  0  0  0
   30.5640   19.2890  146.2890 C   0  0  0  0  0  0  0  0  0  0  0  0
   31.0720   24.4370  148.1020 N   0  0  0  0  0  0  0  0  0  0  0  0
   31.7680   25.7300  148.2430 C   0  0  2  0  0  0  0  0  0  0  0  0
   32.4260   25.9360  149.6060 C   0  0  0  0  0  0  0  0  0  0  0  0
   33.2580   26.8450  149.7600 O   0  0  0  0  0  0  0  0  0  0  0  0
   30.8110   26.8720  147.9720 C   0  0  0  0  0  0  0  0  0  0  0  0
   32.0390   25.1290  150.5870 N   0  0  0  0  0  0  0  0  0  0  0  0
   32.4830   25.3430  151.9760 C   0  0  2  0  0  0  0  0  0  0  0  0
   34.0020   25.3860  152.0450 C   0  0  0  0  0  0  0  0  0  0  0  0
   34.6800   24.5360  151.4560 O   0  0  0  0  0  0  0  0  0  0  0  0
   31.9040   24.2570  152.9090 C   0  0  0  0  0  0  0  0  0  0  0  0
   34.5170   26.3850  152.7640 N   0  0  0  0  0  0  0  0  0  0  0  0
   35.9420   26.6590  152.8270 C   0  0  0  0  0  0  0  0  0  0  0  0
   25.9893   24.6019  149.3266 H   0  0  0  0  0  0  0  0  0  0  0  0
   27.2477   25.7511  148.9409 H   0  0  0  0  0  0  0  0  0  0  0  0
   26.4948   25.7763  150.5175 H   0  0  0  0  0  0  0  0  0  0  0  0
   26.7101   22.6101  149.7531 H   0  0  0  0  0  0  0  0  0  0  0  0
   28.7319   21.9775  151.6154 H   0  0  0  0  0  0  0  0  0  0  0  0
   27.5600   20.2780  149.4560 H   0  0  0  0  0  0  0  0  0  0  0  0
   29.2865   19.3938  151.7477 H   0  0  0  0  0  0  0  0  0  0  0  0
   29.7539   19.4097  150.0641 H   0  0  0  0  0  0  0  0  0  0  0  0
   28.4838   18.3401  150.6082 H   0  0  0  0  0  0  0  0  0  0  0  0
   27.0025   20.3347  152.4190 H   0  0  0  0  0  0  0  0  0  0  0  0
   26.2563   19.2554  151.2653 H   0  0  0  0  0  0  0  0  0  0  0  0
   25.9546   20.9741  151.1756 H   0  0  0  0  0  0  0  0  0  0  0  0
   28.7710   22.1578  148.0683 H   0  0  0  0  0  0  0  0  0  0  0  0
   31.4876   21.2781  147.9038 H   0  0  0  0  0  0  0  0  0  0  0  0
   29.7201   22.6147  145.8690 H   0  0  0  0  0  0  0  0  0  0  0  0
   31.2837   21.7933  145.5550 H   0  0  0  0  0  0  0  0  0  0  0  0
   28.7868   20.4227  146.4831 H   0  0  0  0  0  0  0  0  0  0  0  0
   30.1855   20.4955  143.8224 H   0  0  0  0  0  0  0  0  0  0  0  0
   28.6510   21.2494  144.1829 H   0  0  0  0  0  0  0  0  0  0  0  0
   28.7974   19.5085  144.2123 H   0  0  0  0  0  0  0  0  0  0  0  0
   31.4670   19.3072  145.7152 H   0  0  0  0  0  0  0  0  0  0  0  0
   30.0407   18.3747  146.1016 H   0  0  0  0  0  0  0  0  0  0  0  0
   30.8015   19.3571  147.3301 H   0  0  0  0  0  0  0  0  0  0  0  0
   30.1131   24.3875  148.3193 H   0  0  0  0  0  0  0  0  0  0  0  0
   32.5561   25.7154  147.5195 H   0  0  0  0  0  0  0  0  0  0  0  0
   30.0327   26.8670  148.7063 H   0  0  0  0  0  0  0  0  0  0  0  0
   30.3833   26.7555  146.9981 H   0  0  0  0  0  0  0  0  0  0  0  0
   31.3408   27.8004  148.0201 H   0  0  0  0  0  0  0  0  0  0  0  0
   31.4434   24.3723  150.3823 H   0  0  0  0  0  0  0  0  0  0  0  0
   32.1115   26.2880  152.3135 H   0  0  0  0  0  0  0  0  0  0  0  0
   32.2565   23.2955  152.5990 H   0  0  0  0  0  0  0  0  0  0  0  0
   30.8353   24.2778  152.8603 H   0  0  0  0  0  0  0  0  0  0  0  0
   32.2190   24.4453  153.9141 H   0  0  0  0  0  0  0  0  0  0  0  0
   33.9040   26.9620  153.2744 H   0  0  0  0  0  0  0  0  0  0  0  0
   36.4686   25.9497  152.2232 H   0  0  0  0  0  0  0  0  0  0  0  0
   36.2756   26.5818  153.8407 H   0  0  0  0  0  0  0  0  0  0  0  0
   36.1316   27.6473  152.4634 H   0  0  0  0  0  0  0  0  0  0  0  0
  1  2  1  0  0  0  0
  1 31  1  0  0  0  0
  1 32  1  0  0  0  0
  1 33  1  0  0  0  0
  2  3  2  0  0  0  0
  4  2  1  0  0  0  0
  4  5  1  0  0  0  0
  4 34  1  0  0  0  0
  5 35  1  1  0  0  0
  6  7  2  0  0  0  0
  6  5  1  0  0  0  0
  8  5  1  0  0  0  0
  8  9  1  0  0  0  0
  8 10  1  0  0  0  0
  8 36  1  0  0  0  0
  9 37  1  0  0  0  0
  9 38  1  0  0  0  0
  9 39  1  0  0  0  0
 10 40  1  0  0  0  0
 10 41  1  0  0  0  0
 10 42  1  0  0  0  0
 11  6  1  0  0  0  0
 11 43  1  0  0  0  0
 12 13  1  0  0  0  0
 12 11  1  0  0  0  0
 12 44  1  1  0  0  0
 13 19  1  0  0  0  0
 14 13  2  0  0  0  0
 15 12  1  0  0  0  0
 15 45  1  0  0  0  0
 15 46  1  0  0  0  0
 16 15  1  0  0  0  0
 16 18  1  0  0  0  0
 16 47  1  0  0  0  0
 17 16  1  0  0  0  0
 17 48  1  0  0  0  0
 17 49  1  0  0  0  0
 17 50  1  0  0  0  0
 18 51  1  0  0  0  0
 18 52  1  0  0  0  0
 18 53  1  0  0  0  0
 19 20  1  0  0  0  0
 19 54  1  0  0  0  0
 20 21  1  0  0  0  0
 20 55  1  6  0  0  0
 21 22  2  0  0  0  0
 21 24  1  0  0  0  0
 23 20  1  0  0  0  0
 23 56  1  0  0  0  0
 23 57  1  0  0  0  0
 23 58  1  0  0  0  0
 24 25  1  0  0  0  0
 24 59  1  0  0  0  0
 25 26  1  0  0  0  0
 25 28  1  0  0  0  0
 25 60  1  1  0  0  0
 26 29  1  0  0  0  0
 27 26  2  0  0  0  0
 28 61  1  0  0  0  0
 28 62  1  0  0  0  0
 28 63  1  0  0  0  0
 29 30  1  0  0  0  0
 29 64  1  0  0  0  0
 30 65  1  0  0  0  0
 30 66  1  0  0  0  0
 30 67  1  0  0  0  0
M  END
>  <MODEL>
       0

$$$$
selected_4mers/VLAA/839_noH.pdb
 OpenBabel03042518353D

 67 66  0  0  1  0  0  0  0  0999 V2000
   37.0590  -36.3110   17.7850 C   0  0  0  0  0  0  0  0  0  0  0  0
   37.9400  -37.1060   18.7550 C   0  0  0  0  0  0  0  0  0  0  0  0
   37.5420  -38.1900   19.1900 O   0  0  0  0  0  0  0  0  0  0  0  0
   39.1180  -36.5840   19.0990 N   0  0  0  0  0  0  0  0  0  0  0  0
   39.9850  -37.2980   20.0550 C   0  0  2  0  0  0  0  0  0  0  0  0
   39.4150  -37.3610   21.4740 C   0  0  0  0  0  0  0  0  0  0  0  0
   39.7990  -38.2290   22.2570 O   0  0  0  0  0  0  0  0  0  0  0  0
   41.4560  -36.8040   20.0820 C   0  0  0  0  0  0  0  0  0  0  0  0
   42.1500  -37.1440   18.7770 C   0  0  0  0  0  0  0  0  0  0  0  0
   41.5490  -35.3240   20.4200 C   0  0  0  0  0  0  0  0  0  0  0  0
   38.4880  -36.4550   21.7800 N   0  0  0  0  0  0  0  0  0  0  0  0
   37.7910  -36.4350   23.0690 C   0  0  2  0  0  0  0  0  0  0  0  0
   36.5490  -37.3290   23.0890 C   0  0  0  0  0  0  0  0  0  0  0  0
   35.8120  -37.3460   24.0780 O   0  0  0  0  0  0  0  0  0  0  0  0
   37.3900  -35.0000   23.4390 C   0  0  0  0  0  0  0  0  0  0  0  0
   38.4830  -33.9810   23.7670 C   0  0  0  0  0  0  0  0  0  0  0  0
   37.8560  -32.5970   23.8830 C   0  0  0  0  0  0  0  0  0  0  0  0
   39.2290  -34.3500   25.0460 C   0  0  0  0  0  0  0  0  0  0  0  0
   36.3270  -38.0700   22.0010 N   0  0  0  0  0  0  0  0  0  0  0  0
   35.1370  -38.9160   21.8380 C   0  0  2  0  0  0  0  0  0  0  0  0
   33.8630  -38.1280   22.1380 C   0  0  0  0  0  0  0  0  0  0  0  0
   32.9800  -38.5870   22.8660 O   0  0  0  0  0  0  0  0  0  0  0  0
   35.2340  -40.1750   22.7210 C   0  0  0  0  0  0  0  0  0  0  0  0
   33.7870  -36.9280   21.5740 N   0  0  0  0  0  0  0  0  0  0  0  0
   32.6720  -36.0300   21.8070 C   0  0  2  0  0  0  0  0  0  0  0  0
   31.5650  -36.2740   20.7860 C   0  0  0  0  0  0  0  0  0  0  0  0
   31.8350  -36.7760   19.6900 O   0  0  0  0  0  0  0  0  0  0  0  0
   33.1460  -34.5780   21.7330 C   0  0  0  0  0  0  0  0  0  0  0  0
   30.3160  -35.9240   21.1450 N   0  0  0  0  0  0  0  0  0  0  0  0
   29.2370  -35.8410   20.1540 C   0  0  0  0  0  0  0  0  0  0  0  0
   37.5570  -35.4040   17.5126 H   0  0  0  0  0  0  0  0  0  0  0  0
   36.1277  -36.0785   18.2578 H   0  0  0  0  0  0  0  0  0  0  0  0
   36.8772  -36.8956   16.9074 H   0  0  0  0  0  0  0  0  0  0  0  0
   39.4080  -35.7247   18.7160 H   0  0  0  0  0  0  0  0  0  0  0  0
   40.0013  -38.2950   19.6668 H   0  0  0  0  0  0  0  0  0  0  0  0
   41.9695  -37.3193   20.8666 H   0  0  0  0  0  0  0  0  0  0  0  0
   41.6581  -36.6421   17.9701 H   0  0  0  0  0  0  0  0  0  0  0  0
   42.1101  -38.2012   18.6167 H   0  0  0  0  0  0  0  0  0  0  0  0
   43.1714  -36.8286   18.8235 H   0  0  0  0  0  0  0  0  0  0  0  0
   41.0493  -34.7537   19.6651 H   0  0  0  0  0  0  0  0  0  0  0  0
   42.5775  -35.0324   20.4650 H   0  0  0  0  0  0  0  0  0  0  0  0
   41.0856  -35.1448   21.3677 H   0  0  0  0  0  0  0  0  0  0  0  0
   38.2612  -35.7690   21.1113 H   0  0  0  0  0  0  0  0  0  0  0  0
   38.4795  -36.8234   23.7901 H   0  0  0  0  0  0  0  0  0  0  0  0
   36.7547  -35.0644   24.2976 H   0  0  0  0  0  0  0  0  0  0  0  0
   36.9483  -34.6197   22.5417 H   0  0  0  0  0  0  0  0  0  0  0  0
   39.2032  -33.9814   22.9757 H   0  0  0  0  0  0  0  0  0  0  0  0
   37.1358  -32.5969   24.6744 H   0  0  0  0  0  0  0  0  0  0  0  0
   37.3735  -32.3457   22.9616 H   0  0  0  0  0  0  0  0  0  0  0  0
   38.6184  -31.8766   24.0944 H   0  0  0  0  0  0  0  0  0  0  0  0
   38.5438  -34.3617   25.8678 H   0  0  0  0  0  0  0  0  0  0  0  0
   39.9967  -33.6282   25.2320 H   0  0  0  0  0  0  0  0  0  0  0  0
   39.6695  -35.3188   24.9351 H   0  0  0  0  0  0  0  0  0  0  0  0
   36.9911  -38.0486   21.2746 H   0  0  0  0  0  0  0  0  0  0  0  0
   35.0917  -39.2343   20.8174 H   0  0  0  0  0  0  0  0  0  0  0  0
   35.2808  -39.8861   23.7502 H   0  0  0  0  0  0  0  0  0  0  0  0
   36.1159  -40.7237   22.4641 H   0  0  0  0  0  0  0  0  0  0  0  0
   34.3726  -40.7895   22.5619 H   0  0  0  0  0  0  0  0  0  0  0  0
   34.5135  -36.6376   20.9764 H   0  0  0  0  0  0  0  0  0  0  0  0
   32.2792  -36.2197   22.7841 H   0  0  0  0  0  0  0  0  0  0  0  0
   33.5404  -34.3808   20.7581 H   0  0  0  0  0  0  0  0  0  0  0  0
   33.9081  -34.4138   22.4659 H   0  0  0  0  0  0  0  0  0  0  0  0
   32.3212  -33.9234   21.9232 H   0  0  0  0  0  0  0  0  0  0  0  0
   30.1230  -35.7202   22.0886 H   0  0  0  0  0  0  0  0  0  0  0  0
   29.6204  -36.0928   19.1873 H   0  0  0  0  0  0  0  0  0  0  0  0
   28.8465  -34.8450   20.1344 H   0  0  0  0  0  0  0  0  0  0  0  0
   28.4572  -36.5247   20.4176 H   0  0  0  0  0  0  0  0  0  0  0  0
  1  2  1  0  0  0  0
  1 31  1  0  0  0  0
  1 32  1  0  0  0  0
  1 33  1  0  0  0  0
  2  4  1  0  0  0  0
  2  3  2  0  0  0  0
  4  5  1  0  0  0  0
  4 34  1  0  0  0  0
  5  8  1  0  0  0  0
  5  6  1  0  0  0  0
  5 35  1  6  0  0  0
  6 11  1  0  0  0  0
  6  7  2  0  0  0  0
  8 10  1  0  0  0  0
  8 36  1  0  0  0  0
  9  8  1  0  0  0  0
  9 37  1  0  0  0  0
  9 38  1  0  0  0  0
  9 39  1  0  0  0  0
 10 40  1  0  0  0  0
 10 41  1  0  0  0  0
 10 42  1  0  0  0  0
 11 12  1  0  0  0  0
 11 43  1  0  0  0  0
 12 13  1  0  0  0  0
 12 15  1  0  0  0  0
 12 44  1  1  0  0  0
 13 14  2  0  0  0  0
 15 16  1  0  0  0  0
 15 45  1  0  0  0  0
 15 46  1  0  0  0  0
 16 17  1  0  0  0  0
 16 18  1  0  0  0  0
 16 47  1  0  0  0  0
 17 48  1  0  0  0  0
 17 49  1  0  0  0  0
 17 50  1  0  0  0  0
 18 51  1  0  0  0  0
 18 52  1  0  0  0  0
 18 53  1  0  0  0  0
 19 13  1  0  0  0  0
 19 54  1  0  0  0  0
 20 19  1  0  0  0  0
 20 21  1  0  0  0  0
 20 23  1  0  0  0  0
 20 55  1  6  0  0  0
 21 22  2  0  0  0  0
 23 56  1  0  0  0  0
 23 57  1  0  0  0  0
 23 58  1  0  0  0  0
 24 25  1  0  0  0  0
 24 21  1  0  0  0  0
 24 59  1  0  0  0  0
 25 60  1  1  0  0  0
 26 29  1  0  0  0  0
 26 25  1  0  0  0  0
 27 26  2  0  0  0  0
 28 25  1  0  0  0  0
 28 61  1  0  0  0  0
 28 62  1  0  0  0  0
 28 63  1  0  0  0  0
 29 64  1  0  0  0  0
 30 29  1  0  0  0  0
 30 65  1  0  0  0  0
 30 66  1  0  0  0  0
 30 67  1  0  0  0  0
M  END
>  <MODEL>
       0

$$$$
