selected_4mers/VLEA/860_noH.pdb
 OpenBabel03042518353D

 72 71  0  0  1  0  0  0  0  0999 V2000
   -4.4330  -17.9250   30.4330 C   0  0  0  0  0  0  0  0  0  0  0  0
   -4.7580  -16.4500   30.1660 C   0  0  0  0  0  0  0  0  0  0  0  0
   -5.7240  -15.9110   30.7130 O   0  0  0  0  0  0  0  0  0  0  0  0
   -3.9460  -15.7920   29.3420 N   0  0  0  0  0  0  0  0  0  0  0  0
   -4.1870  -14.4010   28.9770 C   0  0  2  0  0  0  0  0  0  0  0  0
   -5.4860  -14.2870   28.1660 C   0  0  0  0  0  0  0  0  0  0  0  0
   -6.3380  -13.4470   28.4690 O   0  0  0  0  0  0  0  0  0  0  0  0
   -2.9480  -13.7850   28.2310 C   0  0  0  0  0  0  0  0  0  0  0  0
   -3.2250  -12.3530   27.7560 C   0  0  0  0  0  0  0  0  0  0  0  0
   -1.7400  -13.8030   29.1570 C   0  0  0  0  0  0  0  0  0  0  0  0
   -5.6430  -15.1560   27.1640 N   0  0  0  0  0  0  0  0  0  0  0  0
   -6.8790  -15.2160   26.3750 C   0  0  2  0  0  0  0  0  0  0  0  0
   -8.1050  -15.5270   27.2410 C   0  0  0  0  0  0  0  0  0  0  0  0
   -9.1430  -14.8730   27.0930 O   0  0  0  0  0  0  0  0  0  0  0  0
   -6.7600  -16.2040   25.2120 C   0  0  0  0  0  0  0  0  0  0  0  0
   -5.9680  -15.6900   23.9990 C   0  0  0  0  0  0  0  0  0  0  0  0
   -5.6760  -16.8120   23.0070 C   0  0  0  0  0  0  0  0  0  0  0  0
   -6.6840  -14.5200   23.3180 C   0  0  0  0  0  0  0  0  0  0  0  0
   -7.9650  -16.4880   28.1560 N   0  0  0  0  0  0  0  0  0  0  0  0
   -9.0500  -16.8460   29.0830 C   0  0  2  0  0  0  0  0  0  0  0  0
   -9.4290  -15.7020   30.0430 C   0  0  0  0  0  0  0  0  0  0  0  0
  -10.6150  -15.4840   30.3220 O   0  0  0  0  0  0  0  0  0  0  0  0
   -8.7150  -18.1360   29.8540 C   0  0  0  0  0  0  0  0  0  0  0  0
   -9.7480  -18.5610   30.9070 C   0  0  0  0  0  0  0  0  0  0  0  0
  -11.1290  -18.8750   30.3300 C   0  0  0  0  0  0  0  0  0  0  0  0
  -11.2430  -19.1520   29.1110 O   0  0  0  0  0  0  0  0  0  0  0  0
  -12.1160  -18.8430   31.1110 O   0  0  0  0  0  0  0  0  0  0  0  0
   -8.4350  -14.9830   30.5580 N   0  0  0  0  0  0  0  0  0  0  0  0
   -8.6910  -13.8210   31.4150 C   0  0  2  0  0  0  0  0  0  0  0  0
   -9.4360  -12.7260   30.6380 C   0  0  0  0  0  0  0  0  0  0  0  0
  -10.3730  -12.1040   31.1640 O   0  0  0  0  0  0  0  0  0  0  0  0
   -7.3730  -13.2770   31.9850 C   0  0  0  0  0  0  0  0  0  0  0  0
   -9.0080  -12.5040   29.3910 N   0  0  0  0  0  0  0  0  0  0  0  0
   -9.6700  -11.5830   28.4710 C   0  0  0  0  0  0  0  0  0  0  0  0
   -3.5665  -18.2065   29.8719 H   0  0  0  0  0  0  0  0  0  0  0  0
   -5.2626  -18.5323   30.1367 H   0  0  0  0  0  0  0  0  0  0  0  0
   -4.2432  -18.0651   31.4767 H   0  0  0  0  0  0  0  0  0  0  0  0
   -3.1622  -16.2566   28.9692 H   0  0  0  0  0  0  0  0  0  0  0  0
   -4.3144  -13.8230   29.8684 H   0  0  0  0  0  0  0  0  0  0  0  0
   -2.7514  -14.3795   27.3634 H   0  0  0  0  0  0  0  0  0  0  0  0
   -3.4263  -11.7293   28.6018 H   0  0  0  0  0  0  0  0  0  0  0  0
   -4.0721  -12.3516   27.1022 H   0  0  0  0  0  0  0  0  0  0  0  0
   -2.3699  -11.9791   27.2326 H   0  0  0  0  0  0  0  0  0  0  0  0
   -1.9444  -13.2066   30.0216 H   0  0  0  0  0  0  0  0  0  0  0  0
   -0.8902  -13.4056   28.6424 H   0  0  0  0  0  0  0  0  0  0  0  0
   -1.5363  -14.8094   29.4580 H   0  0  0  0  0  0  0  0  0  0  0  0
   -4.9080  -15.7745   26.9484 H   0  0  0  0  0  0  0  0  0  0  0  0
   -7.0242  -14.2402   25.9608 H   0  0  0  0  0  0  0  0  0  0  0  0
   -6.2754  -17.0863   25.5747 H   0  0  0  0  0  0  0  0  0  0  0  0
   -7.7572  -16.3779   24.8652 H   0  0  0  0  0  0  0  0  0  0  0  0
   -5.0290  -15.3272   24.3617 H   0  0  0  0  0  0  0  0  0  0  0  0
   -6.5974  -17.1982   22.6240 H   0  0  0  0  0  0  0  0  0  0  0  0
   -5.1393  -17.5946   23.5015 H   0  0  0  0  0  0  0  0  0  0  0  0
   -5.0865  -16.4300   22.1999 H   0  0  0  0  0  0  0  0  0  0  0  0
   -7.6300  -14.8505   22.9428 H   0  0  0  0  0  0  0  0  0  0  0  0
   -6.0856  -14.1584   22.5080 H   0  0  0  0  0  0  0  0  0  0  0  0
   -6.8366  -13.7336   24.0274 H   0  0  0  0  0  0  0  0  0  0  0  0
   -7.1097  -16.9722   28.2126 H   0  0  0  0  0  0  0  0  0  0  0  0
   -9.9155  -17.0267   28.4803 H   0  0  0  0  0  0  0  0  0  0  0  0
   -7.7785  -17.9900   30.3505 H   0  0  0  0  0  0  0  0  0  0  0  0
   -8.6979  -18.9191   29.1250 H   0  0  0  0  0  0  0  0  0  0  0  0
   -9.8521  -17.7668   31.6164 H   0  0  0  0  0  0  0  0  0  0  0  0
   -9.3847  -19.4641   31.3512 H   0  0  0  0  0  0  0  0  0  0  0  0
   -7.5050  -15.2373   30.3589 H   0  0  0  0  0  0  0  0  0  0  0  0
   -9.3112  -14.1323   32.2294 H   0  0  0  0  0  0  0  0  0  0  0  0
   -6.7406  -12.9609   31.1819 H   0  0  0  0  0  0  0  0  0  0  0  0
   -6.8820  -14.0458   32.5442 H   0  0  0  0  0  0  0  0  0  0  0  0
   -7.5780  -12.4452   32.6261 H   0  0  0  0  0  0  0  0  0  0  0  0
   -8.2079  -12.9846   29.0778 H   0  0  0  0  0  0  0  0  0  0  0  0
  -10.5164  -11.1423   28.9550 H   0  0  0  0  0  0  0  0  0  0  0  0
   -9.9941  -12.1177   27.6027 H   0  0  0  0  0  0  0  0  0  0  0  0
   -8.9845  -10.8142   28.1812 H   0  0  0  0  0  0  0  0  0  0  0  0
  1 35  1  0  0  0  0
  1 36  1  0  0  0  0
  1 37  1  0  0  0  0
  2  1  1  0  0  0  0
  2  3  2  0  0  0  0
  4  2  1  0  0  0  0
  4 38  1  0  0  0  0
  5  4  1  0  0  0  0
  5 39  1  1  0  0  0
  6  7  2  0  0  0  0
  6  5  1  0  0  0  0
  8  5  1  0  0  0  0
  8 10  1  0  0  0  0
  8 40  1  0  0  0  0
  9  8  1  0  0  0  0
  9 41  1  0  0  0  0
  9 42  1  0  0  0  0
  9 43  1  0  0  0  0
 10 44  1  0  0  0  0
 10 45  1  0  0  0  0
 10 46  1  0  0  0  0
 11  6  1  0  0  0  0
 11 47  1  0  0  0  0
 12 11  1  0  0  0  0
 12 13  1  0  0  0  0
 12 48  1  6  0  0  0
 13 19  1  0  0  0  0
 14 13  2  0  0  0  0
 15 12  1  0  0  0  0
 15 49  1  0  0  0  0
 15 50  1  0  0  0  0
 16 15  1  0  0  0  0
 16 51  1  0  0  0  0
 17 16  1  0  0  0  0
 17 52  1  0  0  0  0
 17 53  1  0  0  0  0
 17 54  1  0  0  0  0
 18 16  1  0  0  0  0
 18 55  1  0  0  0  0
 18 56  1  0  0  0  0
 18 57  1  0  0  0  0
 19 20  1  0  0  0  0
 19 58  1  0  0  0  0
 20 23  1  0  0  0  0
 20 21  1  0  0  0  0
 20 59  1  6  0  0  0
 21 22  2  0  0  0  0
 21 28  1  0  0  0  0
 23 24  1  0  0  0  0
 23 60  1  0  0  0  0
 23 61  1  0  0  0  0
 24 62  1  0  0  0  0
 24 63  1  0  0  0  0
 25 24  1  0  0  0  0
 25 27  1  0  0  0  0
 26 25  2  0  0  0  0
 28 29  1  0  0  0  0
 28 64  1  0  0  0  0
 29 32  1  0  0  0  0
 29 65  1  1  0  0  0
 30 31  2  0  0  0  0
 30 29  1  0  0  0  0
 32 66  1  0  0  0  0
 32 67  1  0  0  0  0
 32 68  1  0  0  0  0
 33 30  1  0  0  0  0
 33 69  1  0  0  0  0
 34 33  1  0  0  0  0
 34 70  1  0  0  0  0
 34 71  1  0  0  0  0
 34 72  1  0  0  0  0
M  CHG  1  27  -1
M  END
>  <MODEL>
       0

$$$$
selected_4mers/VLEA/861_noH.pdb
 OpenBabel03042518353D

 72 71  0  0  1  0  0  0  0  0999 V2000
   12.7980   56.7400   36.1340 C   0  0  0  0  0  0  0  0  0  0  0  0
   13.6660   56.2650   37.2940 C   0  0  0  0  0  0  0  0  0  0  0  0
   14.8930   56.1830   37.1890 O   0  0  0  0  0  0  0  0  0  0  0  0
   13.0070   55.9370   38.3980 N   0  0  0  0  0  0  0  0  0  0  0  0
   13.6690   55.4350   39.5950 C   0  0  2  0  0  0  0  0  0  0  0  0
   12.7690   54.3420   40.1640 C   0  0  0  0  0  0  0  0  0  0  0  0
   11.5710   54.3160   39.8810 O   0  0  0  0  0  0  0  0  0  0  0  0
   13.8640   56.5500   40.6520 C   0  0  0  0  0  0  0  0  0  0  0  0
   14.8610   57.5790   40.1360 C   0  0  0  0  0  0  0  0  0  0  0  0
   12.5320   57.2130   40.9670 C   0  0  0  0  0  0  0  0  0  0  0  0
   13.3360   53.4400   40.9560 N   0  0  0  0  0  0  0  0  0  0  0  0
   12.5410   52.3510   41.5150 C   0  0  2  0  0  0  0  0  0  0  0  0
   11.3720   52.8290   42.3720 C   0  0  0  0  0  0  0  0  0  0  0  0
   10.3550   52.1460   42.4770 O   0  0  0  0  0  0  0  0  0  0  0  0
   13.4370   51.3980   42.3140 C   0  0  0  0  0  0  0  0  0  0  0  0
   14.3250   50.4760   41.4680 C   0  0  0  0  0  0  0  0  0  0  0  0
   15.3520   49.7790   42.3440 C   0  0  0  0  0  0  0  0  0  0  0  0
   13.4480   49.4570   40.7450 C   0  0  0  0  0  0  0  0  0  0  0  0
   11.5060   54.0100   42.9660 N   0  0  0  0  0  0  0  0  0  0  0  0
   10.4460   54.5570   43.8090 C   0  0  2  0  0  0  0  0  0  0  0  0
    9.1560   54.8730   43.0530 C   0  0  0  0  0  0  0  0  0  0  0  0
    8.1010   55.0590   43.6630 O   0  0  0  0  0  0  0  0  0  0  0  0
   10.9440   55.8150   44.5320 C   0  0  0  0  0  0  0  0  0  0  0  0
   11.9260   55.5280   45.6630 C   0  0  0  0  0  0  0  0  0  0  0  0
   13.2930   55.0750   45.1750 C   0  0  0  0  0  0  0  0  0  0  0  0
   14.0570   54.5190   45.9930 O   0  0  0  0  0  0  0  0  0  0  0  0
   13.6120   55.2830   43.9850 O   0  0  0  0  0  0  0  0  0  0  0  0
    9.2320   54.9270   41.7280 N   0  0  0  0  0  0  0  0  0  0  0  0
    8.0580   55.2210   40.9130 C   0  0  2  0  0  0  0  0  0  0  0  0
    7.2600   53.9550   40.6150 C   0  0  0  0  0  0  0  0  0  0  0  0
    6.1780   54.0150   40.0300 O   0  0  0  0  0  0  0  0  0  0  0  0
    8.4870   55.8700   39.6050 C   0  0  0  0  0  0  0  0  0  0  0  0
    7.7960   52.8140   41.0320 N   0  0  0  0  0  0  0  0  0  0  0  0
    7.1660   51.5280   40.7630 C   0  0  0  0  0  0  0  0  0  0  0  0
   13.4205   56.9784   35.2970 H   0  0  0  0  0  0  0  0  0  0  0  0
   12.2509   57.6103   36.4309 H   0  0  0  0  0  0  0  0  0  0  0  0
   12.1134   55.9647   35.8600 H   0  0  0  0  0  0  0  0  0  0  0  0
   12.0277   56.0372   38.4088 H   0  0  0  0  0  0  0  0  0  0  0  0
   14.6423   55.0659   39.3471 H   0  0  0  0  0  0  0  0  0  0  0  0
   14.2477   56.1170   41.5521 H   0  0  0  0  0  0  0  0  0  0  0  0
   14.4862   58.0182   39.2352 H   0  0  0  0  0  0  0  0  0  0  0  0
   15.7969   57.1002   39.9368 H   0  0  0  0  0  0  0  0  0  0  0  0
   15.0004   58.3416   40.8735 H   0  0  0  0  0  0  0  0  0  0  0  0
   12.1328   57.6522   40.0767 H   0  0  0  0  0  0  0  0  0  0  0  0
   12.6779   57.9735   41.7054 H   0  0  0  0  0  0  0  0  0  0  0  0
   11.8481   56.4797   41.3405 H   0  0  0  0  0  0  0  0  0  0  0  0
   14.2954   53.5058   41.1669 H   0  0  0  0  0  0  0  0  0  0  0  0
   12.1099   51.8318   40.6846 H   0  0  0  0  0  0  0  0  0  0  0  0
   14.0734   51.9881   42.9399 H   0  0  0  0  0  0  0  0  0  0  0  0
   12.7772   50.7568   42.8604 H   0  0  0  0  0  0  0  0  0  0  0  0
   14.8539   51.0584   40.7428 H   0  0  0  0  0  0  0  0  0  0  0  0
   14.8497   49.1875   43.0808 H   0  0  0  0  0  0  0  0  0  0  0  0
   15.9622   50.5114   42.8300 H   0  0  0  0  0  0  0  0  0  0  0  0
   15.9674   49.1471   41.7383 H   0  0  0  0  0  0  0  0  0  0  0  0
   12.9156   48.8705   41.4644 H   0  0  0  0  0  0  0  0  0  0  0  0
   14.0633   48.8168   40.1479 H   0  0  0  0  0  0  0  0  0  0  0  0
   12.7504   49.9694   40.1159 H   0  0  0  0  0  0  0  0  0  0  0  0
   12.3345   54.5255   42.8356 H   0  0  0  0  0  0  0  0  0  0  0  0
   10.2036   53.7903   44.5149 H   0  0  0  0  0  0  0  0  0  0  0  0
   10.0977   56.3257   44.9417 H   0  0  0  0  0  0  0  0  0  0  0  0
   11.4670   56.4038   43.8076 H   0  0  0  0  0  0  0  0  0  0  0  0
   11.5147   54.7584   46.2822 H   0  0  0  0  0  0  0  0  0  0  0  0
   12.0688   56.4439   46.1975 H   0  0  0  0  0  0  0  0  0  0  0  0
   10.0974   54.7655   41.2872 H   0  0  0  0  0  0  0  0  0  0  0  0
    7.4326   55.8922   41.4637 H   0  0  0  0  0  0  0  0  0  0  0  0
    9.1118   55.1940   39.0595 H   0  0  0  0  0  0  0  0  0  0  0  0
    9.0300   56.7680   39.8137 H   0  0  0  0  0  0  0  0  0  0  0  0
    7.6208   56.1043   39.0222 H   0  0  0  0  0  0  0  0  0  0  0  0
    8.6413   52.8375   41.5362 H   0  0  0  0  0  0  0  0  0  0  0  0
    6.2633   51.6819   40.2095 H   0  0  0  0  0  0  0  0  0  0  0  0
    6.9384   51.0418   41.6886 H   0  0  0  0  0  0  0  0  0  0  0  0
    7.8337   50.9159   40.1934 H   0  0  0  0  0  0  0  0  0  0  0  0
  1  2  1  0  0  0  0
  1 35  1  0  0  0  0
  1 36  1  0  0  0  0
  1 37  1  0  0  0  0
  2  4  1  0  0  0  0
  3  2  2  0  0  0  0
  4  5  1  0  0  0  0
  4 38  1  0  0  0  0
  5  6  1  0  0  0  0
  5  8  1  0  0  0  0
  5 39  1  6  0  0  0
  6 11  1  0  0  0  0
  7  6  2  0  0  0  0
  8 10  1  0  0  0  0
  8 40  1  0  0  0  0
  9  8  1  0  0  0  0
  9 41  1  0  0  0  0
  9 42  1  0  0  0  0
  9 43  1  0  0  0  0
 10 44  1  0  0  0  0
 10 45  1  0  0  0  0
 10 46  1  0  0  0  0
 11 12  1  0  0  0  0
 11 47  1  0  0  0  0
 12 15  1  0  0  0  0
 12 13  1  0  0  0  0
 12 48  1  6  0  0  0
 13 14  2  0  0  0  0
 13 19  1  0  0  0  0
 15 49  1  0  0  0  0
 15 50  1  0  0  0  0
 16 15  1  0  0  0  0
 16 17  1  0  0  0  0
 16 51  1  0  0  0  0
 17 52  1  0  0  0  0
 17 53  1  0  0  0  0
 17 54  1  0  0  0  0
 18 16  1  0  0  0  0
 18 55  1  0  0  0  0
 18 56  1  0  0  0  0
 18 57  1  0  0  0  0
 19 20  1  0  0  0  0
 19 58  1  0  0  0  0
 20 23  1  0  0  0  0
 20 59  1  1  0  0  0
 21 22  2  0  0  0  0
 21 20  1  0  0  0  0
 23 24  1  0  0  0  0
 23 60  1  0  0  0  0
 23 61  1  0  0  0  0
 24 62  1  0  0  0  0
 24 63  1  0  0  0  0
 25 24  1  0  0  0  0
 25 26  1  0  0  0  0
 27 25  2  0  0  0  0
 28 21  1  0  0  0  0
 28 64  1  0  0  0  0
 29 28  1  0  0  0  0
 29 65  1  1  0  0  0
 30 29  1  0  0  0  0
 30 33  1  0  0  0  0
 31 30  2  0  0  0  0
 32 29  1  0  0  0  0
 32 66  1  0  0  0  0
 32 67  1  0  0  0  0
 32 68  1  0  0  0  0
 33 69  1  0  0  0  0
 34 33  1  0  0  0  0
 34 70  1  0  0  0  0
 34 71  1  0  0  0  0
 34 72  1  0  0  0  0
M  CHG  1  26  -1
M  END
>  <MODEL>
       0

$$$$
selected_4mers/VLEA/862_noH.pdb
 OpenBabel03042518353D

 72 71  0  0  1  0  0  0  0  0999 V2000
  -25.0120   -7.4280   87.0190 C   0  0  0  0  0  0  0  0  0  0  0  0
  -24.7160   -8.3480   85.8480 C   0  0  0  0  0  0  0  0  0  0  0  0
  -25.4360   -8.3740   84.8530 O   0  0  0  0  0  0  0  0  0  0  0  0
  -23.6330   -9.0990   85.9780 N   0  0  0  0  0  0  0  0  0  0  0  0
  -23.2530  -10.0630   84.9660 C   0  0  2  0  0  0  0  0  0  0  0  0
  -23.0350  -11.3770   85.6920 C   0  0  0  0  0  0  0  0  0  0  0  0
  -22.2460  -11.4540   86.6350 O   0  0  0  0  0  0  0  0  0  0  0  0
  -21.9470   -9.6830   84.2350 C   0  0  0  0  0  0  0  0  0  0  0  0
  -21.4600  -10.8680   83.4010 C   0  0  0  0  0  0  0  0  0  0  0  0
  -22.1890   -8.4880   83.3190 C   0  0  0  0  0  0  0  0  0  0  0  0
  -23.7670  -12.3970   85.2720 N   0  0  0  0  0  0  0  0  0  0  0  0
  -23.6200  -13.7070   85.8660 C   0  0  2  0  0  0  0  0  0  0  0  0
  -22.7000  -14.4620   84.9310 C   0  0  0  0  0  0  0  0  0  0  0  0
  -22.9370  -14.5340   83.7210 O   0  0  0  0  0  0  0  0  0  0  0  0
  -24.9740  -14.4150   85.9790 C   0  0  0  0  0  0  0  0  0  0  0  0
  -24.9580  -15.8070   86.6260 C   0  0  0  0  0  0  0  0  0  0  0  0
  -26.3420  -16.1590   87.1410 C   0  0  0  0  0  0  0  0  0  0  0  0
  -24.4840  -16.8370   85.6190 C   0  0  0  0  0  0  0  0  0  0  0  0
  -21.6340  -15.0080   85.4930 N   0  0  0  0  0  0  0  0  0  0  0  0
  -20.6780  -15.7600   84.7090 C   0  0  2  0  0  0  0  0  0  0  0  0
  -20.6600  -17.1900   85.2230 C   0  0  0  0  0  0  0  0  0  0  0  0
  -20.4980  -17.4300   86.4230 O   0  0  0  0  0  0  0  0  0  0  0  0
  -19.3000  -15.1200   84.8320 C   0  0  0  0  0  0  0  0  0  0  0  0
  -18.2110  -15.8510   84.0930 C   0  0  0  0  0  0  0  0  0  0  0  0
  -16.8870  -15.1220   84.1660 C   0  0  0  0  0  0  0  0  0  0  0  0
  -16.8020  -13.9920   83.6330 O   0  0  0  0  0  0  0  0  0  0  0  0
  -15.9380  -15.6780   84.7590 O   0  0  0  0  0  0  0  0  0  0  0  0
  -20.8450  -18.1410   84.3160 N   0  0  0  0  0  0  0  0  0  0  0  0
  -20.8620  -19.5420   84.6990 C   0  0  2  0  0  0  0  0  0  0  0  0
  -19.8450  -20.3500   83.9090 C   0  0  0  0  0  0  0  0  0  0  0  0
  -19.9630  -20.4870   82.6900 O   0  0  0  0  0  0  0  0  0  0  0  0
  -22.2550  -20.1150   84.4900 C   0  0  0  0  0  0  0  0  0  0  0  0
  -18.8360  -20.8660   84.6020 N   0  0  0  0  0  0  0  0  0  0  0  0
  -17.8260  -21.6910   83.9550 C   0  0  0  0  0  0  0  0  0  0  0  0
  -25.9011   -6.8680   86.8168 H   0  0  0  0  0  0  0  0  0  0  0  0
  -24.1916   -6.7558   87.1607 H   0  0  0  0  0  0  0  0  0  0  0  0
  -25.1519   -8.0118   87.9047 H   0  0  0  0  0  0  0  0  0  0  0  0
  -23.0729   -8.9997   86.7815 H   0  0  0  0  0  0  0  0  0  0  0  0
  -24.0210  -10.1110   84.2225 H   0  0  0  0  0  0  0  0  0  0  0  0
  -21.2055   -9.4261   84.9624 H   0  0  0  0  0  0  0  0  0  0  0  0
  -22.2034  -11.1225   82.6747 H   0  0  0  0  0  0  0  0  0  0  0  0
  -21.2852  -11.7071   84.0415 H   0  0  0  0  0  0  0  0  0  0  0  0
  -20.5506  -10.6039   82.9030 H   0  0  0  0  0  0  0  0  0  0  0  0
  -22.9302   -8.7416   82.5902 H   0  0  0  0  0  0  0  0  0  0  0  0
  -21.2768   -8.2274   82.8242 H   0  0  0  0  0  0  0  0  0  0  0  0
  -22.5298   -7.6566   83.8999 H   0  0  0  0  0  0  0  0  0  0  0  0
  -24.4190  -12.2620   84.5468 H   0  0  0  0  0  0  0  0  0  0  0  0
  -23.2271  -13.6498   86.8596 H   0  0  0  0  0  0  0  0  0  0  0  0
  -25.3719  -14.5185   84.9911 H   0  0  0  0  0  0  0  0  0  0  0  0
  -25.5640  -13.8034   86.6291 H   0  0  0  0  0  0  0  0  0  0  0  0
  -24.2812  -15.8022   87.4547 H   0  0  0  0  0  0  0  0  0  0  0  0
  -27.0343  -16.1688   86.3252 H   0  0  0  0  0  0  0  0  0  0  0  0
  -26.6503  -15.4306   87.8617 H   0  0  0  0  0  0  0  0  0  0  0  0
  -26.3169  -17.1256   87.5991 H   0  0  0  0  0  0  0  0  0  0  0  0
  -25.1523  -16.8529   84.7836 H   0  0  0  0  0  0  0  0  0  0  0  0
  -24.4649  -17.8029   86.0789 H   0  0  0  0  0  0  0  0  0  0  0  0
  -23.5003  -16.5819   85.2840 H   0  0  0  0  0  0  0  0  0  0  0  0
  -21.4887  -14.9009   86.4608 H   0  0  0  0  0  0  0  0  0  0  0  0
  -20.9527  -15.7584   83.6749 H   0  0  0  0  0  0  0  0  0  0  0  0
  -19.3572  -14.1238   84.4457 H   0  0  0  0  0  0  0  0  0  0  0  0
  -19.0397  -15.1485   85.8695 H   0  0  0  0  0  0  0  0  0  0  0  0
  -18.0940  -16.8234   84.5240 H   0  0  0  0  0  0  0  0  0  0  0  0
  -18.4962  -15.9150   83.0637 H   0  0  0  0  0  0  0  0  0  0  0  0
  -20.9723  -17.8938   83.3716 H   0  0  0  0  0  0  0  0  0  0  0  0
  -20.5975  -19.6052   85.7339 H   0  0  0  0  0  0  0  0  0  0  0  0
  -22.5157  -20.0500   83.4543 H   0  0  0  0  0  0  0  0  0  0  0  0
  -22.9604  -19.5585   85.0710 H   0  0  0  0  0  0  0  0  0  0  0  0
  -22.2690  -21.1397   84.7976 H   0  0  0  0  0  0  0  0  0  0  0  0
  -18.7702  -20.6878   85.5680 H   0  0  0  0  0  0  0  0  0  0  0  0
  -18.0519  -21.7796   82.9129 H   0  0  0  0  0  0  0  0  0  0  0  0
  -17.8193  -22.6630   84.4024 H   0  0  0  0  0  0  0  0  0  0  0  0
  -16.8645  -21.2368   84.0742 H   0  0  0  0  0  0  0  0  0  0  0  0
  1 35  1  0  0  0  0
  1 36  1  0  0  0  0
  1 37  1  0  0  0  0
  2  4  1  0  0  0  0
  2  1  1  0  0  0  0
  3  2  2  0  0  0  0
  4 38  1  0  0  0  0
  5  6  1  0  0  0  0
  5  4  1  0  0  0  0
  5 39  1  6  0  0  0
  6  7  2  0  0  0  0
  8  5  1  0  0  0  0
  8 40  1  0  0  0  0
  9  8  1  0  0  0  0
  9 41  1  0  0  0  0
  9 42  1  0  0  0  0
  9 43  1  0  0  0  0
 10  8  1  0  0  0  0
 10 44  1  0  0  0  0
 10 45  1  0  0  0  0
 10 46  1  0  0  0  0
 11  6  1  0  0  0  0
 11 12  1  0  0  0  0
 11 47  1  0  0  0  0
 12 15  1  0  0  0  0
 12 48  1  1  0  0  0
 13 19  1  0  0  0  0
 13 12  1  0  0  0  0
 14 13  2  0  0  0  0
 15 16  1  0  0  0  0
 15 49  1  0  0  0  0
 15 50  1  0  0  0  0
 16 17  1  0  0  0  0
 16 51  1  0  0  0  0
 17 52  1  0  0  0  0
 17 53  1  0  0  0  0
 17 54  1  0  0  0  0
 18 16  1  0  0  0  0
 18 55  1  0  0  0  0
 18 56  1  0  0  0  0
 18 57  1  0  0  0  0
 19 58  1  0  0  0  0
 20 23  1  0  0  0  0
 20 21  1  0  0  0  0
 20 19  1  0  0  0  0
 20 59  1  6  0  0  0
 21 22  2  0  0  0  0
 23 60  1  0  0  0  0
 23 61  1  0  0  0  0
 24 25  1  0  0  0  0
 24 23  1  0  0  0  0
 24 62  1  0  0  0  0
 24 63  1  0  0  0  0
 25 27  1  0  0  0  0
 26 25  2  0  0  0  0
 28 29  1  0  0  0  0
 28 21  1  0  0  0  0
 28 64  1  0  0  0  0
 29 65  1  1  0  0  0
 30 33  1  0  0  0  0
 30 29  1  0  0  0  0
 31 30  2  0  0  0  0
 32 29  1  0  0  0  0
 32 66  1  0  0  0  0
 32 67  1  0  0  0  0
 32 68  1  0  0  0  0
 33 69  1  0  0  0  0
 34 33  1  0  0  0  0
 34 70  1  0  0  0  0
 34 71  1  0  0  0  0
 34 72  1  0  0  0  0
M  CHG  1  27  -1
M  END
>  <MODEL>
       0

$$$$
selected_4mers/VLEA/863_noH.pdb
 OpenBabel03042518353D

 72 71  0  0  1  0  0  0  0  0999 V2000
    8.8170   75.1950   24.5740 C   0  0  0  0  0  0  0  0  0  0  0  0
    8.4250   76.6490   24.5310 C   0  0  0  0  0  0  0  0  0  0  0  0
    8.8320   77.4390   25.3900 O   0  0  0  0  0  0  0  0  0  0  0  0
    7.7150   77.0430   23.4820 N   0  0  0  0  0  0  0  0  0  0  0  0
    7.3150   78.4280   23.2710 C   0  0  2  0  0  0  0  0  0  0  0  0
    6.0120   78.6920   24.0240 C   0  0  0  0  0  0  0  0  0  0  0  0
    4.9720   78.0840   23.7550 O   0  0  0  0  0  0  0  0  0  0  0  0
    7.2060   78.8150   21.8090 C   0  0  0  0  0  0  0  0  0  0  0  0
    6.8570   80.2750   21.6900 C   0  0  0  0  0  0  0  0  0  0  0  0
    8.5000   78.4990   21.1090 C   0  0  0  0  0  0  0  0  0  0  0  0
    6.0740   79.6110   24.9960 N   0  0  0  0  0  0  0  0  0  0  0  0
    4.9460   79.9880   25.8330 C   0  0  2  0  0  0  0  0  0  0  0  0
    4.1830   81.1720   25.3330 C   0  0  0  0  0  0  0  0  0  0  0  0
    3.0180   81.3310   25.6620 O   0  0  0  0  0  0  0  0  0  0  0  0
    5.4390   80.2120   27.2730 C   0  0  0  0  0  0  0  0  0  0  0  0
    6.1420   78.9980   27.9080 C   0  0  0  0  0  0  0  0  0  0  0  0
    6.6130   79.3240   29.3320 C   0  0  0  0  0  0  0  0  0  0  0  0
    5.2120   77.7900   27.9330 C   0  0  0  0  0  0  0  0  0  0  0  0
    4.8530   82.0370   24.5780 N   0  0  0  0  0  0  0  0  0  0  0  0
    4.2140   83.1830   24.0000 C   0  0  2  0  0  0  0  0  0  0  0  0
    5.1200   83.7370   22.9010 C   0  0  0  0  0  0  0  0  0  0  0  0
    6.3270   83.6530   23.0180 O   0  0  0  0  0  0  0  0  0  0  0  0
    3.9080   84.2960   25.0620 C   0  0  0  0  0  0  0  0  0  0  0  0
    3.0560   85.4380   24.5100 C   0  0  0  0  0  0  0  0  0  0  0  0
    1.7300   84.9820   23.8640 C   0  0  0  0  0  0  0  0  0  0  0  0
    1.7300   84.6090   22.6520 O   0  0  0  0  0  0  0  0  0  0  0  0
    0.7140   84.9240   24.6020 O   0  0  0  0  0  0  0  0  0  0  0  0
    4.5360   84.3100   21.8340 N   0  0  0  0  0  0  0  0  0  0  0  0
    5.3250   85.0050   20.8480 C   0  0  2  0  0  0  0  0  0  0  0  0
    4.4400   86.0020   20.1370 C   0  0  0  0  0  0  0  0  0  0  0  0
    3.3310   85.6490   19.7380 O   0  0  0  0  0  0  0  0  0  0  0  0
    5.9260   84.0290   19.8490 C   0  0  0  0  0  0  0  0  0  0  0  0
    4.9110   87.1960   19.9520 N   0  0  0  0  0  0  0  0  0  0  0  0
    4.2120   88.1840   19.1570 C   0  0  0  0  0  0  0  0  0  0  0  0
    8.3670   74.6798   23.7512 H   0  0  0  0  0  0  0  0  0  0  0  0
    8.4807   74.7620   25.4929 H   0  0  0  0  0  0  0  0  0  0  0  0
    9.8816   75.1105   24.5085 H   0  0  0  0  0  0  0  0  0  0  0  0
    7.4463   76.3694   22.8162 H   0  0  0  0  0  0  0  0  0  0  0  0
    8.0916   79.0522   23.6611 H   0  0  0  0  0  0  0  0  0  0  0  0
    6.4254   78.2526   21.3407 H   0  0  0  0  0  0  0  0  0  0  0  0
    7.6225   80.8634   22.1512 H   0  0  0  0  0  0  0  0  0  0  0  0
    5.9228   80.4593   22.1780 H   0  0  0  0  0  0  0  0  0  0  0  0
    6.7778   80.5397   20.6563 H   0  0  0  0  0  0  0  0  0  0  0  0
    9.2954   79.0523   21.5629 H   0  0  0  0  0  0  0  0  0  0  0  0
    8.4220   78.7685   20.0764 H   0  0  0  0  0  0  0  0  0  0  0  0
    8.7027   77.4515   21.1899 H   0  0  0  0  0  0  0  0  0  0  0  0
    6.9363   80.0591   25.1537 H   0  0  0  0  0  0  0  0  0  0  0  0
    4.2472   79.1783   25.8020 H   0  0  0  0  0  0  0  0  0  0  0  0
    4.5939   80.4628   27.8795 H   0  0  0  0  0  0  0  0  0  0  0  0
    6.1688   80.9930   27.2248 H   0  0  0  0  0  0  0  0  0  0  0  0
    6.9972   78.7633   27.3093 H   0  0  0  0  0  0  0  0  0  0  0  0
    5.7666   79.5609   29.9422 H   0  0  0  0  0  0  0  0  0  0  0  0
    7.2785   80.1614   29.3046 H   0  0  0  0  0  0  0  0  0  0  0  0
    7.1223   78.4769   29.7419 H   0  0  0  0  0  0  0  0  0  0  0  0
    4.3524   78.0139   28.5296 H   0  0  0  0  0  0  0  0  0  0  0  0
    5.7280   76.9512   28.3515 H   0  0  0  0  0  0  0  0  0  0  0  0
    4.9029   77.5571   26.9354 H   0  0  0  0  0  0  0  0  0  0  0  0
    5.8117   81.8870   24.4116 H   0  0  0  0  0  0  0  0  0  0  0  0
    3.2712   82.8780   23.5964 H   0  0  0  0  0  0  0  0  0  0  0  0
    4.8363   84.7007   25.4073 H   0  0  0  0  0  0  0  0  0  0  0  0
    3.3506   83.8369   25.8516 H   0  0  0  0  0  0  0  0  0  0  0  0
    2.8256   86.1044   25.3149 H   0  0  0  0  0  0  0  0  0  0  0  0
    3.6303   85.9049   23.7373 H   0  0  0  0  0  0  0  0  0  0  0  0
    3.5591   84.2543   21.7250 H   0  0  0  0  0  0  0  0  0  0  0  0
    6.1322   85.5128   21.3333 H   0  0  0  0  0  0  0  0  0  0  0  0
    5.1406   83.5044   19.3462 H   0  0  0  0  0  0  0  0  0  0  0  0
    6.5492   83.3288   20.3651 H   0  0  0  0  0  0  0  0  0  0  0  0
    6.5112   84.5669   19.1327 H   0  0  0  0  0  0  0  0  0  0  0  0
    5.7711   87.4384   20.3652 H   0  0  0  0  0  0  0  0  0  0  0  0
    3.3020   87.7626   18.7838 H   0  0  0  0  0  0  0  0  0  0  0  0
    4.8296   88.4831   18.3360 H   0  0  0  0  0  0  0  0  0  0  0  0
    3.9878   89.0364   19.7637 H   0  0  0  0  0  0  0  0  0  0  0  0
  1 35  1  0  0  0  0
  1 36  1  0  0  0  0
  1 37  1  0  0  0  0
  2  1  1  0  0  0  0
  2  3  2  0  0  0  0
  4  2  1  0  0  0  0
  4 38  1  0  0  0  0
  5  4  1  0  0  0  0
  5  6  1  0  0  0  0
  5 39  1  1  0  0  0
  6 11  1  0  0  0  0
  7  6  2  0  0  0  0
  8  5  1  0  0  0  0
  8 40  1  0  0  0  0
  9  8  1  0  0  0  0
  9 41  1  0  0  0  0
  9 42  1  0  0  0  0
  9 43  1  0  0  0  0
 10  8  1  0  0  0  0
 10 44  1  0  0  0  0
 10 45  1  0  0  0  0
 10 46  1  0  0  0  0
 11 12  1  0  0  0  0
 11 47  1  0  0  0  0
 12 15  1  0  0  0  0
 12 48  1  1  0  0  0
 13 14  2  0  0  0  0
 13 12  1  0  0  0  0
 15 16  1  0  0  0  0
 15 49  1  0  0  0  0
 15 50  1  0  0  0  0
 16 18  1  0  0  0  0
 16 17  1  0  0  0  0
 16 51  1  0  0  0  0
 17 52  1  0  0  0  0
 17 53  1  0  0  0  0
 17 54  1  0  0  0  0
 18 55  1  0  0  0  0
 18 56  1  0  0  0  0
 18 57  1  0  0  0  0
 19 13  1  0  0  0  0
 19 58  1  0  0  0  0
 20 19  1  0  0  0  0
 20 23  1  0  0  0  0
 20 59  1  6  0  0  0
 21 22  2  0  0  0  0
 21 20  1  0  0  0  0
 23 60  1  0  0  0  0
 23 61  1  0  0  0  0
 24 23  1  0  0  0  0
 24 62  1  0  0  0  0
 24 63  1  0  0  0  0
 25 24  1  0  0  0  0
 25 27  1  0  0  0  0
 26 25  2  0  0  0  0
 28 21  1  0  0  0  0
 28 64  1  0  0  0  0
 29 28  1  0  0  0  0
 29 65  1  1  0  0  0
 30 29  1  0  0  0  0
 31 30  2  0  0  0  0
 32 29  1  0  0  0  0
 32 66  1  0  0  0  0
 32 67  1  0  0  0  0
 32 68  1  0  0  0  0
 33 30  1  0  0  0  0
 33 69  1  0  0  0  0
 34 33  1  0  0  0  0
 34 70  1  0  0  0  0
 34 71  1  0  0  0  0
 34 72  1  0  0  0  0
M  CHG  1  27  -1
M  END
>  <MODEL>
       0

$$$$
selected_4mers/VLEA/864_noH.pdb
 OpenBabel03042518353D

 72 71  0  0  1  0  0  0  0  0999 V2000
   16.3380   22.7970   39.2970 C   0  0  0  0  0  0  0  0  0  0  0  0
   15.0800   22.1710   38.7260 C   0  0  0  0  0  0  0  0  0  0  0  0
   14.9500   22.0310   37.5150 O   0  0  0  0  0  0  0  0  0  0  0  0
   14.1530   21.8280   39.6160 N   0  0  0  0  0  0  0  0  0  0  0  0
   12.8860   21.2240   39.2140 C   0  0  2  0  0  0  0  0  0  0  0  0
   11.8140   22.3000   39.3170 C   0  0  0  0  0  0  0  0  0  0  0  0
   11.6620   22.9240   40.3770 O   0  0  0  0  0  0  0  0  0  0  0  0
   12.4930   20.0430   40.1340 C   0  0  0  0  0  0  0  0  0  0  0  0
   11.1590   19.4880   39.7140 C   0  0  0  0  0  0  0  0  0  0  0  0
   13.5650   18.9350   40.1100 C   0  0  0  0  0  0  0  0  0  0  0  0
   11.0960   22.5330   38.2160 N   0  0  0  0  0  0  0  0  0  0  0  0
    9.9730   23.4750   38.1760 C   0  0  2  0  0  0  0  0  0  0  0  0
    8.6820   22.7660   37.8210 C   0  0  0  0  0  0  0  0  0  0  0  0
    8.6720   21.9240   36.9300 O   0  0  0  0  0  0  0  0  0  0  0  0
   10.2290   24.5420   37.1260 C   0  0  0  0  0  0  0  0  0  0  0  0
   11.3940   25.5130   37.4220 C   0  0  0  0  0  0  0  0  0  0  0  0
   11.5130   26.5840   36.3310 C   0  0  0  0  0  0  0  0  0  0  0  0
   11.2720   26.1330   38.8460 C   0  0  0  0  0  0  0  0  0  0  0  0
    7.5990   23.1470   38.4940 N   0  0  0  0  0  0  0  0  0  0  0  0
    6.2610   22.6560   38.1790 C   0  0  2  0  0  0  0  0  0  0  0  0
    5.6710   23.5720   37.0990 C   0  0  0  0  0  0  0  0  0  0  0  0
    5.5110   24.7770   37.3220 O   0  0  0  0  0  0  0  0  0  0  0  0
    5.3860   22.6760   39.4530 C   0  0  0  0  0  0  0  0  0  0  0  0
    5.8410   21.6930   40.5210 C   0  0  0  0  0  0  0  0  0  0  0  0
    5.2170   21.9340   41.8970 C   0  0  0  0  0  0  0  0  0  0  0  0
    3.9950   22.1670   41.9730 O   0  0  0  0  0  0  0  0  0  0  0  0
    5.9510   21.8730   42.9050 O   0  0  0  0  0  0  0  0  0  0  0  0
    5.3870   23.0150   35.9230 N   0  0  0  0  0  0  0  0  0  0  0  0
    4.8420   23.8020   34.7920 C   0  0  2  0  0  0  0  0  0  0  0  0
    4.1920   22.8700   33.8200 C   0  0  0  0  0  0  0  0  0  0  0  0
    4.7190   21.7780   33.5170 O   0  0  0  0  0  0  0  0  0  0  0  0
    5.9370   24.6010   34.0540 C   0  0  0  0  0  0  0  0  0  0  0  0
    3.0470   23.2970   33.3120 N   0  0  0  0  0  0  0  0  0  0  0  0
    2.4160   22.5760   32.2360 C   0  0  0  0  0  0  0  0  0  0  0  0
   17.0122   23.0330   38.5003 H   0  0  0  0  0  0  0  0  0  0  0  0
   16.8063   22.1078   39.9682 H   0  0  0  0  0  0  0  0  0  0  0  0
   16.0829   23.6919   39.8253 H   0  0  0  0  0  0  0  0  0  0  0  0
   14.3260   21.9858   40.5723 H   0  0  0  0  0  0  0  0  0  0  0  0
   12.9819   20.8443   38.2182 H   0  0  0  0  0  0  0  0  0  0  0  0
   12.4224   20.4090   41.1370 H   0  0  0  0  0  0  0  0  0  0  0  0
   11.2252   19.1208   38.7112 H   0  0  0  0  0  0  0  0  0  0  0  0
   10.4200   20.2603   39.7630 H   0  0  0  0  0  0  0  0  0  0  0  0
   10.8831   18.6883   40.3692 H   0  0  0  0  0  0  0  0  0  0  0  0
   13.6573   18.5495   39.1161 H   0  0  0  0  0  0  0  0  0  0  0  0
   13.2775   18.1462   40.7733 H   0  0  0  0  0  0  0  0  0  0  0  0
   14.5041   19.3405   40.4239 H   0  0  0  0  0  0  0  0  0  0  0  0
   11.3317   22.0493   37.3916 H   0  0  0  0  0  0  0  0  0  0  0  0
    9.8840   23.9158   39.1469 H   0  0  0  0  0  0  0  0  0  0  0  0
   10.4409   24.0477   36.2010 H   0  0  0  0  0  0  0  0  0  0  0  0
    9.3461   25.1461   37.1053 H   0  0  0  0  0  0  0  0  0  0  0  0
   12.3033   24.9491   37.4087 H   0  0  0  0  0  0  0  0  0  0  0  0
   10.6200   27.1730   36.3105 H   0  0  0  0  0  0  0  0  0  0  0  0
   11.6505   26.1115   35.3809 H   0  0  0  0  0  0  0  0  0  0  0  0
   12.3516   27.2147   36.5403 H   0  0  0  0  0  0  0  0  0  0  0  0
   10.3727   26.7095   38.9082 H   0  0  0  0  0  0  0  0  0  0  0  0
   12.1146   26.7653   39.0331 H   0  0  0  0  0  0  0  0  0  0  0  0
   11.2449   25.3500   39.5748 H   0  0  0  0  0  0  0  0  0  0  0  0
    7.7046   23.7865   39.2350 H   0  0  0  0  0  0  0  0  0  0  0  0
    6.2972   21.6483   37.8212 H   0  0  0  0  0  0  0  0  0  0  0  0
    4.3810   22.4339   39.1768 H   0  0  0  0  0  0  0  0  0  0  0  0
    5.4679   23.6563   39.8740 H   0  0  0  0  0  0  0  0  0  0  0  0
    6.9041   21.7682   40.6161 H   0  0  0  0  0  0  0  0  0  0  0  0
    5.5226   20.7222   40.2031 H   0  0  0  0  0  0  0  0  0  0  0  0
    5.5440   22.0507   35.8014 H   0  0  0  0  0  0  0  0  0  0  0  0
    4.1371   24.5004   35.1923 H   0  0  0  0  0  0  0  0  0  0  0  0
    6.6567   23.9241   33.6431 H   0  0  0  0  0  0  0  0  0  0  0  0
    6.4213   25.2619   34.7422 H   0  0  0  0  0  0  0  0  0  0  0  0
    5.4922   25.1709   33.2651 H   0  0  0  0  0  0  0  0  0  0  0  0
    2.6246   24.1107   33.6708 H   0  0  0  0  0  0  0  0  0  0  0  0
    3.0125   21.7259   31.9782 H   0  0  0  0  0  0  0  0  0  0  0  0
    2.3215   23.2169   31.3844 H   0  0  0  0  0  0  0  0  0  0  0  0
    1.4453   22.2497   32.5463 H   0  0  0  0  0  0  0  0  0  0  0  0
  1 35  1  0  0  0  0
  1 36  1  0  0  0  0
  1 37  1  0  0  0  0
  2  1  1  0  0  0  0
  2  4  1  0  0  0  0
  3  2  2  0  0  0  0
  4 38  1  0  0  0  0
  5  6  1  0  0  0  0
  5  4  1  0  0  0  0
  5  8  1  0  0  0  0
  5 39  1  6  0  0  0
  6  7  2  0  0  0  0
  8 40  1  0  0  0  0
  9  8  1  0  0  0  0
  9 41  1  0  0  0  0
  9 42  1  0  0  0  0
  9 43  1  0  0  0  0
 10  8  1  0  0  0  0
 10 44  1  0  0  0  0
 10 45  1  0  0  0  0
 10 46  1  0  0  0  0
 11  6  1  0  0  0  0
 11 47  1  0  0  0  0
 12 11  1  0  0  0  0
 12 48  1  1  0  0  0
 13 12  1  0  0  0  0
 13 19  1  0  0  0  0
 14 13  2  0  0  0  0
 15 16  1  0  0  0  0
 15 12  1  0  0  0  0
 15 49  1  0  0  0  0
 15 50  1  0  0  0  0
 16 18  1  0  0  0  0
 16 51  1  0  0  0  0
 17 16  1  0  0  0  0
 17 52  1  0  0  0  0
 17 53  1  0  0  0  0
 17 54  1  0  0  0  0
 18 55  1  0  0  0  0
 18 56  1  0  0  0  0
 18 57  1  0  0  0  0
 19 58  1  0  0  0  0
 20 19  1  0  0  0  0
 20 23  1  0  0  0  0
 20 59  1  6  0  0  0
 21 22  2  0  0  0  0
 21 20  1  0  0  0  0
 23 24  1  0  0  0  0
 23 60  1  0  0  0  0
 23 61  1  0  0  0  0
 24 25  1  0  0  0  0
 24 62  1  0  0  0  0
 24 63  1  0  0  0  0
 25 26  2  0  0  0  0
 25 27  1  0  0  0  0
 28 21  1  0  0  0  0
 28 64  1  0  0  0  0
 29 28  1  0  0  0  0
 29 65  1  1  0  0  0
 30 29  1  0  0  0  0
 31 30  2  0  0  0  0
 32 29  1  0  0  0  0
 32 66  1  0  0  0  0
 32 67  1  0  0  0  0
 32 68  1  0  0  0  0
 33 30  1  0  0  0  0
 33 69  1  0  0  0  0
 34 33  1  0  0  0  0
 34 70  1  0  0  0  0
 34 71  1  0  0  0  0
 34 72  1  0  0  0  0
M  CHG  1  27  -1
M  END
>  <MODEL>
       0

$$$$
