selected_4mers/VLVD/915_noH.pdb
 OpenBabel03042518353D

 75 74  0  0  1  0  0  0  0  0999 V2000
   12.2080   -8.2200   50.6120 C   0  0  0  0  0  0  0  0  0  0  0  0
   11.0920   -8.8810   51.4450 C   0  0  0  0  0  0  0  0  0  0  0  0
   11.3340   -9.8600   52.1340 O   0  0  0  0  0  0  0  0  0  0  0  0
    9.8580   -8.4090   51.3420 N   0  0  0  0  0  0  0  0  0  0  0  0
    8.8060   -9.1030   52.0520 C   0  0  2  0  0  0  0  0  0  0  0  0
    8.6500  -10.5320   51.4800 C   0  0  0  0  0  0  0  0  0  0  0  0
    8.4030  -11.4880   52.2110 O   0  0  0  0  0  0  0  0  0  0  0  0
    7.4910   -8.3160   52.0160 C   0  0  0  0  0  0  0  0  0  0  0  0
    6.3630   -9.1610   52.6220 C   0  0  0  0  0  0  0  0  0  0  0  0
    7.6720   -6.9700   52.8000 C   0  0  0  0  0  0  0  0  0  0  0  0
    8.8650  -10.6940   50.1840 N   0  0  0  0  0  0  0  0  0  0  0  0
    8.6530  -11.9920   49.5430 C   0  0  2  0  0  0  0  0  0  0  0  0
    9.6630  -12.9900   50.0280 C   0  0  0  0  0  0  0  0  0  0  0  0
    9.3430  -14.1230   50.3450 O   0  0  0  0  0  0  0  0  0  0  0  0
    8.6760  -11.8710   47.9950 C   0  0  0  0  0  0  0  0  0  0  0  0
    7.4250  -11.2410   47.3460 C   0  0  0  0  0  0  0  0  0  0  0  0
    7.5630  -11.1360   45.7940 C   0  0  0  0  0  0  0  0  0  0  0  0
    6.1570  -11.9930   47.7050 C   0  0  0  0  0  0  0  0  0  0  0  0
   10.9080  -12.5550   50.0880 N   0  0  0  0  0  0  0  0  0  0  0  0
   11.9570  -13.3460   50.6210 C   0  0  2  0  0  0  0  0  0  0  0  0
   11.6810  -13.7460   52.0760 C   0  0  0  0  0  0  0  0  0  0  0  0
   11.9150  -14.8900   52.4480 O   0  0  0  0  0  0  0  0  0  0  0  0
   13.2500  -12.5910   50.5000 C   0  0  0  0  0  0  0  0  0  0  0  0
   14.3630  -13.3460   51.1350 C   0  0  0  0  0  0  0  0  0  0  0  0
   13.5240  -12.3530   49.0400 C   0  0  0  0  0  0  0  0  0  0  0  0
   11.1530  -12.8160   52.8690 N   0  0  0  0  0  0  0  0  0  0  0  0
   10.8730  -13.0550   54.2960 C   0  0  2  0  0  0  0  0  0  0  0  0
    9.7610  -14.0770   54.5050 C   0  0  0  0  0  0  0  0  0  0  0  0
    9.8150  -14.9040   55.4200 O   0  0  0  0  0  0  0  0  0  0  0  0
   10.4920  -11.7430   54.9930 C   0  0  0  0  0  0  0  0  0  0  0  0
   11.6900  -10.7690   55.1660 C   0  0  0  0  0  0  0  0  0  0  0  0
   12.8570  -11.1990   55.1270 O   0  0  0  0  0  0  0  0  0  0  0  0
   11.4430   -9.5620   55.3700 O   0  0  0  0  0  0  0  0  0  0  0  0
    8.7390  -13.9780   53.6660 N   0  0  0  0  0  0  0  0  0  0  0  0
    7.6620  -14.9330   53.6140 C   0  0  0  0  0  0  0  0  0  0  0  0
   11.8072   -7.3833   50.0789 H   0  0  0  0  0  0  0  0  0  0  0  0
   12.6021   -8.9307   49.9160 H   0  0  0  0  0  0  0  0  0  0  0  0
   12.9893   -7.8871   51.2629 H   0  0  0  0  0  0  0  0  0  0  0  0
    9.6633   -7.6110   50.7993 H   0  0  0  0  0  0  0  0  0  0  0  0
    9.0762   -9.1842   53.0841 H   0  0  0  0  0  0  0  0  0  0  0  0
    7.2287   -8.0891   51.0038 H   0  0  0  0  0  0  0  0  0  0  0  0
    6.6029   -9.4011   53.6367 H   0  0  0  0  0  0  0  0  0  0  0  0
    6.2515  -10.0638   52.0586 H   0  0  0  0  0  0  0  0  0  0  0  0
    5.4478   -8.6074   52.5933 H   0  0  0  0  0  0  0  0  0  0  0  0
    7.9349   -7.1813   53.8155 H   0  0  0  0  0  0  0  0  0  0  0  0
    6.7560   -6.4175   52.7763 H   0  0  0  0  0  0  0  0  0  0  0  0
    8.4486   -6.3928   52.3432 H   0  0  0  0  0  0  0  0  0  0  0  0
    9.1719   -9.9303   49.6438 H   0  0  0  0  0  0  0  0  0  0  0  0
    7.6801  -12.3424   49.8181 H   0  0  0  0  0  0  0  0  0  0  0  0
    9.5209  -11.2721   47.7261 H   0  0  0  0  0  0  0  0  0  0  0  0
    8.7161  -12.8753   47.6281 H   0  0  0  0  0  0  0  0  0  0  0  0
    7.3504  -10.2509   47.7447 H   0  0  0  0  0  0  0  0  0  0  0  0
    7.6391  -12.1178   45.3755 H   0  0  0  0  0  0  0  0  0  0  0  0
    8.4416  -10.5756   45.5511 H   0  0  0  0  0  0  0  0  0  0  0  0
    6.7028  -10.6426   45.3920 H   0  0  0  0  0  0  0  0  0  0  0  0
    6.2100  -12.9881   47.3153 H   0  0  0  0  0  0  0  0  0  0  0  0
    5.3122  -11.4894   47.2835 H   0  0  0  0  0  0  0  0  0  0  0  0
    6.0545  -12.0318   48.7694 H   0  0  0  0  0  0  0  0  0  0  0  0
   11.1145  -11.6529   49.7521 H   0  0  0  0  0  0  0  0  0  0  0  0
   12.0241  -14.2556   50.0614 H   0  0  0  0  0  0  0  0  0  0  0  0
   13.1733  -11.6532   51.0095 H   0  0  0  0  0  0  0  0  0  0  0  0
   14.4723  -14.2942   50.6514 H   0  0  0  0  0  0  0  0  0  0  0  0
   14.1455  -13.4974   52.1717 H   0  0  0  0  0  0  0  0  0  0  0  0
   15.2719  -12.7896   51.0388 H   0  0  0  0  0  0  0  0  0  0  0  0
   13.6001  -13.2925   48.5336 H   0  0  0  0  0  0  0  0  0  0  0  0
   14.4424  -11.8145   48.9326 H   0  0  0  0  0  0  0  0  0  0  0  0
   12.7244  -11.7827   48.6154 H   0  0  0  0  0  0  0  0  0  0  0  0
   10.9412  -11.9337   52.4870 H   0  0  0  0  0  0  0  0  0  0  0  0
   11.7699  -13.4505   54.7250 H   0  0  0  0  0  0  0  0  0  0  0  0
   10.0997  -11.9742   55.9612 H   0  0  0  0  0  0  0  0  0  0  0  0
    9.7713  -11.2522   54.3728 H   0  0  0  0  0  0  0  0  0  0  0  0
    8.7151  -13.2128   53.0471 H   0  0  0  0  0  0  0  0  0  0  0  0
    7.8298  -15.6997   54.3413 H   0  0  0  0  0  0  0  0  0  0  0  0
    7.6196  -15.3700   52.6382 H   0  0  0  0  0  0  0  0  0  0  0  0
    6.7365  -14.4387   53.8239 H   0  0  0  0  0  0  0  0  0  0  0  0
  1  2  1  0  0  0  0
  1 36  1  0  0  0  0
  1 37  1  0  0  0  0
  1 38  1  0  0  0  0
  2  3  2  0  0  0  0
  4  2  1  0  0  0  0
  4  5  1  0  0  0  0
  4 39  1  0  0  0  0
  5 40  1  1  0  0  0
  6  5  1  0  0  0  0
  6  7  2  0  0  0  0
  8  5  1  0  0  0  0
  8  9  1  0  0  0  0
  8 10  1  0  0  0  0
  8 41  1  0  0  0  0
  9 42  1  0  0  0  0
  9 43  1  0  0  0  0
  9 44  1  0  0  0  0
 10 45  1  0  0  0  0
 10 46  1  0  0  0  0
 10 47  1  0  0  0  0
 11  6  1  0  0  0  0
 11 48  1  0  0  0  0
 12 13  1  0  0  0  0
 12 11  1  0  0  0  0
 12 49  1  1  0  0  0
 13 19  1  0  0  0  0
 13 14  2  0  0  0  0
 15 12  1  0  0  0  0
 15 50  1  0  0  0  0
 15 51  1  0  0  0  0
 16 18  1  0  0  0  0
 16 15  1  0  0  0  0
 16 52  1  0  0  0  0
 17 16  1  0  0  0  0
 17 53  1  0  0  0  0
 17 54  1  0  0  0  0
 17 55  1  0  0  0  0
 18 56  1  0  0  0  0
 18 57  1  0  0  0  0
 18 58  1  0  0  0  0
 19 20  1  0  0  0  0
 19 59  1  0  0  0  0
 20 21  1  0  0  0  0
 20 60  1  6  0  0  0
 21 22  2  0  0  0  0
 21 26  1  0  0  0  0
 23 20  1  0  0  0  0
 23 24  1  0  0  0  0
 23 61  1  0  0  0  0
 24 62  1  0  0  0  0
 24 63  1  0  0  0  0
 24 64  1  0  0  0  0
 25 23  1  0  0  0  0
 25 65  1  0  0  0  0
 25 66  1  0  0  0  0
 25 67  1  0  0  0  0
 26 27  1  0  0  0  0
 26 68  1  0  0  0  0
 27 28  1  0  0  0  0
 27 30  1  0  0  0  0
 27 69  1  1  0  0  0
 28 29  2  0  0  0  0
 30 31  1  0  0  0  0
 30 70  1  0  0  0  0
 30 71  1  0  0  0  0
 31 33  1  0  0  0  0
 32 31  2  0  0  0  0
 34 28  1  0  0  0  0
 34 72  1  0  0  0  0
 35 34  1  0  0  0  0
 35 73  1  0  0  0  0
 35 74  1  0  0  0  0
 35 75  1  0  0  0  0
M  CHG  1  33  -1
M  END
>  <MODEL>
       0

$$$$
selected_4mers/VLVD/916_noH.pdb
 OpenBabel03042518353D

 75 74  0  0  1  0  0  0  0  0999 V2000
   59.0450   60.9710   74.0170 C   0  0  0  0  0  0  0  0  0  0  0  0
   58.4180   60.1700   72.8610 C   0  0  0  0  0  0  0  0  0  0  0  0
   57.2220   59.8550   72.8880 O   0  0  0  0  0  0  0  0  0  0  0  0
   59.2150   59.8610   71.8410 N   0  0  0  0  0  0  0  0  0  0  0  0
   58.7280   59.0830   70.7010 C   0  0  2  0  0  0  0  0  0  0  0  0
   59.5750   57.8190   70.5190 C   0  0  0  0  0  0  0  0  0  0  0  0
   60.8020   57.8950   70.4660 O   0  0  0  0  0  0  0  0  0  0  0  0
   58.7800   59.8920   69.3760 C   0  0  0  0  0  0  0  0  0  0  0  0
   58.0190   59.1430   68.2850 C   0  0  0  0  0  0  0  0  0  0  0  0
   58.1930   61.2800   69.5840 C   0  0  0  0  0  0  0  0  0  0  0  0
   58.9010   56.6690   70.4470 N   0  0  0  0  0  0  0  0  0  0  0  0
   59.5380   55.3660   70.2350 C   0  0  2  0  0  0  0  0  0  0  0  0
   59.2660   55.0480   68.7760 C   0  0  0  0  0  0  0  0  0  0  0  0
   58.1040   54.8720   68.3760 O   0  0  0  0  0  0  0  0  0  0  0  0
   58.8960   54.2820   71.1160 C   0  0  0  0  0  0  0  0  0  0  0  0
   59.4910   52.8770   70.9520 C   0  0  0  0  0  0  0  0  0  0  0  0
   60.8930   52.8880   71.5520 C   0  0  0  0  0  0  0  0  0  0  0  0
   58.6120   51.7990   71.6290 C   0  0  0  0  0  0  0  0  0  0  0  0
   60.3190   54.9860   67.9720 N   0  0  0  0  0  0  0  0  0  0  0  0
   60.1450   54.7220   66.5600 C   0  0  2  0  0  0  0  0  0  0  0  0
   60.6000   53.3290   66.1460 C   0  0  0  0  0  0  0  0  0  0  0  0
   61.7440   52.9290   66.3960 O   0  0  0  0  0  0  0  0  0  0  0  0
   60.9050   55.7290   65.6720 C   0  0  0  0  0  0  0  0  0  0  0  0
   60.4450   55.5240   64.2390 C   0  0  0  0  0  0  0  0  0  0  0  0
   60.6310   57.1870   66.1130 C   0  0  0  0  0  0  0  0  0  0  0  0
   59.6900   52.6030   65.5050 N   0  0  0  0  0  0  0  0  0  0  0  0
   59.9670   51.2610   65.0370 C   0  0  2  0  0  0  0  0  0  0  0  0
   60.3840   51.3280   63.5900 C   0  0  0  0  0  0  0  0  0  0  0  0
   59.5800   51.6970   62.7340 O   0  0  0  0  0  0  0  0  0  0  0  0
   58.7010   50.3950   65.1460 C   0  0  0  0  0  0  0  0  0  0  0  0
   58.9240   48.9650   64.6980 C   0  0  0  0  0  0  0  0  0  0  0  0
   59.9440   48.3580   65.0990 O   0  0  0  0  0  0  0  0  0  0  0  0
   58.0670   48.4330   63.9640 O   0  0  0  0  0  0  0  0  0  0  0  0
   61.6340   50.9900   63.3130 N   0  0  0  0  0  0  0  0  0  0  0  0
   62.1380   50.9640   61.9470 C   0  0  0  0  0  0  0  0  0  0  0  0
   60.0805   61.1442   73.8104 H   0  0  0  0  0  0  0  0  0  0  0  0
   58.9508   60.4166   74.9273 H   0  0  0  0  0  0  0  0  0  0  0  0
   58.5395   61.9088   74.1165 H   0  0  0  0  0  0  0  0  0  0  0  0
   60.1522   60.1622   71.8535 H   0  0  0  0  0  0  0  0  0  0  0  0
   57.7103   58.8310   70.9146 H   0  0  0  0  0  0  0  0  0  0  0  0
   59.7995   60.0021   69.0705 H   0  0  0  0  0  0  0  0  0  0  0  0
   56.9968   59.0264   68.5790 H   0  0  0  0  0  0  0  0  0  0  0  0
   58.4605   58.1792   68.1397 H   0  0  0  0  0  0  0  0  0  0  0  0
   58.0663   59.6984   67.3716 H   0  0  0  0  0  0  0  0  0  0  0  0
   57.1716   61.1930   69.8906 H   0  0  0  0  0  0  0  0  0  0  0  0
   58.2447   61.8301   68.6677 H   0  0  0  0  0  0  0  0  0  0  0  0
   58.7499   61.7931   70.3400 H   0  0  0  0  0  0  0  0  0  0  0  0
   57.9215   56.6976   70.5416 H   0  0  0  0  0  0  0  0  0  0  0  0
   60.5791   55.3919   70.4808 H   0  0  0  0  0  0  0  0  0  0  0  0
   57.8548   54.2318   70.8748 H   0  0  0  0  0  0  0  0  0  0  0  0
   59.0838   54.5700   72.1293 H   0  0  0  0  0  0  0  0  0  0  0  0
   59.5316   52.6266   69.9125 H   0  0  0  0  0  0  0  0  0  0  0  0
   60.8346   53.1398   72.5903 H   0  0  0  0  0  0  0  0  0  0  0  0
   61.4933   53.6125   71.0425 H   0  0  0  0  0  0  0  0  0  0  0  0
   61.3347   51.9194   71.4441 H   0  0  0  0  0  0  0  0  0  0  0  0
   58.5390   52.0046   72.6765 H   0  0  0  0  0  0  0  0  0  0  0  0
   59.0546   50.8356   71.4846 H   0  0  0  0  0  0  0  0  0  0  0  0
   57.6344   51.8112   71.1942 H   0  0  0  0  0  0  0  0  0  0  0  0
   61.2232   55.1202   68.3376 H   0  0  0  0  0  0  0  0  0  0  0  0
   59.0894   54.8142   66.4113 H   0  0  0  0  0  0  0  0  0  0  0  0
   61.9580   55.5618   65.7618 H   0  0  0  0  0  0  0  0  0  0  0  0
   59.3909   55.6964   64.1746 H   0  0  0  0  0  0  0  0  0  0  0  0
   60.6616   54.5213   63.9349 H   0  0  0  0  0  0  0  0  0  0  0  0
   60.9584   56.2099   63.5980 H   0  0  0  0  0  0  0  0  0  0  0  0
   59.5836   57.3919   66.0364 H   0  0  0  0  0  0  0  0  0  0  0  0
   61.1730   57.8587   65.4807 H   0  0  0  0  0  0  0  0  0  0  0  0
   60.9469   57.3183   67.1268 H   0  0  0  0  0  0  0  0  0  0  0  0
   58.7993   52.9899   65.3432 H   0  0  0  0  0  0  0  0  0  0  0  0
   60.7445   50.8310   65.6332 H   0  0  0  0  0  0  0  0  0  0  0  0
   58.3799   50.3868   66.1666 H   0  0  0  0  0  0  0  0  0  0  0  0
   57.9632   50.8224   64.4996 H   0  0  0  0  0  0  0  0  0  0  0  0
   62.2395   50.7496   64.0511 H   0  0  0  0  0  0  0  0  0  0  0  0
   61.3573   51.2495   61.2733 H   0  0  0  0  0  0  0  0  0  0  0  0
   62.4711   49.9755   61.7085 H   0  0  0  0  0  0  0  0  0  0  0  0
   62.9559   51.6478   61.8555 H   0  0  0  0  0  0  0  0  0  0  0  0
  1 36  1  0  0  0  0
  1 37  1  0  0  0  0
  1 38  1  0  0  0  0
  2  3  2  0  0  0  0
  2  1  1  0  0  0  0
  4  2  1  0  0  0  0
  4 39  1  0  0  0  0
  5  4  1  0  0  0  0
  5 40  1  1  0  0  0
  6  5  1  0  0  0  0
  7  6  2  0  0  0  0
  8 10  1  0  0  0  0
  8  5  1  0  0  0  0
  8 41  1  0  0  0  0
  9  8  1  0  0  0  0
  9 42  1  0  0  0  0
  9 43  1  0  0  0  0
  9 44  1  0  0  0  0
 10 45  1  0  0  0  0
 10 46  1  0  0  0  0
 10 47  1  0  0  0  0
 11  6  1  0  0  0  0
 11 48  1  0  0  0  0
 12 11  1  0  0  0  0
 12 15  1  0  0  0  0
 12 49  1  1  0  0  0
 13 12  1  0  0  0  0
 14 13  2  0  0  0  0
 15 50  1  0  0  0  0
 15 51  1  0  0  0  0
 16 15  1  0  0  0  0
 16 17  1  0  0  0  0
 16 18  1  0  0  0  0
 16 52  1  0  0  0  0
 17 53  1  0  0  0  0
 17 54  1  0  0  0  0
 17 55  1  0  0  0  0
 18 56  1  0  0  0  0
 18 57  1  0  0  0  0
 18 58  1  0  0  0  0
 19 13  1  0  0  0  0
 19 59  1  0  0  0  0
 20 19  1  0  0  0  0
 20 60  1  6  0  0  0
 21 22  2  0  0  0  0
 21 20  1  0  0  0  0
 23 25  1  0  0  0  0
 23 20  1  0  0  0  0
 23 61  1  0  0  0  0
 24 23  1  0  0  0  0
 24 62  1  0  0  0  0
 24 63  1  0  0  0  0
 24 64  1  0  0  0  0
 25 65  1  0  0  0  0
 25 66  1  0  0  0  0
 25 67  1  0  0  0  0
 26 21  1  0  0  0  0
 26 68  1  0  0  0  0
 27 30  1  0  0  0  0
 27 26  1  0  0  0  0
 27 69  1  1  0  0  0
 28 27  1  0  0  0  0
 29 28  2  0  0  0  0
 30 70  1  0  0  0  0
 30 71  1  0  0  0  0
 31 32  1  0  0  0  0
 31 30  1  0  0  0  0
 33 31  2  0  0  0  0
 34 28  1  0  0  0  0
 34 72  1  0  0  0  0
 35 34  1  0  0  0  0
 35 73  1  0  0  0  0
 35 74  1  0  0  0  0
 35 75  1  0  0  0  0
M  CHG  1  32  -1
M  END
>  <MODEL>
       0

$$$$
selected_4mers/VLVD/917_noH.pdb
 OpenBabel03042518353D

 75 74  0  0  1  0  0  0  0  0999 V2000
  -16.1900   22.2940   22.9250 C   0  0  0  0  0  0  0  0  0  0  0  0
  -15.3160   23.1030   23.8830 C   0  0  0  0  0  0  0  0  0  0  0  0
  -14.2070   23.5120   23.5410 O   0  0  0  0  0  0  0  0  0  0  0  0
  -15.8180   23.3380   25.0910 N   0  0  0  0  0  0  0  0  0  0  0  0
  -15.0440   24.0700   26.0840 C   0  0  2  0  0  0  0  0  0  0  0  0
  -13.7590   23.3090   26.4350 C   0  0  0  0  0  0  0  0  0  0  0  0
  -13.7890   22.1030   26.7040 O   0  0  0  0  0  0  0  0  0  0  0  0
  -15.8720   24.2940   27.3760 C   0  0  0  0  0  0  0  0  0  0  0  0
  -14.9840   24.7520   28.5010 C   0  0  0  0  0  0  0  0  0  0  0  0
  -17.0030   25.2900   27.1300 C   0  0  0  0  0  0  0  0  0  0  0  0
  -12.6310   24.0150   26.4000 N   0  0  0  0  0  0  0  0  0  0  0  0
  -11.3370   23.4390   26.7700 C   0  0  2  0  0  0  0  0  0  0  0  0
  -10.5490   24.4110   27.6260 C   0  0  0  0  0  0  0  0  0  0  0  0
  -10.3810   25.5810   27.2580 O   0  0  0  0  0  0  0  0  0  0  0  0
  -10.5030   23.0750   25.5400 C   0  0  0  0  0  0  0  0  0  0  0  0
   -9.0570   22.6630   25.8600 C   0  0  0  0  0  0  0  0  0  0  0  0
   -8.9920   21.3520   26.6750 C   0  0  0  0  0  0  0  0  0  0  0  0
   -8.2450   22.4980   24.5710 C   0  0  0  0  0  0  0  0  0  0  0  0
  -10.0900   23.9350   28.7820 N   0  0  0  0  0  0  0  0  0  0  0  0
   -9.2970   24.7490   29.6950 C   0  0  2  0  0  0  0  0  0  0  0  0
   -8.0200   24.0170   30.0850 C   0  0  0  0  0  0  0  0  0  0  0  0
   -8.0610   22.8380   30.3910 O   0  0  0  0  0  0  0  0  0  0  0  0
  -10.0730   25.0420   31.0040 C   0  0  0  0  0  0  0  0  0  0  0  0
   -9.2740   25.9980   31.8860 C   0  0  0  0  0  0  0  0  0  0  0  0
  -11.4430   25.6050   30.6790 C   0  0  0  0  0  0  0  0  0  0  0  0
   -6.8920   24.7220   30.0780 N   0  0  0  0  0  0  0  0  0  0  0  0
   -5.6680   24.2250   30.7090 C   0  0  2  0  0  0  0  0  0  0  0  0
   -5.3640   25.1990   31.8420 C   0  0  0  0  0  0  0  0  0  0  0  0
   -4.8230   26.2830   31.5990 O   0  0  0  0  0  0  0  0  0  0  0  0
   -4.4960   24.2070   29.7120 C   0  0  0  0  0  0  0  0  0  0  0  0
   -3.1980   23.7290   30.3510 C   0  0  0  0  0  0  0  0  0  0  0  0
   -3.1770   23.5810   31.5910 O   0  0  0  0  0  0  0  0  0  0  0  0
   -2.1960   23.5110   29.6250 O   0  0  0  0  0  0  0  0  0  0  0  0
   -5.7020   24.8200   33.0860 N   0  0  0  0  0  0  0  0  0  0  0  0
   -5.6290   25.7500   34.2230 C   0  0  0  0  0  0  0  0  0  0  0  0
  -15.6794   22.1728   21.9925 H   0  0  0  0  0  0  0  0  0  0  0  0
  -17.1129   22.8103   22.7619 H   0  0  0  0  0  0  0  0  0  0  0  0
  -16.3895   21.3325   23.3500 H   0  0  0  0  0  0  0  0  0  0  0  0
  -16.7202   23.0147   25.3163 H   0  0  0  0  0  0  0  0  0  0  0  0
  -14.7907   25.0198   25.6614 H   0  0  0  0  0  0  0  0  0  0  0  0
  -16.3125   23.3609   27.6592 H   0  0  0  0  0  0  0  0  0  0  0  0
  -14.5311   25.6857   28.2404 H   0  0  0  0  0  0  0  0  0  0  0  0
  -14.2214   24.0215   28.6735 H   0  0  0  0  0  0  0  0  0  0  0  0
  -15.5680   24.8744   29.3892 H   0  0  0  0  0  0  0  0  0  0  0  0
  -16.5902   26.2350   26.8444 H   0  0  0  0  0  0  0  0  0  0  0  0
  -17.5761   25.4073   28.0259 H   0  0  0  0  0  0  0  0  0  0  0  0
  -17.6352   24.9257   26.3473 H   0  0  0  0  0  0  0  0  0  0  0  0
  -12.6683   24.9568   26.1155 H   0  0  0  0  0  0  0  0  0  0  0  0
  -11.5400   22.5452   27.3220 H   0  0  0  0  0  0  0  0  0  0  0  0
  -10.9815   22.2594   25.0392 H   0  0  0  0  0  0  0  0  0  0  0  0
  -10.4456   23.9558   24.9352 H   0  0  0  0  0  0  0  0  0  0  0  0
   -8.6369   23.4471   26.4546 H   0  0  0  0  0  0  0  0  0  0  0  0
   -9.4078   20.5525   26.0982 H   0  0  0  0  0  0  0  0  0  0  0  0
   -9.5507   21.4668   27.5803 H   0  0  0  0  0  0  0  0  0  0  0  0
   -7.9725   21.1289   26.9109 H   0  0  0  0  0  0  0  0  0  0  0  0
   -8.6691   21.7130   23.9803 H   0  0  0  0  0  0  0  0  0  0  0  0
   -7.2327   22.2529   24.8161 H   0  0  0  0  0  0  0  0  0  0  0  0
   -8.2662   23.4129   24.0165 H   0  0  0  0  0  0  0  0  0  0  0  0
  -10.2927   23.0035   29.0279 H   0  0  0  0  0  0  0  0  0  0  0  0
   -9.0754   25.6630   29.1848 H   0  0  0  0  0  0  0  0  0  0  0  0
  -10.2092   24.1300   31.5468 H   0  0  0  0  0  0  0  0  0  0  0  0
   -9.1229   26.9209   31.3661 H   0  0  0  0  0  0  0  0  0  0  0  0
   -8.3257   25.5603   32.1187 H   0  0  0  0  0  0  0  0  0  0  0  0
   -9.8133   26.1829   32.7915 H   0  0  0  0  0  0  0  0  0  0  0  0
  -11.3328   26.5196   30.1348 H   0  0  0  0  0  0  0  0  0  0  0  0
  -11.9762   25.7926   31.5875 H   0  0  0  0  0  0  0  0  0  0  0  0
  -11.9867   24.9000   30.0854 H   0  0  0  0  0  0  0  0  0  0  0  0
   -6.8799   25.6019   29.6365 H   0  0  0  0  0  0  0  0  0  0  0  0
   -5.7977   23.2217   31.0576 H   0  0  0  0  0  0  0  0  0  0  0  0
   -4.7428   23.5514   28.9032 H   0  0  0  0  0  0  0  0  0  0  0  0
   -4.3422   25.2094   29.3708 H   0  0  0  0  0  0  0  0  0  0  0  0
   -6.0062   23.8965   33.2403 H   0  0  0  0  0  0  0  0  0  0  0  0
   -5.2823   26.7032   33.8824 H   0  0  0  0  0  0  0  0  0  0  0  0
   -4.9511   25.3649   34.9558 H   0  0  0  0  0  0  0  0  0  0  0  0
   -6.6005   25.8585   34.6580 H   0  0  0  0  0  0  0  0  0  0  0  0
  1  2  1  0  0  0  0
  1 36  1  0  0  0  0
  1 37  1  0  0  0  0
  1 38  1  0  0  0  0
  2  4  1  0  0  0  0
  3  2  2  0  0  0  0
  4  5  1  0  0  0  0
  4 39  1  0  0  0  0
  5  6  1  0  0  0  0
  5  8  1  0  0  0  0
  5 40  1  6  0  0  0
  6  7  2  0  0  0  0
  8  9  1  0  0  0  0
  8 41  1  0  0  0  0
  9 42  1  0  0  0  0
  9 43  1  0  0  0  0
  9 44  1  0  0  0  0
 10  8  1  0  0  0  0
 10 45  1  0  0  0  0
 10 46  1  0  0  0  0
 10 47  1  0  0  0  0
 11  6  1  0  0  0  0
 11 12  1  0  0  0  0
 11 48  1  0  0  0  0
 12 13  1  0  0  0  0
 12 49  1  1  0  0  0
 13 19  1  0  0  0  0
 14 13  2  0  0  0  0
 15 16  1  0  0  0  0
 15 12  1  0  0  0  0
 15 50  1  0  0  0  0
 15 51  1  0  0  0  0
 16 17  1  0  0  0  0
 16 52  1  0  0  0  0
 17 53  1  0  0  0  0
 17 54  1  0  0  0  0
 17 55  1  0  0  0  0
 18 16  1  0  0  0  0
 18 56  1  0  0  0  0
 18 57  1  0  0  0  0
 18 58  1  0  0  0  0
 19 20  1  0  0  0  0
 19 59  1  0  0  0  0
 20 21  1  0  0  0  0
 20 23  1  0  0  0  0
 20 60  1  6  0  0  0
 21 22  2  0  0  0  0
 23 24  1  0  0  0  0
 23 61  1  0  0  0  0
 24 62  1  0  0  0  0
 24 63  1  0  0  0  0
 24 64  1  0  0  0  0
 25 23  1  0  0  0  0
 25 65  1  0  0  0  0
 25 66  1  0  0  0  0
 25 67  1  0  0  0  0
 26 21  1  0  0  0  0
 26 27  1  0  0  0  0
 26 68  1  0  0  0  0
 27 28  1  0  0  0  0
 27 69  1  1  0  0  0
 28 34  1  0  0  0  0
 29 28  2  0  0  0  0
 30 31  1  0  0  0  0
 30 27  1  0  0  0  0
 30 70  1  0  0  0  0
 30 71  1  0  0  0  0
 31 32  1  0  0  0  0
 33 31  2  0  0  0  0
 34 35  1  0  0  0  0
 34 72  1  0  0  0  0
 35 73  1  0  0  0  0
 35 74  1  0  0  0  0
 35 75  1  0  0  0  0
M  CHG  1  32  -1
M  END
>  <MODEL>
       0

$$$$
selected_4mers/VLVD/918_noH.pdb
 OpenBabel03042518353D

 75 74  0  0  1  0  0  0  0  0999 V2000
   26.1510   13.7260   41.5300 C   0  0  0  0  0  0  0  0  0  0  0  0
   25.9540   14.4040   42.8800 C   0  0  0  0  0  0  0  0  0  0  0  0
   25.2250   13.8890   43.7360 O   0  0  0  0  0  0  0  0  0  0  0  0
   26.5920   15.5510   43.0830 N   0  0  0  0  0  0  0  0  0  0  0  0
   26.4450   16.2380   44.3490 C   0  0  2  0  0  0  0  0  0  0  0  0
   25.0300   16.7310   44.5810 C   0  0  0  0  0  0  0  0  0  0  0  0
   24.5520   16.8040   45.7150 O   0  0  0  0  0  0  0  0  0  0  0  0
   27.4910   17.3780   44.4410 C   0  0  0  0  0  0  0  0  0  0  0  0
   27.2300   18.3120   45.5900 C   0  0  0  0  0  0  0  0  0  0  0  0
   28.8480   16.7550   44.5860 C   0  0  0  0  0  0  0  0  0  0  0  0
   24.3230   17.0860   43.5050 N   0  0  0  0  0  0  0  0  0  0  0  0
   22.9360   17.4850   43.5750 C   0  0  2  0  0  0  0  0  0  0  0  0
   21.9890   16.3010   43.6260 C   0  0  0  0  0  0  0  0  0  0  0  0
   20.7730   16.5090   43.6840 O   0  0  0  0  0  0  0  0  0  0  0  0
   22.6110   18.3620   42.3600 C   0  0  0  0  0  0  0  0  0  0  0  0
   23.2320   19.7350   42.3820 C   0  0  0  0  0  0  0  0  0  0  0  0
   23.0660   20.4420   41.0530 C   0  0  0  0  0  0  0  0  0  0  0  0
   22.6160   20.6030   43.5080 C   0  0  0  0  0  0  0  0  0  0  0  0
   22.4830   15.0780   43.5830 N   0  0  0  0  0  0  0  0  0  0  0  0
   21.6660   13.8550   43.5510 C   0  0  2  0  0  0  0  0  0  0  0  0
   20.6000   14.0050   42.4660 C   0  0  0  0  0  0  0  0  0  0  0  0
   19.4140   13.7320   42.6450 O   0  0  0  0  0  0  0  0  0  0  0  0
   21.0120   13.6480   44.9320 C   0  0  0  0  0  0  0  0  0  0  0  0
   20.2730   12.3650   45.1200 C   0  0  0  0  0  0  0  0  0  0  0  0
   22.1350   13.5900   45.9730 C   0  0  0  0  0  0  0  0  0  0  0  0
   21.0680   14.4420   41.3040 N   0  0  0  0  0  0  0  0  0  0  0  0
   20.3090   14.6370   40.1410 C   0  0  2  0  0  0  0  0  0  0  0  0
   19.9280   13.3730   39.4520 C   0  0  0  0  0  0  0  0  0  0  0  0
   20.6730   12.3790   39.3820 O   0  0  0  0  0  0  0  0  0  0  0  0
   21.0570   15.4550   39.1100 C   0  0  0  0  0  0  0  0  0  0  0  0
   20.2100   15.7010   37.8940 C   0  0  0  0  0  0  0  0  0  0  0  0
   19.2730   16.4740   38.0070 O   0  0  0  0  0  0  0  0  0  0  0  0
   20.4570   15.0850   36.8280 O   0  0  0  0  0  0  0  0  0  0  0  0
   18.7210   13.3440   38.8840 N   0  0  0  0  0  0  0  0  0  0  0  0
   18.2670   12.3570   37.8970 C   0  0  0  0  0  0  0  0  0  0  0  0
   26.8096   14.3159   40.9273 H   0  0  0  0  0  0  0  0  0  0  0  0
   25.2059   13.6309   41.0374 H   0  0  0  0  0  0  0  0  0  0  0  0
   26.5759   12.7550   41.6771 H   0  0  0  0  0  0  0  0  0  0  0  0
   27.1619   15.9321   42.3764 H   0  0  0  0  0  0  0  0  0  0  0  0
   26.6318   15.5396   45.1378 H   0  0  0  0  0  0  0  0  0  0  0  0
   27.4287   17.9669   43.5498 H   0  0  0  0  0  0  0  0  0  0  0  0
   27.2814   17.7685   46.5102 H   0  0  0  0  0  0  0  0  0  0  0  0
   26.2567   18.7438   45.4847 H   0  0  0  0  0  0  0  0  0  0  0  0
   27.9662   19.0884   45.5928 H   0  0  0  0  0  0  0  0  0  0  0  0
   28.8796   16.1739   45.4839 H   0  0  0  0  0  0  0  0  0  0  0  0
   29.5904   17.5241   44.6326 H   0  0  0  0  0  0  0  0  0  0  0  0
   29.0419   16.1226   43.7449 H   0  0  0  0  0  0  0  0  0  0  0  0
   24.7661   17.0754   42.6259 H   0  0  0  0  0  0  0  0  0  0  0  0
   22.7967   18.0311   44.4845 H   0  0  0  0  0  0  0  0  0  0  0  0
   22.9562   17.8554   41.4830 H   0  0  0  0  0  0  0  0  0  0  0  0
   21.5517   18.5123   42.3741 H   0  0  0  0  0  0  0  0  0  0  0  0
   24.2771   19.6031   42.5701 H   0  0  0  0  0  0  0  0  0  0  0  0
   22.0246   20.5813   40.8507 H   0  0  0  0  0  0  0  0  0  0  0  0
   23.5040   19.8499   40.2768 H   0  0  0  0  0  0  0  0  0  0  0  0
   23.5521   21.3944   41.0925 H   0  0  0  0  0  0  0  0  0  0  0  0
   21.5706   20.7372   43.3234 H   0  0  0  0  0  0  0  0  0  0  0  0
   23.1000   21.5571   43.5281 H   0  0  0  0  0  0  0  0  0  0  0  0
   22.7520   20.1142   44.4500 H   0  0  0  0  0  0  0  0  0  0  0  0
   23.4623   14.9775   43.5716 H   0  0  0  0  0  0  0  0  0  0  0  0
   22.2731   13.0024   43.3286 H   0  0  0  0  0  0  0  0  0  0  0  0
   20.3138   14.4532   45.0273 H   0  0  0  0  0  0  0  0  0  0  0  0
   20.9538   11.5446   45.0286 H   0  0  0  0  0  0  0  0  0  0  0  0
   19.5101   12.2803   44.3745 H   0  0  0  0  0  0  0  0  0  0  0  0
   19.8253   12.3504   46.0917 H   0  0  0  0  0  0  0  0  0  0  0  0
   22.7633   12.7473   45.7732 H   0  0  0  0  0  0  0  0  0  0  0  0
   21.7106   13.4947   46.9506 H   0  0  0  0  0  0  0  0  0  0  0  0
   22.7153   14.4876   45.9221 H   0  0  0  0  0  0  0  0  0  0  0  0
   22.0297   14.6467   41.2539 H   0  0  0  0  0  0  0  0  0  0  0  0
   19.4331   15.1398   40.4943 H   0  0  0  0  0  0  0  0  0  0  0  0
   21.3299   16.3954   39.5415 H   0  0  0  0  0  0  0  0  0  0  0  0
   21.9282   14.9100   38.8118 H   0  0  0  0  0  0  0  0  0  0  0  0
   18.0810   14.0435   39.1492 H   0  0  0  0  0  0  0  0  0  0  0  0
   19.0550   11.6603   37.7008 H   0  0  0  0  0  0  0  0  0  0  0  0
   17.9990   12.8571   36.9898 H   0  0  0  0  0  0  0  0  0  0  0  0
   17.4160   11.8342   38.2809 H   0  0  0  0  0  0  0  0  0  0  0  0
  1  2  1  0  0  0  0
  1 36  1  0  0  0  0
  1 37  1  0  0  0  0
  1 38  1  0  0  0  0
  2  4  1  0  0  0  0
  2  3  2  0  0  0  0
  4  5  1  0  0  0  0
  4 39  1  0  0  0  0
  5  8  1  0  0  0  0
  5  6  1  0  0  0  0
  5 40  1  1  0  0  0
  6  7  2  0  0  0  0
  8 10  1  0  0  0  0
  8  9  1  0  0  0  0
  8 41  1  0  0  0  0
  9 42  1  0  0  0  0
  9 43  1  0  0  0  0
  9 44  1  0  0  0  0
 10 45  1  0  0  0  0
 10 46  1  0  0  0  0
 10 47  1  0  0  0  0
 11 12  1  0  0  0  0
 11  6  1  0  0  0  0
 11 48  1  0  0  0  0
 12 13  1  0  0  0  0
 12 49  1  1  0  0  0
 13 14  2  0  0  0  0
 15 16  1  0  0  0  0
 15 12  1  0  0  0  0
 15 50  1  0  0  0  0
 15 51  1  0  0  0  0
 16 18  1  0  0  0  0
 16 52  1  0  0  0  0
 17 16  1  0  0  0  0
 17 53  1  0  0  0  0
 17 54  1  0  0  0  0
 17 55  1  0  0  0  0
 18 56  1  0  0  0  0
 18 57  1  0  0  0  0
 18 58  1  0  0  0  0
 19 13  1  0  0  0  0
 19 59  1  0  0  0  0
 20 19  1  0  0  0  0
 20 23  1  0  0  0  0
 20 60  1  6  0  0  0
 21 22  2  0  0  0  0
 21 20  1  0  0  0  0
 23 24  1  0  0  0  0
 23 25  1  0  0  0  0
 23 61  1  0  0  0  0
 24 62  1  0  0  0  0
 24 63  1  0  0  0  0
 24 64  1  0  0  0  0
 25 65  1  0  0  0  0
 25 66  1  0  0  0  0
 25 67  1  0  0  0  0
 26 21  1  0  0  0  0
 26 68  1  0  0  0  0
 27 26  1  0  0  0  0
 27 69  1  1  0  0  0
 28 27  1  0  0  0  0
 29 28  2  0  0  0  0
 30 27  1  0  0  0  0
 30 70  1  0  0  0  0
 30 71  1  0  0  0  0
 31 32  1  0  0  0  0
 31 30  1  0  0  0  0
 33 31  2  0  0  0  0
 34 28  1  0  0  0  0
 34 72  1  0  0  0  0
 35 34  1  0  0  0  0
 35 73  1  0  0  0  0
 35 74  1  0  0  0  0
 35 75  1  0  0  0  0
M  CHG  1  32  -1
M  END
>  <MODEL>
       0

$$$$
selected_4mers/VLVD/919_noH.pdb
 OpenBabel03042518353D

 75 74  0  0  1  0  0  0  0  0999 V2000
   17.6120    0.1340   13.7060 C   0  0  0  0  0  0  0  0  0  0  0  0
   17.1050   -1.2040   13.1960 C   0  0  0  0  0  0  0  0  0  0  0  0
   17.7080   -2.2270   13.4090 O   0  0  0  0  0  0  0  0  0  0  0  0
   16.0070   -1.1780   12.4450 N   0  0  0  0  0  0  0  0  0  0  0  0
   15.3150   -2.4290   12.0170 C   0  0  2  0  0  0  0  0  0  0  0  0
   15.5980   -2.8200   10.5790 C   0  0  0  0  0  0  0  0  0  0  0  0
   15.2590   -3.9240   10.1880 O   0  0  0  0  0  0  0  0  0  0  0  0
   13.7570   -2.2970   12.1730 C   0  0  0  0  0  0  0  0  0  0  0  0
   13.3780   -2.2930   13.6470 C   0  0  0  0  0  0  0  0  0  0  0  0
   13.2550   -1.0490   11.5010 C   0  0  0  0  0  0  0  0  0  0  0  0
   16.1250   -1.8760    9.7720 N   0  0  0  0  0  0  0  0  0  0  0  0
   16.3250   -2.1020    8.3300 C   0  0  2  0  0  0  0  0  0  0  0  0
   17.6740   -2.7720    8.1440 C   0  0  0  0  0  0  0  0  0  0  0  0
   18.6660   -2.1520    7.7490 O   0  0  0  0  0  0  0  0  0  0  0  0
   16.2600   -0.8050    7.5430 C   0  0  0  0  0  0  0  0  0  0  0  0
   14.9900   -0.0020    7.8220 C   0  0  0  0  0  0  0  0  0  0  0  0
   15.0400    1.2890    6.9690 C   0  0  0  0  0  0  0  0  0  0  0  0
   13.7340   -0.8240    7.5680 C   0  0  0  0  0  0  0  0  0  0  0  0
   17.6980   -4.0540    8.4630 N   0  0  0  0  0  0  0  0  0  0  0  0
   18.9220   -4.8430    8.4210 C   0  0  2  0  0  0  0  0  0  0  0  0
   18.6670   -6.1580    7.7330 C   0  0  0  0  0  0  0  0  0  0  0  0
   17.5340   -6.6630    7.7240 O   0  0  0  0  0  0  0  0  0  0  0  0
   19.4820   -5.0970    9.8380 C   0  0  0  0  0  0  0  0  0  0  0  0
   19.7800   -3.7750   10.5310 C   0  0  0  0  0  0  0  0  0  0  0  0
   18.5210   -5.9250   10.6710 C   0  0  0  0  0  0  0  0  0  0  0  0
   19.7230   -6.6850    7.1180 N   0  0  0  0  0  0  0  0  0  0  0  0
   19.7390   -7.9890    6.5080 C   0  0  2  0  0  0  0  0  0  0  0  0
   18.5780   -8.1820    5.5550 C   0  0  0  0  0  0  0  0  0  0  0  0
   18.3770   -7.3410    4.6880 O   0  0  0  0  0  0  0  0  0  0  0  0
   19.8540   -9.0540    7.5790 C   0  0  0  0  0  0  0  0  0  0  0  0
   21.1150   -8.8820    8.4390 C   0  0  0  0  0  0  0  0  0  0  0  0
   22.1850   -8.5720    7.8960 O   0  0  0  0  0  0  0  0  0  0  0  0
   21.0330   -9.0320    9.6640 O   0  0  0  0  0  0  0  0  0  0  0  0
   17.7660   -9.2190    5.7480 N   0  0  0  0  0  0  0  0  0  0  0  0
   16.6590   -9.5300    4.8190 C   0  0  0  0  0  0  0  0  0  0  0  0
   16.9350    0.9081   13.4105 H   0  0  0  0  0  0  0  0  0  0  0  0
   18.5796    0.3296   13.2932 H   0  0  0  0  0  0  0  0  0  0  0  0
   17.6786    0.1068   14.7736 H   0  0  0  0  0  0  0  0  0  0  0  0
   15.6406   -0.3086   12.1636 H   0  0  0  0  0  0  0  0  0  0  0  0
   15.7056   -3.1896   12.6602 H   0  0  0  0  0  0  0  0  0  0  0  0
   13.2976   -3.1386   11.6982 H   0  0  0  0  0  0  0  0  0  0  0  0
   13.8335   -1.4539   14.1301 H   0  0  0  0  0  0  0  0  0  0  0  0
   13.7197   -3.1974   14.1056 H   0  0  0  0  0  0  0  0  0  0  0  0
   12.3144   -2.2249   13.7416 H   0  0  0  0  0  0  0  0  0  0  0  0
   13.7020   -0.1922   11.9603 H   0  0  0  0  0  0  0  0  0  0  0  0
   12.1912   -0.9932   11.6013 H   0  0  0  0  0  0  0  0  0  0  0  0
   13.5146   -1.0736   10.4633 H   0  0  0  0  0  0  0  0  0  0  0  0
   16.3841   -1.0086   10.1590 H   0  0  0  0  0  0  0  0  0  0  0  0
   15.5408   -2.7270    7.9569 H   0  0  0  0  0  0  0  0  0  0  0  0
   17.1070   -0.2052    7.8031 H   0  0  0  0  0  0  0  0  0  0  0  0
   16.2563   -1.0602    6.5039 H   0  0  0  0  0  0  0  0  0  0  0  0
   14.9459    0.2642    8.8574 H   0  0  0  0  0  0  0  0  0  0  0  0
   15.0842    1.0297    5.9318 H   0  0  0  0  0  0  0  0  0  0  0  0
   15.9079    1.8569    7.2320 H   0  0  0  0  0  0  0  0  0  0  0  0
   14.1624    1.8727    7.1536 H   0  0  0  0  0  0  0  0  0  0  0  0
   13.7086   -1.1289    6.5427 H   0  0  0  0  0  0  0  0  0  0  0  0
   12.8700   -0.2315    7.7855 H   0  0  0  0  0  0  0  0  0  0  0  0
   13.7407   -1.6893    8.1973 H   0  0  0  0  0  0  0  0  0  0  0  0
   16.8600   -4.4910    8.7385 H   0  0  0  0  0  0  0  0  0  0  0  0
   19.6500   -4.2847    7.8704 H   0  0  0  0  0  0  0  0  0  0  0  0
   20.3919   -5.6513    9.7392 H   0  0  0  0  0  0  0  0  0  0  0  0
   18.8746   -3.2141   10.6338 H   0  0  0  0  0  0  0  0  0  0  0  0
   20.4813   -3.2163    9.9471 H   0  0  0  0  0  0  0  0  0  0  0  0
   20.1936   -3.9652   11.4993 H   0  0  0  0  0  0  0  0  0  0  0  0
   17.5996   -5.3933   10.7863 H   0  0  0  0  0  0  0  0  0  0  0  0
   18.9501   -6.1080   11.6339 H   0  0  0  0  0  0  0  0  0  0  0  0
   18.3357   -6.8575   10.1801 H   0  0  0  0  0  0  0  0  0  0  0  0
   20.5472   -6.1480    7.0775 H   0  0  0  0  0  0  0  0  0  0  0  0
   20.6063   -8.0819    5.8883 H   0  0  0  0  0  0  0  0  0  0  0  0
   19.8873  -10.0140    7.1075 H   0  0  0  0  0  0  0  0  0  0  0  0
   19.0040   -8.9641    8.2227 H   0  0  0  0  0  0  0  0  0  0  0  0
   17.9069   -9.7962    6.5330 H   0  0  0  0  0  0  0  0  0  0  0  0
   16.6457   -8.8111    4.0266 H   0  0  0  0  0  0  0  0  0  0  0  0
   15.7294   -9.4954    5.3476 H   0  0  0  0  0  0  0  0  0  0  0  0
   16.8006  -10.5087    4.4103 H   0  0  0  0  0  0  0  0  0  0  0  0
  1 36  1  0  0  0  0
  1 37  1  0  0  0  0
  1 38  1  0  0  0  0
  2  3  2  0  0  0  0
  2  1  1  0  0  0  0
  4  2  1  0  0  0  0
  4 39  1  0  0  0  0
  5  8  1  0  0  0  0
  5  4  1  0  0  0  0
  5 40  1  1  0  0  0
  6  5  1  0  0  0  0
  7  6  2  0  0  0  0
  8  9  1  0  0  0  0
  8 41  1  0  0  0  0
  9 42  1  0  0  0  0
  9 43  1  0  0  0  0
  9 44  1  0  0  0  0
 10  8  1  0  0  0  0
 10 45  1  0  0  0  0
 10 46  1  0  0  0  0
 10 47  1  0  0  0  0
 11  6  1  0  0  0  0
 11 48  1  0  0  0  0
 12 11  1  0  0  0  0
 12 49  1  6  0  0  0
 13 12  1  0  0  0  0
 13 19  1  0  0  0  0
 14 13  2  0  0  0  0
 15 16  1  0  0  0  0
 15 12  1  0  0  0  0
 15 50  1  0  0  0  0
 15 51  1  0  0  0  0
 16 52  1  0  0  0  0
 17 16  1  0  0  0  0
 17 53  1  0  0  0  0
 17 54  1  0  0  0  0
 17 55  1  0  0  0  0
 18 16  1  0  0  0  0
 18 56  1  0  0  0  0
 18 57  1  0  0  0  0
 18 58  1  0  0  0  0
 19 59  1  0  0  0  0
 20 19  1  0  0  0  0
 20 23  1  0  0  0  0
 20 60  1  6  0  0  0
 21 20  1  0  0  0  0
 22 21  2  0  0  0  0
 23 24  1  0  0  0  0
 23 25  1  0  0  0  0
 23 61  1  0  0  0  0
 24 62  1  0  0  0  0
 24 63  1  0  0  0  0
 24 64  1  0  0  0  0
 25 65  1  0  0  0  0
 25 66  1  0  0  0  0
 25 67  1  0  0  0  0
 26 21  1  0  0  0  0
 26 68  1  0  0  0  0
 27 26  1  0  0  0  0
 27 30  1  0  0  0  0
 27 69  1  6  0  0  0
 28 34  1  0  0  0  0
 28 27  1  0  0  0  0
 29 28  2  0  0  0  0
 30 31  1  0  0  0  0
 30 70  1  0  0  0  0
 30 71  1  0  0  0  0
 31 33  1  0  0  0  0
 32 31  2  0  0  0  0
 34 72  1  0  0  0  0
 35 34  1  0  0  0  0
 35 73  1  0  0  0  0
 35 74  1  0  0  0  0
 35 75  1  0  0  0  0
M  CHG  1  33  -1
M  END
>  <MODEL>
       0

$$$$
