selected_4mers/VLVG/925_noH.pdb
 OpenBabel03042518353D

 70 69  0  0  1  0  0  0  0  0999 V2000
   79.2010  130.9660   93.6210 C   0  0  0  0  0  0  0  0  0  0  0  0
   78.6820  129.5670   93.9090 C   0  0  0  0  0  0  0  0  0  0  0  0
   77.6780  129.1560   93.3460 O   0  0  0  0  0  0  0  0  0  0  0  0
   79.3810  128.7980   94.7380 N   0  0  0  0  0  0  0  0  0  0  0  0
   78.9300  127.4050   94.9470 C   0  0  2  0  0  0  0  0  0  0  0  0
   77.6260  127.2940   95.7250 C   0  0  0  0  0  0  0  0  0  0  0  0
   76.9290  126.2970   95.6150 O   0  0  0  0  0  0  0  0  0  0  0  0
   80.0280  126.5830   95.6550 C   0  0  0  0  0  0  0  0  0  0  0  0
   79.9470  126.7940   97.1400 C   0  0  0  0  0  0  0  0  0  0  0  0
   79.9970  125.0900   95.2530 C   0  0  0  0  0  0  0  0  0  0  0  0
   77.1970  128.3590   96.4110 N   0  0  0  0  0  0  0  0  0  0  0  0
   75.8990  128.4010   97.0480 C   0  0  2  0  0  0  0  0  0  0  0  0
   74.7430  128.6150   96.1090 C   0  0  0  0  0  0  0  0  0  0  0  0
   73.6540  128.2000   96.4430 O   0  0  0  0  0  0  0  0  0  0  0  0
   75.8930  129.4460   98.1620 C   0  0  0  0  0  0  0  0  0  0  0  0
   76.9520  129.2350   99.2360 C   0  0  0  0  0  0  0  0  0  0  0  0
   76.9130  130.3530  100.2600 C   0  0  0  0  0  0  0  0  0  0  0  0
   76.7130  127.9380   99.9020 C   0  0  0  0  0  0  0  0  0  0  0  0
   74.9670  129.2630   94.9820 N   0  0  0  0  0  0  0  0  0  0  0  0
   73.9190  129.5840   94.0510 C   0  0  2  0  0  0  0  0  0  0  0  0
   73.2900  128.2930   93.5100 C   0  0  0  0  0  0  0  0  0  0  0  0
   73.9920  127.3370   93.2260 O   0  0  0  0  0  0  0  0  0  0  0  0
   74.4250  130.4910   92.9400 C   0  0  0  0  0  0  0  0  0  0  0  0
   73.3810  130.6960   91.8310 C   0  0  0  0  0  0  0  0  0  0  0  0
   74.8850  131.8520   93.5320 C   0  0  0  0  0  0  0  0  0  0  0  0
   71.9690  128.2080   93.5440 N   0  0  0  0  0  0  0  0  0  0  0  0
   71.2500  126.9950   93.1230 C   0  0  0  0  0  0  0  0  0  0  0  0
   70.9760  125.9980   94.2440 C   0  0  0  0  0  0  0  0  0  0  0  0
   70.2940  124.9760   94.0250 O   0  0  0  0  0  0  0  0  0  0  0  0
   71.6370  126.1690   95.3790 N   0  0  0  0  0  0  0  0  0  0  0  0
   71.4320  125.2150   96.4630 C   0  0  0  0  0  0  0  0  0  0  0  0
   78.5374  131.4599   92.9423 H   0  0  0  0  0  0  0  0  0  0  0  0
   80.1755  130.9019   93.1838 H   0  0  0  0  0  0  0  0  0  0  0  0
   79.2555  131.5212   94.5341 H   0  0  0  0  0  0  0  0  0  0  0  0
   80.1773  129.1463   95.2003 H   0  0  0  0  0  0  0  0  0  0  0  0
   78.7417  127.0087   93.9711 H   0  0  0  0  0  0  0  0  0  0  0  0
   80.9824  126.9384   95.3269 H   0  0  0  0  0  0  0  0  0  0  0  0
   79.0004  126.4470   97.4984 H   0  0  0  0  0  0  0  0  0  0  0  0
   80.0508  127.8363   97.3583 H   0  0  0  0  0  0  0  0  0  0  0  0
   80.7321  126.2490   97.6210 H   0  0  0  0  0  0  0  0  0  0  0  0
   79.0637  124.6597   95.5508 H   0  0  0  0  0  0  0  0  0  0  0  0
   80.7988  124.5734   95.7379 H   0  0  0  0  0  0  0  0  0  0  0  0
   80.1071  125.0039   94.1922 H   0  0  0  0  0  0  0  0  0  0  0  0
   77.7868  129.1438   96.4852 H   0  0  0  0  0  0  0  0  0  0  0  0
   75.7458  127.4247   97.4583 H   0  0  0  0  0  0  0  0  0  0  0  0
   74.9322  129.4265   98.6325 H   0  0  0  0  0  0  0  0  0  0  0  0
   76.1147  130.3844   97.6982 H   0  0  0  0  0  0  0  0  0  0  0  0
   77.9179  129.2373   98.7756 H   0  0  0  0  0  0  0  0  0  0  0  0
   75.9538  130.3693  100.7339 H   0  0  0  0  0  0  0  0  0  0  0  0
   77.0858  131.2896   99.7723 H   0  0  0  0  0  0  0  0  0  0  0  0
   77.6719  130.1889  100.9963 H   0  0  0  0  0  0  0  0  0  0  0  0
   75.7456  127.9447  100.3592 H   0  0  0  0  0  0  0  0  0  0  0  0
   77.4604  127.7786  100.6509 H   0  0  0  0  0  0  0  0  0  0  0  0
   76.7599  127.1514   99.1782 H   0  0  0  0  0  0  0  0  0  0  0  0
   75.8883  129.5378   94.7698 H   0  0  0  0  0  0  0  0  0  0  0  0
   73.1553  130.1326   94.5616 H   0  0  0  0  0  0  0  0  0  0  0  0
   75.2633  130.0075   92.4835 H   0  0  0  0  0  0  0  0  0  0  0  0
   72.5177  131.1791   92.2387 H   0  0  0  0  0  0  0  0  0  0  0  0
   73.1002  129.7464   91.4256 H   0  0  0  0  0  0  0  0  0  0  0  0
   73.7982  131.3052   91.0566 H   0  0  0  0  0  0  0  0  0  0  0  0
   74.0513  132.3415   93.9905 H   0  0  0  0  0  0  0  0  0  0  0  0
   75.2739  132.4685   92.7487 H   0  0  0  0  0  0  0  0  0  0  0  0
   75.6465  131.6832   94.2645 H   0  0  0  0  0  0  0  0  0  0  0  0
   71.4505  128.9823   93.8616 H   0  0  0  0  0  0  0  0  0  0  0  0
   71.8353  126.5030   92.3745 H   0  0  0  0  0  0  0  0  0  0  0  0
   70.2950  127.3178   92.7642 H   0  0  0  0  0  0  0  0  0  0  0  0
   72.2558  126.9268   95.4890 H   0  0  0  0  0  0  0  0  0  0  0  0
   70.7291  124.4697   96.1541 H   0  0  0  0  0  0  0  0  0  0  0  0
   71.0536  125.7277   97.3225 H   0  0  0  0  0  0  0  0  0  0  0  0
   72.3629  124.7477   96.7076 H   0  0  0  0  0  0  0  0  0  0  0  0
  1  2  1  0  0  0  0
  1 32  1  0  0  0  0
  1 33  1  0  0  0  0
  1 34  1  0  0  0  0
  2  4  1  0  0  0  0
  3  2  2  0  0  0  0
  4  5  1  0  0  0  0
  4 35  1  0  0  0  0
  5  8  1  0  0  0  0
  5  6  1  0  0  0  0
  5 36  1  6  0  0  0
  6 11  1  0  0  0  0
  7  6  2  0  0  0  0
  8  9  1  0  0  0  0
  8 37  1  0  0  0  0
  9 38  1  0  0  0  0
  9 39  1  0  0  0  0
  9 40  1  0  0  0  0
 10  8  1  0  0  0  0
 10 41  1  0  0  0  0
 10 42  1  0  0  0  0
 10 43  1  0  0  0  0
 11 12  1  0  0  0  0
 11 44  1  0  0  0  0
 12 15  1  0  0  0  0
 12 45  1  1  0  0  0
 13 14  2  0  0  0  0
 13 12  1  0  0  0  0
 15 16  1  0  0  0  0
 15 46  1  0  0  0  0
 15 47  1  0  0  0  0
 16 18  1  0  0  0  0
 16 17  1  0  0  0  0
 16 48  1  0  0  0  0
 17 49  1  0  0  0  0
 17 50  1  0  0  0  0
 17 51  1  0  0  0  0
 18 52  1  0  0  0  0
 18 53  1  0  0  0  0
 18 54  1  0  0  0  0
 19 13  1  0  0  0  0
 19 55  1  0  0  0  0
 20 19  1  0  0  0  0
 20 56  1  1  0  0  0
 21 26  1  0  0  0  0
 21 20  1  0  0  0  0
 22 21  2  0  0  0  0
 23 25  1  0  0  0  0
 23 20  1  0  0  0  0
 23 57  1  0  0  0  0
 24 23  1  0  0  0  0
 24 58  1  0  0  0  0
 24 59  1  0  0  0  0
 24 60  1  0  0  0  0
 25 61  1  0  0  0  0
 25 62  1  0  0  0  0
 25 63  1  0  0  0  0
 26 64  1  0  0  0  0
 27 26  1  0  0  0  0
 27 28  1  0  0  0  0
 27 65  1  0  0  0  0
 27 66  1  0  0  0  0
 28 30  1  0  0  0  0
 29 28  2  0  0  0  0
 30 31  1  0  0  0  0
 30 67  1  0  0  0  0
 31 68  1  0  0  0  0
 31 69  1  0  0  0  0
 31 70  1  0  0  0  0
M  END
>  <MODEL>
       0

$$$$
selected_4mers/VLVG/926_noH.pdb
 OpenBabel03042518353D

 70 69  0  0  1  0  0  0  0  0999 V2000
   26.5530    5.9930   25.9300 C   0  0  0  0  0  0  0  0  0  0  0  0
   26.9900    6.1490   27.3820 C   0  0  0  0  0  0  0  0  0  0  0  0
   27.0630    7.2680   27.9180 O   0  0  0  0  0  0  0  0  0  0  0  0
   27.3120    5.0280   28.0130 N   0  0  0  0  0  0  0  0  0  0  0  0
   27.5750    4.9770   29.4270 C   0  0  2  0  0  0  0  0  0  0  0  0
   29.0190    4.5390   29.7770 C   0  0  0  0  0  0  0  0  0  0  0  0
   29.4810    3.4980   29.3140 O   0  0  0  0  0  0  0  0  0  0  0  0
   26.5800    3.9820   30.1190 C   0  0  0  0  0  0  0  0  0  0  0  0
   26.8090    3.9040   31.6000 C   0  0  0  0  0  0  0  0  0  0  0  0
   25.0960    4.3060   29.7670 C   0  0  0  0  0  0  0  0  0  0  0  0
   29.6810    5.3240   30.6280 N   0  0  0  0  0  0  0  0  0  0  0  0
   30.9620    4.9950   31.2410 C   0  0  2  0  0  0  0  0  0  0  0  0
   30.8150    4.7660   32.7390 C   0  0  0  0  0  0  0  0  0  0  0  0
   30.0660    5.4460   33.3930 O   0  0  0  0  0  0  0  0  0  0  0  0
   31.9860    6.1290   30.9990 C   0  0  0  0  0  0  0  0  0  0  0  0
   32.1740    6.6300   29.5870 C   0  0  0  0  0  0  0  0  0  0  0  0
   33.3230    7.6490   29.5950 C   0  0  0  0  0  0  0  0  0  0  0  0
   32.4840    5.5310   28.6430 C   0  0  0  0  0  0  0  0  0  0  0  0
   31.5330    3.7850   33.2820 N   0  0  0  0  0  0  0  0  0  0  0  0
   31.5430    3.5270   34.7070 C   0  0  2  0  0  0  0  0  0  0  0  0
   32.9490    3.2320   35.2150 C   0  0  0  0  0  0  0  0  0  0  0  0
   33.8200    2.7890   34.4460 O   0  0  0  0  0  0  0  0  0  0  0  0
   30.6820    2.2900   35.1130 C   0  0  0  0  0  0  0  0  0  0  0  0
   29.2390    2.5300   34.7580 C   0  0  0  0  0  0  0  0  0  0  0  0
   31.1970    0.9740   34.4130 C   0  0  0  0  0  0  0  0  0  0  0  0
   33.0950    3.4300   36.5190 N   0  0  0  0  0  0  0  0  0  0  0  0
   34.2800    3.0410   37.2690 C   0  0  0  0  0  0  0  0  0  0  0  0
   35.4690    3.8260   36.7860 C   0  0  0  0  0  0  0  0  0  0  0  0
   35.3630    5.0230   36.6060 O   0  0  0  0  0  0  0  0  0  0  0  0
   36.5860    3.1490   36.5090 N   0  0  0  0  0  0  0  0  0  0  0  0
   37.8110    3.8470   36.0840 C   0  0  0  0  0  0  0  0  0  0  0  0
   26.3188    6.9544   25.5228 H   0  0  0  0  0  0  0  0  0  0  0  0
   25.6876    5.3654   25.8834 H   0  0  0  0  0  0  0  0  0  0  0  0
   27.3459    5.5497   25.3646 H   0  0  0  0  0  0  0  0  0  0  0  0
   27.3738    4.1950   27.4919 H   0  0  0  0  0  0  0  0  0  0  0  0
   27.4447    5.9770   29.7845 H   0  0  0  0  0  0  0  0  0  0  0  0
   26.7829    3.0081   29.7249 H   0  0  0  0  0  0  0  0  0  0  0  0
   26.6176    4.8598   32.0413 H   0  0  0  0  0  0  0  0  0  0  0  0
   27.8231    3.6202   31.7896 H   0  0  0  0  0  0  0  0  0  0  0  0
   26.1496    3.1764   32.0250 H   0  0  0  0  0  0  0  0  0  0  0  0
   24.8439    5.2758   30.1424 H   0  0  0  0  0  0  0  0  0  0  0  0
   24.4557    3.5736   30.2125 H   0  0  0  0  0  0  0  0  0  0  0  0
   24.9700    4.2910   28.7046 H   0  0  0  0  0  0  0  0  0  0  0  0
   29.2743    6.1902   30.8594 H   0  0  0  0  0  0  0  0  0  0  0  0
   31.3121    4.0919   30.7863 H   0  0  0  0  0  0  0  0  0  0  0  0
   31.6812    6.9643   31.5943 H   0  0  0  0  0  0  0  0  0  0  0  0
   32.9296    5.6937   31.2541 H   0  0  0  0  0  0  0  0  0  0  0  0
   31.2615    7.0793   29.2549 H   0  0  0  0  0  0  0  0  0  0  0  0
   34.2202    7.1722   29.9306 H   0  0  0  0  0  0  0  0  0  0  0  0
   33.0797    8.4558   30.2544 H   0  0  0  0  0  0  0  0  0  0  0  0
   33.4697    8.0289   28.6055 H   0  0  0  0  0  0  0  0  0  0  0  0
   33.3937    5.0521   28.9395 H   0  0  0  0  0  0  0  0  0  0  0  0
   32.5958    5.9293   27.6562 H   0  0  0  0  0  0  0  0  0  0  0  0
   31.6863    4.8179   28.6515 H   0  0  0  0  0  0  0  0  0  0  0  0
   32.0772    3.2139   32.6930 H   0  0  0  0  0  0  0  0  0  0  0  0
   31.1406    4.4197   35.1384 H   0  0  0  0  0  0  0  0  0  0  0  0
   30.7726    2.1578   36.1709 H   0  0  0  0  0  0  0  0  0  0  0  0
   29.1492    2.6621   33.7000 H   0  0  0  0  0  0  0  0  0  0  0  0
   28.8901    3.4092   35.2581 H   0  0  0  0  0  0  0  0  0  0  0  0
   28.6519    1.6892   35.0635 H   0  0  0  0  0  0  0  0  0  0  0  0
   31.1170    1.0800   33.3513 H   0  0  0  0  0  0  0  0  0  0  0  0
   30.6036    0.1435   34.7342 H   0  0  0  0  0  0  0  0  0  0  0  0
   32.2197    0.8055   34.6786 H   0  0  0  0  0  0  0  0  0  0  0  0
   32.3592    3.8652   37.0073 H   0  0  0  0  0  0  0  0  0  0  0  0
   34.4628    1.9963   37.1276 H   0  0  0  0  0  0  0  0  0  0  0  0
   34.1223    3.2419   38.3081 H   0  0  0  0  0  0  0  0  0  0  0  0
   36.5907    2.1679   36.5902 H   0  0  0  0  0  0  0  0  0  0  0  0
   37.6276    4.9006   36.0502 H   0  0  0  0  0  0  0  0  0  0  0  0
   38.0983    3.5036   35.1122 H   0  0  0  0  0  0  0  0  0  0  0  0
   38.5972    3.6440   36.7808 H   0  0  0  0  0  0  0  0  0  0  0  0
  1  2  1  0  0  0  0
  1 32  1  0  0  0  0
  1 33  1  0  0  0  0
  1 34  1  0  0  0  0
  2  3  2  0  0  0  0
  2  4  1  0  0  0  0
  4  5  1  0  0  0  0
  4 35  1  0  0  0  0
  5  6  1  0  0  0  0
  5  8  1  0  0  0  0
  5 36  1  1  0  0  0
  6 11  1  0  0  0  0
  7  6  2  0  0  0  0
  8  9  1  0  0  0  0
  8 37  1  0  0  0  0
  9 38  1  0  0  0  0
  9 39  1  0  0  0  0
  9 40  1  0  0  0  0
 10  8  1  0  0  0  0
 10 41  1  0  0  0  0
 10 42  1  0  0  0  0
 10 43  1  0  0  0  0
 11 12  1  0  0  0  0
 11 44  1  0  0  0  0
 12 13  1  0  0  0  0
 12 45  1  6  0  0  0
 13 19  1  0  0  0  0
 13 14  2  0  0  0  0
 15 12  1  0  0  0  0
 15 46  1  0  0  0  0
 15 47  1  0  0  0  0
 16 17  1  0  0  0  0
 16 15  1  0  0  0  0
 16 48  1  0  0  0  0
 17 49  1  0  0  0  0
 17 50  1  0  0  0  0
 17 51  1  0  0  0  0
 18 16  1  0  0  0  0
 18 52  1  0  0  0  0
 18 53  1  0  0  0  0
 18 54  1  0  0  0  0
 19 20  1  0  0  0  0
 19 55  1  0  0  0  0
 20 23  1  0  0  0  0
 20 21  1  0  0  0  0
 20 56  1  1  0  0  0
 21 26  1  0  0  0  0
 22 21  2  0  0  0  0
 23 57  1  0  0  0  0
 24 23  1  0  0  0  0
 24 58  1  0  0  0  0
 24 59  1  0  0  0  0
 24 60  1  0  0  0  0
 25 23  1  0  0  0  0
 25 61  1  0  0  0  0
 25 62  1  0  0  0  0
 25 63  1  0  0  0  0
 26 27  1  0  0  0  0
 26 64  1  0  0  0  0
 27 65  1  0  0  0  0
 27 66  1  0  0  0  0
 28 27  1  0  0  0  0
 29 28  2  0  0  0  0
 30 28  1  0  0  0  0
 30 67  1  0  0  0  0
 31 30  1  0  0  0  0
 31 68  1  0  0  0  0
 31 69  1  0  0  0  0
 31 70  1  0  0  0  0
M  END
>  <MODEL>
       0

$$$$
selected_4mers/VLVG/927_noH.pdb
 OpenBabel03042518353D

 70 69  0  0  1  0  0  0  0  0999 V2000
  -13.1010    0.6500   23.6970 C   0  0  0  0  0  0  0  0  0  0  0  0
  -13.4880   -0.5230   22.7870 C   0  0  0  0  0  0  0  0  0  0  0  0
  -13.5640   -1.6730   23.2440 O   0  0  0  0  0  0  0  0  0  0  0  0
  -13.6890   -0.2340   21.4980 N   0  0  0  0  0  0  0  0  0  0  0  0
  -14.0490   -1.2680   20.5150 C   0  0  2  0  0  0  0  0  0  0  0  0
  -12.9170   -2.2910   20.3520 C   0  0  0  0  0  0  0  0  0  0  0  0
  -13.1490   -3.5040   20.3720 O   0  0  0  0  0  0  0  0  0  0  0  0
  -14.4210   -0.6630   19.1210 C   0  0  0  0  0  0  0  0  0  0  0  0
  -14.7890   -1.7780   18.1390 C   0  0  0  0  0  0  0  0  0  0  0  0
  -15.5720    0.3180   19.2370 C   0  0  0  0  0  0  0  0  0  0  0  0
  -11.6880   -1.7980   20.2170 N   0  0  0  0  0  0  0  0  0  0  0  0
  -10.5350   -2.6800   20.0580 C   0  0  2  0  0  0  0  0  0  0  0  0
  -10.3370   -3.5970   21.2660 C   0  0  0  0  0  0  0  0  0  0  0  0
  -10.0500   -4.7800   21.0990 O   0  0  0  0  0  0  0  0  0  0  0  0
   -9.2630   -1.8660   19.7790 C   0  0  0  0  0  0  0  0  0  0  0  0
   -8.0450   -2.6210   19.2410 C   0  0  0  0  0  0  0  0  0  0  0  0
   -8.3540   -3.3260   17.9050 C   0  0  0  0  0  0  0  0  0  0  0  0
   -6.8720   -1.6620   19.0970 C   0  0  0  0  0  0  0  0  0  0  0  0
  -10.4980   -3.0550   22.4740 N   0  0  0  0  0  0  0  0  0  0  0  0
  -10.3670   -3.8620   23.6940 C   0  0  2  0  0  0  0  0  0  0  0  0
  -11.4480   -4.9480   23.7840 C   0  0  0  0  0  0  0  0  0  0  0  0
  -11.1370   -6.1130   24.0700 O   0  0  0  0  0  0  0  0  0  0  0  0
  -10.3610   -2.9940   24.9780 C   0  0  0  0  0  0  0  0  0  0  0  0
  -10.4990   -3.8760   26.2130 C   0  0  0  0  0  0  0  0  0  0  0  0
   -9.0820   -2.1620   25.0570 C   0  0  0  0  0  0  0  0  0  0  0  0
  -12.7050   -4.5740   23.5370 N   0  0  0  0  0  0  0  0  0  0  0  0
  -13.8120   -5.5400   23.4970 C   0  0  0  0  0  0  0  0  0  0  0  0
  -13.5300   -6.6790   22.5240 C   0  0  0  0  0  0  0  0  0  0  0  0
  -13.7890   -7.8570   22.8170 O   0  0  0  0  0  0  0  0  0  0  0  0
  -12.9990   -6.3220   21.3610 N   0  0  0  0  0  0  0  0  0  0  0  0
  -12.6620   -7.3130   20.3440 C   0  0  0  0  0  0  0  0  0  0  0  0
  -13.0886    1.5551   23.1264 H   0  0  0  0  0  0  0  0  0  0  0  0
  -12.1295    0.4755   24.1101 H   0  0  0  0  0  0  0  0  0  0  0  0
  -13.8150    0.7375   24.4892 H   0  0  0  0  0  0  0  0  0  0  0  0
  -13.5934    0.6985   21.1970 H   0  0  0  0  0  0  0  0  0  0  0  0
  -14.9175   -1.7611   20.8990 H   0  0  0  0  0  0  0  0  0  0  0  0
  -13.5647   -0.1363   18.7545 H   0  0  0  0  0  0  0  0  0  0  0  0
  -15.6452   -2.3061   18.5036 H   0  0  0  0  0  0  0  0  0  0  0  0
  -13.9661   -2.4553   18.0437 H   0  0  0  0  0  0  0  0  0  0  0  0
  -15.0129   -1.3520   17.1833 H   0  0  0  0  0  0  0  0  0  0  0  0
  -16.4391   -0.1912   19.6028 H   0  0  0  0  0  0  0  0  0  0  0  0
  -15.7830    0.7357   18.2747 H   0  0  0  0  0  0  0  0  0  0  0  0
  -15.3058    1.1015   19.9153 H   0  0  0  0  0  0  0  0  0  0  0  0
  -11.5541   -0.8227   20.2245 H   0  0  0  0  0  0  0  0  0  0  0  0
  -10.7328   -3.3085   19.2149 H   0  0  0  0  0  0  0  0  0  0  0  0
   -9.5153   -1.1125   19.0624 H   0  0  0  0  0  0  0  0  0  0  0  0
   -8.9566   -1.5017   20.7373 H   0  0  0  0  0  0  0  0  0  0  0  0
   -7.7858   -3.3868   19.9419 H   0  0  0  0  0  0  0  0  0  0  0  0
   -8.6197   -2.5957   17.1695 H   0  0  0  0  0  0  0  0  0  0  0  0
   -9.1676   -4.0075   18.0412 H   0  0  0  0  0  0  0  0  0  0  0  0
   -7.4891   -3.8640   17.5773 H   0  0  0  0  0  0  0  0  0  0  0  0
   -7.1240   -0.8928   18.3971 H   0  0  0  0  0  0  0  0  0  0  0  0
   -6.0148   -2.1972   18.7454 H   0  0  0  0  0  0  0  0  0  0  0  0
   -6.6525   -1.2217   20.0472 H   0  0  0  0  0  0  0  0  0  0  0  0
  -10.7085   -2.0962   22.5492 H   0  0  0  0  0  0  0  0  0  0  0  0
   -9.4154   -4.3465   23.6261 H   0  0  0  0  0  0  0  0  0  0  0  0
  -11.1959   -2.3259   24.9401 H   0  0  0  0  0  0  0  0  0  0  0  0
   -9.6698   -4.5503   26.2642 H   0  0  0  0  0  0  0  0  0  0  0  0
  -11.4097   -4.4345   26.1525 H   0  0  0  0  0  0  0  0  0  0  0  0
  -10.5144   -3.2625   27.0895 H   0  0  0  0  0  0  0  0  0  0  0  0
   -8.2343   -2.8138   25.0957 H   0  0  0  0  0  0  0  0  0  0  0  0
   -9.1054   -1.5546   25.9376 H   0  0  0  0  0  0  0  0  0  0  0  0
   -9.0105   -1.5349   24.1930 H   0  0  0  0  0  0  0  0  0  0  0  0
  -12.8967   -3.6218   23.3766 H   0  0  0  0  0  0  0  0  0  0  0  0
  -13.9527   -5.9472   24.4764 H   0  0  0  0  0  0  0  0  0  0  0  0
  -14.6908   -5.0274   23.1655 H   0  0  0  0  0  0  0  0  0  0  0  0
  -12.8290   -5.3692   21.1808 H   0  0  0  0  0  0  0  0  0  0  0  0
  -12.9103   -8.2902   20.7022 H   0  0  0  0  0  0  0  0  0  0  0  0
  -11.6140   -7.2659   20.1335 H   0  0  0  0  0  0  0  0  0  0  0  0
  -13.2147   -7.1095   19.4507 H   0  0  0  0  0  0  0  0  0  0  0  0
  1 32  1  0  0  0  0
  1 33  1  0  0  0  0
  1 34  1  0  0  0  0
  2  3  2  0  0  0  0
  2  1  1  0  0  0  0
  4  2  1  0  0  0  0
  4 35  1  0  0  0  0
  5  4  1  0  0  0  0
  5 36  1  1  0  0  0
  6  7  2  0  0  0  0
  6  5  1  0  0  0  0
  8 10  1  0  0  0  0
  8  5  1  0  0  0  0
  8 37  1  0  0  0  0
  9  8  1  0  0  0  0
  9 38  1  0  0  0  0
  9 39  1  0  0  0  0
  9 40  1  0  0  0  0
 10 41  1  0  0  0  0
 10 42  1  0  0  0  0
 10 43  1  0  0  0  0
 11  6  1  0  0  0  0
 11 44  1  0  0  0  0
 12 11  1  0  0  0  0
 12 13  1  0  0  0  0
 12 45  1  6  0  0  0
 13 19  1  0  0  0  0
 14 13  2  0  0  0  0
 15 12  1  0  0  0  0
 15 46  1  0  0  0  0
 15 47  1  0  0  0  0
 16 15  1  0  0  0  0
 16 48  1  0  0  0  0
 17 16  1  0  0  0  0
 17 49  1  0  0  0  0
 17 50  1  0  0  0  0
 17 51  1  0  0  0  0
 18 16  1  0  0  0  0
 18 52  1  0  0  0  0
 18 53  1  0  0  0  0
 18 54  1  0  0  0  0
 19 20  1  0  0  0  0
 19 55  1  0  0  0  0
 20 21  1  0  0  0  0
 20 23  1  0  0  0  0
 20 56  1  6  0  0  0
 21 22  2  0  0  0  0
 23 25  1  0  0  0  0
 23 24  1  0  0  0  0
 23 57  1  0  0  0  0
 24 58  1  0  0  0  0
 24 59  1  0  0  0  0
 24 60  1  0  0  0  0
 25 61  1  0  0  0  0
 25 62  1  0  0  0  0
 25 63  1  0  0  0  0
 26 21  1  0  0  0  0
 26 64  1  0  0  0  0
 27 26  1  0  0  0  0
 27 65  1  0  0  0  0
 27 66  1  0  0  0  0
 28 29  2  0  0  0  0
 28 27  1  0  0  0  0
 30 28  1  0  0  0  0
 30 67  1  0  0  0  0
 31 30  1  0  0  0  0
 31 68  1  0  0  0  0
 31 69  1  0  0  0  0
 31 70  1  0  0  0  0
M  END
>  <MODEL>
       0

$$$$
selected_4mers/VLVG/928_noH.pdb
 OpenBabel03042518353D

 70 69  0  0  1  0  0  0  0  0999 V2000
  -14.8690   17.6150   10.1740 C   0  0  0  0  0  0  0  0  0  0  0  0
  -15.1440   16.9300   11.5060 C   0  0  0  0  0  0  0  0  0  0  0  0
  -15.0770   17.5510   12.5690 O   0  0  0  0  0  0  0  0  0  0  0  0
  -15.4960   15.6550   11.4180 N   0  0  0  0  0  0  0  0  0  0  0  0
  -15.7660   14.8460   12.5930 C   0  0  2  0  0  0  0  0  0  0  0  0
  -14.8240   13.6640   12.5770 C   0  0  0  0  0  0  0  0  0  0  0  0
  -14.6680   12.9940   11.5460 O   0  0  0  0  0  0  0  0  0  0  0  0
  -17.2440   14.3410   12.5890 C   0  0  0  0  0  0  0  0  0  0  0  0
  -17.5040   13.4670   13.7970 C   0  0  0  0  0  0  0  0  0  0  0  0
  -18.2210   15.5410   12.5710 C   0  0  0  0  0  0  0  0  0  0  0  0
  -14.1780   13.4370   13.7140 N   0  0  0  0  0  0  0  0  0  0  0  0
  -13.3380   12.2690   13.9130 C   0  0  2  0  0  0  0  0  0  0  0  0
  -14.1480   11.2080   14.6390 C   0  0  0  0  0  0  0  0  0  0  0  0
  -14.8580   11.5090   15.6060 O   0  0  0  0  0  0  0  0  0  0  0  0
  -12.1050   12.6390   14.7480 C   0  0  0  0  0  0  0  0  0  0  0  0
  -11.2850   13.8330   14.2590 C   0  0  0  0  0  0  0  0  0  0  0  0
  -10.1100   14.0930   15.1890 C   0  0  0  0  0  0  0  0  0  0  0  0
  -10.7860   13.6190   12.8290 C   0  0  0  0  0  0  0  0  0  0  0  0
  -14.0480    9.9760   14.1590 N   0  0  0  0  0  0  0  0  0  0  0  0
  -14.7610    8.8670   14.7550 C   0  0  2  0  0  0  0  0  0  0  0  0
  -13.7660    7.8350   15.2690 C   0  0  0  0  0  0  0  0  0  0  0  0
  -12.9390    7.3060   14.5230 O   0  0  0  0  0  0  0  0  0  0  0  0
  -15.7450    8.2240   13.7660 C   0  0  0  0  0  0  0  0  0  0  0  0
  -16.5360    7.1360   14.4610 C   0  0  0  0  0  0  0  0  0  0  0  0
  -16.6850    9.2650   13.1890 C   0  0  0  0  0  0  0  0  0  0  0  0
  -13.8650    7.5340   16.5490 N   0  0  0  0  0  0  0  0  0  0  0  0
  -12.8850    6.6670   17.1840 C   0  0  0  0  0  0  0  0  0  0  0  0
  -13.1980    6.5470   18.6540 C   0  0  0  0  0  0  0  0  0  0  0  0
  -14.1130    7.2340   19.1580 O   0  0  0  0  0  0  0  0  0  0  0  0
  -12.4620    5.6710   19.3470 N   0  0  0  0  0  0  0  0  0  0  0  0
  -12.6370    5.4990   20.7770 C   0  0  0  0  0  0  0  0  0  0  0  0
  -14.9789   16.9069    9.3794 H   0  0  0  0  0  0  0  0  0  0  0  0
  -13.8715   18.0022   10.1713 H   0  0  0  0  0  0  0  0  0  0  0  0
  -15.5633   18.4172   10.0354 H   0  0  0  0  0  0  0  0  0  0  0  0
  -15.5769   15.2435   10.5273 H   0  0  0  0  0  0  0  0  0  0  0  0
  -15.6190   15.4338   13.4749 H   0  0  0  0  0  0  0  0  0  0  0  0
  -17.4042   13.7578   11.7063 H   0  0  0  0  0  0  0  0  0  0  0  0
  -17.3479   14.0363   14.6894 H   0  0  0  0  0  0  0  0  0  0  0  0
  -16.8341   12.6327   13.7844 H   0  0  0  0  0  0  0  0  0  0  0  0
  -18.5138   13.1141   13.7712 H   0  0  0  0  0  0  0  0  0  0  0  0
  -18.0729   16.1347   13.4487 H   0  0  0  0  0  0  0  0  0  0  0  0
  -19.2283   15.1806   12.5500 H   0  0  0  0  0  0  0  0  0  0  0  0
  -18.0374   16.1374   11.7018 H   0  0  0  0  0  0  0  0  0  0  0  0
  -14.2717   14.0844   14.4498 H   0  0  0  0  0  0  0  0  0  0  0  0
  -13.0083   11.8973   12.9653 H   0  0  0  0  0  0  0  0  0  0  0  0
  -11.4583   11.7868   14.7686 H   0  0  0  0  0  0  0  0  0  0  0  0
  -12.4867   12.9295   15.7044 H   0  0  0  0  0  0  0  0  0  0  0  0
  -11.9270   14.6890   14.2630 H   0  0  0  0  0  0  0  0  0  0  0  0
   -9.4619   13.2416   15.1915 H   0  0  0  0  0  0  0  0  0  0  0  0
  -10.4720   14.2686   16.1805 H   0  0  0  0  0  0  0  0  0  0  0  0
   -9.5695   14.9517   14.8493 H   0  0  0  0  0  0  0  0  0  0  0  0
  -10.1405   12.7661   12.8004 H   0  0  0  0  0  0  0  0  0  0  0  0
  -10.2471   14.4851   12.5059 H   0  0  0  0  0  0  0  0  0  0  0  0
  -11.6213   13.4561   12.1804 H   0  0  0  0  0  0  0  0  0  0  0  0
  -13.4735    9.8116   13.3766 H   0  0  0  0  0  0  0  0  0  0  0  0
  -15.3376    9.2431   15.5741 H   0  0  0  0  0  0  0  0  0  0  0  0
  -15.1862    7.7936   12.9614 H   0  0  0  0  0  0  0  0  0  0  0  0
  -17.0966    7.5619   15.2667 H   0  0  0  0  0  0  0  0  0  0  0  0
  -15.8645    6.3969   14.8453 H   0  0  0  0  0  0  0  0  0  0  0  0
  -17.2059    6.6803   13.7621 H   0  0  0  0  0  0  0  0  0  0  0  0
  -17.2544    9.7084   13.9790 H   0  0  0  0  0  0  0  0  0  0  0  0
  -17.3476    8.7989   12.4900 H   0  0  0  0  0  0  0  0  0  0  0  0
  -16.1162   10.0221   12.6909 H   0  0  0  0  0  0  0  0  0  0  0  0
  -14.6092    7.8996   17.0798 H   0  0  0  0  0  0  0  0  0  0  0  0
  -11.9071    7.0834   17.0604 H   0  0  0  0  0  0  0  0  0  0  0  0
  -12.9198    5.6980   16.7316 H   0  0  0  0  0  0  0  0  0  0  0  0
  -11.7866    5.1310   18.8763 H   0  0  0  0  0  0  0  0  0  0  0  0
  -13.4052    6.1580   21.1241 H   0  0  0  0  0  0  0  0  0  0  0  0
  -11.7193    5.7255   21.2784 H   0  0  0  0  0  0  0  0  0  0  0  0
  -12.9156    4.4867   20.9830 H   0  0  0  0  0  0  0  0  0  0  0  0
  1  2  1  0  0  0  0
  1 32  1  0  0  0  0
  1 33  1  0  0  0  0
  1 34  1  0  0  0  0
  2  3  2  0  0  0  0
  4  2  1  0  0  0  0
  4  5  1  0  0  0  0
  4 35  1  0  0  0  0
  5 36  1  1  0  0  0
  6  5  1  0  0  0  0
  6 11  1  0  0  0  0
  7  6  2  0  0  0  0
  8  5  1  0  0  0  0
  8  9  1  0  0  0  0
  8 37  1  0  0  0  0
  9 38  1  0  0  0  0
  9 39  1  0  0  0  0
  9 40  1  0  0  0  0
 10  8  1  0  0  0  0
 10 41  1  0  0  0  0
 10 42  1  0  0  0  0
 10 43  1  0  0  0  0
 11 12  1  0  0  0  0
 11 44  1  0  0  0  0
 12 13  1  0  0  0  0
 12 15  1  0  0  0  0
 12 45  1  6  0  0  0
 13 14  2  0  0  0  0
 15 46  1  0  0  0  0
 15 47  1  0  0  0  0
 16 15  1  0  0  0  0
 16 17  1  0  0  0  0
 16 48  1  0  0  0  0
 17 49  1  0  0  0  0
 17 50  1  0  0  0  0
 17 51  1  0  0  0  0
 18 16  1  0  0  0  0
 18 52  1  0  0  0  0
 18 53  1  0  0  0  0
 18 54  1  0  0  0  0
 19 13  1  0  0  0  0
 19 20  1  0  0  0  0
 19 55  1  0  0  0  0
 20 21  1  0  0  0  0
 20 56  1  1  0  0  0
 21 26  1  0  0  0  0
 22 21  2  0  0  0  0
 23 24  1  0  0  0  0
 23 20  1  0  0  0  0
 23 57  1  0  0  0  0
 24 58  1  0  0  0  0
 24 59  1  0  0  0  0
 24 60  1  0  0  0  0
 25 23  1  0  0  0  0
 25 61  1  0  0  0  0
 25 62  1  0  0  0  0
 25 63  1  0  0  0  0
 26 27  1  0  0  0  0
 26 64  1  0  0  0  0
 27 28  1  0  0  0  0
 27 65  1  0  0  0  0
 27 66  1  0  0  0  0
 28 29  2  0  0  0  0
 28 30  1  0  0  0  0
 30 31  1  0  0  0  0
 30 67  1  0  0  0  0
 31 68  1  0  0  0  0
 31 69  1  0  0  0  0
 31 70  1  0  0  0  0
M  END
>  <MODEL>
       0

$$$$
selected_4mers/VLVG/929_noH.pdb
 OpenBabel03042518353D

 70 69  0  0  1  0  0  0  0  0999 V2000
  -15.6500   43.4940  -10.8620 C   0  0  0  0  0  0  0  0  0  0  0  0
  -14.7990   43.4010   -9.6130 C   0  0  0  0  0  0  0  0  0  0  0  0
  -13.5920   43.1460   -9.6890 O   0  0  0  0  0  0  0  0  0  0  0  0
  -15.4060   43.5990   -8.4400 N   0  0  0  0  0  0  0  0  0  0  0  0
  -14.6970   43.4400   -7.1970 C   0  0  2  0  0  0  0  0  0  0  0  0
  -14.3500   41.9700   -6.9720 C   0  0  0  0  0  0  0  0  0  0  0  0
  -13.2390   41.6780   -6.5330 O   0  0  0  0  0  0  0  0  0  0  0  0
  -15.5410   44.0020   -6.0310 C   0  0  0  0  0  0  0  0  0  0  0  0
  -14.9080   43.6900   -4.6810 C   0  0  0  0  0  0  0  0  0  0  0  0
  -15.6820   45.5280   -6.1640 C   0  0  0  0  0  0  0  0  0  0  0  0
  -15.2830   41.0620   -7.2670 N   0  0  0  0  0  0  0  0  0  0  0  0
  -14.9730   39.6270   -7.0290 C   0  0  2  0  0  0  0  0  0  0  0  0
  -13.7430   39.1880   -7.8250 C   0  0  0  0  0  0  0  0  0  0  0  0
  -12.8980   38.4580   -7.2630 O   0  0  0  0  0  0  0  0  0  0  0  0
  -16.1540   38.7300   -7.3660 C   0  0  0  0  0  0  0  0  0  0  0  0
  -17.3200   38.8470   -6.3650 C   0  0  0  0  0  0  0  0  0  0  0  0
  -18.5460   38.1670   -6.9850 C   0  0  0  0  0  0  0  0  0  0  0  0
  -16.9340   38.1920   -5.0480 C   0  0  0  0  0  0  0  0  0  0  0  0
  -13.6770   39.5990   -9.1030 N   0  0  0  0  0  0  0  0  0  0  0  0
  -12.6100   39.0790  -10.0130 C   0  0  2  0  0  0  0  0  0  0  0  0
  -11.4460   40.0370  -10.2180 C   0  0  0  0  0  0  0  0  0  0  0  0
  -10.4910   39.6950  -10.9370 O   0  0  0  0  0  0  0  0  0  0  0  0
  -13.1720   38.5770  -11.3520 C   0  0  0  0  0  0  0  0  0  0  0  0
  -14.2030   37.4670  -11.0820 C   0  0  0  0  0  0  0  0  0  0  0  0
  -13.7390   39.7280  -12.1910 C   0  0  0  0  0  0  0  0  0  0  0  0
  -11.4910   41.1980   -9.5680 N   0  0  0  0  0  0  0  0  0  0  0  0
  -10.5250   42.2640   -9.8290 C   0  0  0  0  0  0  0  0  0  0  0  0
   -9.1350   42.0400   -9.2740 C   0  0  0  0  0  0  0  0  0  0  0  0
   -8.9300   41.1460   -8.4320 O   0  0  0  0  0  0  0  0  0  0  0  0
   -8.1840   42.8520   -9.7090 N   0  0  0  0  0  0  0  0  0  0  0  0
   -6.7940   42.6340   -9.3050 C   0  0  0  0  0  0  0  0  0  0  0  0
  -15.0404   43.3154  -11.7230 H   0  0  0  0  0  0  0  0  0  0  0  0
  -16.0821   44.4707  -10.9273 H   0  0  0  0  0  0  0  0  0  0  0  0
  -16.4289   42.7616  -10.8183 H   0  0  0  0  0  0  0  0  0  0  0  0
  -16.3556   43.8584   -8.4250 H   0  0  0  0  0  0  0  0  0  0  0  0
  -13.7811   43.9914   -7.2406 H   0  0  0  0  0  0  0  0  0  0  0  0
  -16.5020   43.5342   -6.0809 H   0  0  0  0  0  0  0  0  0  0  0  0
  -13.9458   44.1543   -4.6224 H   0  0  0  0  0  0  0  0  0  0  0  0
  -14.8001   42.6309   -4.5739 H   0  0  0  0  0  0  0  0  0  0  0  0
  -15.5335   44.0657   -3.8984 H   0  0  0  0  0  0  0  0  0  0  0  0
  -14.7142   45.9815   -6.1124 H   0  0  0  0  0  0  0  0  0  0  0  0
  -16.2932   45.9004   -5.3686 H   0  0  0  0  0  0  0  0  0  0  0  0
  -16.1366   45.7636   -7.1035 H   0  0  0  0  0  0  0  0  0  0  0  0
  -16.1550   41.3356   -7.6332 H   0  0  0  0  0  0  0  0  0  0  0  0
  -14.7637   39.5251   -5.9846 H   0  0  0  0  0  0  0  0  0  0  0  0
  -15.8163   37.7147   -7.3755 H   0  0  0  0  0  0  0  0  0  0  0  0
  -16.5251   39.0431   -8.3195 H   0  0  0  0  0  0  0  0  0  0  0  0
  -17.5473   39.8727   -6.1622 H   0  0  0  0  0  0  0  0  0  0  0  0
  -18.3201   37.1411   -7.1884 H   0  0  0  0  0  0  0  0  0  0  0  0
  -18.8056   38.6626   -7.8971 H   0  0  0  0  0  0  0  0  0  0  0  0
  -19.3680   38.2226   -6.3023 H   0  0  0  0  0  0  0  0  0  0  0  0
  -16.6999   37.1617   -5.2172 H   0  0  0  0  0  0  0  0  0  0  0  0
  -17.7511   38.2639   -4.3609 H   0  0  0  0  0  0  0  0  0  0  0  0
  -16.0794   38.6895   -4.6392 H   0  0  0  0  0  0  0  0  0  0  0  0
  -14.3358   40.2470   -9.4426 H   0  0  0  0  0  0  0  0  0  0  0  0
  -12.2025   38.2349   -9.4969 H   0  0  0  0  0  0  0  0  0  0  0  0
  -12.3807   38.1589  -11.9385 H   0  0  0  0  0  0  0  0  0  0  0  0
  -15.0064   37.8614  -10.4955 H   0  0  0  0  0  0  0  0  0  0  0  0
  -13.7335   36.6657  -10.5507 H   0  0  0  0  0  0  0  0  0  0  0  0
  -14.5861   37.1021  -12.0121 H   0  0  0  0  0  0  0  0  0  0  0  0
  -14.5417   40.1951  -11.6595 H   0  0  0  0  0  0  0  0  0  0  0  0
  -14.1025   39.3455  -13.1218 H   0  0  0  0  0  0  0  0  0  0  0  0
  -12.9686   40.4468  -12.3772 H   0  0  0  0  0  0  0  0  0  0  0  0
  -12.1935   41.3426   -8.8936 H   0  0  0  0  0  0  0  0  0  0  0  0
  -10.9082   43.1669   -9.4014 H   0  0  0  0  0  0  0  0  0  0  0  0
  -10.4120   42.3015  -10.8924 H   0  0  0  0  0  0  0  0  0  0  0  0
   -8.4117   43.6024  -10.3042 H   0  0  0  0  0  0  0  0  0  0  0  0
   -6.7389   41.7797   -8.6631 H   0  0  0  0  0  0  0  0  0  0  0  0
   -6.4349   43.4962   -8.7829 H   0  0  0  0  0  0  0  0  0  0  0  0
   -6.1921   42.4668  -10.1737 H   0  0  0  0  0  0  0  0  0  0  0  0
  1  2  1  0  0  0  0
  1 32  1  0  0  0  0
  1 33  1  0  0  0  0
  1 34  1  0  0  0  0
  2  4  1  0  0  0  0
  3  2  2  0  0  0  0
  4  5  1  0  0  0  0
  4 35  1  0  0  0  0
  5  6  1  0  0  0  0
  5  8  1  0  0  0  0
  5 36  1  6  0  0  0
  6  7  2  0  0  0  0
  8  9  1  0  0  0  0
  8 37  1  0  0  0  0
  9 38  1  0  0  0  0
  9 39  1  0  0  0  0
  9 40  1  0  0  0  0
 10  8  1  0  0  0  0
 10 41  1  0  0  0  0
 10 42  1  0  0  0  0
 10 43  1  0  0  0  0
 11 12  1  0  0  0  0
 11  6  1  0  0  0  0
 11 44  1  0  0  0  0
 12 45  1  1  0  0  0
 13 14  2  0  0  0  0
 13 12  1  0  0  0  0
 15 12  1  0  0  0  0
 15 16  1  0  0  0  0
 15 46  1  0  0  0  0
 15 47  1  0  0  0  0
 16 18  1  0  0  0  0
 16 48  1  0  0  0  0
 17 16  1  0  0  0  0
 17 49  1  0  0  0  0
 17 50  1  0  0  0  0
 17 51  1  0  0  0  0
 18 52  1  0  0  0  0
 18 53  1  0  0  0  0
 18 54  1  0  0  0  0
 19 13  1  0  0  0  0
 19 55  1  0  0  0  0
 20 19  1  0  0  0  0
 20 56  1  1  0  0  0
 21 20  1  0  0  0  0
 21 26  1  0  0  0  0
 22 21  2  0  0  0  0
 23 24  1  0  0  0  0
 23 20  1  0  0  0  0
 23 57  1  0  0  0  0
 24 58  1  0  0  0  0
 24 59  1  0  0  0  0
 24 60  1  0  0  0  0
 25 23  1  0  0  0  0
 25 61  1  0  0  0  0
 25 62  1  0  0  0  0
 25 63  1  0  0  0  0
 26 64  1  0  0  0  0
 27 26  1  0  0  0  0
 27 28  1  0  0  0  0
 27 65  1  0  0  0  0
 27 66  1  0  0  0  0
 28 29  2  0  0  0  0
 30 31  1  0  0  0  0
 30 28  1  0  0  0  0
 30 67  1  0  0  0  0
 31 68  1  0  0  0  0
 31 69  1  0  0  0  0
 31 70  1  0  0  0  0
M  END
>  <MODEL>
       0

$$$$
