selected_4mers/VLVV/930_noH.pdb
 OpenBabel03042518353D

 79 78  0  0  1  0  0  0  0  0999 V2000
    9.8220   40.7520   42.7640 C   0  0  0  0  0  0  0  0  0  0  0  0
   10.6390   39.5430   43.1920 C   0  0  0  0  0  0  0  0  0  0  0  0
   10.9680   38.6770   42.3640 O   0  0  0  0  0  0  0  0  0  0  0  0
   10.9520   39.4630   44.4900 N   0  0  0  0  0  0  0  0  0  0  0  0
   11.6000   38.2530   45.0450 C   0  0  2  0  0  0  0  0  0  0  0  0
   10.6880   37.0370   44.8160 C   0  0  0  0  0  0  0  0  0  0  0  0
   11.1690   35.9790   44.3600 O   0  0  0  0  0  0  0  0  0  0  0  0
   11.9650   38.4040   46.5420 C   0  0  0  0  0  0  0  0  0  0  0  0
   12.4070   37.0390   47.1310 C   0  0  0  0  0  0  0  0  0  0  0  0
   13.0660   39.4720   46.6960 C   0  0  0  0  0  0  0  0  0  0  0  0
    9.3880   37.2020   45.0680 N   0  0  0  0  0  0  0  0  0  0  0  0
    8.4550   36.0880   44.8240 C   0  0  2  0  0  0  0  0  0  0  0  0
    8.5290   35.6650   43.3570 C   0  0  0  0  0  0  0  0  0  0  0  0
    8.5510   34.4660   43.0580 O   0  0  0  0  0  0  0  0  0  0  0  0
    7.0320   36.4940   45.1620 C   0  0  0  0  0  0  0  0  0  0  0  0
    5.9410   35.5070   44.7440 C   0  0  0  0  0  0  0  0  0  0  0  0
    6.1590   34.1450   45.4390 C   0  0  0  0  0  0  0  0  0  0  0  0
    4.6010   36.0890   45.1150 C   0  0  0  0  0  0  0  0  0  0  0  0
    8.5650   36.6290   42.4410 N   0  0  0  0  0  0  0  0  0  0  0  0
    8.6410   36.3320   40.9970 C   0  0  2  0  0  0  0  0  0  0  0  0
    9.9000   35.4970   40.7110 C   0  0  0  0  0  0  0  0  0  0  0  0
    9.8520   34.4910   39.9620 O   0  0  0  0  0  0  0  0  0  0  0  0
    8.5520   37.6150   40.1300 C   0  0  0  0  0  0  0  0  0  0  0  0
    8.9380   37.3130   38.6800 C   0  0  0  0  0  0  0  0  0  0  0  0
    7.1440   38.1730   40.1660 C   0  0  0  0  0  0  0  0  0  0  0  0
   11.0170   35.9050   41.2900 N   0  0  0  0  0  0  0  0  0  0  0  0
   12.2810   35.1870   41.0920 C   0  0  2  0  0  0  0  0  0  0  0  0
   12.1770   33.7650   41.6370 C   0  0  0  0  0  0  0  0  0  0  0  0
   12.7050   32.8320   41.0160 O   0  0  0  0  0  0  0  0  0  0  0  0
   13.4750   35.9650   41.7090 C   0  0  0  0  0  0  0  0  0  0  0  0
   14.7580   35.1300   41.6880 C   0  0  0  0  0  0  0  0  0  0  0  0
   13.6770   37.3020   40.9710 C   0  0  0  0  0  0  0  0  0  0  0  0
   11.5090   33.6020   42.7770 N   0  0  0  0  0  0  0  0  0  0  0  0
   11.3130   32.2650   43.3730 C   0  0  0  0  0  0  0  0  0  0  0  0
    9.6370   40.7029   41.7113 H   0  0  0  0  0  0  0  0  0  0  0  0
   10.3639   41.6466   42.9895 H   0  0  0  0  0  0  0  0  0  0  0  0
    8.8903   40.7572   43.2901 H   0  0  0  0  0  0  0  0  0  0  0  0
   10.7484   40.2202   45.0853 H   0  0  0  0  0  0  0  0  0  0  0  0
   12.5262   38.1089   44.5290 H   0  0  0  0  0  0  0  0  0  0  0  0
   11.1046   38.7250   47.0911 H   0  0  0  0  0  0  0  0  0  0  0  0
   13.2687   36.6855   46.6043 H   0  0  0  0  0  0  0  0  0  0  0  0
   11.6109   36.3315   47.0280 H   0  0  0  0  0  0  0  0  0  0  0  0
   12.6463   37.1583   48.1670 H   0  0  0  0  0  0  0  0  0  0  0  0
   13.9362   39.1681   46.1526 H   0  0  0  0  0  0  0  0  0  0  0  0
   13.3127   39.5832   47.7312 H   0  0  0  0  0  0  0  0  0  0  0  0
   12.7133   40.4060   46.3111 H   0  0  0  0  0  0  0  0  0  0  0  0
    9.0549   38.0613   45.4142 H   0  0  0  0  0  0  0  0  0  0  0  0
    8.7359   35.2680   45.4514 H   0  0  0  0  0  0  0  0  0  0  0  0
    6.9702   36.6218   46.2225 H   0  0  0  0  0  0  0  0  0  0  0  0
    6.8446   37.3877   44.6042 H   0  0  0  0  0  0  0  0  0  0  0  0
    5.9786   35.3439   43.6872 H   0  0  0  0  0  0  0  0  0  0  0  0
    6.1265   34.2769   46.5003 H   0  0  0  0  0  0  0  0  0  0  0  0
    7.1127   33.7497   45.1578 H   0  0  0  0  0  0  0  0  0  0  0  0
    5.3889   33.4649   45.1403 H   0  0  0  0  0  0  0  0  0  0  0  0
    4.5633   36.2522   46.1718 H   0  0  0  0  0  0  0  0  0  0  0  0
    3.8256   35.4084   44.8313 H   0  0  0  0  0  0  0  0  0  0  0  0
    4.4629   37.0196   44.6053 H   0  0  0  0  0  0  0  0  0  0  0  0
    8.5402   37.5683   42.7348 H   0  0  0  0  0  0  0  0  0  0  0  0
    7.7885   35.7492   40.7170 H   0  0  0  0  0  0  0  0  0  0  0  0
    9.2333   38.3362   40.5307 H   0  0  0  0  0  0  0  0  0  0  0  0
    8.2601   36.5920   38.2732 H   0  0  0  0  0  0  0  0  0  0  0  0
    9.9339   36.9230   38.6499 H   0  0  0  0  0  0  0  0  0  0  0  0
    8.8898   38.2130   38.1032 H   0  0  0  0  0  0  0  0  0  0  0  0
    6.4638   37.4509   39.7650 H   0  0  0  0  0  0  0  0  0  0  0  0
    7.0999   39.0678   39.5810 H   0  0  0  0  0  0  0  0  0  0  0  0
    6.8738   38.3944   41.1774 H   0  0  0  0  0  0  0  0  0  0  0  0
   10.9999   36.7047   41.8640 H   0  0  0  0  0  0  0  0  0  0  0  0
   12.4710   35.1175   40.0413 H   0  0  0  0  0  0  0  0  0  0  0  0
   13.2444   36.1704   42.7335 H   0  0  0  0  0  0  0  0  0  0  0  0
   15.0203   34.9046   40.6754 H   0  0  0  0  0  0  0  0  0  0  0  0
   14.5996   34.2191   42.2266 H   0  0  0  0  0  0  0  0  0  0  0  0
   15.5508   35.6827   42.1472 H   0  0  0  0  0  0  0  0  0  0  0  0
   13.9085   37.1110   39.9439 H   0  0  0  0  0  0  0  0  0  0  0  0
   14.4826   37.8412   41.4239 H   0  0  0  0  0  0  0  0  0  0  0  0
   12.7802   37.8824   41.0325 H   0  0  0  0  0  0  0  0  0  0  0  0
   11.1370   34.3911   43.2333 H   0  0  0  0  0  0  0  0  0  0  0  0
   11.7774   31.5267   42.7532 H   0  0  0  0  0  0  0  0  0  0  0  0
   10.2659   32.0588   43.4498 H   0  0  0  0  0  0  0  0  0  0  0  0
   11.7537   32.2409   44.3477 H   0  0  0  0  0  0  0  0  0  0  0  0
  1  2  1  0  0  0  0
  1 35  1  0  0  0  0
  1 36  1  0  0  0  0
  1 37  1  0  0  0  0
  2  4  1  0  0  0  0
  3  2  2  0  0  0  0
  4  5  1  0  0  0  0
  4 38  1  0  0  0  0
  5  8  1  0  0  0  0
  5 39  1  6  0  0  0
  6  5  1  0  0  0  0
  6 11  1  0  0  0  0
  7  6  2  0  0  0  0
  8 10  1  0  0  0  0
  8  9  1  0  0  0  0
  8 40  1  0  0  0  0
  9 41  1  0  0  0  0
  9 42  1  0  0  0  0
  9 43  1  0  0  0  0
 10 44  1  0  0  0  0
 10 45  1  0  0  0  0
 10 46  1  0  0  0  0
 11 47  1  0  0  0  0
 12 11  1  0  0  0  0
 12 15  1  0  0  0  0
 12 48  1  1  0  0  0
 13 12  1  0  0  0  0
 14 13  2  0  0  0  0
 15 49  1  0  0  0  0
 15 50  1  0  0  0  0
 16 18  1  0  0  0  0
 16 15  1  0  0  0  0
 16 17  1  0  0  0  0
 16 51  1  0  0  0  0
 17 52  1  0  0  0  0
 17 53  1  0  0  0  0
 17 54  1  0  0  0  0
 18 55  1  0  0  0  0
 18 56  1  0  0  0  0
 18 57  1  0  0  0  0
 19 13  1  0  0  0  0
 19 58  1  0  0  0  0
 20 19  1  0  0  0  0
 20 59  1  6  0  0  0
 21 20  1  0  0  0  0
 21 26  1  0  0  0  0
 22 21  2  0  0  0  0
 23 25  1  0  0  0  0
 23 20  1  0  0  0  0
 23 60  1  0  0  0  0
 24 23  1  0  0  0  0
 24 61  1  0  0  0  0
 24 62  1  0  0  0  0
 24 63  1  0  0  0  0
 25 64  1  0  0  0  0
 25 65  1  0  0  0  0
 25 66  1  0  0  0  0
 26 67  1  0  0  0  0
 27 26  1  0  0  0  0
 27 28  1  0  0  0  0
 27 30  1  0  0  0  0
 27 68  1  6  0  0  0
 28 33  1  0  0  0  0
 29 28  2  0  0  0  0
 30 69  1  0  0  0  0
 31 30  1  0  0  0  0
 31 70  1  0  0  0  0
 31 71  1  0  0  0  0
 31 72  1  0  0  0  0
 32 30  1  0  0  0  0
 32 73  1  0  0  0  0
 32 74  1  0  0  0  0
 32 75  1  0  0  0  0
 33 34  1  0  0  0  0
 33 76  1  0  0  0  0
 34 77  1  0  0  0  0
 34 78  1  0  0  0  0
 34 79  1  0  0  0  0
M  END
>  <MODEL>
       0

$$$$
selected_4mers/VLVV/931_noH.pdb
 OpenBabel03042518353D

 79 78  0  0  1  0  0  0  0  0999 V2000
   16.6160   33.1170   11.5230 C   0  0  0  0  0  0  0  0  0  0  0  0
   15.1720   33.1700   11.0920 C   0  0  0  0  0  0  0  0  0  0  0  0
   14.6800   34.2470   10.7260 O   0  0  0  0  0  0  0  0  0  0  0  0
   14.4810   32.0510   11.2150 N   0  0  0  0  0  0  0  0  0  0  0  0
   13.0700   31.9320   10.8650 C   0  0  2  0  0  0  0  0  0  0  0  0
   12.3600   31.0170   11.8550 C   0  0  0  0  0  0  0  0  0  0  0  0
   12.9500   30.5870   12.8340 O   0  0  0  0  0  0  0  0  0  0  0  0
   12.8980   31.4460    9.3980 C   0  0  0  0  0  0  0  0  0  0  0  0
   13.4210   32.5060    8.3880 C   0  0  0  0  0  0  0  0  0  0  0  0
   13.5630   30.0910    9.1760 C   0  0  0  0  0  0  0  0  0  0  0  0
   11.0800   30.7610   11.6440 N   0  0  0  0  0  0  0  0  0  0  0  0
   10.2910   30.0030   12.6070 C   0  0  2  0  0  0  0  0  0  0  0  0
    9.5760   28.8700   11.8870 C   0  0  0  0  0  0  0  0  0  0  0  0
    8.8200   29.1200   10.9590 O   0  0  0  0  0  0  0  0  0  0  0  0
    9.2960   30.9130   13.3100 C   0  0  0  0  0  0  0  0  0  0  0  0
    8.4660   30.2970   14.4090 C   0  0  0  0  0  0  0  0  0  0  0  0
    9.3800   30.0190   15.6290 C   0  0  0  0  0  0  0  0  0  0  0  0
    7.3050   31.2210   14.7760 C   0  0  0  0  0  0  0  0  0  0  0  0
    9.8200   27.6490   12.3300 N   0  0  0  0  0  0  0  0  0  0  0  0
    9.0630   26.5170   11.8210 C   0  0  2  0  0  0  0  0  0  0  0  0
    7.7640   26.4270   12.5890 C   0  0  0  0  0  0  0  0  0  0  0  0
    7.7590   26.2120   13.8100 O   0  0  0  0  0  0  0  0  0  0  0  0
    9.8390   25.1930   11.9270 C   0  0  0  0  0  0  0  0  0  0  0  0
    8.9580   24.0590   11.4730 C   0  0  0  0  0  0  0  0  0  0  0  0
   11.1270   25.2910   11.0940 C   0  0  0  0  0  0  0  0  0  0  0  0
    6.6460   26.6060   11.8730 N   0  0  0  0  0  0  0  0  0  0  0  0
    5.3170   26.6030   12.4810 C   0  0  2  0  0  0  0  0  0  0  0  0
    4.5040   25.3900   12.0790 C   0  0  0  0  0  0  0  0  0  0  0  0
    3.3530   25.2470   12.4620 O   0  0  0  0  0  0  0  0  0  0  0  0
    4.5160   27.9060   12.1820 C   0  0  0  0  0  0  0  0  0  0  0  0
    5.2110   29.1100   12.7960 C   0  0  0  0  0  0  0  0  0  0  0  0
    4.2850   28.1110   10.6850 C   0  0  0  0  0  0  0  0  0  0  0  0
    5.1120   24.4750   11.3620 N   0  0  0  0  0  0  0  0  0  0  0  0
    4.4080   23.2880   10.9510 C   0  0  0  0  0  0  0  0  0  0  0  0
   17.0672   34.0761   11.3770 H   0  0  0  0  0  0  0  0  0  0  0  0
   17.1357   32.3858   10.9398 H   0  0  0  0  0  0  0  0  0  0  0  0
   16.6697   32.8514   12.5581 H   0  0  0  0  0  0  0  0  0  0  0  0
   14.9434   31.2540   11.5617 H   0  0  0  0  0  0  0  0  0  0  0  0
   12.6157   32.8988   10.9275 H   0  0  0  0  0  0  0  0  0  0  0  0
   11.8501   31.3200    9.2220 H   0  0  0  0  0  0  0  0  0  0  0  0
   14.4698   32.6553    8.5387 H   0  0  0  0  0  0  0  0  0  0  0  0
   12.9036   33.4301    8.5409 H   0  0  0  0  0  0  0  0  0  0  0  0
   13.2495   32.1622    7.3894 H   0  0  0  0  0  0  0  0  0  0  0  0
   14.6161   30.1788    9.3438 H   0  0  0  0  0  0  0  0  0  0  0  0
   13.3877   29.7680    8.1711 H   0  0  0  0  0  0  0  0  0  0  0  0
   13.1516   29.3759    9.8574 H   0  0  0  0  0  0  0  0  0  0  0  0
   10.6516   31.0888   10.8204 H   0  0  0  0  0  0  0  0  0  0  0  0
   10.9377   29.5887   13.3520 H   0  0  0  0  0  0  0  0  0  0  0  0
    8.6225   31.2895   12.5687 H   0  0  0  0  0  0  0  0  0  0  0  0
    9.8928   31.6571   13.7948 H   0  0  0  0  0  0  0  0  0  0  0  0
    8.0436   29.3717   14.0770 H   0  0  0  0  0  0  0  0  0  0  0  0
    9.8087   30.9381   15.9703 H   0  0  0  0  0  0  0  0  0  0  0  0
   10.1609   29.3455   15.3435 H   0  0  0  0  0  0  0  0  0  0  0  0
    8.8016   29.5814   16.4157 H   0  0  0  0  0  0  0  0  0  0  0  0
    7.6899   32.1604   15.1140 H   0  0  0  0  0  0  0  0  0  0  0  0
    6.7246   30.7723   15.5549 H   0  0  0  0  0  0  0  0  0  0  0  0
    6.6878   31.3771   13.9160 H   0  0  0  0  0  0  0  0  0  0  0  0
   10.5185   27.5052   13.0087 H   0  0  0  0  0  0  0  0  0  0  0  0
    8.8766   26.6761   10.7794 H   0  0  0  0  0  0  0  0  0  0  0  0
   10.1187   25.0022   12.9420 H   0  0  0  0  0  0  0  0  0  0  0  0
    8.6612   24.2222   10.4580 H   0  0  0  0  0  0  0  0  0  0  0  0
    8.0890   24.0112   12.0954 H   0  0  0  0  0  0  0  0  0  0  0  0
    9.4979   23.1379   11.5430 H   0  0  0  0  0  0  0  0  0  0  0  0
   10.8767   25.4820   10.0714 H   0  0  0  0  0  0  0  0  0  0  0  0
   11.6673   24.3700   11.1629 H   0  0  0  0  0  0  0  0  0  0  0  0
   11.7336   26.0892   11.4678 H   0  0  0  0  0  0  0  0  0  0  0  0
    6.7225   26.7447   10.9013 H   0  0  0  0  0  0  0  0  0  0  0  0
    5.4879   26.5580   13.5363 H   0  0  0  0  0  0  0  0  0  0  0  0
    3.5515   27.7998   12.6330 H   0  0  0  0  0  0  0  0  0  0  0  0
    6.1780   29.2278   12.3533 H   0  0  0  0  0  0  0  0  0  0  0  0
    5.3171   28.9613   13.8503 H   0  0  0  0  0  0  0  0  0  0  0  0
    4.6272   29.9886   12.6167 H   0  0  0  0  0  0  0  0  0  0  0  0
    5.2274   28.2224   10.1907 H   0  0  0  0  0  0  0  0  0  0  0  0
    3.6959   28.9910   10.5322 H   0  0  0  0  0  0  0  0  0  0  0  0
    3.7700   27.2630   10.2842 H   0  0  0  0  0  0  0  0  0  0  0  0
    6.0537   24.6004   11.1038 H   0  0  0  0  0  0  0  0  0  0  0  0
    3.4041   23.3231   11.3195 H   0  0  0  0  0  0  0  0  0  0  0  0
    4.9028   22.4252   11.3456 H   0  0  0  0  0  0  0  0  0  0  0  0
    4.3940   23.2336    9.8825 H   0  0  0  0  0  0  0  0  0  0  0  0
  1 35  1  0  0  0  0
  1 36  1  0  0  0  0
  1 37  1  0  0  0  0
  2  4  1  0  0  0  0
  2  1  1  0  0  0  0
  3  2  2  0  0  0  0
  4 38  1  0  0  0  0
  5  4  1  0  0  0  0
  5  6  1  0  0  0  0
  5 39  1  1  0  0  0
  6  7  2  0  0  0  0
  8  5  1  0  0  0  0
  8 40  1  0  0  0  0
  9  8  1  0  0  0  0
  9 41  1  0  0  0  0
  9 42  1  0  0  0  0
  9 43  1  0  0  0  0
 10  8  1  0  0  0  0
 10 44  1  0  0  0  0
 10 45  1  0  0  0  0
 10 46  1  0  0  0  0
 11  6  1  0  0  0  0
 11 12  1  0  0  0  0
 11 47  1  0  0  0  0
 12 15  1  0  0  0  0
 12 48  1  1  0  0  0
 13 19  1  0  0  0  0
 13 12  1  0  0  0  0
 14 13  2  0  0  0  0
 15 16  1  0  0  0  0
 15 49  1  0  0  0  0
 15 50  1  0  0  0  0
 16 18  1  0  0  0  0
 16 17  1  0  0  0  0
 16 51  1  0  0  0  0
 17 52  1  0  0  0  0
 17 53  1  0  0  0  0
 17 54  1  0  0  0  0
 18 55  1  0  0  0  0
 18 56  1  0  0  0  0
 18 57  1  0  0  0  0
 19 58  1  0  0  0  0
 20 23  1  0  0  0  0
 20 19  1  0  0  0  0
 20 21  1  0  0  0  0
 20 59  1  6  0  0  0
 21 22  2  0  0  0  0
 23 60  1  0  0  0  0
 24 23  1  0  0  0  0
 24 61  1  0  0  0  0
 24 62  1  0  0  0  0
 24 63  1  0  0  0  0
 25 23  1  0  0  0  0
 25 64  1  0  0  0  0
 25 65  1  0  0  0  0
 25 66  1  0  0  0  0
 26 27  1  0  0  0  0
 26 21  1  0  0  0  0
 26 67  1  0  0  0  0
 27 68  1  1  0  0  0
 28 29  2  0  0  0  0
 28 27  1  0  0  0  0
 30 27  1  0  0  0  0
 30 31  1  0  0  0  0
 30 69  1  0  0  0  0
 31 70  1  0  0  0  0
 31 71  1  0  0  0  0
 31 72  1  0  0  0  0
 32 30  1  0  0  0  0
 32 73  1  0  0  0  0
 32 74  1  0  0  0  0
 32 75  1  0  0  0  0
 33 28  1  0  0  0  0
 33 76  1  0  0  0  0
 34 33  1  0  0  0  0
 34 77  1  0  0  0  0
 34 78  1  0  0  0  0
 34 79  1  0  0  0  0
M  END
>  <MODEL>
       0

$$$$
selected_4mers/VLVV/932_noH.pdb
 OpenBabel03042518353D

 79 78  0  0  1  0  0  0  0  0999 V2000
   20.0410   11.8440   -4.2090 C   0  0  0  0  0  0  0  0  0  0  0  0
   21.1890   11.0710   -3.5740 C   0  0  0  0  0  0  0  0  0  0  0  0
   20.9930   10.0070   -2.9710 O   0  0  0  0  0  0  0  0  0  0  0  0
   22.3920   11.6170   -3.7210 N   0  0  0  0  0  0  0  0  0  0  0  0
   23.5800   11.0680   -3.0780 C   0  0  2  0  0  0  0  0  0  0  0  0
   24.2960   12.1760   -2.3110 C   0  0  0  0  0  0  0  0  0  0  0  0
   24.5210   13.2650   -2.8430 O   0  0  0  0  0  0  0  0  0  0  0  0
   24.5530   10.4400   -4.0970 C   0  0  0  0  0  0  0  0  0  0  0  0
   25.8120    9.9360   -3.3890 C   0  0  0  0  0  0  0  0  0  0  0  0
   23.8660    9.3010   -4.8570 C   0  0  0  0  0  0  0  0  0  0  0  0
   24.6230   11.8980   -1.0570 N   0  0  0  0  0  0  0  0  0  0  0  0
   25.4270   12.8160   -0.2540 C   0  0  2  0  0  0  0  0  0  0  0  0
   26.8040   12.2000   -0.0720 C   0  0  0  0  0  0  0  0  0  0  0  0
   26.9250   11.0480    0.3660 O   0  0  0  0  0  0  0  0  0  0  0  0
   24.7710   13.0420    1.1060 C   0  0  0  0  0  0  0  0  0  0  0  0
   25.2390   14.2390    1.9180 C   0  0  0  0  0  0  0  0  0  0  0  0
   24.9410   15.5310    1.1630 C   0  0  0  0  0  0  0  0  0  0  0  0
   24.5310   14.2260    3.2690 C   0  0  0  0  0  0  0  0  0  0  0  0
   27.8410   12.9440   -0.4400 N   0  0  0  0  0  0  0  0  0  0  0  0
   29.2170   12.4940   -0.2590 C   0  0  2  0  0  0  0  0  0  0  0  0
   29.8210   13.2650    0.9110 C   0  0  0  0  0  0  0  0  0  0  0  0
   29.8820   14.5040    0.8910 O   0  0  0  0  0  0  0  0  0  0  0  0
   30.0580   12.7160   -1.5390 C   0  0  0  0  0  0  0  0  0  0  0  0
   31.5220   12.3700   -1.3010 C   0  0  0  0  0  0  0  0  0  0  0  0
   29.4910   11.9000   -2.6970 C   0  0  0  0  0  0  0  0  0  0  0  0
   30.2680   12.5300    1.9270 N   0  0  0  0  0  0  0  0  0  0  0  0
   30.7410   13.1320    3.1630 C   0  0  2  0  0  0  0  0  0  0  0  0
   32.1530   12.6710    3.4490 C   0  0  0  0  0  0  0  0  0  0  0  0
   32.4330   11.4740    3.4440 O   0  0  0  0  0  0  0  0  0  0  0  0
   29.8540   12.7120    4.3500 C   0  0  0  0  0  0  0  0  0  0  0  0
   30.2970   13.4240    5.6430 C   0  0  0  0  0  0  0  0  0  0  0  0
   28.3880   12.9840    4.0350 C   0  0  0  0  0  0  0  0  0  0  0  0
   33.0530   13.6160    3.6860 N   0  0  0  0  0  0  0  0  0  0  0  0
   34.3730   13.2630    4.1980 C   0  0  0  0  0  0  0  0  0  0  0  0
   20.4217   12.7279   -4.6767 H   0  0  0  0  0  0  0  0  0  0  0  0
   19.3337   12.1165   -3.4538 H   0  0  0  0  0  0  0  0  0  0  0  0
   19.5609   11.2308   -4.9428 H   0  0  0  0  0  0  0  0  0  0  0  0
   22.4841   12.4198   -4.2834 H   0  0  0  0  0  0  0  0  0  0  0  0
   23.2624   10.2937   -2.4112 H   0  0  0  0  0  0  0  0  0  0  0  0
   24.8416   11.1899   -4.8035 H   0  0  0  0  0  0  0  0  0  0  0  0
   25.5438    9.1838   -2.6769 H   0  0  0  0  0  0  0  0  0  0  0  0
   26.2881   10.7509   -2.8848 H   0  0  0  0  0  0  0  0  0  0  0  0
   26.4847    9.5208   -4.1101 H   0  0  0  0  0  0  0  0  0  0  0  0
   23.5693    8.5395   -4.1664 H   0  0  0  0  0  0  0  0  0  0  0  0
   24.5463    8.8883   -5.5724 H   0  0  0  0  0  0  0  0  0  0  0  0
   23.0026    9.6797   -5.3630 H   0  0  0  0  0  0  0  0  0  0  0  0
   24.3166   11.0522   -0.6570 H   0  0  0  0  0  0  0  0  0  0  0  0
   25.5059   13.7626   -0.7465 H   0  0  0  0  0  0  0  0  0  0  0  0
   24.9449   12.1663    1.6957 H   0  0  0  0  0  0  0  0  0  0  0  0
   23.7444   13.2463    0.8841 H   0  0  0  0  0  0  0  0  0  0  0  0
   26.2960   14.1834    2.0745 H   0  0  0  0  0  0  0  0  0  0  0  0
   23.8875   15.6103    0.9937 H   0  0  0  0  0  0  0  0  0  0  0  0
   25.4535   15.5215    0.2237 H   0  0  0  0  0  0  0  0  0  0  0  0
   25.2731   16.3672    1.7421 H   0  0  0  0  0  0  0  0  0  0  0  0
   23.4732   14.2814    3.1179 H   0  0  0  0  0  0  0  0  0  0  0  0
   24.8530   15.0659    3.8485 H   0  0  0  0  0  0  0  0  0  0  0  0
   24.7702   13.3216    3.7883 H   0  0  0  0  0  0  0  0  0  0  0  0
   27.6762   13.8252   -0.8469 H   0  0  0  0  0  0  0  0  0  0  0  0
   29.2212   11.4433   -0.0566 H   0  0  0  0  0  0  0  0  0  0  0  0
   30.0051   13.7533   -1.7962 H   0  0  0  0  0  0  0  0  0  0  0  0
   31.6063   11.3354   -1.0412 H   0  0  0  0  0  0  0  0  0  0  0  0
   31.9052   12.9706   -0.5027 H   0  0  0  0  0  0  0  0  0  0  0  0
   32.0830   12.5609   -2.1919 H   0  0  0  0  0  0  0  0  0  0  0  0
   29.5367   10.8586   -2.4555 H   0  0  0  0  0  0  0  0  0  0  0  0
   30.0656   12.0869   -3.5800 H   0  0  0  0  0  0  0  0  0  0  0  0
   28.4731   12.1823   -2.8675 H   0  0  0  0  0  0  0  0  0  0  0  0
   30.2786   11.5495    1.8388 H   0  0  0  0  0  0  0  0  0  0  0  0
   30.7064   14.1950    3.0455 H   0  0  0  0  0  0  0  0  0  0  0  0
   29.9676   11.6601    4.5094 H   0  0  0  0  0  0  0  0  0  0  0  0
   30.1965   14.4821    5.5199 H   0  0  0  0  0  0  0  0  0  0  0  0
   31.3191   13.1844    5.8498 H   0  0  0  0  0  0  0  0  0  0  0  0
   29.6829   13.0998    6.4570 H   0  0  0  0  0  0  0  0  0  0  0  0
   28.2469   14.0319    3.8709 H   0  0  0  0  0  0  0  0  0  0  0  0
   27.7817   12.6670    4.8577 H   0  0  0  0  0  0  0  0  0  0  0  0
   28.1061   12.4441    3.1553 H   0  0  0  0  0  0  0  0  0  0  0  0
   32.8295   14.5596    3.5158 H   0  0  0  0  0  0  0  0  0  0  0  0
   34.4358   12.2020    4.3211 H   0  0  0  0  0  0  0  0  0  0  0  0
   34.5289   13.7414    5.1423 H   0  0  0  0  0  0  0  0  0  0  0  0
   35.1222   13.5868    3.5061 H   0  0  0  0  0  0  0  0  0  0  0  0
  1  2  1  0  0  0  0
  1 35  1  0  0  0  0
  1 36  1  0  0  0  0
  1 37  1  0  0  0  0
  2  3  2  0  0  0  0
  4  2  1  0  0  0  0
  4  5  1  0  0  0  0
  4 38  1  0  0  0  0
  5  6  1  0  0  0  0
  5 39  1  1  0  0  0
  6 11  1  0  0  0  0
  7  6  2  0  0  0  0
  8  9  1  0  0  0  0
  8  5  1  0  0  0  0
  8 40  1  0  0  0  0
  9 41  1  0  0  0  0
  9 42  1  0  0  0  0
  9 43  1  0  0  0  0
 10  8  1  0  0  0  0
 10 44  1  0  0  0  0
 10 45  1  0  0  0  0
 10 46  1  0  0  0  0
 11 12  1  0  0  0  0
 11 47  1  0  0  0  0
 12 13  1  0  0  0  0
 12 15  1  0  0  0  0
 12 48  1  6  0  0  0
 13 14  2  0  0  0  0
 15 16  1  0  0  0  0
 15 49  1  0  0  0  0
 15 50  1  0  0  0  0
 16 18  1  0  0  0  0
 16 51  1  0  0  0  0
 17 16  1  0  0  0  0
 17 52  1  0  0  0  0
 17 53  1  0  0  0  0
 17 54  1  0  0  0  0
 18 55  1  0  0  0  0
 18 56  1  0  0  0  0
 18 57  1  0  0  0  0
 19 20  1  0  0  0  0
 19 13  1  0  0  0  0
 19 58  1  0  0  0  0
 20 21  1  0  0  0  0
 20 59  1  1  0  0  0
 21 26  1  0  0  0  0
 22 21  2  0  0  0  0
 23 24  1  0  0  0  0
 23 20  1  0  0  0  0
 23 60  1  0  0  0  0
 24 61  1  0  0  0  0
 24 62  1  0  0  0  0
 24 63  1  0  0  0  0
 25 23  1  0  0  0  0
 25 64  1  0  0  0  0
 25 65  1  0  0  0  0
 25 66  1  0  0  0  0
 26 27  1  0  0  0  0
 26 67  1  0  0  0  0
 27 28  1  0  0  0  0
 27 30  1  0  0  0  0
 27 68  1  6  0  0  0
 28 33  1  0  0  0  0
 29 28  2  0  0  0  0
 30 31  1  0  0  0  0
 30 69  1  0  0  0  0
 31 70  1  0  0  0  0
 31 71  1  0  0  0  0
 31 72  1  0  0  0  0
 32 30  1  0  0  0  0
 32 73  1  0  0  0  0
 32 74  1  0  0  0  0
 32 75  1  0  0  0  0
 33 34  1  0  0  0  0
 33 76  1  0  0  0  0
 34 77  1  0  0  0  0
 34 78  1  0  0  0  0
 34 79  1  0  0  0  0
M  END
>  <MODEL>
       0

$$$$
selected_4mers/VLVV/933_noH.pdb
 OpenBabel03042518353D

 79 78  0  0  1  0  0  0  0  0999 V2000
    2.7680   49.7810    1.1010 C   0  0  0  0  0  0  0  0  0  0  0  0
    3.8320   50.1100    2.1650 C   0  0  0  0  0  0  0  0  0  0  0  0
    4.4700   51.1500    2.1100 O   0  0  0  0  0  0  0  0  0  0  0  0
    3.9720   49.2150    3.1400 N   0  0  0  0  0  0  0  0  0  0  0  0
    4.8150   49.3990    4.2870 C   0  0  2  0  0  0  0  0  0  0  0  0
    5.6880   48.1840    4.4990 C   0  0  0  0  0  0  0  0  0  0  0  0
    5.1950   47.0340    4.5000 O   0  0  0  0  0  0  0  0  0  0  0  0
    3.9750   49.6400    5.5780 C   0  0  0  0  0  0  0  0  0  0  0  0
    4.8960   49.8310    6.8080 C   0  0  0  0  0  0  0  0  0  0  0  0
    3.0510   50.8800    5.3970 C   0  0  0  0  0  0  0  0  0  0  0  0
    6.9860   48.4330    4.6860 N   0  0  0  0  0  0  0  0  0  0  0  0
    7.9360   47.4180    5.1280 C   0  0  2  0  0  0  0  0  0  0  0  0
    8.3790   47.8270    6.5140 C   0  0  0  0  0  0  0  0  0  0  0  0
    8.8560   48.9390    6.7250 O   0  0  0  0  0  0  0  0  0  0  0  0
    9.1840   47.3600    4.2220 C   0  0  0  0  0  0  0  0  0  0  0  0
   10.3580   46.5340    4.7360 C   0  0  0  0  0  0  0  0  0  0  0  0
   10.0630   45.0300    4.8660 C   0  0  0  0  0  0  0  0  0  0  0  0
   11.5870   46.7200    3.8300 C   0  0  0  0  0  0  0  0  0  0  0  0
    8.2210   46.9170    7.4760 N   0  0  0  0  0  0  0  0  0  0  0  0
    8.7200   47.0990    8.8430 C   0  0  2  0  0  0  0  0  0  0  0  0
    9.9240   46.1820    9.0440 C   0  0  0  0  0  0  0  0  0  0  0  0
    9.8370   44.9490    8.9000 O   0  0  0  0  0  0  0  0  0  0  0  0
    7.6370   46.8020    9.9120 C   0  0  0  0  0  0  0  0  0  0  0  0
    8.2250   47.0050   11.3480 C   0  0  0  0  0  0  0  0  0  0  0  0
    6.3990   47.7120    9.6940 C   0  0  0  0  0  0  0  0  0  0  0  0
   11.0750   46.8200    9.3090 N   0  0  0  0  0  0  0  0  0  0  0  0
   12.3230   46.0900    9.5590 C   0  0  2  0  0  0  0  0  0  0  0  0
   12.5200   45.8820   11.0520 C   0  0  0  0  0  0  0  0  0  0  0  0
   12.8680   46.8050   11.7990 O   0  0  0  0  0  0  0  0  0  0  0  0
   13.5280   46.8060    8.9340 C   0  0  0  0  0  0  0  0  0  0  0  0
   14.8330   45.9500    9.1150 C   0  0  0  0  0  0  0  0  0  0  0  0
   13.2940   47.1150    7.4450 C   0  0  0  0  0  0  0  0  0  0  0  0
   12.3240   44.6350   11.4740 N   0  0  0  0  0  0  0  0  0  0  0  0
   12.4620   44.2290   12.8460 C   0  0  0  0  0  0  0  0  0  0  0  0
    2.7405   50.5624    0.3706 H   0  0  0  0  0  0  0  0  0  0  0  0
    1.8096   49.6966    1.5692 H   0  0  0  0  0  0  0  0  0  0  0  0
    3.0148   48.8555    0.6241 H   0  0  0  0  0  0  0  0  0  0  0  0
    3.4654   48.3737    3.0701 H   0  0  0  0  0  0  0  0  0  0  0  0
    5.4221   50.2599    4.0996 H   0  0  0  0  0  0  0  0  0  0  0  0
    3.3657   48.7769    5.7472 H   0  0  0  0  0  0  0  0  0  0  0  0
    5.5155   50.6908    6.6597 H   0  0  0  0  0  0  0  0  0  0  0  0
    5.5118   48.9646    6.9305 H   0  0  0  0  0  0  0  0  0  0  0  0
    4.2972   49.9697    7.6838 H   0  0  0  0  0  0  0  0  0  0  0  0
    3.6506   51.7498    5.2270 H   0  0  0  0  0  0  0  0  0  0  0  0
    2.4634   51.0189    6.2804 H   0  0  0  0  0  0  0  0  0  0  0  0
    2.4040   50.7235    4.5593 H   0  0  0  0  0  0  0  0  0  0  0  0
    7.3178   49.3445    4.5177 H   0  0  0  0  0  0  0  0  0  0  0  0
    7.4692   46.4556    5.1001 H   0  0  0  0  0  0  0  0  0  0  0  0
    8.8840   46.9487    3.2809 H   0  0  0  0  0  0  0  0  0  0  0  0
    9.5452   48.3659    4.1715 H   0  0  0  0  0  0  0  0  0  0  0  0
   10.5487   46.9032    5.7220 H   0  0  0  0  0  0  0  0  0  0  0  0
    9.8660   44.6202    3.8974 H   0  0  0  0  0  0  0  0  0  0  0  0
    9.2087   44.8871    5.4943 H   0  0  0  0  0  0  0  0  0  0  0  0
   10.9091   44.5365    5.2967 H   0  0  0  0  0  0  0  0  0  0  0  0
   11.3697   46.3434    2.8523 H   0  0  0  0  0  0  0  0  0  0  0  0
   12.4176   46.1856    4.2416 H   0  0  0  0  0  0  0  0  0  0  0  0
   11.8286   47.7604    3.7658 H   0  0  0  0  0  0  0  0  0  0  0  0
    7.7463   46.0825    7.2579 H   0  0  0  0  0  0  0  0  0  0  0  0
    8.9999   48.1243    8.9672 H   0  0  0  0  0  0  0  0  0  0  0  0
    7.3265   45.7828    9.8136 H   0  0  0  0  0  0  0  0  0  0  0  0
    8.5410   48.0207   11.4637 H   0  0  0  0  0  0  0  0  0  0  0  0
    9.0622   46.3531   11.4860 H   0  0  0  0  0  0  0  0  0  0  0  0
    7.4739   46.7800   12.0761 H   0  0  0  0  0  0  0  0  0  0  0  0
    6.6891   48.7376    9.7885 H   0  0  0  0  0  0  0  0  0  0  0  0
    5.6544   47.4829   10.4275 H   0  0  0  0  0  0  0  0  0  0  0  0
    5.9999   47.5429    8.7157 H   0  0  0  0  0  0  0  0  0  0  0  0
   11.0819   47.8041    9.3363 H   0  0  0  0  0  0  0  0  0  0  0  0
   12.2486   45.1311    9.0902 H   0  0  0  0  0  0  0  0  0  0  0  0
   13.6506   47.7376    9.4458 H   0  0  0  0  0  0  0  0  0  0  0  0
   14.7200   45.0155    8.6062 H   0  0  0  0  0  0  0  0  0  0  0  0
   15.0006   45.7710   10.1565 H   0  0  0  0  0  0  0  0  0  0  0  0
   15.6672   46.4805    8.7055 H   0  0  0  0  0  0  0  0  0  0  0  0
   13.1676   46.1992    6.9063 H   0  0  0  0  0  0  0  0  0  0  0  0
   14.1371   47.6454    7.0540 H   0  0  0  0  0  0  0  0  0  0  0  0
   12.4146   47.7153    7.3392 H   0  0  0  0  0  0  0  0  0  0  0  0
   12.0707   43.9535   10.8102 H   0  0  0  0  0  0  0  0  0  0  0  0
   12.7389   45.0736   13.4418 H   0  0  0  0  0  0  0  0  0  0  0  0
   13.2188   43.4763   12.9208 H   0  0  0  0  0  0  0  0  0  0  0  0
   11.5311   43.8349   13.1967 H   0  0  0  0  0  0  0  0  0  0  0  0
  1  2  1  0  0  0  0
  1 35  1  0  0  0  0
  1 36  1  0  0  0  0
  1 37  1  0  0  0  0
  2  4  1  0  0  0  0
  3  2  2  0  0  0  0
  4  5  1  0  0  0  0
  4 38  1  0  0  0  0
  5  6  1  0  0  0  0
  5  8  1  0  0  0  0
  5 39  1  6  0  0  0
  6  7  2  0  0  0  0
  6 11  1  0  0  0  0
  8  9  1  0  0  0  0
  8 40  1  0  0  0  0
  9 41  1  0  0  0  0
  9 42  1  0  0  0  0
  9 43  1  0  0  0  0
 10  8  1  0  0  0  0
 10 44  1  0  0  0  0
 10 45  1  0  0  0  0
 10 46  1  0  0  0  0
 11 12  1  0  0  0  0
 11 47  1  0  0  0  0
 12 13  1  0  0  0  0
 12 48  1  1  0  0  0
 13 14  2  0  0  0  0
 13 19  1  0  0  0  0
 15 16  1  0  0  0  0
 15 12  1  0  0  0  0
 15 49  1  0  0  0  0
 15 50  1  0  0  0  0
 16 17  1  0  0  0  0
 16 51  1  0  0  0  0
 17 52  1  0  0  0  0
 17 53  1  0  0  0  0
 17 54  1  0  0  0  0
 18 16  1  0  0  0  0
 18 55  1  0  0  0  0
 18 56  1  0  0  0  0
 18 57  1  0  0  0  0
 19 20  1  0  0  0  0
 19 58  1  0  0  0  0
 20 21  1  0  0  0  0
 20 23  1  0  0  0  0
 20 59  1  1  0  0  0
 21 26  1  0  0  0  0
 22 21  2  0  0  0  0
 23 24  1  0  0  0  0
 23 60  1  0  0  0  0
 24 61  1  0  0  0  0
 24 62  1  0  0  0  0
 24 63  1  0  0  0  0
 25 23  1  0  0  0  0
 25 64  1  0  0  0  0
 25 65  1  0  0  0  0
 25 66  1  0  0  0  0
 26 27  1  0  0  0  0
 26 67  1  0  0  0  0
 27 28  1  0  0  0  0
 27 68  1  6  0  0  0
 28 33  1  0  0  0  0
 28 29  2  0  0  0  0
 30 31  1  0  0  0  0
 30 27  1  0  0  0  0
 30 69  1  0  0  0  0
 31 70  1  0  0  0  0
 31 71  1  0  0  0  0
 31 72  1  0  0  0  0
 32 30  1  0  0  0  0
 32 73  1  0  0  0  0
 32 74  1  0  0  0  0
 32 75  1  0  0  0  0
 33 34  1  0  0  0  0
 33 76  1  0  0  0  0
 34 77  1  0  0  0  0
 34 78  1  0  0  0  0
 34 79  1  0  0  0  0
M  END
>  <MODEL>
       0

$$$$
selected_4mers/VLVV/934_noH.pdb
 OpenBabel03042518353D

 79 78  0  0  1  0  0  0  0  0999 V2000
   27.6990   29.5530  -22.2300 C   0  0  0  0  0  0  0  0  0  0  0  0
   26.3120   30.1010  -22.4430 C   0  0  0  0  0  0  0  0  0  0  0  0
   25.9590   31.1250  -21.8720 O   0  0  0  0  0  0  0  0  0  0  0  0
   25.5680   29.4190  -23.2950 N   0  0  0  0  0  0  0  0  0  0  0  0
   24.2070   29.7830  -23.6450 C   0  0  2  0  0  0  0  0  0  0  0  0
   23.3910   28.5110  -23.7330 C   0  0  0  0  0  0  0  0  0  0  0  0
   23.7570   27.5680  -24.3900 O   0  0  0  0  0  0  0  0  0  0  0  0
   24.1510   30.5410  -24.9870 C   0  0  0  0  0  0  0  0  0  0  0  0
   22.6770   30.8000  -25.3490 C   0  0  0  0  0  0  0  0  0  0  0  0
   24.9830   31.8330  -24.9260 C   0  0  0  0  0  0  0  0  0  0  0  0
   22.2520   28.5210  -23.0500 N   0  0  0  0  0  0  0  0  0  0  0  0
   21.2680   27.4580  -23.1560 C   0  0  2  0  0  0  0  0  0  0  0  0
   20.2280   27.8510  -24.1880 C   0  0  0  0  0  0  0  0  0  0  0  0
   19.7500   28.9910  -24.1930 O   0  0  0  0  0  0  0  0  0  0  0  0
   20.6190   27.2420  -21.8050 C   0  0  0  0  0  0  0  0  0  0  0  0
   19.5270   26.2210  -21.9980 C   0  0  0  0  0  0  0  0  0  0  0  0
   19.9940   24.9560  -21.5420 C   0  0  0  0  0  0  0  0  0  0  0  0
   18.1530   26.6640  -21.5480 C   0  0  0  0  0  0  0  0  0  0  0  0
   19.9010   26.9200  -25.0880 N   0  0  0  0  0  0  0  0  0  0  0  0
   18.9570   27.1880  -26.1570 C   0  0  2  0  0  0  0  0  0  0  0  0
   17.8140   26.1860  -26.1110 C   0  0  0  0  0  0  0  0  0  0  0  0
   18.0490   24.9840  -26.0730 O   0  0  0  0  0  0  0  0  0  0  0  0
   19.6660   27.1010  -27.4990 C   0  0  0  0  0  0  0  0  0  0  0  0
   18.6680   27.2000  -28.6150 C   0  0  0  0  0  0  0  0  0  0  0  0
   20.7780   28.1890  -27.6060 C   0  0  0  0  0  0  0  0  0  0  0  0
   16.5830   26.6770  -26.1230 N   0  0  0  0  0  0  0  0  0  0  0  0
   15.3750   25.8850  -26.2810 C   0  0  2  0  0  0  0  0  0  0  0  0
   14.7720   26.2710  -27.6240 C   0  0  0  0  0  0  0  0  0  0  0  0
   14.6160   27.4690  -27.9410 O   0  0  0  0  0  0  0  0  0  0  0  0
   14.4150   26.1270  -25.1030 C   0  0  0  0  0  0  0  0  0  0  0  0
   13.0160   25.7090  -25.4390 C   0  0  0  0  0  0  0  0  0  0  0  0
   14.9250   25.4340  -23.8340 C   0  0  0  0  0  0  0  0  0  0  0  0
   14.4860   25.2900  -28.4590 N   0  0  0  0  0  0  0  0  0  0  0  0
   13.9090   25.5430  -29.7870 C   0  0  0  0  0  0  0  0  0  0  0  0
   27.8225   28.6606  -22.8073 H   0  0  0  0  0  0  0  0  0  0  0  0
   27.8387   29.3291  -21.1930 H   0  0  0  0  0  0  0  0  0  0  0  0
   28.4210   30.2800  -22.5383 H   0  0  0  0  0  0  0  0  0  0  0  0
   25.9582   28.6192  -23.7162 H   0  0  0  0  0  0  0  0  0  0  0  0
   23.8120   30.4368  -22.8957 H   0  0  0  0  0  0  0  0  0  0  0  0
   24.5877   29.9470  -25.7624 H   0  0  0  0  0  0  0  0  0  0  0  0
   22.2210   31.3937  -24.5845 H   0  0  0  0  0  0  0  0  0  0  0  0
   22.1606   29.8665  -25.4312 H   0  0  0  0  0  0  0  0  0  0  0  0
   22.6251   31.3198  -26.2828 H   0  0  0  0  0  0  0  0  0  0  0  0
   24.5921   32.4733  -24.1630 H   0  0  0  0  0  0  0  0  0  0  0  0
   24.9348   32.3332  -25.8706 H   0  0  0  0  0  0  0  0  0  0  0  0
   26.0010   31.5914  -24.7019 H   0  0  0  0  0  0  0  0  0  0  0  0
   22.0675   29.2783  -22.4486 H   0  0  0  0  0  0  0  0  0  0  0  0
   21.7373   26.5464  -23.4621 H   0  0  0  0  0  0  0  0  0  0  0  0
   20.2038   28.1605  -21.4459 H   0  0  0  0  0  0  0  0  0  0  0  0
   21.3362   26.9026  -21.0871 H   0  0  0  0  0  0  0  0  0  0  0  0
   19.3255   26.1067  -23.0426 H   0  0  0  0  0  0  0  0  0  0  0  0
   20.2125   25.0124  -20.4961 H   0  0  0  0  0  0  0  0  0  0  0  0
   20.8809   24.6889  -22.0777 H   0  0  0  0  0  0  0  0  0  0  0  0
   19.2397   24.2158  -21.7094 H   0  0  0  0  0  0  0  0  0  0  0  0
   18.1608   26.8324  -20.4914 H   0  0  0  0  0  0  0  0  0  0  0  0
   17.4383   25.9030  -21.7826 H   0  0  0  0  0  0  0  0  0  0  0  0
   17.8876   27.5700  -22.0516 H   0  0  0  0  0  0  0  0  0  0  0  0
   20.3116   26.0275  -25.0244 H   0  0  0  0  0  0  0  0  0  0  0  0
   18.5577   28.1726  -26.0304 H   0  0  0  0  0  0  0  0  0  0  0  0
   20.1505   26.1505  -27.5804 H   0  0  0  0  0  0  0  0  0  0  0  0
   18.1649   28.1428  -28.5610 H   0  0  0  0  0  0  0  0  0  0  0  0
   17.9533   26.4087  -28.5256 H   0  0  0  0  0  0  0  0  0  0  0  0
   19.1741   27.1191  -29.5543 H   0  0  0  0  0  0  0  0  0  0  0  0
   20.3354   29.1601  -27.5291 H   0  0  0  0  0  0  0  0  0  0  0  0
   21.2766   28.0979  -28.5483 H   0  0  0  0  0  0  0  0  0  0  0  0
   21.4850   28.0555  -26.8140 H   0  0  0  0  0  0  0  0  0  0  0  0
   16.4794   27.6503  -26.0170 H   0  0  0  0  0  0  0  0  0  0  0  0
   15.5823   24.8353  -26.2720 H   0  0  0  0  0  0  0  0  0  0  0  0
   14.3880   27.1793  -24.9109 H   0  0  0  0  0  0  0  0  0  0  0  0
   12.9961   24.6581  -25.6394 H   0  0  0  0  0  0  0  0  0  0  0  0
   12.6820   26.2434  -26.3038 H   0  0  0  0  0  0  0  0  0  0  0  0
   12.3707   25.9270  -24.6138 H   0  0  0  0  0  0  0  0  0  0  0  0
   14.9631   24.3770  -23.9956 H   0  0  0  0  0  0  0  0  0  0  0  0
   14.2630   25.6468  -23.0208 H   0  0  0  0  0  0  0  0  0  0  0  0
   15.9048   25.7946  -23.5999 H   0  0  0  0  0  0  0  0  0  0  0  0
   14.6643   24.3615  -28.1844 H   0  0  0  0  0  0  0  0  0  0  0  0
   13.7799   26.5962  -29.9250 H   0  0  0  0  0  0  0  0  0  0  0  0
   12.9601   25.0544  -29.8626 H   0  0  0  0  0  0  0  0  0  0  0  0
   14.5670   25.1626  -30.5401 H   0  0  0  0  0  0  0  0  0  0  0  0
  1 35  1  0  0  0  0
  1 36  1  0  0  0  0
  1 37  1  0  0  0  0
  2  1  1  0  0  0  0
  2  3  2  0  0  0  0
  4  2  1  0  0  0  0
  4 38  1  0  0  0  0
  5  4  1  0  0  0  0
  5 39  1  1  0  0  0
  6  5  1  0  0  0  0
  6 11  1  0  0  0  0
  7  6  2  0  0  0  0
  8 10  1  0  0  0  0
  8  5  1  0  0  0  0
  8 40  1  0  0  0  0
  9  8  1  0  0  0  0
  9 41  1  0  0  0  0
  9 42  1  0  0  0  0
  9 43  1  0  0  0  0
 10 44  1  0  0  0  0
 10 45  1  0  0  0  0
 10 46  1  0  0  0  0
 11 47  1  0  0  0  0
 12 11  1  0  0  0  0
 12 15  1  0  0  0  0
 12 48  1  6  0  0  0
 13 12  1  0  0  0  0
 14 13  2  0  0  0  0
 15 49  1  0  0  0  0
 15 50  1  0  0  0  0
 16 15  1  0  0  0  0
 16 18  1  0  0  0  0
 16 17  1  0  0  0  0
 16 51  1  0  0  0  0
 17 52  1  0  0  0  0
 17 53  1  0  0  0  0
 17 54  1  0  0  0  0
 18 55  1  0  0  0  0
 18 56  1  0  0  0  0
 18 57  1  0  0  0  0
 19 13  1  0  0  0  0
 19 58  1  0  0  0  0
 20 21  1  0  0  0  0
 20 19  1  0  0  0  0
 20 59  1  1  0  0  0
 21 22  2  0  0  0  0
 23 20  1  0  0  0  0
 23 60  1  0  0  0  0
 24 23  1  0  0  0  0
 24 61  1  0  0  0  0
 24 62  1  0  0  0  0
 24 63  1  0  0  0  0
 25 23  1  0  0  0  0
 25 64  1  0  0  0  0
 25 65  1  0  0  0  0
 25 66  1  0  0  0  0
 26 21  1  0  0  0  0
 26 67  1  0  0  0  0
 27 26  1  0  0  0  0
 27 30  1  0  0  0  0
 27 68  1  6  0  0  0
 28 27  1  0  0  0  0
 29 28  2  0  0  0  0
 30 32  1  0  0  0  0
 30 69  1  0  0  0  0
 31 30  1  0  0  0  0
 31 70  1  0  0  0  0
 31 71  1  0  0  0  0
 31 72  1  0  0  0  0
 32 73  1  0  0  0  0
 32 74  1  0  0  0  0
 32 75  1  0  0  0  0
 33 28  1  0  0  0  0
 33 76  1  0  0  0  0
 34 33  1  0  0  0  0
 34 77  1  0  0  0  0
 34 78  1  0  0  0  0
 34 79  1  0  0  0  0
M  END
>  <MODEL>
       0

$$$$
