selected_4mers/VTGA/980_noH.pdb
 OpenBabel03042518353D

 59 58  0  0  1  0  0  0  0  0999 V2000
   10.6540   19.1590   -5.7790 C   0  0  0  0  0  0  0  0  0  0  0  0
   11.5210   18.0390   -5.1880 C   0  0  0  0  0  0  0  0  0  0  0  0
   11.2080   16.8590   -5.3640 O   0  0  0  0  0  0  0  0  0  0  0  0
   12.6090   18.4010   -4.5120 N   0  0  0  0  0  0  0  0  0  0  0  0
   13.5090   17.4100   -3.9040 C   0  0  2  0  0  0  0  0  0  0  0  0
   13.5490   17.7160   -2.4060 C   0  0  0  0  0  0  0  0  0  0  0  0
   13.8100   18.8530   -2.0010 O   0  0  0  0  0  0  0  0  0  0  0  0
   14.9290   17.5090   -4.5360 C   0  0  0  0  0  0  0  0  0  0  0  0
   15.9040   16.5550   -3.8470 C   0  0  0  0  0  0  0  0  0  0  0  0
   14.8490   17.1720   -6.0300 C   0  0  0  0  0  0  0  0  0  0  0  0
   13.2800   16.7040   -1.5900 N   0  0  0  0  0  0  0  0  0  0  0  0
   13.2170   16.8820   -0.1430 C   0  0  2  0  0  0  0  0  0  0  0  0
   14.1340   15.9560    0.6480 C   0  0  0  0  0  0  0  0  0  0  0  0
   14.6340   14.9610    0.1190 O   0  0  0  0  0  0  0  0  0  0  0  0
   11.7860   16.6100    0.3610 C   0  0  2  0  0  0  0  0  0  0  0  0
   11.4820   15.2230    0.1530 O   0  0  0  0  0  0  0  0  0  0  0  0
   10.7560   17.4480   -0.4110 C   0  0  0  0  0  0  0  0  0  0  0  0
   14.3500   16.3010    1.9140 N   0  0  0  0  0  0  0  0  0  0  0  0
   15.1440   15.4520    2.7880 C   0  0  0  0  0  0  0  0  0  0  0  0
   16.6490   15.6120    2.8650 C   0  0  0  0  0  0  0  0  0  0  0  0
   17.2900   14.9090    3.6560 O   0  0  0  0  0  0  0  0  0  0  0  0
   17.2210   16.5170    2.0730 N   0  0  0  0  0  0  0  0  0  0  0  0
   18.6740   16.7190    2.0930 C   0  0  2  0  0  0  0  0  0  0  0  0
   19.0640   17.4440    3.3750 C   0  0  0  0  0  0  0  0  0  0  0  0
   18.2620   18.1890    3.9280 O   0  0  0  0  0  0  0  0  0  0  0  0
   19.1160   17.5420    0.8550 C   0  0  0  0  0  0  0  0  0  0  0  0
   20.2890   17.2370    3.8520 N   0  0  0  0  0  0  0  0  0  0  0  0
   20.7280   17.9080    5.0790 C   0  0  0  0  0  0  0  0  0  0  0  0
    9.8188   18.7303   -6.2923 H   0  0  0  0  0  0  0  0  0  0  0  0
   11.2368   19.7364   -6.4659 H   0  0  0  0  0  0  0  0  0  0  0  0
   10.3020   19.7912   -4.9908 H   0  0  0  0  0  0  0  0  0  0  0  0
   12.8168   19.3586   -4.4165 H   0  0  0  0  0  0  0  0  0  0  0  0
   13.1623   16.4122   -4.0744 H   0  0  0  0  0  0  0  0  0  0  0  0
   15.2880   18.5086   -4.4066 H   0  0  0  0  0  0  0  0  0  0  0  0
   15.5617   15.5482   -3.9655 H   0  0  0  0  0  0  0  0  0  0  0  0
   15.9593   16.7926   -2.8052 H   0  0  0  0  0  0  0  0  0  0  0  0
   16.8737   16.6562   -4.2879 H   0  0  0  0  0  0  0  0  0  0  0  0
   14.4895   16.1715   -6.1512 H   0  0  0  0  0  0  0  0  0  0  0  0
   15.8218   17.2568   -6.4674 H   0  0  0  0  0  0  0  0  0  0  0  0
   14.1799   17.8525   -6.5138 H   0  0  0  0  0  0  0  0  0  0  0  0
   13.1189   15.8105   -1.9708 H   0  0  0  0  0  0  0  0  0  0  0  0
   13.5331   17.8913    0.0194 H   0  0  0  0  0  0  0  0  0  0  0  0
   11.7371   16.8700    1.3978 H   0  0  0  0  0  0  0  0  0  0  0  0
   11.5345   15.0189   -0.7938 H   0  0  0  0  0  0  0  0  0  0  0  0
   10.7971   17.1951   -1.4499 H   0  0  0  0  0  0  0  0  0  0  0  0
   10.9776   18.4875   -0.2879 H   0  0  0  0  0  0  0  0  0  0  0  0
    9.7758   17.2451   -0.0330 H   0  0  0  0  0  0  0  0  0  0  0  0
   13.9688   17.1390    2.2629 H   0  0  0  0  0  0  0  0  0  0  0  0
   14.9593   14.4429    2.4838 H   0  0  0  0  0  0  0  0  0  0  0  0
   14.8227   15.7489    3.7645 H   0  0  0  0  0  0  0  0  0  0  0  0
   16.6627   17.0564    1.4675 H   0  0  0  0  0  0  0  0  0  0  0  0
   19.1654   15.7690    2.0607 H   0  0  0  0  0  0  0  0  0  0  0  0
   18.6335   18.4969    0.8708 H   0  0  0  0  0  0  0  0  0  0  0  0
   18.8423   17.0188   -0.0373 H   0  0  0  0  0  0  0  0  0  0  0  0
   20.1771   17.6781    0.8775 H   0  0  0  0  0  0  0  0  0  0  0  0
   20.9032   16.6304    3.3786 H   0  0  0  0  0  0  0  0  0  0  0  0
   19.9358   18.5229    5.4522 H   0  0  0  0  0  0  0  0  0  0  0  0
   21.5821   18.5166    4.8667 H   0  0  0  0  0  0  0  0  0  0  0  0
   20.9865   17.1744    5.8138 H   0  0  0  0  0  0  0  0  0  0  0  0
  1  2  1  0  0  0  0
  1 29  1  0  0  0  0
  1 30  1  0  0  0  0
  1 31  1  0  0  0  0
  2  4  1  0  0  0  0
  3  2  2  0  0  0  0
  4  5  1  0  0  0  0
  4 32  1  0  0  0  0
  5  6  1  0  0  0  0
  5 33  1  6  0  0  0
  6  7  2  0  0  0  0
  6 11  1  0  0  0  0
  8  5  1  0  0  0  0
  8  9  1  0  0  0  0
  8 34  1  0  0  0  0
  9 35  1  0  0  0  0
  9 36  1  0  0  0  0
  9 37  1  0  0  0  0
 10  8  1  0  0  0  0
 10 38  1  0  0  0  0
 10 39  1  0  0  0  0
 10 40  1  0  0  0  0
 11 12  1  0  0  0  0
 11 41  1  0  0  0  0
 12 15  1  0  0  0  0
 12 13  1  0  0  0  0
 12 42  1  1  0  0  0
 13 18  1  0  0  0  0
 14 13  2  0  0  0  0
 15 43  1  1  0  0  0
 16 15  1  0  0  0  0
 16 44  1  0  0  0  0
 17 15  1  0  0  0  0
 17 45  1  0  0  0  0
 17 46  1  0  0  0  0
 17 47  1  0  0  0  0
 18 19  1  0  0  0  0
 18 48  1  0  0  0  0
 19 20  1  0  0  0  0
 19 49  1  0  0  0  0
 19 50  1  0  0  0  0
 20 21  2  0  0  0  0
 22 23  1  0  0  0  0
 22 20  1  0  0  0  0
 22 51  1  0  0  0  0
 23 24  1  0  0  0  0
 23 52  1  6  0  0  0
 24 27  1  0  0  0  0
 24 25  2  0  0  0  0
 26 23  1  0  0  0  0
 26 53  1  0  0  0  0
 26 54  1  0  0  0  0
 26 55  1  0  0  0  0
 27 28  1  0  0  0  0
 27 56  1  0  0  0  0
 28 57  1  0  0  0  0
 28 58  1  0  0  0  0
 28 59  1  0  0  0  0
M  END
>  <MODEL>
       0

$$$$
selected_4mers/VTGA/981_noH.pdb
 OpenBabel03042518353D

 59 58  0  0  1  0  0  0  0  0999 V2000
   24.8920   21.2270   27.3070 C   0  0  0  0  0  0  0  0  0  0  0  0
   24.5810   22.3570   28.2870 C   0  0  0  0  0  0  0  0  0  0  0  0
   25.3980   22.6490   29.1700 O   0  0  0  0  0  0  0  0  0  0  0  0
   23.4230   22.9920   28.1160 N   0  0  0  0  0  0  0  0  0  0  0  0
   22.9750   24.0800   28.9800 C   0  0  2  0  0  0  0  0  0  0  0  0
   21.6360   23.7260   29.6270 C   0  0  0  0  0  0  0  0  0  0  0  0
   20.6590   23.4540   28.9080 O   0  0  0  0  0  0  0  0  0  0  0  0
   22.7780   25.3720   28.1850 C   0  0  0  0  0  0  0  0  0  0  0  0
   22.3710   26.5180   29.1230 C   0  0  0  0  0  0  0  0  0  0  0  0
   24.0670   25.7380   27.4430 C   0  0  0  0  0  0  0  0  0  0  0  0
   21.5770   23.7190   30.9620 N   0  0  0  0  0  0  0  0  0  0  0  0
   20.3080   23.4560   31.6590 C   0  0  2  0  0  0  0  0  0  0  0  0
   19.5770   24.7760   31.9170 C   0  0  0  0  0  0  0  0  0  0  0  0
   20.1850   25.8500   31.9690 O   0  0  0  0  0  0  0  0  0  0  0  0
   20.4930   22.6820   32.9840 C   0  0  2  0  0  0  0  0  0  0  0  0
   21.1870   23.5140   33.9360 O   0  0  0  0  0  0  0  0  0  0  0  0
   21.2970   21.4110   32.7700 C   0  0  0  0  0  0  0  0  0  0  0  0
   18.2540   24.7050   32.0660 N   0  0  0  0  0  0  0  0  0  0  0  0
   17.4760   25.9270   32.2150 C   0  0  0  0  0  0  0  0  0  0  0  0
   17.6660   26.8110   30.9920 C   0  0  0  0  0  0  0  0  0  0  0  0
   17.7290   28.0330   31.0900 O   0  0  0  0  0  0  0  0  0  0  0  0
   17.7280   26.1860   29.8140 N   0  0  0  0  0  0  0  0  0  0  0  0
   17.9800   26.9040   28.5770 C   0  0  2  0  0  0  0  0  0  0  0  0
   16.7840   27.5840   27.9230 C   0  0  0  0  0  0  0  0  0  0  0  0
   16.9340   28.2630   26.9170 O   0  0  0  0  0  0  0  0  0  0  0  0
   18.6380   25.9530   27.5730 C   0  0  0  0  0  0  0  0  0  0  0  0
   15.6230   27.4420   28.5420 N   0  0  0  0  0  0  0  0  0  0  0  0
   14.4220   27.9940   27.9540 C   0  0  0  0  0  0  0  0  0  0  0  0
   24.0792   21.1170   26.6199 H   0  0  0  0  0  0  0  0  0  0  0  0
   25.0283   20.3136   27.8474 H   0  0  0  0  0  0  0  0  0  0  0  0
   25.7863   21.4590   26.7673 H   0  0  0  0  0  0  0  0  0  0  0  0
   22.8415   22.7145   27.3716 H   0  0  0  0  0  0  0  0  0  0  0  0
   23.7299   24.2231   29.7247 H   0  0  0  0  0  0  0  0  0  0  0  0
   21.9973   25.2165   27.4700 H   0  0  0  0  0  0  0  0  0  0  0  0
   23.1456   26.6820   29.8427 H   0  0  0  0  0  0  0  0  0  0  0  0
   21.4636   26.2603   29.6281 H   0  0  0  0  0  0  0  0  0  0  0  0
   22.2203   27.4101   28.5517 H   0  0  0  0  0  0  0  0  0  0  0  0
   24.8537   25.8954   28.1510 H   0  0  0  0  0  0  0  0  0  0  0  0
   23.9113   26.6332   26.8779 H   0  0  0  0  0  0  0  0  0  0  0  0
   24.3365   24.9411   26.7818 H   0  0  0  0  0  0  0  0  0  0  0  0
   22.3926   23.8919   31.4856 H   0  0  0  0  0  0  0  0  0  0  0  0
   19.7229   22.8295   31.0187 H   0  0  0  0  0  0  0  0  0  0  0  0
   19.5232   22.4197   33.3521 H   0  0  0  0  0  0  0  0  0  0  0  0
   22.0630   23.7425   33.5876 H   0  0  0  0  0  0  0  0  0  0  0  0
   22.2697   21.6621   32.4016 H   0  0  0  0  0  0  0  0  0  0  0  0
   20.7962   20.7876   32.0590 H   0  0  0  0  0  0  0  0  0  0  0  0
   21.3914   20.8881   33.6987 H   0  0  0  0  0  0  0  0  0  0  0  0
   17.8044   23.8292   32.0753 H   0  0  0  0  0  0  0  0  0  0  0  0
   16.4402   25.6785   32.3162 H   0  0  0  0  0  0  0  0  0  0  0  0
   17.8074   26.4528   33.0860 H   0  0  0  0  0  0  0  0  0  0  0  0
   17.5992   25.2105   29.7829 H   0  0  0  0  0  0  0  0  0  0  0  0
   18.6202   27.7136   28.8592 H   0  0  0  0  0  0  0  0  0  0  0  0
   17.9559   25.1661   27.3273 H   0  0  0  0  0  0  0  0  0  0  0  0
   19.5236   25.5355   28.0048 H   0  0  0  0  0  0  0  0  0  0  0  0
   18.8943   26.4929   26.6855 H   0  0  0  0  0  0  0  0  0  0  0  0
   15.5767   26.9620   29.4003 H   0  0  0  0  0  0  0  0  0  0  0  0
   14.6660   28.4755   27.0301 H   0  0  0  0  0  0  0  0  0  0  0  0
   13.9917   28.7075   28.6253 H   0  0  0  0  0  0  0  0  0  0  0  0
   13.7200   27.2073   27.7717 H   0  0  0  0  0  0  0  0  0  0  0  0
  1  2  1  0  0  0  0
  1 29  1  0  0  0  0
  1 30  1  0  0  0  0
  1 31  1  0  0  0  0
  2  3  2  0  0  0  0
  4  2  1  0  0  0  0
  4  5  1  0  0  0  0
  4 32  1  0  0  0  0
  5  6  1  0  0  0  0
  5 33  1  1  0  0  0
  6 11  1  0  0  0  0
  7  6  2  0  0  0  0
  8  5  1  0  0  0  0
  8  9  1  0  0  0  0
  8 34  1  0  0  0  0
  9 35  1  0  0  0  0
  9 36  1  0  0  0  0
  9 37  1  0  0  0  0
 10  8  1  0  0  0  0
 10 38  1  0  0  0  0
 10 39  1  0  0  0  0
 10 40  1  0  0  0  0
 11 12  1  0  0  0  0
 11 41  1  0  0  0  0
 12 13  1  0  0  0  0
 12 15  1  0  0  0  0
 12 42  1  6  0  0  0
 13 14  2  0  0  0  0
 13 18  1  0  0  0  0
 15 16  1  0  0  0  0
 15 43  1  1  0  0  0
 16 44  1  0  0  0  0
 17 15  1  0  0  0  0
 17 45  1  0  0  0  0
 17 46  1  0  0  0  0
 17 47  1  0  0  0  0
 18 19  1  0  0  0  0
 18 48  1  0  0  0  0
 19 49  1  0  0  0  0
 19 50  1  0  0  0  0
 20 21  2  0  0  0  0
 20 19  1  0  0  0  0
 22 20  1  0  0  0  0
 22 51  1  0  0  0  0
 23 22  1  0  0  0  0
 23 52  1  1  0  0  0
 24 27  1  0  0  0  0
 24 23  1  0  0  0  0
 25 24  2  0  0  0  0
 26 23  1  0  0  0  0
 26 53  1  0  0  0  0
 26 54  1  0  0  0  0
 26 55  1  0  0  0  0
 27 56  1  0  0  0  0
 28 27  1  0  0  0  0
 28 57  1  0  0  0  0
 28 58  1  0  0  0  0
 28 59  1  0  0  0  0
M  END
>  <MODEL>
       0

$$$$
selected_4mers/VTGA/982_noH.pdb
 OpenBabel03042518353D

 59 58  0  0  1  0  0  0  0  0999 V2000
   13.8490   56.1610   31.3440 C   0  0  0  0  0  0  0  0  0  0  0  0
   12.9710   56.0790   32.5850 C   0  0  0  0  0  0  0  0  0  0  0  0
   11.8030   55.7110   32.4920 O   0  0  0  0  0  0  0  0  0  0  0  0
   13.5290   56.4040   33.7500 N   0  0  0  0  0  0  0  0  0  0  0  0
   12.7400   56.3420   34.9780 C   0  0  2  0  0  0  0  0  0  0  0  0
   11.5510   57.2950   34.9190 C   0  0  0  0  0  0  0  0  0  0  0  0
   10.4310   56.8970   35.2130 O   0  0  0  0  0  0  0  0  0  0  0  0
   13.6020   56.5860   36.2340 C   0  0  0  0  0  0  0  0  0  0  0  0
   12.7300   56.7160   37.4780 C   0  0  0  0  0  0  0  0  0  0  0  0
   14.5840   55.4300   36.4220 C   0  0  0  0  0  0  0  0  0  0  0  0
   11.7880   58.5360   34.4930 N   0  0  0  0  0  0  0  0  0  0  0  0
   10.7150   59.5220   34.3890 C   0  0  2  0  0  0  0  0  0  0  0  0
    9.5910   59.0300   33.4770 C   0  0  0  0  0  0  0  0  0  0  0  0
    8.4140   59.1220   33.8280 O   0  0  0  0  0  0  0  0  0  0  0  0
   11.2570   60.8670   33.8720 C   0  0  2  0  0  0  0  0  0  0  0  0
   12.2680   61.3430   34.7630 O   0  0  0  0  0  0  0  0  0  0  0  0
   10.1540   61.9090   33.7900 C   0  0  0  0  0  0  0  0  0  0  0  0
    9.9510   58.5060   32.3040 N   0  0  0  0  0  0  0  0  0  0  0  0
    8.9500   58.0570   31.3380 C   0  0  0  0  0  0  0  0  0  0  0  0
    8.1640   56.8700   31.8520 C   0  0  0  0  0  0  0  0  0  0  0  0
    6.9410   56.8150   31.7130 O   0  0  0  0  0  0  0  0  0  0  0  0
    8.8580   55.9160   32.4690 N   0  0  0  0  0  0  0  0  0  0  0  0
    8.1840   54.7440   33.0130 C   0  0  2  0  0  0  0  0  0  0  0  0
    7.2420   55.1250   34.1550 C   0  0  0  0  0  0  0  0  0  0  0  0
    6.1180   54.6340   34.2230 O   0  0  0  0  0  0  0  0  0  0  0  0
    9.1960   53.7080   33.4680 C   0  0  0  0  0  0  0  0  0  0  0  0
    7.6900   56.0070   35.0460 N   0  0  0  0  0  0  0  0  0  0  0  0
    6.8410   56.4470   36.1520 C   0  0  0  0  0  0  0  0  0  0  0  0
   13.2793   55.8753   30.4845 H   0  0  0  0  0  0  0  0  0  0  0  0
   14.6842   55.5012   31.4538 H   0  0  0  0  0  0  0  0  0  0  0  0
   14.2006   57.1641   31.2215 H   0  0  0  0  0  0  0  0  0  0  0  0
   14.4718   56.6856   33.7835 H   0  0  0  0  0  0  0  0  0  0  0  0
   12.3553   55.3467   35.0565 H   0  0  0  0  0  0  0  0  0  0  0  0
   14.1403   57.5004   36.0964 H   0  0  0  0  0  0  0  0  0  0  0  0
   12.1851   55.8075   37.6281 H   0  0  0  0  0  0  0  0  0  0  0  0
   12.0435   57.5265   37.3492 H   0  0  0  0  0  0  0  0  0  0  0  0
   13.3495   56.9052   38.3296 H   0  0  0  0  0  0  0  0  0  0  0  0
   14.0402   54.5188   36.5590 H   0  0  0  0  0  0  0  0  0  0  0  0
   15.1923   55.6152   37.2825 H   0  0  0  0  0  0  0  0  0  0  0  0
   15.2070   55.3468   35.5560 H   0  0  0  0  0  0  0  0  0  0  0  0
   12.7049   58.7932   34.2434 H   0  0  0  0  0  0  0  0  0  0  0  0
   10.3143   59.6624   35.3712 H   0  0  0  0  0  0  0  0  0  0  0  0
   11.6579   60.7100   32.8925 H   0  0  0  0  0  0  0  0  0  0  0  0
   11.8849   61.4787   35.6438 H   0  0  0  0  0  0  0  0  0  0  0  0
    9.7458   62.0737   34.7652 H   0  0  0  0  0  0  0  0  0  0  0  0
    9.3829   61.5614   33.1346 H   0  0  0  0  0  0  0  0  0  0  0  0
   10.5566   62.8256   33.4124 H   0  0  0  0  0  0  0  0  0  0  0  0
   10.9071   58.4203   32.0853 H   0  0  0  0  0  0  0  0  0  0  0  0
    8.2728   58.8619   31.1418 H   0  0  0  0  0  0  0  0  0  0  0  0
    9.4600   57.7568   30.4465 H   0  0  0  0  0  0  0  0  0  0  0  0
    9.8346   56.0030   32.5585 H   0  0  0  0  0  0  0  0  0  0  0  0
    7.5903   54.3145   32.2333 H   0  0  0  0  0  0  0  0  0  0  0  0
    9.8007   54.1192   34.2491 H   0  0  0  0  0  0  0  0  0  0  0  0
    9.8187   53.4313   32.6430 H   0  0  0  0  0  0  0  0  0  0  0  0
    8.6819   52.8433   33.8326 H   0  0  0  0  0  0  0  0  0  0  0  0
    8.6023   56.3666   34.9592 H   0  0  0  0  0  0  0  0  0  0  0  0
    5.8917   55.9574   36.0895 H   0  0  0  0  0  0  0  0  0  0  0  0
    6.7005   57.5062   36.0943 H   0  0  0  0  0  0  0  0  0  0  0  0
    7.3095   56.1995   37.0816 H   0  0  0  0  0  0  0  0  0  0  0  0
  1  2  1  0  0  0  0
  1 29  1  0  0  0  0
  1 30  1  0  0  0  0
  1 31  1  0  0  0  0
  2  4  1  0  0  0  0
  3  2  2  0  0  0  0
  4  5  1  0  0  0  0
  4 32  1  0  0  0  0
  5  8  1  0  0  0  0
  5 33  1  1  0  0  0
  6  5  1  0  0  0  0
  6  7  2  0  0  0  0
  8 10  1  0  0  0  0
  8  9  1  0  0  0  0
  8 34  1  0  0  0  0
  9 35  1  0  0  0  0
  9 36  1  0  0  0  0
  9 37  1  0  0  0  0
 10 38  1  0  0  0  0
 10 39  1  0  0  0  0
 10 40  1  0  0  0  0
 11  6  1  0  0  0  0
 11 41  1  0  0  0  0
 12 11  1  0  0  0  0
 12 42  1  1  0  0  0
 13 14  2  0  0  0  0
 13 12  1  0  0  0  0
 15 12  1  0  0  0  0
 15 16  1  0  0  0  0
 15 43  1  6  0  0  0
 16 44  1  0  0  0  0
 17 15  1  0  0  0  0
 17 45  1  0  0  0  0
 17 46  1  0  0  0  0
 17 47  1  0  0  0  0
 18 13  1  0  0  0  0
 18 48  1  0  0  0  0
 19 20  1  0  0  0  0
 19 18  1  0  0  0  0
 19 49  1  0  0  0  0
 19 50  1  0  0  0  0
 20 22  1  0  0  0  0
 21 20  2  0  0  0  0
 22 23  1  0  0  0  0
 22 51  1  0  0  0  0
 23 26  1  0  0  0  0
 23 24  1  0  0  0  0
 23 52  1  6  0  0  0
 24 25  2  0  0  0  0
 24 27  1  0  0  0  0
 26 53  1  0  0  0  0
 26 54  1  0  0  0  0
 26 55  1  0  0  0  0
 27 28  1  0  0  0  0
 27 56  1  0  0  0  0
 28 57  1  0  0  0  0
 28 58  1  0  0  0  0
 28 59  1  0  0  0  0
M  END
>  <MODEL>
       0

$$$$
selected_4mers/VTGA/983_noH.pdb
 OpenBabel03042518353D

 59 58  0  0  1  0  0  0  0  0999 V2000
    3.1610   52.1860  -15.5730 C   0  0  0  0  0  0  0  0  0  0  0  0
    3.6180   51.2690  -14.4620 C   0  0  0  0  0  0  0  0  0  0  0  0
    3.0770   50.1570  -14.2730 O   0  0  0  0  0  0  0  0  0  0  0  0
    4.6640   51.6980  -13.7650 N   0  0  0  0  0  0  0  0  0  0  0  0
    5.2380   50.9140  -12.6580 C   0  0  2  0  0  0  0  0  0  0  0  0
    5.0060   51.7290  -11.3730 C   0  0  0  0  0  0  0  0  0  0  0  0
    5.2730   52.9170  -11.3370 O   0  0  0  0  0  0  0  0  0  0  0  0
    6.7860   50.7460  -12.8310 C   0  0  0  0  0  0  0  0  0  0  0  0
    7.3940   49.9510  -11.6550 C   0  0  0  0  0  0  0  0  0  0  0  0
    7.1180   50.1200  -14.1740 C   0  0  0  0  0  0  0  0  0  0  0  0
    4.5290   51.0780  -10.3130 N   0  0  0  0  0  0  0  0  0  0  0  0
    4.4970   51.7770   -9.0160 C   0  0  2  0  0  0  0  0  0  0  0  0
    4.5920   50.7810   -7.8740 C   0  0  0  0  0  0  0  0  0  0  0  0
    4.1510   49.6470   -7.9940 O   0  0  0  0  0  0  0  0  0  0  0  0
    3.2640   52.6860   -8.8470 C   0  0  2  0  0  0  0  0  0  0  0  0
    3.5200   53.6060   -7.7690 O   0  0  0  0  0  0  0  0  0  0  0  0
    2.0040   51.9060   -8.5590 C   0  0  0  0  0  0  0  0  0  0  0  0
    5.1920   51.2090   -6.7670 N   0  0  0  0  0  0  0  0  0  0  0  0
    5.2540   50.3470   -5.5940 C   0  0  0  0  0  0  0  0  0  0  0  0
    3.8790   50.2180   -4.9750 C   0  0  0  0  0  0  0  0  0  0  0  0
    3.0370   51.1260   -5.0790 O   0  0  0  0  0  0  0  0  0  0  0  0
    3.6600   49.0880   -4.3110 N   0  0  0  0  0  0  0  0  0  0  0  0
    2.3690   48.8040   -3.6780 C   0  0  2  0  0  0  0  0  0  0  0  0
    2.0020   49.7820   -2.5640 C   0  0  0  0  0  0  0  0  0  0  0  0
    0.8260   49.8660   -2.2030 O   0  0  0  0  0  0  0  0  0  0  0  0
    2.3770   47.4060   -3.1290 C   0  0  0  0  0  0  0  0  0  0  0  0
    2.9750   50.5230   -2.0450 N   0  0  0  0  0  0  0  0  0  0  0  0
    2.7010   51.4530   -0.9350 C   0  0  0  0  0  0  0  0  0  0  0  0
    2.3185   51.7520  -16.0698 H   0  0  0  0  0  0  0  0  0  0  0  0
    3.9578   52.3213  -16.2742 H   0  0  0  0  0  0  0  0  0  0  0  0
    2.8831   53.1338  -15.1616 H   0  0  0  0  0  0  0  0  0  0  0  0
    5.0678   52.5659  -13.9951 H   0  0  0  0  0  0  0  0  0  0  0  0
    4.7838   49.9456  -12.6305 H   0  0  0  0  0  0  0  0  0  0  0  0
    7.2317   51.7186  -12.8162 H   0  0  0  0  0  0  0  0  0  0  0  0
    6.9729   48.9676  -11.6338 H   0  0  0  0  0  0  0  0  0  0  0  0
    7.1761   50.4522  -10.7351 H   0  0  0  0  0  0  0  0  0  0  0  0
    8.4543   49.8823  -11.7812 H   0  0  0  0  0  0  0  0  0  0  0  0
    6.6877   49.1418  -14.2277 H   0  0  0  0  0  0  0  0  0  0  0  0
    8.1802   50.0488  -14.2815 H   0  0  0  0  0  0  0  0  0  0  0  0
    6.7200   50.7283  -14.9592 H   0  0  0  0  0  0  0  0  0  0  0  0
    4.2055   50.1517  -10.3942 H   0  0  0  0  0  0  0  0  0  0  0  0
    5.3507   52.4217   -8.9942 H   0  0  0  0  0  0  0  0  0  0  0  0
    3.1049   53.2056   -9.7687 H   0  0  0  0  0  0  0  0  0  0  0  0
    3.6603   53.1102   -6.9472 H   0  0  0  0  0  0  0  0  0  0  0  0
    2.1193   51.3683   -7.6411 H   0  0  0  0  0  0  0  0  0  0  0  0
    1.8217   51.2159   -9.3561 H   0  0  0  0  0  0  0  0  0  0  0  0
    1.1779   52.5809   -8.4756 H   0  0  0  0  0  0  0  0  0  0  0  0
    5.5939   52.1074   -6.7401 H   0  0  0  0  0  0  0  0  0  0  0  0
    5.9269   50.7705   -4.8779 H   0  0  0  0  0  0  0  0  0  0  0  0
    5.6001   49.3780   -5.8874 H   0  0  0  0  0  0  0  0  0  0  0  0
    4.3839   48.4242   -4.2425 H   0  0  0  0  0  0  0  0  0  0  0  0
    1.6264   48.9151   -4.4404 H   0  0  0  0  0  0  0  0  0  0  0  0
    3.1274   47.3249   -2.3706 H   0  0  0  0  0  0  0  0  0  0  0  0
    2.5903   46.7145   -3.9172 H   0  0  0  0  0  0  0  0  0  0  0  0
    1.4190   47.1826   -2.7081 H   0  0  0  0  0  0  0  0  0  0  0  0
    3.8882   50.4501   -2.4055 H   0  0  0  0  0  0  0  0  0  0  0  0
    1.6646   51.4014   -0.6740 H   0  0  0  0  0  0  0  0  0  0  0  0
    2.9435   52.4504   -1.2372 H   0  0  0  0  0  0  0  0  0  0  0  0
    3.2960   51.1824   -0.0879 H   0  0  0  0  0  0  0  0  0  0  0  0
  1  2  1  0  0  0  0
  1 29  1  0  0  0  0
  1 30  1  0  0  0  0
  1 31  1  0  0  0  0
  2  3  2  0  0  0  0
  2  4  1  0  0  0  0
  4  5  1  0  0  0  0
  4 32  1  0  0  0  0
  5  6  1  0  0  0  0
  5 33  1  1  0  0  0
  6  7  2  0  0  0  0
  6 11  1  0  0  0  0
  8  5  1  0  0  0  0
  8  9  1  0  0  0  0
  8 34  1  0  0  0  0
  9 35  1  0  0  0  0
  9 36  1  0  0  0  0
  9 37  1  0  0  0  0
 10  8  1  0  0  0  0
 10 38  1  0  0  0  0
 10 39  1  0  0  0  0
 10 40  1  0  0  0  0
 11 12  1  0  0  0  0
 11 41  1  0  0  0  0
 12 15  1  0  0  0  0
 12 13  1  0  0  0  0
 12 42  1  1  0  0  0
 13 18  1  0  0  0  0
 14 13  2  0  0  0  0
 15 17  1  0  0  0  0
 15 16  1  0  0  0  0
 15 43  1  6  0  0  0
 16 44  1  0  0  0  0
 17 45  1  0  0  0  0
 17 46  1  0  0  0  0
 17 47  1  0  0  0  0
 18 19  1  0  0  0  0
 18 48  1  0  0  0  0
 19 20  1  0  0  0  0
 19 49  1  0  0  0  0
 19 50  1  0  0  0  0
 20 22  1  0  0  0  0
 21 20  2  0  0  0  0
 22 23  1  0  0  0  0
 22 51  1  0  0  0  0
 23 26  1  0  0  0  0
 23 24  1  0  0  0  0
 23 52  1  6  0  0  0
 24 25  2  0  0  0  0
 24 27  1  0  0  0  0
 26 53  1  0  0  0  0
 26 54  1  0  0  0  0
 26 55  1  0  0  0  0
 27 28  1  0  0  0  0
 27 56  1  0  0  0  0
 28 57  1  0  0  0  0
 28 58  1  0  0  0  0
 28 59  1  0  0  0  0
M  END
>  <MODEL>
       0

$$$$
selected_4mers/VTGA/984_noH.pdb
 OpenBabel03042518353D

 59 58  0  0  1  0  0  0  0  0999 V2000
   72.5420   -8.0320   11.3960 C   0  0  0  0  0  0  0  0  0  0  0  0
   73.9220   -8.3400   10.8430 C   0  0  0  0  0  0  0  0  0  0  0  0
   74.8420   -8.6250   11.6000 O   0  0  0  0  0  0  0  0  0  0  0  0
   74.0600   -8.2800    9.5240 N   0  0  0  0  0  0  0  0  0  0  0  0
   75.3570   -8.4520    8.8690 C   0  0  2  0  0  0  0  0  0  0  0  0
   75.5800   -7.2880    7.9030 C   0  0  0  0  0  0  0  0  0  0  0  0
   74.7710   -7.0710    6.9990 O   0  0  0  0  0  0  0  0  0  0  0  0
   75.4400   -9.7780    8.0750 C   0  0  0  0  0  0  0  0  0  0  0  0
   76.8100   -9.9250    7.4200 C   0  0  0  0  0  0  0  0  0  0  0  0
   75.1630  -10.9710    8.9560 C   0  0  0  0  0  0  0  0  0  0  0  0
   76.6600   -6.5400    8.1160 N   0  0  0  0  0  0  0  0  0  0  0  0
   77.0600   -5.4770    7.1920 C   0  0  2  0  0  0  0  0  0  0  0  0
   78.5520   -5.6020    6.9230 C   0  0  0  0  0  0  0  0  0  0  0  0
   79.2210   -6.4980    7.4490 O   0  0  0  0  0  0  0  0  0  0  0  0
   76.7690   -4.0740    7.7630 C   0  0  2  0  0  0  0  0  0  0  0  0
   77.6840   -3.7810    8.8200 O   0  0  0  0  0  0  0  0  0  0  0  0
   75.3810   -3.9690    8.3840 C   0  0  0  0  0  0  0  0  0  0  0  0
   79.0870   -4.6880    6.1260 N   0  0  0  0  0  0  0  0  0  0  0  0
   80.5320   -4.6440    5.9100 C   0  0  0  0  0  0  0  0  0  0  0  0
   81.3230   -4.4140    7.1830 C   0  0  0  0  0  0  0  0  0  0  0  0
   82.5150   -4.7110    7.2240 O   0  0  0  0  0  0  0  0  0  0  0  0
   80.6700   -3.9060    8.2310 N   0  0  0  0  0  0  0  0  0  0  0  0
   81.3430   -3.6180    9.5000 C   0  0  2  0  0  0  0  0  0  0  0  0
   81.4210   -4.8210   10.4360 C   0  0  0  0  0  0  0  0  0  0  0  0
   82.1260   -4.7730   11.4450 O   0  0  0  0  0  0  0  0  0  0  0  0
   80.6510   -2.4620   10.2040 C   0  0  0  0  0  0  0  0  0  0  0  0
   80.6920   -5.8860   10.1190 N   0  0  0  0  0  0  0  0  0  0  0  0
   80.6750   -7.0720   10.9700 C   0  0  0  0  0  0  0  0  0  0  0  0
   71.8763   -7.8074   10.5889 H   0  0  0  0  0  0  0  0  0  0  0  0
   72.6012   -7.1905   12.0542 H   0  0  0  0  0  0  0  0  0  0  0  0
   72.1759   -8.8810   11.9346 H   0  0  0  0  0  0  0  0  0  0  0  0
   73.2641   -8.1145    8.9687 H   0  0  0  0  0  0  0  0  0  0  0  0
   76.1078   -8.4762    9.6309 H   0  0  0  0  0  0  0  0  0  0  0  0
   74.6877   -9.7434    7.3149 H   0  0  0  0  0  0  0  0  0  0  0  0
   77.5654   -9.9600    8.1770 H   0  0  0  0  0  0  0  0  0  0  0  0
   76.9889   -9.0895    6.7760 H   0  0  0  0  0  0  0  0  0  0  0  0
   76.8366  -10.8286    6.8476 H   0  0  0  0  0  0  0  0  0  0  0  0
   75.9046  -11.0260    9.7254 H   0  0  0  0  0  0  0  0  0  0  0  0
   75.1931  -11.8639    8.3671 H   0  0  0  0  0  0  0  0  0  0  0  0
   74.1949  -10.8692    9.4003 H   0  0  0  0  0  0  0  0  0  0  0  0
   77.2059   -6.7063    8.9183 H   0  0  0  0  0  0  0  0  0  0  0  0
   76.4931   -5.5878    6.2913 H   0  0  0  0  0  0  0  0  0  0  0  0
   76.8555   -3.3989    6.9374 H   0  0  0  0  0  0  0  0  0  0  0  0
   77.5629   -4.4207    9.5391 H   0  0  0  0  0  0  0  0  0  0  0  0
   75.3065   -4.6480    9.2076 H   0  0  0  0  0  0  0  0  0  0  0  0
   74.6424   -4.2159    7.6503 H   0  0  0  0  0  0  0  0  0  0  0  0
   75.2198   -2.9694    8.7301 H   0  0  0  0  0  0  0  0  0  0  0  0
   78.5061   -4.0331    5.6756 H   0  0  0  0  0  0  0  0  0  0  0  0
   80.7491   -3.8493    5.2272 H   0  0  0  0  0  0  0  0  0  0  0  0
   80.8236   -5.5985    5.5243 H   0  0  0  0  0  0  0  0  0  0  0  0
   79.7069   -3.7193    8.1484 H   0  0  0  0  0  0  0  0  0  0  0  0
   82.3510   -3.3561    9.2546 H   0  0  0  0  0  0  0  0  0  0  0  0
   79.6455   -2.7399   10.4421 H   0  0  0  0  0  0  0  0  0  0  0  0
   80.6420   -1.6068    9.5610 H   0  0  0  0  0  0  0  0  0  0  0  0
   81.1784   -2.2256   11.1045 H   0  0  0  0  0  0  0  0  0  0  0  0
   80.1534   -5.8749    9.2950 H   0  0  0  0  0  0  0  0  0  0  0  0
   81.3108   -6.9132   11.8158 H   0  0  0  0  0  0  0  0  0  0  0  0
   81.0261   -7.9156   10.4132 H   0  0  0  0  0  0  0  0  0  0  0  0
   79.6756   -7.2565   11.3047 H   0  0  0  0  0  0  0  0  0  0  0  0
  1 29  1  0  0  0  0
  1 30  1  0  0  0  0
  1 31  1  0  0  0  0
  2  1  1  0  0  0  0
  2  3  2  0  0  0  0
  4  2  1  0  0  0  0
  4 32  1  0  0  0  0
  5  4  1  0  0  0  0
  5 33  1  1  0  0  0
  6 11  1  0  0  0  0
  6  5  1  0  0  0  0
  7  6  2  0  0  0  0
  8  5  1  0  0  0  0
  8 10  1  0  0  0  0
  8 34  1  0  0  0  0
  9  8  1  0  0  0  0
  9 35  1  0  0  0  0
  9 36  1  0  0  0  0
  9 37  1  0  0  0  0
 10 38  1  0  0  0  0
 10 39  1  0  0  0  0
 10 40  1  0  0  0  0
 11 41  1  0  0  0  0
 12 15  1  0  0  0  0
 12 11  1  0  0  0  0
 12 42  1  6  0  0  0
 13 12  1  0  0  0  0
 13 14  2  0  0  0  0
 15 17  1  0  0  0  0
 15 16  1  0  0  0  0
 15 43  1  6  0  0  0
 16 44  1  0  0  0  0
 17 45  1  0  0  0  0
 17 46  1  0  0  0  0
 17 47  1  0  0  0  0
 18 13  1  0  0  0  0
 18 48  1  0  0  0  0
 19 18  1  0  0  0  0
 19 20  1  0  0  0  0
 19 49  1  0  0  0  0
 19 50  1  0  0  0  0
 20 21  2  0  0  0  0
 20 22  1  0  0  0  0
 22 23  1  0  0  0  0
 22 51  1  0  0  0  0
 23 26  1  0  0  0  0
 23 24  1  0  0  0  0
 23 52  1  6  0  0  0
 24 25  2  0  0  0  0
 26 53  1  0  0  0  0
 26 54  1  0  0  0  0
 26 55  1  0  0  0  0
 27 24  1  0  0  0  0
 27 28  1  0  0  0  0
 27 56  1  0  0  0  0
 28 57  1  0  0  0  0
 28 58  1  0  0  0  0
 28 59  1  0  0  0  0
M  END
>  <MODEL>
       0

$$$$
