selected_4mers/VTVS/990_noH.pdb
 OpenBabel03042518353D

 69 68  0  0  1  0  0  0  0  0999 V2000
   14.5120  -12.6090  -41.8690 C   0  0  0  0  0  0  0  0  0  0  0  0
   14.3900  -12.9550  -43.3720 C   0  0  0  0  0  0  0  0  0  0  0  0
   13.9680  -12.1320  -44.1490 O   0  0  0  0  0  0  0  0  0  0  0  0
   14.7790  -14.1610  -43.7610 N   0  0  0  0  0  0  0  0  0  0  0  0
   14.6560  -14.6080  -45.1300 C   0  0  2  0  0  0  0  0  0  0  0  0
   13.2040  -14.4880  -45.6340 C   0  0  0  0  0  0  0  0  0  0  0  0
   12.9630  -14.0600  -46.7520 O   0  0  0  0  0  0  0  0  0  0  0  0
   15.2070  -16.0510  -45.3100 C   0  0  0  0  0  0  0  0  0  0  0  0
   14.4020  -17.0990  -44.5190 C   0  0  0  0  0  0  0  0  0  0  0  0
   15.2740  -16.3920  -46.7740 C   0  0  0  0  0  0  0  0  0  0  0  0
   12.2550  -14.9040  -44.8010 N   0  0  0  0  0  0  0  0  0  0  0  0
   10.8560  -14.8740  -45.1930 C   0  0  2  0  0  0  0  0  0  0  0  0
   10.3590  -13.4420  -45.2480 C   0  0  0  0  0  0  0  0  0  0  0  0
    9.5950  -13.0560  -46.1030 O   0  0  0  0  0  0  0  0  0  0  0  0
   10.0200  -15.7010  -44.1780 C   0  0  2  0  0  0  0  0  0  0  0  0
   10.5210  -17.0400  -44.1550 O   0  0  0  0  0  0  0  0  0  0  0  0
    8.5790  -15.6750  -44.6000 C   0  0  0  0  0  0  0  0  0  0  0  0
   10.7770  -12.6300  -44.2950 N   0  0  0  0  0  0  0  0  0  0  0  0
   10.3700  -11.2280  -44.3240 C   0  0  2  0  0  0  0  0  0  0  0  0
   10.8300  -10.5780  -45.6760 C   0  0  0  0  0  0  0  0  0  0  0  0
   10.0890   -9.8590  -46.3730 O   0  0  0  0  0  0  0  0  0  0  0  0
   10.9510  -10.4360  -43.1010 C   0  0  0  0  0  0  0  0  0  0  0  0
   10.7980   -8.9140  -43.3510 C   0  0  0  0  0  0  0  0  0  0  0  0
   10.2480  -10.9100  -41.7240 C   0  0  0  0  0  0  0  0  0  0  0  0
   12.0790  -10.8300  -46.0440 N   0  0  0  0  0  0  0  0  0  0  0  0
   12.6220  -10.2870  -47.2820 C   0  0  2  0  0  0  0  0  0  0  0  0
   11.8270  -10.7990  -48.4950 C   0  0  0  0  0  0  0  0  0  0  0  0
   11.5320  -10.0160  -49.3890 O   0  0  0  0  0  0  0  0  0  0  0  0
   14.0930  -10.6550  -47.4890 C   0  0  0  0  0  0  0  0  0  0  0  0
   14.8610  -10.0750  -46.4640 O   0  0  0  0  0  0  0  0  0  0  0  0
   11.5400  -12.1080  -48.5220 N   0  0  0  0  0  0  0  0  0  0  0  0
   10.8790  -12.7250  -49.6960 C   0  0  0  0  0  0  0  0  0  0  0  0
   14.1638  -11.6109  -41.7034 H   0  0  0  0  0  0  0  0  0  0  0  0
   15.5359  -12.6842  -41.5677 H   0  0  0  0  0  0  0  0  0  0  0  0
   13.9206  -13.2927  -41.2965 H   0  0  0  0  0  0  0  0  0  0  0  0
   15.1652  -14.7737  -43.0941 H   0  0  0  0  0  0  0  0  0  0  0  0
   15.2573  -13.9608  -45.7337 H   0  0  0  0  0  0  0  0  0  0  0  0
   16.1958  -16.0758  -44.9019 H   0  0  0  0  0  0  0  0  0  0  0  0
   13.3957  -17.1239  -44.8817 H   0  0  0  0  0  0  0  0  0  0  0  0
   14.4007  -16.8388  -43.4811 H   0  0  0  0  0  0  0  0  0  0  0  0
   14.8504  -18.0624  -44.6446 H   0  0  0  0  0  0  0  0  0  0  0  0
   14.2888  -16.3697  -47.1909 H   0  0  0  0  0  0  0  0  0  0  0  0
   15.6898  -17.3706  -46.8936 H   0  0  0  0  0  0  0  0  0  0  0  0
   15.8911  -15.6782  -47.2786 H   0  0  0  0  0  0  0  0  0  0  0  0
   12.5030  -15.2363  -43.9081 H   0  0  0  0  0  0  0  0  0  0  0  0
   10.7496  -15.3036  -46.1672 H   0  0  0  0  0  0  0  0  0  0  0  0
   10.0960  -15.2867  -43.1944 H   0  0  0  0  0  0  0  0  0  0  0  0
   10.4563  -17.4247  -45.0431 H   0  0  0  0  0  0  0  0  0  0  0  0
    8.4878  -16.0869  -45.5833 H   0  0  0  0  0  0  0  0  0  0  0  0
    8.2262  -14.6648  -44.6024 H   0  0  0  0  0  0  0  0  0  0  0  0
    7.9962  -16.2547  -43.9150 H   0  0  0  0  0  0  0  0  0  0  0  0
   11.3563  -12.9657  -43.5732 H   0  0  0  0  0  0  0  0  0  0  0  0
    9.3033  -11.1816  -44.2537 H   0  0  0  0  0  0  0  0  0  0  0  0
   11.9946  -10.6484  -42.9977 H   0  0  0  0  0  0  0  0  0  0  0  0
    9.7611   -8.6727  -43.4584 H   0  0  0  0  0  0  0  0  0  0  0  0
   11.3212   -8.6450  -44.2447 H   0  0  0  0  0  0  0  0  0  0  0  0
   11.2060   -8.3737  -42.5225 H   0  0  0  0  0  0  0  0  0  0  0  0
    9.1966  -10.7183  -41.7759 H   0  0  0  0  0  0  0  0  0  0  0  0
   10.6693  -10.3678  -40.9034 H   0  0  0  0  0  0  0  0  0  0  0  0
   10.4129  -11.9576  -41.5816 H   0  0  0  0  0  0  0  0  0  0  0  0
   12.6484  -11.3931  -45.4713 H   0  0  0  0  0  0  0  0  0  0  0  0
   12.5415   -9.2233  -47.1986 H   0  0  0  0  0  0  0  0  0  0  0  0
   14.4245  -10.2866  -48.4373 H   0  0  0  0  0  0  0  0  0  0  0  0
   14.2052  -11.7188  -47.4655 H   0  0  0  0  0  0  0  0  0  0  0  0
   14.7570   -9.1109  -46.4881 H   0  0  0  0  0  0  0  0  0  0  0  0
   11.7726  -12.6698  -47.7477 H   0  0  0  0  0  0  0  0  0  0  0  0
   10.6999  -11.9761  -50.4389 H   0  0  0  0  0  0  0  0  0  0  0  0
    9.9482  -13.1581  -49.3945 H   0  0  0  0  0  0  0  0  0  0  0  0
   11.5116  -13.4863  -50.1023 H   0  0  0  0  0  0  0  0  0  0  0  0
  1 33  1  0  0  0  0
  1 34  1  0  0  0  0
  1 35  1  0  0  0  0
  2  1  1  0  0  0  0
  3  2  2  0  0  0  0
  4  2  1  0  0  0  0
  4 36  1  0  0  0  0
  5  4  1  0  0  0  0
  5 37  1  6  0  0  0
  6  5  1  0  0  0  0
  6 11  1  0  0  0  0
  7  6  2  0  0  0  0
  8  5  1  0  0  0  0
  8  9  1  0  0  0  0
  8 38  1  0  0  0  0
  9 39  1  0  0  0  0
  9 40  1  0  0  0  0
  9 41  1  0  0  0  0
 10  8  1  0  0  0  0
 10 42  1  0  0  0  0
 10 43  1  0  0  0  0
 10 44  1  0  0  0  0
 11 45  1  0  0  0  0
 12 11  1  0  0  0  0
 12 15  1  0  0  0  0
 12 46  1  6  0  0  0
 13 12  1  0  0  0  0
 13 18  1  0  0  0  0
 14 13  2  0  0  0  0
 15 16  1  0  0  0  0
 15 47  1  1  0  0  0
 16 48  1  0  0  0  0
 17 15  1  0  0  0  0
 17 49  1  0  0  0  0
 17 50  1  0  0  0  0
 17 51  1  0  0  0  0
 18 52  1  0  0  0  0
 19 18  1  0  0  0  0
 19 22  1  0  0  0  0
 19 53  1  1  0  0  0
 20 19  1  0  0  0  0
 21 20  2  0  0  0  0
 22 24  1  0  0  0  0
 22 54  1  0  0  0  0
 23 22  1  0  0  0  0
 23 55  1  0  0  0  0
 23 56  1  0  0  0  0
 23 57  1  0  0  0  0
 24 58  1  0  0  0  0
 24 59  1  0  0  0  0
 24 60  1  0  0  0  0
 25 20  1  0  0  0  0
 25 61  1  0  0  0  0
 26 25  1  0  0  0  0
 26 62  1  1  0  0  0
 27 26  1  0  0  0  0
 28 27  2  0  0  0  0
 29 26  1  0  0  0  0
 29 30  1  0  0  0  0
 29 63  1  0  0  0  0
 29 64  1  0  0  0  0
 30 65  1  0  0  0  0
 31 27  1  0  0  0  0
 31 66  1  0  0  0  0
 32 31  1  0  0  0  0
 32 67  1  0  0  0  0
 32 68  1  0  0  0  0
 32 69  1  0  0  0  0
M  END
>  <MODEL>
       0

$$$$
selected_4mers/VTVS/991_noH.pdb
 OpenBabel03042518353D

 69 68  0  0  1  0  0  0  0  0999 V2000
   55.2590    7.8390   10.9470 C   0  0  0  0  0  0  0  0  0  0  0  0
   55.1390    9.3160   11.2100 C   0  0  0  0  0  0  0  0  0  0  0  0
   55.1670   10.1160   10.2650 O   0  0  0  0  0  0  0  0  0  0  0  0
   54.9750    9.6890   12.4770 N   0  0  0  0  0  0  0  0  0  0  0  0
   54.7870   11.1200   12.8000 C   0  0  2  0  0  0  0  0  0  0  0  0
   55.8010   11.5330   13.8380 C   0  0  0  0  0  0  0  0  0  0  0  0
   55.9200   10.8710   14.8650 O   0  0  0  0  0  0  0  0  0  0  0  0
   53.3730   11.3910   13.3930 C   0  0  0  0  0  0  0  0  0  0  0  0
   53.2040   12.8750   13.7000 C   0  0  0  0  0  0  0  0  0  0  0  0
   52.2650   10.9160   12.4510 C   0  0  0  0  0  0  0  0  0  0  0  0
   56.5020   12.6390   13.5810 N   0  0  0  0  0  0  0  0  0  0  0  0
   57.4170   13.2400   14.5570 C   0  0  2  0  0  0  0  0  0  0  0  0
   56.8330   14.5590   15.0330 C   0  0  0  0  0  0  0  0  0  0  0  0
   55.8730   15.0690   14.4540 O   0  0  0  0  0  0  0  0  0  0  0  0
   58.8020   13.4820   13.9160 C   0  0  2  0  0  0  0  0  0  0  0  0
   58.6520   14.3690   12.8040 O   0  0  0  0  0  0  0  0  0  0  0  0
   59.3810   12.1520   13.4060 C   0  0  0  0  0  0  0  0  0  0  0  0
   57.4170   15.1110   16.0880 N   0  0  0  0  0  0  0  0  0  0  0  0
   56.9440   16.3880   16.6100 C   0  0  2  0  0  0  0  0  0  0  0  0
   58.0610   17.3510   16.8340 C   0  0  0  0  0  0  0  0  0  0  0  0
   59.1640   16.9490   17.2230 O   0  0  0  0  0  0  0  0  0  0  0  0
   56.1290   16.2180   17.9220 C   0  0  0  0  0  0  0  0  0  0  0  0
   54.8650   15.3640   17.6640 C   0  0  0  0  0  0  0  0  0  0  0  0
   56.9710   15.6300   19.0180 C   0  0  0  0  0  0  0  0  0  0  0  0
   57.7630   18.6370   16.6330 N   0  0  0  0  0  0  0  0  0  0  0  0
   58.7550   19.6810   16.8520 C   0  0  2  0  0  0  0  0  0  0  0  0
   58.1800   20.8190   17.6760 C   0  0  0  0  0  0  0  0  0  0  0  0
   57.6870   21.7950   17.1270 O   0  0  0  0  0  0  0  0  0  0  0  0
   59.2690   20.2110   15.5220 C   0  0  0  0  0  0  0  0  0  0  0  0
   59.9560   19.2020   14.8030 O   0  0  0  0  0  0  0  0  0  0  0  0
   58.2060   20.6810   19.0120 N   0  0  0  0  0  0  0  0  0  0  0  0
   57.7410   21.7930   19.8640 C   0  0  0  0  0  0  0  0  0  0  0  0
   55.3861    7.6727    9.8977 H   0  0  0  0  0  0  0  0  0  0  0  0
   54.3715    7.3439   11.2817 H   0  0  0  0  0  0  0  0  0  0  0  0
   56.1048    7.4503   11.4747 H   0  0  0  0  0  0  0  0  0  0  0  0
   54.9788    9.0159   13.1954 H   0  0  0  0  0  0  0  0  0  0  0  0
   54.9032   11.6747   11.8924 H   0  0  0  0  0  0  0  0  0  0  0  0
   53.2895   10.8325   14.3018 H   0  0  0  0  0  0  0  0  0  0  0  0
   53.2867   13.4383   12.7940 H   0  0  0  0  0  0  0  0  0  0  0  0
   53.9652   13.1866   14.3844 H   0  0  0  0  0  0  0  0  0  0  0  0
   52.2416   13.0415   14.1369 H   0  0  0  0  0  0  0  0  0  0  0  0
   52.3228   11.4582   11.5303 H   0  0  0  0  0  0  0  0  0  0  0  0
   51.3120   11.0871   12.9064 H   0  0  0  0  0  0  0  0  0  0  0  0
   52.3853    9.8706   12.2574 H   0  0  0  0  0  0  0  0  0  0  0  0
   56.4009   13.0687   12.7010 H   0  0  0  0  0  0  0  0  0  0  0  0
   57.5381   12.5748   15.3863 H   0  0  0  0  0  0  0  0  0  0  0  0
   59.4595   13.9046   14.6468 H   0  0  0  0  0  0  0  0  0  0  0  0
   58.0540   13.9716   12.1518 H   0  0  0  0  0  0  0  0  0  0  0  0
   58.7211   11.7325   12.6756 H   0  0  0  0  0  0  0  0  0  0  0  0
   59.4858   11.4713   14.2249 H   0  0  0  0  0  0  0  0  0  0  0  0
   60.3390   12.3267   12.9626 H   0  0  0  0  0  0  0  0  0  0  0  0
   58.1747   14.6558   16.5216 H   0  0  0  0  0  0  0  0  0  0  0  0
   56.2963   16.7888   15.8585 H   0  0  0  0  0  0  0  0  0  0  0  0
   55.8173   17.1879   18.2492 H   0  0  0  0  0  0  0  0  0  0  0  0
   55.1550   14.3880   17.3352 H   0  0  0  0  0  0  0  0  0  0  0  0
   54.2667   15.8313   16.9100 H   0  0  0  0  0  0  0  0  0  0  0  0
   54.2991   15.2822   18.5684 H   0  0  0  0  0  0  0  0  0  0  0  0
   57.3039   14.6553   18.7281 H   0  0  0  0  0  0  0  0  0  0  0  0
   56.3902   15.5568   19.9137 H   0  0  0  0  0  0  0  0  0  0  0  0
   57.8187   16.2590   19.1930 H   0  0  0  0  0  0  0  0  0  0  0  0
   56.8586   18.8835   16.3321 H   0  0  0  0  0  0  0  0  0  0  0  0
   59.5698   19.2506   17.3959 H   0  0  0  0  0  0  0  0  0  0  0  0
   58.4402   20.5535   14.9383 H   0  0  0  0  0  0  0  0  0  0  0  0
   59.9493   21.0138   15.7157 H   0  0  0  0  0  0  0  0  0  0  0  0
   59.3508   18.4664   14.6199 H   0  0  0  0  0  0  0  0  0  0  0  0
   58.5321   19.8460   19.4190 H   0  0  0  0  0  0  0  0  0  0  0  0
   57.4273   22.6085   19.2464 H   0  0  0  0  0  0  0  0  0  0  0  0
   58.5399   22.1136   20.4995 H   0  0  0  0  0  0  0  0  0  0  0  0
   56.9187   21.4630   20.4638 H   0  0  0  0  0  0  0  0  0  0  0  0
  1  2  1  0  0  0  0
  1 33  1  0  0  0  0
  1 34  1  0  0  0  0
  1 35  1  0  0  0  0
  2  4  1  0  0  0  0
  3  2  2  0  0  0  0
  4  5  1  0  0  0  0
  4 36  1  0  0  0  0
  5  8  1  0  0  0  0
  5  6  1  0  0  0  0
  5 37  1  6  0  0  0
  6  7  2  0  0  0  0
  8  9  1  0  0  0  0
  8 38  1  0  0  0  0
  9 39  1  0  0  0  0
  9 40  1  0  0  0  0
  9 41  1  0  0  0  0
 10  8  1  0  0  0  0
 10 42  1  0  0  0  0
 10 43  1  0  0  0  0
 10 44  1  0  0  0  0
 11  6  1  0  0  0  0
 11 12  1  0  0  0  0
 11 45  1  0  0  0  0
 12 13  1  0  0  0  0
 12 46  1  1  0  0  0
 13 18  1  0  0  0  0
 14 13  2  0  0  0  0
 15 12  1  0  0  0  0
 15 47  1  1  0  0  0
 16 15  1  0  0  0  0
 16 48  1  0  0  0  0
 17 15  1  0  0  0  0
 17 49  1  0  0  0  0
 17 50  1  0  0  0  0
 17 51  1  0  0  0  0
 18 19  1  0  0  0  0
 18 52  1  0  0  0  0
 19 20  1  0  0  0  0
 19 22  1  0  0  0  0
 19 53  1  6  0  0  0
 20 21  2  0  0  0  0
 22 24  1  0  0  0  0
 22 54  1  0  0  0  0
 23 22  1  0  0  0  0
 23 55  1  0  0  0  0
 23 56  1  0  0  0  0
 23 57  1  0  0  0  0
 24 58  1  0  0  0  0
 24 59  1  0  0  0  0
 24 60  1  0  0  0  0
 25 20  1  0  0  0  0
 25 26  1  0  0  0  0
 25 61  1  0  0  0  0
 26 27  1  0  0  0  0
 26 62  1  1  0  0  0
 27 31  1  0  0  0  0
 28 27  2  0  0  0  0
 29 26  1  0  0  0  0
 29 63  1  0  0  0  0
 29 64  1  0  0  0  0
 30 29  1  0  0  0  0
 30 65  1  0  0  0  0
 31 32  1  0  0  0  0
 31 66  1  0  0  0  0
 32 67  1  0  0  0  0
 32 68  1  0  0  0  0
 32 69  1  0  0  0  0
M  END
>  <MODEL>
       0

$$$$
selected_4mers/VTVS/992_noH.pdb
 OpenBabel03042518353D

 69 68  0  0  1  0  0  0  0  0999 V2000
   17.8710   49.1020   12.2420 C   0  0  0  0  0  0  0  0  0  0  0  0
   17.7790   49.7420   10.8660 C   0  0  0  0  0  0  0  0  0  0  0  0
   17.5980   50.9540   10.7460 O   0  0  0  0  0  0  0  0  0  0  0  0
   17.9190   48.9220    9.8320 N   0  0  0  0  0  0  0  0  0  0  0  0
   17.8100   49.3980    8.4620 C   0  0  2  0  0  0  0  0  0  0  0  0
   16.6970   48.5920    7.8210 C   0  0  0  0  0  0  0  0  0  0  0  0
   16.7410   47.3620    7.7980 O   0  0  0  0  0  0  0  0  0  0  0  0
   19.1120   49.1830    7.6590 C   0  0  0  0  0  0  0  0  0  0  0  0
   18.9030   49.6250    6.2090 C   0  0  0  0  0  0  0  0  0  0  0  0
   20.2470   49.9680    8.2860 C   0  0  0  0  0  0  0  0  0  0  0  0
   15.6880   49.2850    7.3110 N   0  0  0  0  0  0  0  0  0  0  0  0
   14.5640   48.6140    6.6820 C   0  0  2  0  0  0  0  0  0  0  0  0
   14.5620   48.8520    5.1820 C   0  0  0  0  0  0  0  0  0  0  0  0
   14.6760   49.9890    4.7300 O   0  0  0  0  0  0  0  0  0  0  0  0
   13.2330   49.1240    7.2590 C   0  0  2  0  0  0  0  0  0  0  0  0
   13.2300   48.9300    8.6790 O   0  0  0  0  0  0  0  0  0  0  0  0
   12.0590   48.3800    6.6370 C   0  0  0  0  0  0  0  0  0  0  0  0
   14.4360   47.7730    4.4180 N   0  0  0  0  0  0  0  0  0  0  0  0
   14.4010   47.8620    2.9640 C   0  0  2  0  0  0  0  0  0  0  0  0
   12.9530   47.6960    2.5190 C   0  0  0  0  0  0  0  0  0  0  0  0
   12.3450   46.6490    2.7340 O   0  0  0  0  0  0  0  0  0  0  0  0
   15.2620   46.7530    2.3080 C   0  0  0  0  0  0  0  0  0  0  0  0
   15.3380   46.9670    0.8000 C   0  0  0  0  0  0  0  0  0  0  0  0
   16.6540   46.7600    2.9070 C   0  0  0  0  0  0  0  0  0  0  0  0
   12.3940   48.7380    1.9130 N   0  0  0  0  0  0  0  0  0  0  0  0
   11.0160   48.6790    1.4460 C   0  0  2  0  0  0  0  0  0  0  0  0
   10.7740   49.6480    0.2960 C   0  0  0  0  0  0  0  0  0  0  0  0
   11.4400   50.6750    0.1860 O   0  0  0  0  0  0  0  0  0  0  0  0
   10.0550   48.9910    2.5960 C   0  0  0  0  0  0  0  0  0  0  0  0
   10.3030   50.2790    3.1300 O   0  0  0  0  0  0  0  0  0  0  0  0
    9.8130   49.3110   -0.5560 N   0  0  0  0  0  0  0  0  0  0  0  0
    9.4720   50.1490   -1.6980 C   0  0  0  0  0  0  0  0  0  0  0  0
   18.0288   48.0490   12.1358 H   0  0  0  0  0  0  0  0  0  0  0  0
   16.9604   49.2740   12.7770 H   0  0  0  0  0  0  0  0  0  0  0  0
   18.6885   49.5325   12.7817 H   0  0  0  0  0  0  0  0  0  0  0  0
   18.1010   47.9685    9.9962 H   0  0  0  0  0  0  0  0  0  0  0  0
   17.6162   50.4503    8.4626 H   0  0  0  0  0  0  0  0  0  0  0  0
   19.3655   48.1436    7.6745 H   0  0  0  0  0  0  0  0  0  0  0  0
   18.6491   50.6642    6.1860 H   0  0  0  0  0  0  0  0  0  0  0  0
   18.1099   49.0543    5.7730 H   0  0  0  0  0  0  0  0  0  0  0  0
   19.8039   49.4656    5.6542 H   0  0  0  0  0  0  0  0  0  0  0  0
   20.0070   51.0107    8.2773 H   0  0  0  0  0  0  0  0  0  0  0  0
   21.1450   49.8041    7.7278 H   0  0  0  0  0  0  0  0  0  0  0  0
   20.3902   49.6434    9.2955 H   0  0  0  0  0  0  0  0  0  0  0  0
   15.7010   50.2682    7.3594 H   0  0  0  0  0  0  0  0  0  0  0  0
   14.6664   47.5674    6.8795 H   0  0  0  0  0  0  0  0  0  0  0  0
   13.1322   50.1651    7.0334 H   0  0  0  0  0  0  0  0  0  0  0  0
   13.3216   47.9847    8.8764 H   0  0  0  0  0  0  0  0  0  0  0  0
   12.1438   47.3355    6.8531 H   0  0  0  0  0  0  0  0  0  0  0  0
   12.0651   48.5266    5.5771 H   0  0  0  0  0  0  0  0  0  0  0  0
   11.1432   48.7552    7.0437 H   0  0  0  0  0  0  0  0  0  0  0  0
   14.3643   46.8891    4.8456 H   0  0  0  0  0  0  0  0  0  0  0  0
   14.7972   48.8089    2.6619 H   0  0  0  0  0  0  0  0  0  0  0  0
   14.8064   45.8032    2.4959 H   0  0  0  0  0  0  0  0  0  0  0  0
   15.7921   47.9143    0.5966 H   0  0  0  0  0  0  0  0  0  0  0  0
   14.3511   46.9485    0.3870 H   0  0  0  0  0  0  0  0  0  0  0  0
   15.9241   46.1883    0.3583 H   0  0  0  0  0  0  0  0  0  0  0  0
   17.1166   47.7072    2.7232 H   0  0  0  0  0  0  0  0  0  0  0  0
   17.2391   45.9843    2.4588 H   0  0  0  0  0  0  0  0  0  0  0  0
   16.5892   46.5935    3.9620 H   0  0  0  0  0  0  0  0  0  0  0  0
   12.9181   49.5604    1.7780 H   0  0  0  0  0  0  0  0  0  0  0  0
   10.8360   47.6866    1.0888 H   0  0  0  0  0  0  0  0  0  0  0  0
   10.1846   48.2614    3.3679 H   0  0  0  0  0  0  0  0  0  0  0  0
    9.0537   48.9652    2.2197 H   0  0  0  0  0  0  0  0  0  0  0  0
   11.2086   50.3170    3.4753 H   0  0  0  0  0  0  0  0  0  0  0  0
    9.3176   48.4724   -0.4122 H   0  0  0  0  0  0  0  0  0  0  0  0
   10.1011   51.0145   -1.7058 H   0  0  0  0  0  0  0  0  0  0  0  0
    8.4486   50.4526   -1.6247 H   0  0  0  0  0  0  0  0  0  0  0  0
    9.6159   49.5954   -2.6023 H   0  0  0  0  0  0  0  0  0  0  0  0
  1 33  1  0  0  0  0
  1 34  1  0  0  0  0
  1 35  1  0  0  0  0
  2  1  1  0  0  0  0
  3  2  2  0  0  0  0
  4  2  1  0  0  0  0
  4 36  1  0  0  0  0
  5  4  1  0  0  0  0
  5 37  1  6  0  0  0
  6  5  1  0  0  0  0
  7  6  2  0  0  0  0
  8 10  1  0  0  0  0
  8  5  1  0  0  0  0
  8 38  1  0  0  0  0
  9  8  1  0  0  0  0
  9 39  1  0  0  0  0
  9 40  1  0  0  0  0
  9 41  1  0  0  0  0
 10 42  1  0  0  0  0
 10 43  1  0  0  0  0
 10 44  1  0  0  0  0
 11  6  1  0  0  0  0
 11 45  1  0  0  0  0
 12 15  1  0  0  0  0
 12 11  1  0  0  0  0
 12 46  1  1  0  0  0
 13 12  1  0  0  0  0
 14 13  2  0  0  0  0
 15 16  1  0  0  0  0
 15 47  1  6  0  0  0
 16 48  1  0  0  0  0
 17 15  1  0  0  0  0
 17 49  1  0  0  0  0
 17 50  1  0  0  0  0
 17 51  1  0  0  0  0
 18 13  1  0  0  0  0
 18 52  1  0  0  0  0
 19 18  1  0  0  0  0
 19 53  1  6  0  0  0
 20 21  2  0  0  0  0
 20 19  1  0  0  0  0
 22 24  1  0  0  0  0
 22 19  1  0  0  0  0
 22 54  1  0  0  0  0
 23 22  1  0  0  0  0
 23 55  1  0  0  0  0
 23 56  1  0  0  0  0
 23 57  1  0  0  0  0
 24 58  1  0  0  0  0
 24 59  1  0  0  0  0
 24 60  1  0  0  0  0
 25 20  1  0  0  0  0
 25 61  1  0  0  0  0
 26 25  1  0  0  0  0
 26 29  1  0  0  0  0
 26 62  1  6  0  0  0
 27 26  1  0  0  0  0
 28 27  2  0  0  0  0
 29 30  1  0  0  0  0
 29 63  1  0  0  0  0
 29 64  1  0  0  0  0
 30 65  1  0  0  0  0
 31 27  1  0  0  0  0
 31 66  1  0  0  0  0
 32 31  1  0  0  0  0
 32 67  1  0  0  0  0
 32 68  1  0  0  0  0
 32 69  1  0  0  0  0
M  END
>  <MODEL>
       0

$$$$
selected_4mers/VTVS/993_noH.pdb
 OpenBabel03042518353D

 69 68  0  0  1  0  0  0  0  0999 V2000
   43.2740   28.3870   46.3560 C   0  0  0  0  0  0  0  0  0  0  0  0
   43.6340   27.5550   45.1370 C   0  0  0  0  0  0  0  0  0  0  0  0
   43.7950   26.3430   45.2500 O   0  0  0  0  0  0  0  0  0  0  0  0
   43.7580   28.1690   43.9680 N   0  0  0  0  0  0  0  0  0  0  0  0
   43.5650   29.5970   43.7310 C   0  0  2  0  0  0  0  0  0  0  0  0
   42.0900   29.9450   43.5350 C   0  0  0  0  0  0  0  0  0  0  0  0
   41.3370   29.1790   42.9340 O   0  0  0  0  0  0  0  0  0  0  0  0
   44.3210   29.9940   42.4340 C   0  0  0  0  0  0  0  0  0  0  0  0
   44.1440   31.4590   42.1270 C   0  0  0  0  0  0  0  0  0  0  0  0
   45.8070   29.6360   42.5440 C   0  0  0  0  0  0  0  0  0  0  0  0
   41.6820   31.1040   44.0460 N   0  0  0  0  0  0  0  0  0  0  0  0
   40.3250   31.6140   43.8470 C   0  0  2  0  0  0  0  0  0  0  0  0
   40.4060   32.9730   43.1630 C   0  0  0  0  0  0  0  0  0  0  0  0
   41.2250   33.8070   43.5500 O   0  0  0  0  0  0  0  0  0  0  0  0
   39.6080   31.7730   45.2050 C   0  0  2  0  0  0  0  0  0  0  0  0
   39.4490   30.4820   45.8040 O   0  0  0  0  0  0  0  0  0  0  0  0
   38.2350   32.4380   45.0480 C   0  0  0  0  0  0  0  0  0  0  0  0
   39.5800   33.2000   42.1430 N   0  0  0  0  0  0  0  0  0  0  0  0
   39.5550   34.5070   41.4800 C   0  0  2  0  0  0  0  0  0  0  0  0
   38.1660   35.1190   41.5880 C   0  0  0  0  0  0  0  0  0  0  0  0
   37.1610   34.4290   41.4140 O   0  0  0  0  0  0  0  0  0  0  0  0
   39.9910   34.4050   39.9920 C   0  0  0  0  0  0  0  0  0  0  0  0
   39.9550   35.7840   39.2960 C   0  0  0  0  0  0  0  0  0  0  0  0
   41.3800   33.8070   39.9080 C   0  0  0  0  0  0  0  0  0  0  0  0
   38.1070   36.4130   41.8970 N   0  0  0  0  0  0  0  0  0  0  0  0
   36.8310   37.1120   41.9490 C   0  0  2  0  0  0  0  0  0  0  0  0
   37.0720   38.6100   41.8670 C   0  0  0  0  0  0  0  0  0  0  0  0
   37.9810   39.1230   42.5010 O   0  0  0  0  0  0  0  0  0  0  0  0
   36.0810   36.7880   43.2420 C   0  0  0  0  0  0  0  0  0  0  0  0
   34.8240   37.4430   43.2670 O   0  0  0  0  0  0  0  0  0  0  0  0
   36.2630   39.3010   41.0730 N   0  0  0  0  0  0  0  0  0  0  0  0
   36.3080   40.7520   41.0100 C   0  0  0  0  0  0  0  0  0  0  0  0
   43.1742   29.4134   46.0705 H   0  0  0  0  0  0  0  0  0  0  0  0
   44.0458   28.2948   47.0914 H   0  0  0  0  0  0  0  0  0  0  0  0
   42.3485   28.0389   46.7648 H   0  0  0  0  0  0  0  0  0  0  0  0
   44.0014   27.6137   43.1924 H   0  0  0  0  0  0  0  0  0  0  0  0
   43.9343   30.1244   44.5856 H   0  0  0  0  0  0  0  0  0  0  0  0
   43.8997   29.4374   41.6230 H   0  0  0  0  0  0  0  0  0  0  0  0
   44.5571   32.0427   42.9230 H   0  0  0  0  0  0  0  0  0  0  0  0
   43.1017   31.6791   42.0272 H   0  0  0  0  0  0  0  0  0  0  0  0
   44.6476   31.6952   41.2129 H   0  0  0  0  0  0  0  0  0  0  0  0
   46.2470   30.1836   43.3511 H   0  0  0  0  0  0  0  0  0  0  0  0
   46.3031   29.8876   41.6300 H   0  0  0  0  0  0  0  0  0  0  0  0
   45.9084   28.5868   42.7278 H   0  0  0  0  0  0  0  0  0  0  0  0
   42.3162   31.6377   44.5772 H   0  0  0  0  0  0  0  0  0  0  0  0
   39.7742   30.9242   43.2423 H   0  0  0  0  0  0  0  0  0  0  0  0
   40.2069   32.4039   45.8280 H   0  0  0  0  0  0  0  0  0  0  0  0
   38.9046   29.9230   45.2278 H   0  0  0  0  0  0  0  0  0  0  0  0
   37.6121   31.8279   44.4278 H   0  0  0  0  0  0  0  0  0  0  0  0
   38.3545   33.4006   44.5964 H   0  0  0  0  0  0  0  0  0  0  0  0
   37.7805   32.5494   46.0103 H   0  0  0  0  0  0  0  0  0  0  0  0
   38.9809   32.4835   41.8316 H   0  0  0  0  0  0  0  0  0  0  0  0
   40.2586   35.1419   41.9767 H   0  0  0  0  0  0  0  0  0  0  0  0
   39.2984   33.7687   39.4818 H   0  0  0  0  0  0  0  0  0  0  0  0
   40.6389   36.4473   39.7831 H   0  0  0  0  0  0  0  0  0  0  0  0
   38.9654   36.1868   39.3534 H   0  0  0  0  0  0  0  0  0  0  0  0
   40.2358   35.6729   38.2695 H   0  0  0  0  0  0  0  0  0  0  0  0
   42.0734   34.4426   40.4179 H   0  0  0  0  0  0  0  0  0  0  0  0
   41.6678   33.7163   38.8814 H   0  0  0  0  0  0  0  0  0  0  0  0
   41.3801   32.8396   40.3653 H   0  0  0  0  0  0  0  0  0  0  0  0
   38.9377   36.9037   42.0930 H   0  0  0  0  0  0  0  0  0  0  0  0
   36.2343   36.7901   41.1212 H   0  0  0  0  0  0  0  0  0  0  0  0
   36.6641   37.1139   44.0779 H   0  0  0  0  0  0  0  0  0  0  0  0
   35.9205   35.7313   43.2923 H   0  0  0  0  0  0  0  0  0  0  0  0
   34.9585   38.4026   43.2218 H   0  0  0  0  0  0  0  0  0  0  0  0
   35.6149   38.8172   40.5116 H   0  0  0  0  0  0  0  0  0  0  0  0
   37.0617   41.1148   41.6773 H   0  0  0  0  0  0  0  0  0  0  0  0
   35.3570   41.1511   41.2952 H   0  0  0  0  0  0  0  0  0  0  0  0
   36.5384   41.0587   40.0111 H   0  0  0  0  0  0  0  0  0  0  0  0
  1 33  1  0  0  0  0
  1 34  1  0  0  0  0
  1 35  1  0  0  0  0
  2  3  2  0  0  0  0
  2  1  1  0  0  0  0
  4  2  1  0  0  0  0
  4 36  1  0  0  0  0
  5  4  1  0  0  0  0
  5 37  1  1  0  0  0
  6  5  1  0  0  0  0
  6 11  1  0  0  0  0
  7  6  2  0  0  0  0
  8 10  1  0  0  0  0
  8  5  1  0  0  0  0
  8 38  1  0  0  0  0
  9  8  1  0  0  0  0
  9 39  1  0  0  0  0
  9 40  1  0  0  0  0
  9 41  1  0  0  0  0
 10 42  1  0  0  0  0
 10 43  1  0  0  0  0
 10 44  1  0  0  0  0
 11 45  1  0  0  0  0
 12 11  1  0  0  0  0
 12 15  1  0  0  0  0
 12 46  1  6  0  0  0
 13 14  2  0  0  0  0
 13 12  1  0  0  0  0
 15 16  1  0  0  0  0
 15 47  1  1  0  0  0
 16 48  1  0  0  0  0
 17 15  1  0  0  0  0
 17 49  1  0  0  0  0
 17 50  1  0  0  0  0
 17 51  1  0  0  0  0
 18 13  1  0  0  0  0
 18 52  1  0  0  0  0
 19 20  1  0  0  0  0
 19 18  1  0  0  0  0
 19 53  1  1  0  0  0
 20 25  1  0  0  0  0
 21 20  2  0  0  0  0
 22 19  1  0  0  0  0
 22 54  1  0  0  0  0
 23 22  1  0  0  0  0
 23 55  1  0  0  0  0
 23 56  1  0  0  0  0
 23 57  1  0  0  0  0
 24 22  1  0  0  0  0
 24 58  1  0  0  0  0
 24 59  1  0  0  0  0
 24 60  1  0  0  0  0
 25 26  1  0  0  0  0
 25 61  1  0  0  0  0
 26 29  1  0  0  0  0
 26 62  1  6  0  0  0
 27 26  1  0  0  0  0
 27 28  2  0  0  0  0
 29 30  1  0  0  0  0
 29 63  1  0  0  0  0
 29 64  1  0  0  0  0
 30 65  1  0  0  0  0
 31 27  1  0  0  0  0
 31 66  1  0  0  0  0
 32 31  1  0  0  0  0
 32 67  1  0  0  0  0
 32 68  1  0  0  0  0
 32 69  1  0  0  0  0
M  END
>  <MODEL>
       0

$$$$
selected_4mers/VTVS/994_noH.pdb
 OpenBabel03042518353D

 69 68  0  0  1  0  0  0  0  0999 V2000
  -13.0690   17.1660   65.9820 C   0  0  0  0  0  0  0  0  0  0  0  0
  -13.8160   18.3610   65.4020 C   0  0  0  0  0  0  0  0  0  0  0  0
  -14.0210   19.3620   66.0950 O   0  0  0  0  0  0  0  0  0  0  0  0
  -14.2200   18.2640   64.1390 N   0  0  0  0  0  0  0  0  0  0  0  0
  -14.9460   19.3530   63.5010 C   0  0  2  0  0  0  0  0  0  0  0  0
  -16.2870   18.8720   62.9660 C   0  0  0  0  0  0  0  0  0  0  0  0
  -16.4530   17.6950   62.6300 O   0  0  0  0  0  0  0  0  0  0  0  0
  -14.1350   19.9880   62.3340 C   0  0  0  0  0  0  0  0  0  0  0  0
  -12.7840   20.4750   62.8460 C   0  0  0  0  0  0  0  0  0  0  0  0
  -13.9450   18.9860   61.2030 C   0  0  0  0  0  0  0  0  0  0  0  0
  -17.2440   19.7900   62.8960 N   0  0  0  0  0  0  0  0  0  0  0  0
  -18.5730   19.4670   62.4010 C   0  0  2  0  0  0  0  0  0  0  0  0
  -18.5510   19.2510   60.8960 C   0  0  0  0  0  0  0  0  0  0  0  0
  -17.6290   19.6830   60.2040 O   0  0  0  0  0  0  0  0  0  0  0  0
  -19.5670   20.6060   62.6840 C   0  0  2  0  0  0  0  0  0  0  0  0
  -19.0640   21.8250   62.1210 O   0  0  0  0  0  0  0  0  0  0  0  0
  -19.7780   20.7780   64.1760 C   0  0  0  0  0  0  0  0  0  0  0  0
  -19.5730   18.5700   60.3940 N   0  0  0  0  0  0  0  0  0  0  0  0
  -19.6860   18.3480   58.9640 C   0  0  2  0  0  0  0  0  0  0  0  0
  -19.7720   19.7260   58.3110 C   0  0  0  0  0  0  0  0  0  0  0  0
  -19.2320   19.9480   57.2300 O   0  0  0  0  0  0  0  0  0  0  0  0
  -20.9520   17.5220   58.6330 C   0  0  0  0  0  0  0  0  0  0  0  0
  -21.2160   17.5370   57.1360 C   0  0  0  0  0  0  0  0  0  0  0  0
  -20.7640   16.0850   59.1160 C   0  0  0  0  0  0  0  0  0  0  0  0
  -20.4350   20.6630   58.9850 N   0  0  0  0  0  0  0  0  0  0  0  0
  -20.5670   22.0150   58.4510 C   0  0  2  0  0  0  0  0  0  0  0  0
  -19.2160   22.7070   58.2780 C   0  0  0  0  0  0  0  0  0  0  0  0
  -18.9820   23.3680   57.2680 O   0  0  0  0  0  0  0  0  0  0  0  0
  -21.4680   22.8670   59.3540 C   0  0  0  0  0  0  0  0  0  0  0  0
  -22.7950   22.3720   59.3530 O   0  0  0  0  0  0  0  0  0  0  0  0
  -18.3280   22.5660   59.2590 N   0  0  0  0  0  0  0  0  0  0  0  0
  -17.0180   23.2000   59.1500 C   0  0  0  0  0  0  0  0  0  0  0  0
  -12.9885   16.4007   65.2386 H   0  0  0  0  0  0  0  0  0  0  0  0
  -13.6041   16.7870   66.8275 H   0  0  0  0  0  0  0  0  0  0  0  0
  -12.0899   17.4713   66.2871 H   0  0  0  0  0  0  0  0  0  0  0  0
  -14.0257   17.4450   63.6284 H   0  0  0  0  0  0  0  0  0  0  0  0
  -15.1031   20.0974   64.2534 H   0  0  0  0  0  0  0  0  0  0  0  0
  -14.6830   20.8231   61.9504 H   0  0  0  0  0  0  0  0  0  0  0  0
  -12.2288   19.6457   63.2318 H   0  0  0  0  0  0  0  0  0  0  0  0
  -12.9355   21.1951   63.6228 H   0  0  0  0  0  0  0  0  0  0  0  0
  -12.2396   20.9260   62.0428 H   0  0  0  0  0  0  0  0  0  0  0  0
  -13.3981   18.1402   61.5640 H   0  0  0  0  0  0  0  0  0  0  0  0
  -13.4020   19.4477   60.4049 H   0  0  0  0  0  0  0  0  0  0  0  0
  -14.9014   18.6661   60.8454 H   0  0  0  0  0  0  0  0  0  0  0  0
  -17.0494   20.7105   63.1859 H   0  0  0  0  0  0  0  0  0  0  0  0
  -18.8793   18.5752   62.9068 H   0  0  0  0  0  0  0  0  0  0  0  0
  -20.5081   20.3614   62.2375 H   0  0  0  0  0  0  0  0  0  0  0  0
  -18.2112   22.0419   62.5291 H   0  0  0  0  0  0  0  0  0  0  0  0
  -18.8466   21.0235   64.6420 H   0  0  0  0  0  0  0  0  0  0  0  0
  -20.1547   19.8663   64.5904 H   0  0  0  0  0  0  0  0  0  0  0  0
  -20.4815   21.5656   64.3483 H   0  0  0  0  0  0  0  0  0  0  0  0
  -20.2625   18.2112   60.9982 H   0  0  0  0  0  0  0  0  0  0  0  0
  -18.8439   17.7968   58.6007 H   0  0  0  0  0  0  0  0  0  0  0  0
  -21.7931   17.9571   59.1312 H   0  0  0  0  0  0  0  0  0  0  0  0
  -20.3828   17.1045   56.6225 H   0  0  0  0  0  0  0  0  0  0  0  0
  -21.3523   18.5463   56.8080 H   0  0  0  0  0  0  0  0  0  0  0  0
  -22.0987   16.9707   56.9238 H   0  0  0  0  0  0  0  0  0  0  0  0
  -19.9232   15.6486   58.6185 H   0  0  0  0  0  0  0  0  0  0  0  0
  -21.6433   15.5167   58.8954 H   0  0  0  0  0  0  0  0  0  0  0  0
  -20.5938   16.0832   60.1724 H   0  0  0  0  0  0  0  0  0  0  0  0
  -20.8412   20.4415   59.8540 H   0  0  0  0  0  0  0  0  0  0  0  0
  -21.0128   21.9205   57.4829 H   0  0  0  0  0  0  0  0  0  0  0  0
  -21.4697   23.8755   58.9964 H   0  0  0  0  0  0  0  0  0  0  0  0
  -21.0880   22.8263   60.3534 H   0  0  0  0  0  0  0  0  0  0  0  0
  -23.1512   22.4037   58.4513 H   0  0  0  0  0  0  0  0  0  0  0  0
  -18.5543   22.0351   60.0566 H   0  0  0  0  0  0  0  0  0  0  0  0
  -16.9542   23.7298   58.2226 H   0  0  0  0  0  0  0  0  0  0  0  0
  -16.2550   22.4507   59.1859 H   0  0  0  0  0  0  0  0  0  0  0  0
  -16.8843   23.8843   59.9616 H   0  0  0  0  0  0  0  0  0  0  0  0
  1 33  1  0  0  0  0
  1 34  1  0  0  0  0
  1 35  1  0  0  0  0
  2  1  1  0  0  0  0
  2  3  2  0  0  0  0
  4  2  1  0  0  0  0
  4 36  1  0  0  0  0
  5  4  1  0  0  0  0
  5 37  1  1  0  0  0
  6  5  1  0  0  0  0
  7  6  2  0  0  0  0
  8  9  1  0  0  0  0
  8  5  1  0  0  0  0
  8 38  1  0  0  0  0
  9 39  1  0  0  0  0
  9 40  1  0  0  0  0
  9 41  1  0  0  0  0
 10  8  1  0  0  0  0
 10 42  1  0  0  0  0
 10 43  1  0  0  0  0
 10 44  1  0  0  0  0
 11  6  1  0  0  0  0
 11 45  1  0  0  0  0
 12 15  1  0  0  0  0
 12 11  1  0  0  0  0
 12 46  1  1  0  0  0
 13 12  1  0  0  0  0
 14 13  2  0  0  0  0
 15 17  1  0  0  0  0
 15 47  1  6  0  0  0
 16 15  1  0  0  0  0
 16 48  1  0  0  0  0
 17 49  1  0  0  0  0
 17 50  1  0  0  0  0
 17 51  1  0  0  0  0
 18 13  1  0  0  0  0
 18 52  1  0  0  0  0
 19 18  1  0  0  0  0
 19 53  1  6  0  0  0
 20 19  1  0  0  0  0
 20 25  1  0  0  0  0
 21 20  2  0  0  0  0
 22 19  1  0  0  0  0
 22 24  1  0  0  0  0
 22 54  1  0  0  0  0
 23 22  1  0  0  0  0
 23 55  1  0  0  0  0
 23 56  1  0  0  0  0
 23 57  1  0  0  0  0
 24 58  1  0  0  0  0
 24 59  1  0  0  0  0
 24 60  1  0  0  0  0
 25 61  1  0  0  0  0
 26 25  1  0  0  0  0
 26 29  1  0  0  0  0
 26 62  1  6  0  0  0
 27 26  1  0  0  0  0
 27 31  1  0  0  0  0
 28 27  2  0  0  0  0
 29 63  1  0  0  0  0
 29 64  1  0  0  0  0
 30 29  1  0  0  0  0
 30 65  1  0  0  0  0
 31 66  1  0  0  0  0
 32 31  1  0  0  0  0
 32 67  1  0  0  0  0
 32 68  1  0  0  0  0
 32 69  1  0  0  0  0
M  END
>  <MODEL>
       0

$$$$
