selected_4mers/VTVT/995_noH.pdb
 OpenBabel03042518353D

 72 71  0  0  1  0  0  0  0  0999 V2000
    4.4040   34.0990   15.2900 C   0  0  0  0  0  0  0  0  0  0  0  0
    5.4320   34.0800   16.4210 C   0  0  0  0  0  0  0  0  0  0  0  0
    5.0690   34.0940   17.5950 O   0  0  0  0  0  0  0  0  0  0  0  0
    6.7130   34.0350   16.0640 N   0  0  0  0  0  0  0  0  0  0  0  0
    7.7680   33.7370   17.0350 C   0  0  2  0  0  0  0  0  0  0  0  0
    8.8370   34.8290   17.0540 C   0  0  0  0  0  0  0  0  0  0  0  0
    9.4200   35.1510   16.0220 O   0  0  0  0  0  0  0  0  0  0  0  0
    8.4380   32.3520   16.7470 C   0  0  0  0  0  0  0  0  0  0  0  0
    9.5590   32.0560   17.7530 C   0  0  0  0  0  0  0  0  0  0  0  0
    7.4040   31.2260   16.7590 C   0  0  0  0  0  0  0  0  0  0  0  0
    9.0680   35.3940   18.2350 N   0  0  0  0  0  0  0  0  0  0  0  0
   10.1480   36.3490   18.4530 C   0  0  2  0  0  0  0  0  0  0  0  0
   11.1830   35.7120   19.3720 C   0  0  0  0  0  0  0  0  0  0  0  0
   10.8400   35.1560   20.4160 O   0  0  0  0  0  0  0  0  0  0  0  0
    9.6330   37.6610   19.0850 C   0  0  2  0  0  0  0  0  0  0  0  0
    8.6130   38.2250   18.2520 O   0  0  0  0  0  0  0  0  0  0  0  0
   10.7630   38.6710   19.2380 C   0  0  0  0  0  0  0  0  0  0  0  0
   12.4460   35.7960   18.9720 N   0  0  0  0  0  0  0  0  0  0  0  0
   13.5460   35.3030   19.7890 C   0  0  2  0  0  0  0  0  0  0  0  0
   14.4690   36.4670   20.1080 C   0  0  0  0  0  0  0  0  0  0  0  0
   14.8080   37.2490   19.2200 O   0  0  0  0  0  0  0  0  0  0  0  0
   14.3460   34.1880   19.0750 C   0  0  0  0  0  0  0  0  0  0  0  0
   15.3290   33.5370   20.0430 C   0  0  0  0  0  0  0  0  0  0  0  0
   13.4080   33.1460   18.4760 C   0  0  0  0  0  0  0  0  0  0  0  0
   14.8470   36.5920   21.3780 N   0  0  0  0  0  0  0  0  0  0  0  0
   15.8200   37.6040   21.7900 C   0  0  2  0  0  0  0  0  0  0  0  0
   16.9840   36.9600   22.5360 C   0  0  0  0  0  0  0  0  0  0  0  0
   16.7990   35.9790   23.2670 O   0  0  0  0  0  0  0  0  0  0  0  0
   15.1980   38.7280   22.6620 C   0  0  2  0  0  0  0  0  0  0  0  0
   14.9410   38.2430   23.9850 O   0  0  0  0  0  0  0  0  0  0  0  0
   13.9060   39.2740   22.0410 C   0  0  0  0  0  0  0  0  0  0  0  0
   18.1780   37.5170   22.3460 N   0  0  0  0  0  0  0  0  0  0  0  0
   19.3980   36.9550   22.9190 C   0  0  0  0  0  0  0  0  0  0  0  0
    4.9103   34.0827   14.3475 H   0  0  0  0  0  0  0  0  0  0  0  0
    3.8116   34.9872   15.3613 H   0  0  0  0  0  0  0  0  0  0  0  0
    3.7704   33.2404   15.3694 H   0  0  0  0  0  0  0  0  0  0  0  0
    6.9572   34.2059   15.1257 H   0  0  0  0  0  0  0  0  0  0  0  0
    7.2992   33.6988   17.9961 H   0  0  0  0  0  0  0  0  0  0  0  0
    8.8697   32.4034   15.7693 H   0  0  0  0  0  0  0  0  0  0  0  0
    9.1477   32.0004   18.7392 H   0  0  0  0  0  0  0  0  0  0  0  0
   10.2885   32.8378   17.7144 H   0  0  0  0  0  0  0  0  0  0  0  0
   10.0222   31.1235   17.5067 H   0  0  0  0  0  0  0  0  0  0  0  0
    6.9606   31.1592   17.7305 H   0  0  0  0  0  0  0  0  0  0  0  0
    7.8831   30.2993   16.5211 H   0  0  0  0  0  0  0  0  0  0  0  0
    6.6446   31.4314   16.0337 H   0  0  0  0  0  0  0  0  0  0  0  0
    8.4861   35.1580   18.9933 H   0  0  0  0  0  0  0  0  0  0  0  0
   10.5814   36.5945   17.5060 H   0  0  0  0  0  0  0  0  0  0  0  0
    9.2378   37.4354   20.0534 H   0  0  0  0  0  0  0  0  0  0  0  0
    8.9832   38.4249   17.3780 H   0  0  0  0  0  0  0  0  0  0  0  0
   11.1660   38.9040   18.2746 H   0  0  0  0  0  0  0  0  0  0  0  0
   11.5319   38.2552   19.8551 H   0  0  0  0  0  0  0  0  0  0  0  0
   10.3849   39.5632   19.6918 H   0  0  0  0  0  0  0  0  0  0  0  0
   12.6447   36.2033   18.0980 H   0  0  0  0  0  0  0  0  0  0  0  0
   13.1394   34.8803   20.6839 H   0  0  0  0  0  0  0  0  0  0  0  0
   14.9013   34.6311   18.2749 H   0  0  0  0  0  0  0  0  0  0  0  0
   14.7897   33.0881   20.8508 H   0  0  0  0  0  0  0  0  0  0  0  0
   15.9953   34.2803   20.4283 H   0  0  0  0  0  0  0  0  0  0  0  0
   15.8915   32.7859   19.5288 H   0  0  0  0  0  0  0  0  0  0  0  0
   12.8395   32.6867   19.2575 H   0  0  0  0  0  0  0  0  0  0  0  0
   13.9819   32.4002   17.9668 H   0  0  0  0  0  0  0  0  0  0  0  0
   12.7443   33.6198   17.7833 H   0  0  0  0  0  0  0  0  0  0  0  0
   14.4631   35.9898   22.0556 H   0  0  0  0  0  0  0  0  0  0  0  0
   16.1741   38.0606   20.8894 H   0  0  0  0  0  0  0  0  0  0  0  0
   15.9037   39.5308   22.7106 H   0  0  0  0  0  0  0  0  0  0  0  0
   14.3014   37.5149   23.9439 H   0  0  0  0  0  0  0  0  0  0  0  0
   13.1805   38.4899   21.9801 H   0  0  0  0  0  0  0  0  0  0  0  0
   14.1118   39.6465   21.0593 H   0  0  0  0  0  0  0  0  0  0  0  0
   13.5245   40.0664   22.6504 H   0  0  0  0  0  0  0  0  0  0  0  0
   18.2406   38.3347   21.8013 H   0  0  0  0  0  0  0  0  0  0  0  0
   19.1570   36.0750   23.4779 H   0  0  0  0  0  0  0  0  0  0  0  0
   19.8527   37.6754   23.5665 H   0  0  0  0  0  0  0  0  0  0  0  0
   20.0782   36.7028   22.1325 H   0  0  0  0  0  0  0  0  0  0  0  0
  1  2  1  0  0  0  0
  1 34  1  0  0  0  0
  1 35  1  0  0  0  0
  1 36  1  0  0  0  0
  2  3  2  0  0  0  0
  4  2  1  0  0  0  0
  4  5  1  0  0  0  0
  4 37  1  0  0  0  0
  5  6  1  0  0  0  0
  5 38  1  1  0  0  0
  6 11  1  0  0  0  0
  7  6  2  0  0  0  0
  8 10  1  0  0  0  0
  8  5  1  0  0  0  0
  8  9  1  0  0  0  0
  8 39  1  0  0  0  0
  9 40  1  0  0  0  0
  9 41  1  0  0  0  0
  9 42  1  0  0  0  0
 10 43  1  0  0  0  0
 10 44  1  0  0  0  0
 10 45  1  0  0  0  0
 11 12  1  0  0  0  0
 11 46  1  0  0  0  0
 12 15  1  0  0  0  0
 12 13  1  0  0  0  0
 12 47  1  6  0  0  0
 13 14  2  0  0  0  0
 15 17  1  0  0  0  0
 15 48  1  1  0  0  0
 16 15  1  0  0  0  0
 16 49  1  0  0  0  0
 17 50  1  0  0  0  0
 17 51  1  0  0  0  0
 17 52  1  0  0  0  0
 18 13  1  0  0  0  0
 18 19  1  0  0  0  0
 18 53  1  0  0  0  0
 19 20  1  0  0  0  0
 19 54  1  1  0  0  0
 20 25  1  0  0  0  0
 21 20  2  0  0  0  0
 22 19  1  0  0  0  0
 22 23  1  0  0  0  0
 22 55  1  0  0  0  0
 23 56  1  0  0  0  0
 23 57  1  0  0  0  0
 23 58  1  0  0  0  0
 24 22  1  0  0  0  0
 24 59  1  0  0  0  0
 24 60  1  0  0  0  0
 24 61  1  0  0  0  0
 25 26  1  0  0  0  0
 25 62  1  0  0  0  0
 26 27  1  0  0  0  0
 26 29  1  0  0  0  0
 26 63  1  6  0  0  0
 27 28  2  0  0  0  0
 29 30  1  0  0  0  0
 29 64  1  1  0  0  0
 30 65  1  0  0  0  0
 31 29  1  0  0  0  0
 31 66  1  0  0  0  0
 31 67  1  0  0  0  0
 31 68  1  0  0  0  0
 32 27  1  0  0  0  0
 32 33  1  0  0  0  0
 32 69  1  0  0  0  0
 33 70  1  0  0  0  0
 33 71  1  0  0  0  0
 33 72  1  0  0  0  0
M  END
>  <MODEL>
       0

$$$$
selected_4mers/VTVT/996_noH.pdb
 OpenBabel03042518353D

 72 71  0  0  1  0  0  0  0  0999 V2000
    2.2160   28.2190   10.0840 C   0  0  0  0  0  0  0  0  0  0  0  0
    2.2910   27.8310   11.5530 C   0  0  0  0  0  0  0  0  0  0  0  0
    3.0880   28.3860   12.3150 O   0  0  0  0  0  0  0  0  0  0  0  0
    1.4420   26.8890   11.9460 N   0  0  0  0  0  0  0  0  0  0  0  0
    1.3950   26.4060   13.3170 C   0  0  2  0  0  0  0  0  0  0  0  0
    1.8500   24.9530   13.3020 C   0  0  0  0  0  0  0  0  0  0  0  0
    1.1990   24.1020   12.6950 O   0  0  0  0  0  0  0  0  0  0  0  0
   -0.0410   26.4840   13.8800 C   0  0  0  0  0  0  0  0  0  0  0  0
   -0.0770   25.9670   15.3080 C   0  0  0  0  0  0  0  0  0  0  0  0
   -0.5420   27.9190   13.8190 C   0  0  0  0  0  0  0  0  0  0  0  0
    2.9690   24.6690   13.9590 N   0  0  0  0  0  0  0  0  0  0  0  0
    3.4910   23.3080   13.9870 C   0  0  2  0  0  0  0  0  0  0  0  0
    3.5330   22.7370   15.3970 C   0  0  0  0  0  0  0  0  0  0  0  0
    4.0290   23.3820   16.3210 O   0  0  0  0  0  0  0  0  0  0  0  0
    4.9220   23.2400   13.4050 C   0  0  2  0  0  0  0  0  0  0  0  0
    4.9340   23.8070   12.0910 O   0  0  0  0  0  0  0  0  0  0  0  0
    5.3970   21.7960   13.3240 C   0  0  0  0  0  0  0  0  0  0  0  0
    3.0010   21.5280   15.5580 N   0  0  0  0  0  0  0  0  0  0  0  0
    3.0200   20.8590   16.8520 C   0  0  2  0  0  0  0  0  0  0  0  0
    4.3740   20.1620   16.9400 C   0  0  0  0  0  0  0  0  0  0  0  0
    4.5130   18.9840   16.6050 O   0  0  0  0  0  0  0  0  0  0  0  0
    1.8980   19.8090   16.9690 C   0  0  0  0  0  0  0  0  0  0  0  0
    1.9370   19.1590   18.3450 C   0  0  0  0  0  0  0  0  0  0  0  0
    0.5490   20.4630   16.7280 C   0  0  0  0  0  0  0  0  0  0  0  0
    5.3730   20.9180   17.3780 N   0  0  0  0  0  0  0  0  0  0  0  0
    6.7380   20.4260   17.5050 C   0  0  2  0  0  0  0  0  0  0  0  0
    6.9810   19.7570   18.8510 C   0  0  0  0  0  0  0  0  0  0  0  0
    7.9920   19.0790   19.0340 O   0  0  0  0  0  0  0  0  0  0  0  0
    7.7410   21.5830   17.3830 C   0  0  2  0  0  0  0  0  0  0  0  0
    7.4190   22.5800   18.3590 O   0  0  0  0  0  0  0  0  0  0  0  0
    7.6830   22.2080   15.9940 C   0  0  0  0  0  0  0  0  0  0  0  0
    6.0530   19.9490   19.7850 N   0  0  0  0  0  0  0  0  0  0  0  0
    6.1920   19.3980   21.1290 C   0  0  0  0  0  0  0  0  0  0  0  0
    1.4693   27.6276    9.5966 H   0  0  0  0  0  0  0  0  0  0  0  0
    3.1652   28.0475    9.6209 H   0  0  0  0  0  0  0  0  0  0  0  0
    1.9608   29.2548   10.0013 H   0  0  0  0  0  0  0  0  0  0  0  0
    0.8219   26.5035   11.2856 H   0  0  0  0  0  0  0  0  0  0  0  0
    2.0259   27.0084   13.9366 H   0  0  0  0  0  0  0  0  0  0  0  0
   -0.6828   25.8692   13.2842 H   0  0  0  0  0  0  0  0  0  0  0  0
    0.5597   26.5695   15.9216 H   0  0  0  0  0  0  0  0  0  0  0  0
    0.2633   24.9528   15.3288 H   0  0  0  0  0  0  0  0  0  0  0  0
   -1.0793   26.0146   15.6794 H   0  0  0  0  0  0  0  0  0  0  0  0
    0.0928   28.5439   14.4118 H   0  0  0  0  0  0  0  0  0  0  0  0
   -1.5416   27.9642   14.1980 H   0  0  0  0  0  0  0  0  0  0  0  0
   -0.5296   28.2583   12.8043 H   0  0  0  0  0  0  0  0  0  0  0  0
    3.4510   25.3853   14.4321 H   0  0  0  0  0  0  0  0  0  0  0  0
    2.8201   22.7280   13.3883 H   0  0  0  0  0  0  0  0  0  0  0  0
    5.5764   23.7900   14.0486 H   0  0  0  0  0  0  0  0  0  0  0  0
    4.3383   23.3021   11.5155 H   0  0  0  0  0  0  0  0  0  0  0  0
    4.7454   21.2417   12.6812 H   0  0  0  0  0  0  0  0  0  0  0  0
    5.3872   21.3619   14.3020 H   0  0  0  0  0  0  0  0  0  0  0  0
    6.3922   21.7694   12.9319 H   0  0  0  0  0  0  0  0  0  0  0  0
    2.5864   21.0767   14.7875 H   0  0  0  0  0  0  0  0  0  0  0  0
    2.8671   21.5674   17.6392 H   0  0  0  0  0  0  0  0  0  0  0  0
    2.0471   19.0511   16.2286 H   0  0  0  0  0  0  0  0  0  0  0  0
    1.7891   19.9060   19.0967 H   0  0  0  0  0  0  0  0  0  0  0  0
    2.8874   18.6895   18.4909 H   0  0  0  0  0  0  0  0  0  0  0  0
    1.1620   18.4246   18.4146 H   0  0  0  0  0  0  0  0  0  0  0  0
    0.3855   21.2243   17.4619 H   0  0  0  0  0  0  0  0  0  0  0  0
   -0.2230   19.7257   16.8009 H   0  0  0  0  0  0  0  0  0  0  0  0
    0.5338   20.8999   15.7514 H   0  0  0  0  0  0  0  0  0  0  0  0
    5.1833   21.8512   17.6277 H   0  0  0  0  0  0  0  0  0  0  0  0
    6.8745   19.7124   16.7194 H   0  0  0  0  0  0  0  0  0  0  0  0
    8.7279   21.2025   17.5449 H   0  0  0  0  0  0  0  0  0  0  0  0
    6.5225   22.9132   18.1972 H   0  0  0  0  0  0  0  0  0  0  0  0
    6.7007   22.5936   15.8171 H   0  0  0  0  0  0  0  0  0  0  0  0
    7.9123   21.4652   15.2588 H   0  0  0  0  0  0  0  0  0  0  0  0
    8.3953   23.0040   15.9310 H   0  0  0  0  0  0  0  0  0  0  0  0
    5.2518   20.4765   19.5636 H   0  0  0  0  0  0  0  0  0  0  0  0
    7.1124   18.8569   21.1992 H   0  0  0  0  0  0  0  0  0  0  0  0
    5.3741   18.7382   21.3303 H   0  0  0  0  0  0  0  0  0  0  0  0
    6.1915   20.1949   21.8430 H   0  0  0  0  0  0  0  0  0  0  0  0
  1  2  1  0  0  0  0
  1 34  1  0  0  0  0
  1 35  1  0  0  0  0
  1 36  1  0  0  0  0
  2  4  1  0  0  0  0
  2  3  2  0  0  0  0
  4  5  1  0  0  0  0
  4 37  1  0  0  0  0
  5  8  1  0  0  0  0
  5 38  1  1  0  0  0
  6  5  1  0  0  0  0
  6 11  1  0  0  0  0
  7  6  2  0  0  0  0
  8  9  1  0  0  0  0
  8 39  1  0  0  0  0
  9 40  1  0  0  0  0
  9 41  1  0  0  0  0
  9 42  1  0  0  0  0
 10  8  1  0  0  0  0
 10 43  1  0  0  0  0
 10 44  1  0  0  0  0
 10 45  1  0  0  0  0
 11 12  1  0  0  0  0
 11 46  1  0  0  0  0
 12 13  1  0  0  0  0
 12 47  1  6  0  0  0
 13 18  1  0  0  0  0
 13 14  2  0  0  0  0
 15 12  1  0  0  0  0
 15 48  1  1  0  0  0
 16 15  1  0  0  0  0
 16 49  1  0  0  0  0
 17 15  1  0  0  0  0
 17 50  1  0  0  0  0
 17 51  1  0  0  0  0
 17 52  1  0  0  0  0
 18 19  1  0  0  0  0
 18 53  1  0  0  0  0
 19 20  1  0  0  0  0
 19 22  1  0  0  0  0
 19 54  1  1  0  0  0
 20 25  1  0  0  0  0
 21 20  2  0  0  0  0
 22 23  1  0  0  0  0
 22 55  1  0  0  0  0
 23 56  1  0  0  0  0
 23 57  1  0  0  0  0
 23 58  1  0  0  0  0
 24 22  1  0  0  0  0
 24 59  1  0  0  0  0
 24 60  1  0  0  0  0
 24 61  1  0  0  0  0
 25 26  1  0  0  0  0
 25 62  1  0  0  0  0
 26 27  1  0  0  0  0
 26 63  1  6  0  0  0
 27 28  2  0  0  0  0
 27 32  1  0  0  0  0
 29 26  1  0  0  0  0
 29 30  1  0  0  0  0
 29 64  1  1  0  0  0
 30 65  1  0  0  0  0
 31 29  1  0  0  0  0
 31 66  1  0  0  0  0
 31 67  1  0  0  0  0
 31 68  1  0  0  0  0
 32 33  1  0  0  0  0
 32 69  1  0  0  0  0
 33 70  1  0  0  0  0
 33 71  1  0  0  0  0
 33 72  1  0  0  0  0
M  END
>  <MODEL>
       0

$$$$
selected_4mers/VTVT/997_noH.pdb
 OpenBabel03042518353D

 72 71  0  0  1  0  0  0  0  0999 V2000
  -15.3530   18.5970    2.3080 C   0  0  0  0  0  0  0  0  0  0  0  0
  -15.8080   17.3940    3.1640 C   0  0  0  0  0  0  0  0  0  0  0  0
  -16.5770   17.5560    4.1220 O   0  0  0  0  0  0  0  0  0  0  0  0
  -15.3890   16.1910    2.7990 N   0  0  0  0  0  0  0  0  0  0  0  0
  -15.8270   14.9770    3.5090 C   0  0  2  0  0  0  0  0  0  0  0  0
  -14.7860   14.6780    4.6100 C   0  0  0  0  0  0  0  0  0  0  0  0
  -13.5480   14.6700    4.3080 O   0  0  0  0  0  0  0  0  0  0  0  0
  -15.9580   13.8020    2.5210 C   0  0  0  0  0  0  0  0  0  0  0  0
  -16.1710   12.4790    3.2080 C   0  0  0  0  0  0  0  0  0  0  0  0
  -17.0500   14.0950    1.4690 C   0  0  0  0  0  0  0  0  0  0  0  0
  -15.2420   14.3890    5.8250 N   0  0  0  0  0  0  0  0  0  0  0  0
  -14.3540   13.9770    6.8940 C   0  0  2  0  0  0  0  0  0  0  0  0
  -14.4160   12.4350    7.0830 C   0  0  0  0  0  0  0  0  0  0  0  0
  -15.4340   11.7800    6.9040 O   0  0  0  0  0  0  0  0  0  0  0  0
  -14.6560   14.7140    8.2160 C   0  0  2  0  0  0  0  0  0  0  0  0
  -15.7810   14.1150    8.8490 O   0  0  0  0  0  0  0  0  0  0  0  0
  -14.9690   16.1990    7.9730 C   0  0  0  0  0  0  0  0  0  0  0  0
  -13.2650   11.8680    7.4110 N   0  0  0  0  0  0  0  0  0  0  0  0
  -13.0680   10.4320    7.5020 C   0  0  2  0  0  0  0  0  0  0  0  0
  -12.1970   10.0930    8.7400 C   0  0  0  0  0  0  0  0  0  0  0  0
  -11.4980   10.9580    9.3120 O   0  0  0  0  0  0  0  0  0  0  0  0
  -12.3550    9.8660    6.2420 C   0  0  0  0  0  0  0  0  0  0  0  0
  -13.1230   10.2480    4.9740 C   0  0  0  0  0  0  0  0  0  0  0  0
  -10.8710   10.3010    6.1590 C   0  0  0  0  0  0  0  0  0  0  0  0
  -12.2250    8.8070    9.1040 N   0  0  0  0  0  0  0  0  0  0  0  0
  -11.2980    8.2530   10.0720 C   0  0  2  0  0  0  0  0  0  0  0  0
  -10.7920    6.9300    9.5060 C   0  0  0  0  0  0  0  0  0  0  0  0
  -11.5440    6.1290    8.9950 O   0  0  0  0  0  0  0  0  0  0  0  0
  -11.9610    8.0320   11.4270 C   0  0  2  0  0  0  0  0  0  0  0  0
  -12.4250    9.2920   11.9700 O   0  0  0  0  0  0  0  0  0  0  0  0
  -11.0230    7.2960   12.3730 C   0  0  0  0  0  0  0  0  0  0  0  0
   -9.4910    6.7680    9.5480 N   0  0  0  0  0  0  0  0  0  0  0  0
   -8.7860    5.5110    9.2740 C   0  0  0  0  0  0  0  0  0  0  0  0
  -14.6963   18.2566    1.5349 H   0  0  0  0  0  0  0  0  0  0  0  0
  -14.8391   19.3017    2.9278 H   0  0  0  0  0  0  0  0  0  0  0  0
  -16.2085   19.0659    1.8685 H   0  0  0  0  0  0  0  0  0  0  0  0
  -14.7716   16.1068    2.0368 H   0  0  0  0  0  0  0  0  0  0  0  0
  -16.7892   15.1203    3.9545 H   0  0  0  0  0  0  0  0  0  0  0  0
  -15.0219   13.7115    2.0107 H   0  0  0  0  0  0  0  0  0  0  0  0
  -17.0977   12.4998    3.7425 H   0  0  0  0  0  0  0  0  0  0  0  0
  -15.3685   12.2993    3.8925 H   0  0  0  0  0  0  0  0  0  0  0  0
  -16.1982   11.6979    2.4772 H   0  0  0  0  0  0  0  0  0  0  0  0
  -17.9980   14.1900    1.9559 H   0  0  0  0  0  0  0  0  0  0  0  0
  -17.0903   13.2915    0.7635 H   0  0  0  0  0  0  0  0  0  0  0  0
  -16.8182   15.0065    0.9587 H   0  0  0  0  0  0  0  0  0  0  0  0
  -16.2079   14.4566    6.0032 H   0  0  0  0  0  0  0  0  0  0  0  0
  -13.3580   14.2471    6.6114 H   0  0  0  0  0  0  0  0  0  0  0  0
  -13.7871   14.6403    8.8361 H   0  0  0  0  0  0  0  0  0  0  0  0
  -16.5563   14.1926    8.2713 H   0  0  0  0  0  0  0  0  0  0  0  0
  -15.8372   16.2838    7.3533 H   0  0  0  0  0  0  0  0  0  0  0  0
  -14.1370   16.6640    7.4868 H   0  0  0  0  0  0  0  0  0  0  0  0
  -15.1508   16.6831    8.9097 H   0  0  0  0  0  0  0  0  0  0  0  0
  -12.4981   12.4542    7.6045 H   0  0  0  0  0  0  0  0  0  0  0  0
  -14.0375    9.9869    7.5844 H   0  0  0  0  0  0  0  0  0  0  0  0
  -12.3525    8.7994    6.3270 H   0  0  0  0  0  0  0  0  0  0  0  0
  -13.1360   11.3131    4.8721 H   0  0  0  0  0  0  0  0  0  0  0  0
  -14.1269    9.8839    5.0417 H   0  0  0  0  0  0  0  0  0  0  0  0
  -12.6429    9.8141    4.1219 H   0  0  0  0  0  0  0  0  0  0  0  0
  -10.8158   11.3660    6.0722 H   0  0  0  0  0  0  0  0  0  0  0  0
  -10.4142    9.8493    5.3033 H   0  0  0  0  0  0  0  0  0  0  0  0
  -10.3576    9.9882    7.0441 H   0  0  0  0  0  0  0  0  0  0  0  0
  -12.8995    8.2144    8.7002 H   0  0  0  0  0  0  0  0  0  0  0  0
  -10.4918    8.9375   10.2347 H   0  0  0  0  0  0  0  0  0  0  0  0
  -12.8204    7.4072   11.3003 H   0  0  0  0  0  0  0  0  0  0  0  0
  -11.6694    9.8865   12.0986 H   0  0  0  0  0  0  0  0  0  0  0  0
  -10.1433    7.8840   12.5320 H   0  0  0  0  0  0  0  0  0  0  0  0
  -10.7500    6.3546   11.9438 H   0  0  0  0  0  0  0  0  0  0  0  0
  -11.5162    7.1319   13.3083 H   0  0  0  0  0  0  0  0  0  0  0  0
   -8.9441    7.5525    9.7820 H   0  0  0  0  0  0  0  0  0  0  0  0
   -9.4971    4.7480    9.0349 H   0  0  0  0  0  0  0  0  0  0  0  0
   -8.2274    5.2196   10.1388 H   0  0  0  0  0  0  0  0  0  0  0  0
   -8.1194    5.6486    8.4484 H   0  0  0  0  0  0  0  0  0  0  0  0
  1  2  1  0  0  0  0
  1 34  1  0  0  0  0
  1 35  1  0  0  0  0
  1 36  1  0  0  0  0
  2  3  2  0  0  0  0
  4  2  1  0  0  0  0
  4  5  1  0  0  0  0
  4 37  1  0  0  0  0
  5  6  1  0  0  0  0
  5 38  1  1  0  0  0
  6 11  1  0  0  0  0
  7  6  2  0  0  0  0
  8  9  1  0  0  0  0
  8  5  1  0  0  0  0
  8 39  1  0  0  0  0
  9 40  1  0  0  0  0
  9 41  1  0  0  0  0
  9 42  1  0  0  0  0
 10  8  1  0  0  0  0
 10 43  1  0  0  0  0
 10 44  1  0  0  0  0
 10 45  1  0  0  0  0
 11 12  1  0  0  0  0
 11 46  1  0  0  0  0
 12 13  1  0  0  0  0
 12 15  1  0  0  0  0
 12 47  1  6  0  0  0
 13 18  1  0  0  0  0
 14 13  2  0  0  0  0
 15 16  1  0  0  0  0
 15 48  1  1  0  0  0
 16 49  1  0  0  0  0
 17 15  1  0  0  0  0
 17 50  1  0  0  0  0
 17 51  1  0  0  0  0
 17 52  1  0  0  0  0
 18 19  1  0  0  0  0
 18 53  1  0  0  0  0
 19 20  1  0  0  0  0
 19 54  1  1  0  0  0
 20 25  1  0  0  0  0
 20 21  2  0  0  0  0
 22 19  1  0  0  0  0
 22 55  1  0  0  0  0
 23 22  1  0  0  0  0
 23 56  1  0  0  0  0
 23 57  1  0  0  0  0
 23 58  1  0  0  0  0
 24 22  1  0  0  0  0
 24 59  1  0  0  0  0
 24 60  1  0  0  0  0
 24 61  1  0  0  0  0
 25 26  1  0  0  0  0
 25 62  1  0  0  0  0
 26 29  1  0  0  0  0
 26 63  1  1  0  0  0
 27 32  1  0  0  0  0
 27 26  1  0  0  0  0
 28 27  2  0  0  0  0
 29 30  1  0  0  0  0
 29 31  1  0  0  0  0
 29 64  1  6  0  0  0
 30 65  1  0  0  0  0
 31 66  1  0  0  0  0
 31 67  1  0  0  0  0
 31 68  1  0  0  0  0
 32 69  1  0  0  0  0
 33 32  1  0  0  0  0
 33 70  1  0  0  0  0
 33 71  1  0  0  0  0
 33 72  1  0  0  0  0
M  END
>  <MODEL>
       0

$$$$
selected_4mers/VTVT/998_noH.pdb
 OpenBabel03042518353D

 72 71  0  0  1  0  0  0  0  0999 V2000
   11.3350   38.6260    9.2100 C   0  0  0  0  0  0  0  0  0  0  0  0
   12.7370   39.2180    9.3480 C   0  0  0  0  0  0  0  0  0  0  0  0
   13.7390   38.5690    9.0510 O   0  0  0  0  0  0  0  0  0  0  0  0
   12.8030   40.4650    9.7870 N   0  0  0  0  0  0  0  0  0  0  0  0
   14.0860   41.1290    9.9650 C   0  0  2  0  0  0  0  0  0  0  0  0
   14.9360   40.4020   11.0120 C   0  0  0  0  0  0  0  0  0  0  0  0
   16.1200   40.1450   10.7970 O   0  0  0  0  0  0  0  0  0  0  0  0
   13.8760   42.5930   10.3860 C   0  0  0  0  0  0  0  0  0  0  0  0
   15.2080   43.2640   10.6850 C   0  0  0  0  0  0  0  0  0  0  0  0
   13.1430   43.3300    9.2840 C   0  0  0  0  0  0  0  0  0  0  0  0
   14.3240   40.0620   12.1390 N   0  0  0  0  0  0  0  0  0  0  0  0
   15.0330   39.3860   13.2220 C   0  0  2  0  0  0  0  0  0  0  0  0
   15.6570   38.0720   12.7770 C   0  0  0  0  0  0  0  0  0  0  0  0
   16.8230   37.7970   13.0650 O   0  0  0  0  0  0  0  0  0  0  0  0
   14.0790   39.1480   14.4120 C   0  0  2  0  0  0  0  0  0  0  0  0
   13.6480   40.4160   14.9240 O   0  0  0  0  0  0  0  0  0  0  0  0
   14.7680   38.3730   15.5160 C   0  0  0  0  0  0  0  0  0  0  0  0
   14.8810   37.2610   12.0660 N   0  0  0  0  0  0  0  0  0  0  0  0
   15.3900   35.9910   11.5820 C   0  0  2  0  0  0  0  0  0  0  0  0
   16.5100   36.2180   10.5740 C   0  0  0  0  0  0  0  0  0  0  0  0
   17.5050   35.4950   10.5560 O   0  0  0  0  0  0  0  0  0  0  0  0
   14.2660   35.1660   10.9330 C   0  0  0  0  0  0  0  0  0  0  0  0
   14.8270   33.9260   10.2810 C   0  0  0  0  0  0  0  0  0  0  0  0
   13.2410   34.8070   11.9880 C   0  0  0  0  0  0  0  0  0  0  0  0
   16.3510   37.2330    9.7350 N   0  0  0  0  0  0  0  0  0  0  0  0
   17.3680   37.5200    8.7410 C   0  0  2  0  0  0  0  0  0  0  0  0
   18.6640   37.9830    9.3970 C   0  0  0  0  0  0  0  0  0  0  0  0
   19.7630   37.6110    8.9720 O   0  0  0  0  0  0  0  0  0  0  0  0
   16.8750   38.5840    7.7650 C   0  0  2  0  0  0  0  0  0  0  0  0
   15.6750   38.1180    7.1400 O   0  0  0  0  0  0  0  0  0  0  0  0
   17.9180   38.8520    6.7030 C   0  0  0  0  0  0  0  0  0  0  0  0
   18.5370   38.7920   10.4390 N   0  0  0  0  0  0  0  0  0  0  0  0
   19.7240   39.2660   11.1360 C   0  0  0  0  0  0  0  0  0  0  0  0
   11.4061   37.6210    8.8498 H   0  0  0  0  0  0  0  0  0  0  0  0
   10.7664   39.2130    8.5194 H   0  0  0  0  0  0  0  0  0  0  0  0
   10.8509   38.6295   10.1642 H   0  0  0  0  0  0  0  0  0  0  0  0
   11.9724   40.9503    9.9961 H   0  0  0  0  0  0  0  0  0  0  0  0
   14.6050   41.1051    9.0296 H   0  0  0  0  0  0  0  0  0  0  0  0
   13.2889   42.6201   11.2801 H   0  0  0  0  0  0  0  0  0  0  0  0
   15.8186   43.2519    9.8064 H   0  0  0  0  0  0  0  0  0  0  0  0
   15.7048   42.7358   11.4719 H   0  0  0  0  0  0  0  0  0  0  0  0
   15.0376   44.2762   10.9870 H   0  0  0  0  0  0  0  0  0  0  0  0
   13.7275   43.3048    8.3881 H   0  0  0  0  0  0  0  0  0  0  0  0
   12.9852   44.3465    9.5785 H   0  0  0  0  0  0  0  0  0  0  0  0
   12.1986   42.8592    9.1071 H   0  0  0  0  0  0  0  0  0  0  0  0
   13.3680   40.2706   12.2479 H   0  0  0  0  0  0  0  0  0  0  0  0
   15.8338   40.0272   13.5261 H   0  0  0  0  0  0  0  0  0  0  0  0
   13.2414   38.5766   14.0703 H   0  0  0  0  0  0  0  0  0  0  0  0
   14.4184   40.9203   15.2289 H   0  0  0  0  0  0  0  0  0  0  0  0
   15.6098   38.9300   15.8709 H   0  0  0  0  0  0  0  0  0  0  0  0
   15.0993   37.4292   15.1360 H   0  0  0  0  0  0  0  0  0  0  0  0
   14.0816   38.2123   16.3209 H   0  0  0  0  0  0  0  0  0  0  0  0
   13.9535   37.5237   11.8660 H   0  0  0  0  0  0  0  0  0  0  0  0
   15.7765   35.4472   12.4185 H   0  0  0  0  0  0  0  0  0  0  0  0
   13.7926   35.7469   10.1692 H   0  0  0  0  0  0  0  0  0  0  0  0
   15.3089   33.3211   11.0205 H   0  0  0  0  0  0  0  0  0  0  0  0
   15.5374   34.2072    9.5319 H   0  0  0  0  0  0  0  0  0  0  0  0
   14.0324   33.3705    9.8283 H   0  0  0  0  0  0  0  0  0  0  0  0
   13.7077   34.2256   12.7555 H   0  0  0  0  0  0  0  0  0  0  0  0
   12.4522   34.2393   11.5403 H   0  0  0  0  0  0  0  0  0  0  0  0
   12.8387   35.7024   12.4137 H   0  0  0  0  0  0  0  0  0  0  0  0
   15.5423   37.7920    9.7869 H   0  0  0  0  0  0  0  0  0  0  0  0
   17.5641   36.6150    8.2050 H   0  0  0  0  0  0  0  0  0  0  0  0
   16.6882   39.4913    8.3005 H   0  0  0  0  0  0  0  0  0  0  0  0
   15.8592   37.2961    6.6589 H   0  0  0  0  0  0  0  0  0  0  0  0
   18.1137   37.9511    6.1599 H   0  0  0  0  0  0  0  0  0  0  0  0
   18.8203   39.1919    7.1670 H   0  0  0  0  0  0  0  0  0  0  0  0
   17.5579   39.6026    6.0308 H   0  0  0  0  0  0  0  0  0  0  0  0
   17.6426   39.0716   10.7408 H   0  0  0  0  0  0  0  0  0  0  0  0
   20.5974   38.8606   10.6693 H   0  0  0  0  0  0  0  0  0  0  0  0
   19.6870   38.9513   12.1580 H   0  0  0  0  0  0  0  0  0  0  0  0
   19.7600   40.3345   11.0929 H   0  0  0  0  0  0  0  0  0  0  0  0
  1  2  1  0  0  0  0
  1 34  1  0  0  0  0
  1 35  1  0  0  0  0
  1 36  1  0  0  0  0
  2  4  1  0  0  0  0
  3  2  2  0  0  0  0
  4  5  1  0  0  0  0
  4 37  1  0  0  0  0
  5  8  1  0  0  0  0
  5  6  1  0  0  0  0
  5 38  1  6  0  0  0
  6 11  1  0  0  0  0
  7  6  2  0  0  0  0
  8  9  1  0  0  0  0
  8 39  1  0  0  0  0
  9 40  1  0  0  0  0
  9 41  1  0  0  0  0
  9 42  1  0  0  0  0
 10  8  1  0  0  0  0
 10 43  1  0  0  0  0
 10 44  1  0  0  0  0
 10 45  1  0  0  0  0
 11 12  1  0  0  0  0
 11 46  1  0  0  0  0
 12 15  1  0  0  0  0
 12 47  1  1  0  0  0
 13 14  2  0  0  0  0
 13 12  1  0  0  0  0
 15 16  1  0  0  0  0
 15 17  1  0  0  0  0
 15 48  1  6  0  0  0
 16 49  1  0  0  0  0
 17 50  1  0  0  0  0
 17 51  1  0  0  0  0
 17 52  1  0  0  0  0
 18 13  1  0  0  0  0
 18 53  1  0  0  0  0
 19 18  1  0  0  0  0
 19 54  1  1  0  0  0
 20 19  1  0  0  0  0
 21 20  2  0  0  0  0
 22 19  1  0  0  0  0
 22 24  1  0  0  0  0
 22 55  1  0  0  0  0
 23 22  1  0  0  0  0
 23 56  1  0  0  0  0
 23 57  1  0  0  0  0
 23 58  1  0  0  0  0
 24 59  1  0  0  0  0
 24 60  1  0  0  0  0
 24 61  1  0  0  0  0
 25 20  1  0  0  0  0
 25 62  1  0  0  0  0
 26 27  1  0  0  0  0
 26 25  1  0  0  0  0
 26 63  1  6  0  0  0
 27 32  1  0  0  0  0
 28 27  2  0  0  0  0
 29 26  1  0  0  0  0
 29 64  1  1  0  0  0
 30 29  1  0  0  0  0
 30 65  1  0  0  0  0
 31 29  1  0  0  0  0
 31 66  1  0  0  0  0
 31 67  1  0  0  0  0
 31 68  1  0  0  0  0
 32 33  1  0  0  0  0
 32 69  1  0  0  0  0
 33 70  1  0  0  0  0
 33 71  1  0  0  0  0
 33 72  1  0  0  0  0
M  END
>  <MODEL>
       0

$$$$
selected_4mers/VTVT/999_noH.pdb
 OpenBabel03042518353D

 72 71  0  0  1  0  0  0  0  0999 V2000
   -1.4300   42.4420    3.8020 C   0  0  0  0  0  0  0  0  0  0  0  0
   -1.0890   43.1660    2.5090 C   0  0  0  0  0  0  0  0  0  0  0  0
   -1.2530   42.6080    1.4090 O   0  0  0  0  0  0  0  0  0  0  0  0
   -0.5730   44.3860    2.6270 N   0  0  0  0  0  0  0  0  0  0  0  0
   -0.1700   45.1720    1.4820 C   0  0  2  0  0  0  0  0  0  0  0  0
    1.3390   45.3710    1.4920 C   0  0  0  0  0  0  0  0  0  0  0  0
    1.9130   45.7820    2.5010 O   0  0  0  0  0  0  0  0  0  0  0  0
   -0.9130   46.5170    1.4230 C   0  0  0  0  0  0  0  0  0  0  0  0
   -0.4210   47.3900    0.2430 C   0  0  0  0  0  0  0  0  0  0  0  0
   -2.4500   46.2960    1.3870 C   0  0  0  0  0  0  0  0  0  0  0  0
    1.9660   45.0660    0.3640 N   0  0  0  0  0  0  0  0  0  0  0  0
    3.3680   45.3920    0.1240 C   0  0  2  0  0  0  0  0  0  0  0  0
    3.4630   46.7620   -0.5100 C   0  0  0  0  0  0  0  0  0  0  0  0
    2.8490   47.0450   -1.5520 O   0  0  0  0  0  0  0  0  0  0  0  0
    4.0180   44.3280   -0.7790 C   0  0  2  0  0  0  0  0  0  0  0  0
    3.9090   43.0280   -0.1570 O   0  0  0  0  0  0  0  0  0  0  0  0
    5.4900   44.6890   -1.0980 C   0  0  0  0  0  0  0  0  0  0  0  0
    4.2340   47.6230    0.1340 N   0  0  0  0  0  0  0  0  0  0  0  0
    4.4710   49.0200   -0.3040 C   0  0  2  0  0  0  0  0  0  0  0  0
    5.9550   49.1810   -0.5330 C   0  0  0  0  0  0  0  0  0  0  0  0
    6.7550   48.7420    0.2940 O   0  0  0  0  0  0  0  0  0  0  0  0
    3.9940   50.0220    0.7930 C   0  0  0  0  0  0  0  0  0  0  0  0
    4.3480   51.4820    0.4270 C   0  0  0  0  0  0  0  0  0  0  0  0
    2.4870   49.8840    1.0520 C   0  0  0  0  0  0  0  0  0  0  0  0
    6.3280   49.8020   -1.6500 N   0  0  0  0  0  0  0  0  0  0  0  0
    7.7400   50.0330   -1.9860 C   0  0  2  0  0  0  0  0  0  0  0  0
    7.9100   51.5040   -2.3560 C   0  0  0  0  0  0  0  0  0  0  0  0
    7.0780   52.0530   -3.0600 O   0  0  0  0  0  0  0  0  0  0  0  0
    8.1920   49.1280   -3.1580 C   0  0  2  0  0  0  0  0  0  0  0  0
    7.9000   47.7500   -2.8540 O   0  0  0  0  0  0  0  0  0  0  0  0
    9.6890   49.2840   -3.4380 C   0  0  0  0  0  0  0  0  0  0  0  0
    8.9610   52.1490   -1.8540 N   0  0  0  0  0  0  0  0  0  0  0  0
    9.2880   53.5100   -2.2790 C   0  0  0  0  0  0  0  0  0  0  0  0
   -1.8344   41.4778    3.5749 H   0  0  0  0  0  0  0  0  0  0  0  0
   -2.1515   43.0113    4.3500 H   0  0  0  0  0  0  0  0  0  0  0  0
   -0.5441   42.3275    4.3910 H   0  0  0  0  0  0  0  0  0  0  0  0
   -0.4612   44.7683    3.5273 H   0  0  0  0  0  0  0  0  0  0  0  0
   -0.4374   44.6339    0.5966 H   0  0  0  0  0  0  0  0  0  0  0  0
   -0.6873   47.0594    2.3173 H   0  0  0  0  0  0  0  0  0  0  0  0
   -0.6247   46.8892   -0.6804 H   0  0  0  0  0  0  0  0  0  0  0  0
    0.6324   47.5535    0.3353 H   0  0  0  0  0  0  0  0  0  0  0  0
   -0.9307   48.3307    0.2585 H   0  0  0  0  0  0  0  0  0  0  0  0
   -2.7118   45.7544    0.5021 H   0  0  0  0  0  0  0  0  0  0  0  0
   -2.9467   47.2437    1.3851 H   0  0  0  0  0  0  0  0  0  0  0  0
   -2.7503   45.7376    2.2489 H   0  0  0  0  0  0  0  0  0  0  0  0
    1.4637   44.5992   -0.3424 H   0  0  0  0  0  0  0  0  0  0  0  0
    3.8947   45.4017    1.0554 H   0  0  0  0  0  0  0  0  0  0  0  0
    3.4966   44.2995   -1.7129 H   0  0  0  0  0  0  0  0  0  0  0  0
    4.3770   43.0358    0.6926 H   0  0  0  0  0  0  0  0  0  0  0  0
    6.0525   44.7290   -0.1887 H   0  0  0  0  0  0  0  0  0  0  0  0
    5.5265   45.6424   -1.5823 H   0  0  0  0  0  0  0  0  0  0  0  0
    5.9079   43.9449   -1.7434 H   0  0  0  0  0  0  0  0  0  0  0  0
    4.6791   47.3166    0.9570 H   0  0  0  0  0  0  0  0  0  0  0  0
    3.9235   49.2245   -1.2003 H   0  0  0  0  0  0  0  0  0  0  0  0
    4.5160   49.7741    1.6935 H   0  0  0  0  0  0  0  0  0  0  0  0
    3.8384   51.7578   -0.4725 H   0  0  0  0  0  0  0  0  0  0  0  0
    5.4043   51.5664    0.2787 H   0  0  0  0  0  0  0  0  0  0  0  0
    4.0463   52.1321    1.2215 H   0  0  0  0  0  0  0  0  0  0  0  0
    1.9480   50.1285    0.1606 H   0  0  0  0  0  0  0  0  0  0  0  0
    2.1977   50.5502    1.8377 H   0  0  0  0  0  0  0  0  0  0  0  0
    2.2650   48.8772    1.3382 H   0  0  0  0  0  0  0  0  0  0  0  0
    5.6337   50.1175   -2.2727 H   0  0  0  0  0  0  0  0  0  0  0  0
    8.3506   49.7898   -1.1417 H   0  0  0  0  0  0  0  0  0  0  0  0
    7.6537   49.4286   -4.0325 H   0  0  0  0  0  0  0  0  0  0  0  0
    8.3903   47.4830   -2.0608 H   0  0  0  0  0  0  0  0  0  0  0  0
   10.2462   48.9879   -2.5739 H   0  0  0  0  0  0  0  0  0  0  0  0
    9.9042   50.3066   -3.6680 H   0  0  0  0  0  0  0  0  0  0  0  0
    9.9629   48.6665   -4.2678 H   0  0  0  0  0  0  0  0  0  0  0  0
    9.5282   51.7020   -1.1849 H   0  0  0  0  0  0  0  0  0  0  0  0
    8.5734   53.8385   -3.0045 H   0  0  0  0  0  0  0  0  0  0  0  0
   10.2668   53.5233   -2.7110 H   0  0  0  0  0  0  0  0  0  0  0  0
    9.2630   54.1638   -1.4323 H   0  0  0  0  0  0  0  0  0  0  0  0
  1 34  1  0  0  0  0
  1 35  1  0  0  0  0
  1 36  1  0  0  0  0
  2  4  1  0  0  0  0
  2  1  1  0  0  0  0
  3  2  2  0  0  0  0
  4 37  1  0  0  0  0
  5  6  1  0  0  0  0
  5  4  1  0  0  0  0
  5 38  1  6  0  0  0
  6  7  2  0  0  0  0
  8  5  1  0  0  0  0
  8 39  1  0  0  0  0
  9  8  1  0  0  0  0
  9 40  1  0  0  0  0
  9 41  1  0  0  0  0
  9 42  1  0  0  0  0
 10  8  1  0  0  0  0
 10 43  1  0  0  0  0
 10 44  1  0  0  0  0
 10 45  1  0  0  0  0
 11  6  1  0  0  0  0
 11 46  1  0  0  0  0
 12 11  1  0  0  0  0
 12 47  1  1  0  0  0
 13 12  1  0  0  0  0
 13 18  1  0  0  0  0
 14 13  2  0  0  0  0
 15 16  1  0  0  0  0
 15 12  1  0  0  0  0
 15 48  1  6  0  0  0
 16 49  1  0  0  0  0
 17 15  1  0  0  0  0
 17 50  1  0  0  0  0
 17 51  1  0  0  0  0
 17 52  1  0  0  0  0
 18 53  1  0  0  0  0
 19 18  1  0  0  0  0
 19 22  1  0  0  0  0
 19 54  1  6  0  0  0
 20 19  1  0  0  0  0
 20 21  2  0  0  0  0
 22 24  1  0  0  0  0
 22 55  1  0  0  0  0
 23 22  1  0  0  0  0
 23 56  1  0  0  0  0
 23 57  1  0  0  0  0
 23 58  1  0  0  0  0
 24 59  1  0  0  0  0
 24 60  1  0  0  0  0
 24 61  1  0  0  0  0
 25 20  1  0  0  0  0
 25 62  1  0  0  0  0
 26 25  1  0  0  0  0
 26 63  1  1  0  0  0
 27 26  1  0  0  0  0
 27 32  1  0  0  0  0
 28 27  2  0  0  0  0
 29 30  1  0  0  0  0
 29 26  1  0  0  0  0
 29 64  1  6  0  0  0
 30 65  1  0  0  0  0
 31 29  1  0  0  0  0
 31 66  1  0  0  0  0
 31 67  1  0  0  0  0
 31 68  1  0  0  0  0
 32 69  1  0  0  0  0
 33 32  1  0  0  0  0
 33 70  1  0  0  0  0
 33 71  1  0  0  0  0
 33 72  1  0  0  0  0
M  END
>  <MODEL>
       0

$$$$
