selected_4mers/VVLA/960_noH.pdb
 OpenBabel03042518353D

 73 72  0  0  1  0  0  0  0  0999 V2000
  -56.4350   -3.2820   54.8200 C   0  0  0  0  0  0  0  0  0  0  0  0
  -56.3680   -1.8260   54.3510 C   0  0  0  0  0  0  0  0  0  0  0  0
  -56.8670   -0.9300   55.0460 O   0  0  0  0  0  0  0  0  0  0  0  0
  -55.7950   -1.5710   53.1690 N   0  0  0  0  0  0  0  0  0  0  0  0
  -55.7280   -0.2100   52.6120 C   0  0  2  0  0  0  0  0  0  0  0  0
  -57.1360    0.3460   52.3200 C   0  0  0  0  0  0  0  0  0  0  0  0
  -57.4770    1.5100   52.6410 O   0  0  0  0  0  0  0  0  0  0  0  0
  -54.8660   -0.1650   51.3190 C   0  0  0  0  0  0  0  0  0  0  0  0
  -55.0950    1.1520   50.5220 C   0  0  0  0  0  0  0  0  0  0  0  0
  -53.3680   -0.3570   51.6500 C   0  0  0  0  0  0  0  0  0  0  0  0
  -57.9780   -0.4960   51.7120 N   0  0  0  0  0  0  0  0  0  0  0  0
  -59.3480   -0.0800   51.3920 C   0  0  2  0  0  0  0  0  0  0  0  0
  -60.1310    0.2420   52.6670 C   0  0  0  0  0  0  0  0  0  0  0  0
  -60.7910    1.2740   52.7530 O   0  0  0  0  0  0  0  0  0  0  0  0
  -60.0700   -1.1490   50.5310 C   0  0  0  0  0  0  0  0  0  0  0  0
  -61.5290   -0.7780   50.3810 C   0  0  0  0  0  0  0  0  0  0  0  0
  -59.3870   -1.2430   49.1620 C   0  0  0  0  0  0  0  0  0  0  0  0
  -60.0060   -0.5950   53.6830 N   0  0  0  0  0  0  0  0  0  0  0  0
  -60.7010   -0.3120   54.9330 C   0  0  2  0  0  0  0  0  0  0  0  0
  -60.1370    0.9370   55.6200 C   0  0  0  0  0  0  0  0  0  0  0  0
  -60.8990    1.7310   56.1600 O   0  0  0  0  0  0  0  0  0  0  0  0
  -60.6310   -1.5280   55.8480 C   0  0  0  0  0  0  0  0  0  0  0  0
  -61.3480   -2.7680   55.3080 C   0  0  0  0  0  0  0  0  0  0  0  0
  -61.3780   -3.8310   56.4110 C   0  0  0  0  0  0  0  0  0  0  0  0
  -62.7630   -2.4860   54.7610 C   0  0  0  0  0  0  0  0  0  0  0  0
  -58.8140    1.1080   55.5600 N   0  0  0  0  0  0  0  0  0  0  0  0
  -58.1610    2.2790   56.1670 C   0  0  2  0  0  0  0  0  0  0  0  0
  -58.7280    3.5640   55.5960 C   0  0  0  0  0  0  0  0  0  0  0  0
  -59.0130    4.4940   56.3440 O   0  0  0  0  0  0  0  0  0  0  0  0
  -56.6690    2.2500   55.9700 C   0  0  0  0  0  0  0  0  0  0  0  0
  -58.9080    3.5960   54.2730 N   0  0  0  0  0  0  0  0  0  0  0  0
  -59.4370    4.8030   53.6070 C   0  0  0  0  0  0  0  0  0  0  0  0
  -55.9566   -3.9114   54.0989 H   0  0  0  0  0  0  0  0  0  0  0  0
  -57.4584   -3.5757   54.9266 H   0  0  0  0  0  0  0  0  0  0  0  0
  -55.9369   -3.3765   55.7622 H   0  0  0  0  0  0  0  0  0  0  0  0
  -55.4064   -2.3162   52.6563 H   0  0  0  0  0  0  0  0  0  0  0  0
  -55.2622    0.4062   53.3524 H   0  0  0  0  0  0  0  0  0  0  0  0
  -55.1787   -0.9758   50.6947 H   0  0  0  0  0  0  0  0  0  0  0  0
  -54.7919    1.9871   51.1184 H   0  0  0  0  0  0  0  0  0  0  0  0
  -56.1327    1.2456   50.2783 H   0  0  0  0  0  0  0  0  0  0  0  0
  -54.5178    1.1288   49.6213 H   0  0  0  0  0  0  0  0  0  0  0  0
  -53.0351    0.4453   52.2749 H   0  0  0  0  0  0  0  0  0  0  0  0
  -52.8001   -0.3619   50.7431 H   0  0  0  0  0  0  0  0  0  0  0  0
  -53.2320   -1.2872   52.1610 H   0  0  0  0  0  0  0  0  0  0  0  0
  -57.6760   -1.4031   51.4770 H   0  0  0  0  0  0  0  0  0  0  0  0
  -59.2971    0.8159   50.8091 H   0  0  0  0  0  0  0  0  0  0  0  0
  -60.0117   -2.1044   51.0093 H   0  0  0  0  0  0  0  0  0  0  0  0
  -61.6071    0.1764   49.9037 H   0  0  0  0  0  0  0  0  0  0  0  0
  -61.9865   -0.7321   51.3472 H   0  0  0  0  0  0  0  0  0  0  0  0
  -62.0253   -1.5160   49.7861 H   0  0  0  0  0  0  0  0  0  0  0  0
  -59.4380   -0.2932   48.6720 H   0  0  0  0  0  0  0  0  0  0  0  0
  -59.8838   -1.9793   48.5654 H   0  0  0  0  0  0  0  0  0  0  0  0
  -58.3624   -1.5222   49.2930 H   0  0  0  0  0  0  0  0  0  0  0  0
  -59.4487   -1.4019   53.5962 H   0  0  0  0  0  0  0  0  0  0  0  0
  -61.7278   -0.1073   54.7123 H   0  0  0  0  0  0  0  0  0  0  0  0
  -61.0746   -1.2669   56.7861 H   0  0  0  0  0  0  0  0  0  0  0  0
  -59.5962   -1.7866   55.9334 H   0  0  0  0  0  0  0  0  0  0  0  0
  -60.7962   -3.1204   54.4617 H   0  0  0  0  0  0  0  0  0  0  0  0
  -61.9332   -3.4613   57.2477 H   0  0  0  0  0  0  0  0  0  0  0  0
  -60.3777   -4.0551   56.7177 H   0  0  0  0  0  0  0  0  0  0  0  0
  -61.8441   -4.7190   56.0380 H   0  0  0  0  0  0  0  0  0  0  0  0
  -63.3861   -2.1256   55.5527 H   0  0  0  0  0  0  0  0  0  0  0  0
  -63.1780   -3.3884   54.3631 H   0  0  0  0  0  0  0  0  0  0  0  0
  -62.7061   -1.7484   53.9879 H   0  0  0  0  0  0  0  0  0  0  0  0
  -58.2626    0.4351   55.0990 H   0  0  0  0  0  0  0  0  0  0  0  0
  -58.3593    2.2417   57.2178 H   0  0  0  0  0  0  0  0  0  0  0  0
  -56.4466    2.2865   54.9240 H   0  0  0  0  0  0  0  0  0  0  0  0
  -56.2715    1.3488   56.3880 H   0  0  0  0  0  0  0  0  0  0  0  0
  -56.2283    3.0941   56.4580 H   0  0  0  0  0  0  0  0  0  0  0  0
  -58.6847    2.8031   53.7339 H   0  0  0  0  0  0  0  0  0  0  0  0
  -59.6232    5.5614   54.3385 H   0  0  0  0  0  0  0  0  0  0  0  0
  -60.3497    4.5615   53.1034 H   0  0  0  0  0  0  0  0  0  0  0  0
  -58.7215    5.1608   52.8964 H   0  0  0  0  0  0  0  0  0  0  0  0
  1 33  1  0  0  0  0
  1 34  1  0  0  0  0
  1 35  1  0  0  0  0
  2  1  1  0  0  0  0
  2  3  2  0  0  0  0
  4  2  1  0  0  0  0
  4 36  1  0  0  0  0
  5  4  1  0  0  0  0
  5 37  1  1  0  0  0
  6  5  1  0  0  0  0
  6  7  2  0  0  0  0
  8 10  1  0  0  0  0
  8  5  1  0  0  0  0
  8 38  1  0  0  0  0
  9  8  1  0  0  0  0
  9 39  1  0  0  0  0
  9 40  1  0  0  0  0
  9 41  1  0  0  0  0
 10 42  1  0  0  0  0
 10 43  1  0  0  0  0
 10 44  1  0  0  0  0
 11  6  1  0  0  0  0
 11 45  1  0  0  0  0
 12 11  1  0  0  0  0
 12 13  1  0  0  0  0
 12 46  1  6  0  0  0
 13 14  2  0  0  0  0
 13 18  1  0  0  0  0
 15 12  1  0  0  0  0
 15 47  1  0  0  0  0
 16 15  1  0  0  0  0
 16 48  1  0  0  0  0
 16 49  1  0  0  0  0
 16 50  1  0  0  0  0
 17 15  1  0  0  0  0
 17 51  1  0  0  0  0
 17 52  1  0  0  0  0
 17 53  1  0  0  0  0
 18 19  1  0  0  0  0
 18 54  1  0  0  0  0
 19 20  1  0  0  0  0
 19 22  1  0  0  0  0
 19 55  1  6  0  0  0
 20 21  2  0  0  0  0
 22 56  1  0  0  0  0
 22 57  1  0  0  0  0
 23 22  1  0  0  0  0
 23 24  1  0  0  0  0
 23 58  1  0  0  0  0
 24 59  1  0  0  0  0
 24 60  1  0  0  0  0
 24 61  1  0  0  0  0
 25 23  1  0  0  0  0
 25 62  1  0  0  0  0
 25 63  1  0  0  0  0
 25 64  1  0  0  0  0
 26 20  1  0  0  0  0
 26 27  1  0  0  0  0
 26 65  1  0  0  0  0
 27 66  1  1  0  0  0
 28 27  1  0  0  0  0
 28 29  2  0  0  0  0
 30 27  1  0  0  0  0
 30 67  1  0  0  0  0
 30 68  1  0  0  0  0
 30 69  1  0  0  0  0
 31 28  1  0  0  0  0
 31 70  1  0  0  0  0
 32 31  1  0  0  0  0
 32 71  1  0  0  0  0
 32 72  1  0  0  0  0
 32 73  1  0  0  0  0
M  END
>  <MODEL>
       0

$$$$
selected_4mers/VVLA/961_noH.pdb
 OpenBabel03042518353D

 73 72  0  0  1  0  0  0  0  0999 V2000
   84.3050   33.8800  -40.3180 C   0  0  0  0  0  0  0  0  0  0  0  0
   84.3300   32.8720  -39.1710 C   0  0  0  0  0  0  0  0  0  0  0  0
   83.5130   31.9500  -39.1180 O   0  0  0  0  0  0  0  0  0  0  0  0
   85.2830   33.0480  -38.2610 N   0  0  0  0  0  0  0  0  0  0  0  0
   85.4340   32.1540  -37.1160 C   0  0  2  0  0  0  0  0  0  0  0  0
   85.2540   32.9560  -35.8390 C   0  0  0  0  0  0  0  0  0  0  0  0
   86.0650   33.8210  -35.5160 O   0  0  0  0  0  0  0  0  0  0  0  0
   86.8320   31.4980  -37.1080 C   0  0  0  0  0  0  0  0  0  0  0  0
   86.9630   30.5440  -35.9240 C   0  0  0  0  0  0  0  0  0  0  0  0
   87.0530   30.7580  -38.4080 C   0  0  0  0  0  0  0  0  0  0  0  0
   84.1830   32.6670  -35.1120 N   0  0  0  0  0  0  0  0  0  0  0  0
   83.9020   33.3870  -33.8840 C   0  0  2  0  0  0  0  0  0  0  0  0
   84.4410   32.6680  -32.6550 C   0  0  0  0  0  0  0  0  0  0  0  0
   84.1540   31.4900  -32.4380 O   0  0  0  0  0  0  0  0  0  0  0  0
   82.3730   33.6060  -33.7070 C   0  0  0  0  0  0  0  0  0  0  0  0
   82.0870   34.3430  -32.3960 C   0  0  0  0  0  0  0  0  0  0  0  0
   81.8180   34.4090  -34.8890 C   0  0  0  0  0  0  0  0  0  0  0  0
   85.2480   33.3770  -31.8760 N   0  0  0  0  0  0  0  0  0  0  0  0
   85.7790   32.8270  -30.6350 C   0  0  2  0  0  0  0  0  0  0  0  0
   84.9010   33.4260  -29.5480 C   0  0  0  0  0  0  0  0  0  0  0  0
   84.8420   34.6440  -29.3940 O   0  0  0  0  0  0  0  0  0  0  0  0
   87.2370   33.2460  -30.4140 C   0  0  0  0  0  0  0  0  0  0  0  0
   88.2690   32.6610  -31.3730 C   0  0  0  0  0  0  0  0  0  0  0  0
   88.1660   33.3530  -32.7280 C   0  0  0  0  0  0  0  0  0  0  0  0
   89.6630   32.8590  -30.7900 C   0  0  0  0  0  0  0  0  0  0  0  0
   84.2070   32.5690  -28.8080 N   0  0  0  0  0  0  0  0  0  0  0  0
   83.3170   33.0250  -27.7540 C   0  0  2  0  0  0  0  0  0  0  0  0
   83.8250   32.6100  -26.3780 C   0  0  0  0  0  0  0  0  0  0  0  0
   84.0180   31.4280  -26.1190 O   0  0  0  0  0  0  0  0  0  0  0  0
   81.9250   32.4570  -27.9880 C   0  0  0  0  0  0  0  0  0  0  0  0
   84.0430   33.5920  -25.5110 N   0  0  0  0  0  0  0  0  0  0  0  0
   84.5260   33.3420  -24.1540 C   0  0  0  0  0  0  0  0  0  0  0  0
   83.5026   33.6420  -40.9846 H   0  0  0  0  0  0  0  0  0  0  0  0
   85.2333   33.8397  -40.8486 H   0  0  0  0  0  0  0  0  0  0  0  0
   84.1616   34.8646  -39.9245 H   0  0  0  0  0  0  0  0  0  0  0  0
   85.9058   33.8038  -38.3620 H   0  0  0  0  0  0  0  0  0  0  0  0
   84.6964   31.3818  -37.1830 H   0  0  0  0  0  0  0  0  0  0  0  0
   87.5763   32.2604  -37.0095 H   0  0  0  0  0  0  0  0  0  0  0  0
   86.2258   29.7726  -36.0042 H   0  0  0  0  0  0  0  0  0  0  0  0
   86.8158   31.0846  -35.0124 H   0  0  0  0  0  0  0  0  0  0  0  0
   87.9392   30.1059  -35.9253 H   0  0  0  0  0  0  0  0  0  0  0  0
   86.3120   29.9934  -38.5136 H   0  0  0  0  0  0  0  0  0  0  0  0
   88.0262   30.3134  -38.4043 H   0  0  0  0  0  0  0  0  0  0  0  0
   86.9772   31.4436  -39.2260 H   0  0  0  0  0  0  0  0  0  0  0  0
   83.5712   31.9552  -35.4092 H   0  0  0  0  0  0  0  0  0  0  0  0
   84.3989   34.3308  -33.9693 H   0  0  0  0  0  0  0  0  0  0  0  0
   81.8926   32.6504  -33.6754 H   0  0  0  0  0  0  0  0  0  0  0  0
   82.5624   35.3014  -32.4146 H   0  0  0  0  0  0  0  0  0  0  0  0
   82.4678   33.7718  -31.5753 H   0  0  0  0  0  0  0  0  0  0  0  0
   81.0308   34.4709  -32.2818 H   0  0  0  0  0  0  0  0  0  0  0  0
   82.2952   35.3660  -34.9255 H   0  0  0  0  0  0  0  0  0  0  0  0
   80.7632   34.5408  -34.7668 H   0  0  0  0  0  0  0  0  0  0  0  0
   82.0082   33.8807  -35.7998 H   0  0  0  0  0  0  0  0  0  0  0  0
   85.4930   34.2928  -32.1416 H   0  0  0  0  0  0  0  0  0  0  0  0
   85.7695   31.7571  -30.6429 H   0  0  0  0  0  0  0  0  0  0  0  0
   87.2845   34.3117  -30.4967 H   0  0  0  0  0  0  0  0  0  0  0  0
   87.4979   32.8614  -29.4502 H   0  0  0  0  0  0  0  0  0  0  0  0
   88.0845   31.6154  -31.5056 H   0  0  0  0  0  0  0  0  0  0  0  0
   88.3488   34.4005  -32.6084 H   0  0  0  0  0  0  0  0  0  0  0  0
   87.1854   33.2057  -33.1301 H   0  0  0  0  0  0  0  0  0  0  0  0
   88.8915   32.9384  -33.3963 H   0  0  0  0  0  0  0  0  0  0  0  0
   89.8488   33.9043  -30.6569 H   0  0  0  0  0  0  0  0  0  0  0  0
   90.3909   32.4498  -31.4591 H   0  0  0  0  0  0  0  0  0  0  0  0
   89.7282   32.3619  -29.8447 H   0  0  0  0  0  0  0  0  0  0  0  0
   84.2976   31.6034  -28.9774 H   0  0  0  0  0  0  0  0  0  0  0  0
   83.2825   34.0941  -27.7801 H   0  0  0  0  0  0  0  0  0  0  0  0
   81.9667   31.3882  -27.9606 H   0  0  0  0  0  0  0  0  0  0  0  0
   81.5659   32.7756  -28.9443 H   0  0  0  0  0  0  0  0  0  0  0  0
   81.2635   32.8078  -27.2237 H   0  0  0  0  0  0  0  0  0  0  0  0
   83.8735   34.5203  -25.7917 H   0  0  0  0  0  0  0  0  0  0  0  0
   84.6584   32.2899  -24.0107 H   0  0  0  0  0  0  0  0  0  0  0  0
   83.8121   33.7111  -23.4476 H   0  0  0  0  0  0  0  0  0  0  0  0
   85.4611   33.8420  -24.0105 H   0  0  0  0  0  0  0  0  0  0  0  0
  1  2  1  0  0  0  0
  1 33  1  0  0  0  0
  1 34  1  0  0  0  0
  1 35  1  0  0  0  0
  2  3  2  0  0  0  0
  2  4  1  0  0  0  0
  4  5  1  0  0  0  0
  4 36  1  0  0  0  0
  5  8  1  0  0  0  0
  5  6  1  0  0  0  0
  5 37  1  6  0  0  0
  6  7  2  0  0  0  0
  6 11  1  0  0  0  0
  8  9  1  0  0  0  0
  8 38  1  0  0  0  0
  9 39  1  0  0  0  0
  9 40  1  0  0  0  0
  9 41  1  0  0  0  0
 10  8  1  0  0  0  0
 10 42  1  0  0  0  0
 10 43  1  0  0  0  0
 10 44  1  0  0  0  0
 11 12  1  0  0  0  0
 11 45  1  0  0  0  0
 12 15  1  0  0  0  0
 12 13  1  0  0  0  0
 12 46  1  6  0  0  0
 13 14  2  0  0  0  0
 13 18  1  0  0  0  0
 15 16  1  0  0  0  0
 15 47  1  0  0  0  0
 16 48  1  0  0  0  0
 16 49  1  0  0  0  0
 16 50  1  0  0  0  0
 17 15  1  0  0  0  0
 17 51  1  0  0  0  0
 17 52  1  0  0  0  0
 17 53  1  0  0  0  0
 18 19  1  0  0  0  0
 18 54  1  0  0  0  0
 19 22  1  0  0  0  0
 19 20  1  0  0  0  0
 19 55  1  6  0  0  0
 20 21  2  0  0  0  0
 20 26  1  0  0  0  0
 22 56  1  0  0  0  0
 22 57  1  0  0  0  0
 23 25  1  0  0  0  0
 23 22  1  0  0  0  0
 23 58  1  0  0  0  0
 24 23  1  0  0  0  0
 24 59  1  0  0  0  0
 24 60  1  0  0  0  0
 24 61  1  0  0  0  0
 25 62  1  0  0  0  0
 25 63  1  0  0  0  0
 25 64  1  0  0  0  0
 26 27  1  0  0  0  0
 26 65  1  0  0  0  0
 27 28  1  0  0  0  0
 27 66  1  6  0  0  0
 28 29  2  0  0  0  0
 28 31  1  0  0  0  0
 30 27  1  0  0  0  0
 30 67  1  0  0  0  0
 30 68  1  0  0  0  0
 30 69  1  0  0  0  0
 31 32  1  0  0  0  0
 31 70  1  0  0  0  0
 32 71  1  0  0  0  0
 32 72  1  0  0  0  0
 32 73  1  0  0  0  0
M  END
>  <MODEL>
       0

$$$$
selected_4mers/VVLA/962_noH.pdb
 OpenBabel03042518353D

 73 72  0  0  1  0  0  0  0  0999 V2000
   13.8340   17.2050  -30.5330 C   0  0  0  0  0  0  0  0  0  0  0  0
   14.3810   16.2310  -29.4940 C   0  0  0  0  0  0  0  0  0  0  0  0
   14.2180   16.4280  -28.2960 O   0  0  0  0  0  0  0  0  0  0  0  0
   14.9930   15.1500  -29.9690 N   0  0  0  0  0  0  0  0  0  0  0  0
   15.4840   14.0820  -29.1220 C   0  0  2  0  0  0  0  0  0  0  0  0
   16.8040   13.5690  -29.6650 C   0  0  0  0  0  0  0  0  0  0  0  0
   16.9810   13.4580  -30.8820 O   0  0  0  0  0  0  0  0  0  0  0  0
   14.5050   12.8640  -29.1380 C   0  0  0  0  0  0  0  0  0  0  0  0
   15.0240   11.7180  -28.2680 C   0  0  0  0  0  0  0  0  0  0  0  0
   13.0890   13.2840  -28.7290 C   0  0  0  0  0  0  0  0  0  0  0  0
   17.7250   13.2700  -28.7560 N   0  0  0  0  0  0  0  0  0  0  0  0
   18.9190   12.4800  -29.0850 C   0  0  2  0  0  0  0  0  0  0  0  0
   18.8610   11.2070  -28.2400 C   0  0  0  0  0  0  0  0  0  0  0  0
   18.8130   11.2820  -27.0080 O   0  0  0  0  0  0  0  0  0  0  0  0
   20.2410   13.2290  -28.8450 C   0  0  0  0  0  0  0  0  0  0  0  0
   21.4040   12.3100  -29.2160 C   0  0  0  0  0  0  0  0  0  0  0  0
   20.2790   14.5270  -29.6570 C   0  0  0  0  0  0  0  0  0  0  0  0
   18.8580   10.0690  -28.9250 N   0  0  0  0  0  0  0  0  0  0  0  0
   18.7930    8.7630  -28.2970 C   0  0  2  0  0  0  0  0  0  0  0  0
   20.0230    7.9790  -28.7260 C   0  0  0  0  0  0  0  0  0  0  0  0
   20.1410    7.5870  -29.8860 O   0  0  0  0  0  0  0  0  0  0  0  0
   17.5150    8.0290  -28.6820 C   0  0  0  0  0  0  0  0  0  0  0  0
   17.3600    6.6350  -28.0720 C   0  0  0  0  0  0  0  0  0  0  0  0
   17.1610    6.7050  -26.5630 C   0  0  0  0  0  0  0  0  0  0  0  0
   16.2070    5.8690  -28.7270 C   0  0  0  0  0  0  0  0  0  0  0  0
   20.9530    7.7810  -27.7930 N   0  0  0  0  0  0  0  0  0  0  0  0
   22.2090    7.1020  -28.0920 C   0  0  2  0  0  0  0  0  0  0  0  0
   22.1060    5.6360  -27.6900 C   0  0  0  0  0  0  0  0  0  0  0  0
   21.6080    5.3210  -26.6000 O   0  0  0  0  0  0  0  0  0  0  0  0
   23.3820    7.7990  -27.3980 C   0  0  0  0  0  0  0  0  0  0  0  0
   22.5790    4.7460  -28.5670 N   0  0  0  0  0  0  0  0  0  0  0  0
   22.5680    3.3100  -28.3230 C   0  0  0  0  0  0  0  0  0  0  0  0
   14.0805   16.8557  -31.5139 H   0  0  0  0  0  0  0  0  0  0  0  0
   14.2673   18.1712  -30.3791 H   0  0  0  0  0  0  0  0  0  0  0  0
   12.7706   17.2712  -30.4347 H   0  0  0  0  0  0  0  0  0  0  0  0
   15.1183   15.0718  -30.9424 H   0  0  0  0  0  0  0  0  0  0  0  0
   15.5827   14.4771  -28.1325 H   0  0  0  0  0  0  0  0  0  0  0  0
   14.4553   12.5023  -30.1438 H   0  0  0  0  0  0  0  0  0  0  0  0
   15.0876   12.0431  -27.2506 H   0  0  0  0  0  0  0  0  0  0  0  0
   15.9940   11.4222  -28.6092 H   0  0  0  0  0  0  0  0  0  0  0  0
   14.3534   10.8869  -28.3356 H   0  0  0  0  0  0  0  0  0  0  0  0
   13.1023   13.6522  -27.7244 H   0  0  0  0  0  0  0  0  0  0  0  0
   12.4347   12.4396  -28.7907 H   0  0  0  0  0  0  0  0  0  0  0  0
   12.7413   14.0534  -29.3863 H   0  0  0  0  0  0  0  0  0  0  0  0
   17.6036   13.5880  -27.8322 H   0  0  0  0  0  0  0  0  0  0  0  0
   18.9092   12.2641  -30.1329 H   0  0  0  0  0  0  0  0  0  0  0  0
   20.3227   13.4967  -27.8123 H   0  0  0  0  0  0  0  0  0  0  0  0
   21.3285   12.0382  -30.2481 H   0  0  0  0  0  0  0  0  0  0  0  0
   21.3685   11.4279  -28.6114 H   0  0  0  0  0  0  0  0  0  0  0  0
   22.3294   12.8203  -29.0483 H   0  0  0  0  0  0  0  0  0  0  0  0
   20.1994   14.2982  -30.6992 H   0  0  0  0  0  0  0  0  0  0  0  0
   21.2021   15.0359  -29.4731 H   0  0  0  0  0  0  0  0  0  0  0  0
   19.4621   15.1538  -29.3660 H   0  0  0  0  0  0  0  0  0  0  0  0
   18.9021   10.1141  -29.9075 H   0  0  0  0  0  0  0  0  0  0  0  0
   18.7767    8.8699  -27.2325 H   0  0  0  0  0  0  0  0  0  0  0  0
   17.4981    7.9287  -29.7472 H   0  0  0  0  0  0  0  0  0  0  0  0
   16.7067    8.6149  -28.2969 H   0  0  0  0  0  0  0  0  0  0  0  0
   18.2690    6.1037  -28.2624 H   0  0  0  0  0  0  0  0  0  0  0  0
   16.2559    7.2332  -26.3467 H   0  0  0  0  0  0  0  0  0  0  0  0
   17.9881    7.2173  -26.1176 H   0  0  0  0  0  0  0  0  0  0  0  0
   17.0993    5.7137  -26.1650 H   0  0  0  0  0  0  0  0  0  0  0  0
   15.2876    6.3860  -28.5471 H   0  0  0  0  0  0  0  0  0  0  0  0
   16.1503    4.8851  -28.3104 H   0  0  0  0  0  0  0  0  0  0  0  0
   16.3775    5.8007  -29.7811 H   0  0  0  0  0  0  0  0  0  0  0  0
   20.7882    8.1016  -26.8769 H   0  0  0  0  0  0  0  0  0  0  0  0
   22.3943    7.1493  -29.1448 H   0  0  0  0  0  0  0  0  0  0  0  0
   23.2355    7.7739  -26.3384 H   0  0  0  0  0  0  0  0  0  0  0  0
   23.4375    8.8158  -27.7264 H   0  0  0  0  0  0  0  0  0  0  0  0
   24.2929    7.2944  -27.6441 H   0  0  0  0  0  0  0  0  0  0  0  0
   22.9518    5.0756  -29.4165 H   0  0  0  0  0  0  0  0  0  0  0  0
   22.1347    3.1144  -27.3644 H   0  0  0  0  0  0  0  0  0  0  0  0
   23.5706    2.9370  -28.3440 H   0  0  0  0  0  0  0  0  0  0  0  0
   21.9906    2.8238  -29.0813 H   0  0  0  0  0  0  0  0  0  0  0  0
  1  2  1  0  0  0  0
  1 33  1  0  0  0  0
  1 34  1  0  0  0  0
  1 35  1  0  0  0  0
  2  3  2  0  0  0  0
  4  2  1  0  0  0  0
  4  5  1  0  0  0  0
  4 36  1  0  0  0  0
  5 37  1  1  0  0  0
  6  5  1  0  0  0  0
  6 11  1  0  0  0  0
  7  6  2  0  0  0  0
  8  5  1  0  0  0  0
  8 10  1  0  0  0  0
  8  9  1  0  0  0  0
  8 38  1  0  0  0  0
  9 39  1  0  0  0  0
  9 40  1  0  0  0  0
  9 41  1  0  0  0  0
 10 42  1  0  0  0  0
 10 43  1  0  0  0  0
 10 44  1  0  0  0  0
 11 45  1  0  0  0  0
 12 15  1  0  0  0  0
 12 11  1  0  0  0  0
 12 13  1  0  0  0  0
 12 46  1  6  0  0  0
 13 14  2  0  0  0  0
 15 47  1  0  0  0  0
 16 15  1  0  0  0  0
 16 48  1  0  0  0  0
 16 49  1  0  0  0  0
 16 50  1  0  0  0  0
 17 15  1  0  0  0  0
 17 51  1  0  0  0  0
 17 52  1  0  0  0  0
 17 53  1  0  0  0  0
 18 19  1  0  0  0  0
 18 13  1  0  0  0  0
 18 54  1  0  0  0  0
 19 55  1  1  0  0  0
 20 19  1  0  0  0  0
 20 26  1  0  0  0  0
 21 20  2  0  0  0  0
 22 19  1  0  0  0  0
 22 23  1  0  0  0  0
 22 56  1  0  0  0  0
 22 57  1  0  0  0  0
 23 24  1  0  0  0  0
 23 58  1  0  0  0  0
 24 59  1  0  0  0  0
 24 60  1  0  0  0  0
 24 61  1  0  0  0  0
 25 23  1  0  0  0  0
 25 62  1  0  0  0  0
 25 63  1  0  0  0  0
 25 64  1  0  0  0  0
 26 65  1  0  0  0  0
 27 26  1  0  0  0  0
 27 28  1  0  0  0  0
 27 30  1  0  0  0  0
 27 66  1  6  0  0  0
 28 29  2  0  0  0  0
 30 67  1  0  0  0  0
 30 68  1  0  0  0  0
 30 69  1  0  0  0  0
 31 32  1  0  0  0  0
 31 28  1  0  0  0  0
 31 70  1  0  0  0  0
 32 71  1  0  0  0  0
 32 72  1  0  0  0  0
 32 73  1  0  0  0  0
M  END
>  <MODEL>
       0

$$$$
selected_4mers/VVLA/963_noH.pdb
 OpenBabel03042518353D

 73 72  0  0  1  0  0  0  0  0999 V2000
    7.7470   48.6380   38.7040 C   0  0  0  0  0  0  0  0  0  0  0  0
    6.6870   49.3830   39.5140 C   0  0  0  0  0  0  0  0  0  0  0  0
    6.1360   48.8490   40.4850 O   0  0  0  0  0  0  0  0  0  0  0  0
    6.4120   50.6170   39.1100 N   0  0  0  0  0  0  0  0  0  0  0  0
    5.4830   51.4730   39.8190 C   0  0  2  0  0  0  0  0  0  0  0  0
    4.0410   51.0070   39.9500 C   0  0  0  0  0  0  0  0  0  0  0  0
    3.4990   51.0000   41.0510 O   0  0  0  0  0  0  0  0  0  0  0  0
    5.5040   52.8860   39.2100 C   0  0  0  0  0  0  0  0  0  0  0  0
    4.5190   53.7810   39.9390 C   0  0  0  0  0  0  0  0  0  0  0  0
    6.9150   53.4580   39.2930 C   0  0  0  0  0  0  0  0  0  0  0  0
    3.4080   50.6320   38.8450 N   0  0  0  0  0  0  0  0  0  0  0  0
    2.0270   50.1920   38.9270 C   0  0  2  0  0  0  0  0  0  0  0  0
    1.9200   48.8540   39.6570 C   0  0  0  0  0  0  0  0  0  0  0  0
    0.9360   48.6060   40.3470 O   0  0  0  0  0  0  0  0  0  0  0  0
    1.3760   50.0860   37.5300 C   0  0  0  0  0  0  0  0  0  0  0  0
   -0.0840   49.6870   37.6790 C   0  0  0  0  0  0  0  0  0  0  0  0
    1.4570   51.4370   36.8120 C   0  0  0  0  0  0  0  0  0  0  0  0
    2.9310   48.0000   39.5030 N   0  0  0  0  0  0  0  0  0  0  0  0
    2.9480   46.7040   40.1870 C   0  0  2  0  0  0  0  0  0  0  0  0
    2.8490   46.9230   41.6940 C   0  0  0  0  0  0  0  0  0  0  0  0
    2.1260   46.2080   42.3990 O   0  0  0  0  0  0  0  0  0  0  0  0
    4.2480   45.9550   39.8850 C   0  0  0  0  0  0  0  0  0  0  0  0
    4.4740   44.6270   40.6100 C   0  0  0  0  0  0  0  0  0  0  0  0
    3.3640   43.6330   40.2390 C   0  0  0  0  0  0  0  0  0  0  0  0
    5.8420   44.0690   40.2170 C   0  0  0  0  0  0  0  0  0  0  0  0
    3.5880   47.9140   42.1830 N   0  0  0  0  0  0  0  0  0  0  0  0
    3.5840   48.2280   43.6040 C   0  0  2  0  0  0  0  0  0  0  0  0
    2.1570   48.5560   44.0380 C   0  0  0  0  0  0  0  0  0  0  0  0
    1.6920   48.0820   45.0730 O   0  0  0  0  0  0  0  0  0  0  0  0
    4.5180   49.4110   43.8870 C   0  0  0  0  0  0  0  0  0  0  0  0
    1.4530   49.3580   43.2430 N   0  0  0  0  0  0  0  0  0  0  0  0
    0.0830   49.7040   43.5980 C   0  0  0  0  0  0  0  0  0  0  0  0
    8.0984   49.2667   37.9127 H   0  0  0  0  0  0  0  0  0  0  0  0
    7.3197   47.7487   38.2899 H   0  0  0  0  0  0  0  0  0  0  0  0
    8.5652   48.3768   39.3421 H   0  0  0  0  0  0  0  0  0  0  0  0
    6.8544   50.9623   38.3011 H   0  0  0  0  0  0  0  0  0  0  0  0
    5.8513   51.4466   40.8233 H   0  0  0  0  0  0  0  0  0  0  0  0
    5.2137   52.8344   38.1814 H   0  0  0  0  0  0  0  0  0  0  0  0
    4.7924   53.8457   40.9714 H   0  0  0  0  0  0  0  0  0  0  0  0
    3.5346   53.3700   39.8558 H   0  0  0  0  0  0  0  0  0  0  0  0
    4.5354   54.7583   39.5038 H   0  0  0  0  0  0  0  0  0  0  0  0
    7.2172   53.5147   40.3179 H   0  0  0  0  0  0  0  0  0  0  0  0
    6.9287   54.4374   38.8624 H   0  0  0  0  0  0  0  0  0  0  0  0
    7.5893   52.8233   38.7570 H   0  0  0  0  0  0  0  0  0  0  0  0
    3.8715   50.6521   37.9767 H   0  0  0  0  0  0  0  0  0  0  0  0
    1.4951   50.9336   39.4856 H   0  0  0  0  0  0  0  0  0  0  0  0
    1.8973   49.3476   36.9573 H   0  0  0  0  0  0  0  0  0  0  0  0
   -0.5998   50.4288   38.2522 H   0  0  0  0  0  0  0  0  0  0  0  0
   -0.1465   48.7429   38.1787 H   0  0  0  0  0  0  0  0  0  0  0  0
   -0.5329   49.6085   36.7109 H   0  0  0  0  0  0  0  0  0  0  0  0
    0.9361   52.1765   37.3836 H   0  0  0  0  0  0  0  0  0  0  0  0
    1.0091   51.3538   35.8438 H   0  0  0  0  0  0  0  0  0  0  0  0
    2.4824   51.7243   36.7071 H   0  0  0  0  0  0  0  0  0  0  0  0
    3.6831   48.2450   38.9169 H   0  0  0  0  0  0  0  0  0  0  0  0
    2.1176   46.1256   39.8395 H   0  0  0  0  0  0  0  0  0  0  0  0
    5.0599   46.6034   40.1403 H   0  0  0  0  0  0  0  0  0  0  0  0
    4.1830   45.6961   38.8488 H   0  0  0  0  0  0  0  0  0  0  0  0
    4.4477   44.7839   41.6681 H   0  0  0  0  0  0  0  0  0  0  0  0
    3.3753   43.4637   39.1825 H   0  0  0  0  0  0  0  0  0  0  0  0
    2.4148   44.0351   40.5257 H   0  0  0  0  0  0  0  0  0  0  0  0
    3.5285   42.7075   40.7503 H   0  0  0  0  0  0  0  0  0  0  0  0
    5.8721   43.9107   39.1592 H   0  0  0  0  0  0  0  0  0  0  0  0
    6.0065   43.1399   40.7215 H   0  0  0  0  0  0  0  0  0  0  0  0
    6.6048   44.7659   40.4952 H   0  0  0  0  0  0  0  0  0  0  0  0
    4.1484   48.4454   41.5724 H   0  0  0  0  0  0  0  0  0  0  0  0
    3.9372   47.3846   44.1598 H   0  0  0  0  0  0  0  0  0  0  0  0
    4.1837   50.2680   43.3405 H   0  0  0  0  0  0  0  0  0  0  0  0
    5.5130   49.1604   43.5836 H   0  0  0  0  0  0  0  0  0  0  0  0
    4.5089   49.6300   44.9343 H   0  0  0  0  0  0  0  0  0  0  0  0
    1.8559   49.7158   42.4190 H   0  0  0  0  0  0  0  0  0  0  0  0
   -0.1786   49.2255   44.5186 H   0  0  0  0  0  0  0  0  0  0  0  0
   -0.5796   49.3759   42.8246 H   0  0  0  0  0  0  0  0  0  0  0  0
    0.0010   50.7648   43.7116 H   0  0  0  0  0  0  0  0  0  0  0  0
  1  2  1  0  0  0  0
  1 33  1  0  0  0  0
  1 34  1  0  0  0  0
  1 35  1  0  0  0  0
  2  3  2  0  0  0  0
  4  2  1  0  0  0  0
  4  5  1  0  0  0  0
  4 36  1  0  0  0  0
  5  6  1  0  0  0  0
  5 37  1  1  0  0  0
  6  7  2  0  0  0  0
  8 10  1  0  0  0  0
  8  5  1  0  0  0  0
  8  9  1  0  0  0  0
  8 38  1  0  0  0  0
  9 39  1  0  0  0  0
  9 40  1  0  0  0  0
  9 41  1  0  0  0  0
 10 42  1  0  0  0  0
 10 43  1  0  0  0  0
 10 44  1  0  0  0  0
 11 12  1  0  0  0  0
 11  6  1  0  0  0  0
 11 45  1  0  0  0  0
 12 13  1  0  0  0  0
 12 46  1  1  0  0  0
 13 14  2  0  0  0  0
 15 16  1  0  0  0  0
 15 12  1  0  0  0  0
 15 47  1  0  0  0  0
 16 48  1  0  0  0  0
 16 49  1  0  0  0  0
 16 50  1  0  0  0  0
 17 15  1  0  0  0  0
 17 51  1  0  0  0  0
 17 52  1  0  0  0  0
 17 53  1  0  0  0  0
 18 13  1  0  0  0  0
 18 19  1  0  0  0  0
 18 54  1  0  0  0  0
 19 20  1  0  0  0  0
 19 55  1  6  0  0  0
 20 26  1  0  0  0  0
 20 21  2  0  0  0  0
 22 19  1  0  0  0  0
 22 23  1  0  0  0  0
 22 56  1  0  0  0  0
 22 57  1  0  0  0  0
 23 58  1  0  0  0  0
 24 23  1  0  0  0  0
 24 59  1  0  0  0  0
 24 60  1  0  0  0  0
 24 61  1  0  0  0  0
 25 23  1  0  0  0  0
 25 62  1  0  0  0  0
 25 63  1  0  0  0  0
 25 64  1  0  0  0  0
 26 27  1  0  0  0  0
 26 65  1  0  0  0  0
 27 30  1  0  0  0  0
 27 28  1  0  0  0  0
 27 66  1  1  0  0  0
 28 29  2  0  0  0  0
 30 67  1  0  0  0  0
 30 68  1  0  0  0  0
 30 69  1  0  0  0  0
 31 32  1  0  0  0  0
 31 28  1  0  0  0  0
 31 70  1  0  0  0  0
 32 71  1  0  0  0  0
 32 72  1  0  0  0  0
 32 73  1  0  0  0  0
M  END
>  <MODEL>
       0

$$$$
selected_4mers/VVLA/964_noH.pdb
 OpenBabel03042518353D

 73 72  0  0  1  0  0  0  0  0999 V2000
  -29.2500  -17.9400   15.1630 C   0  0  0  0  0  0  0  0  0  0  0  0
  -29.9100  -16.7210   15.8220 C   0  0  0  0  0  0  0  0  0  0  0  0
  -31.0120  -16.3280   15.4390 O   0  0  0  0  0  0  0  0  0  0  0  0
  -29.2370  -16.1370   16.8150 N   0  0  0  0  0  0  0  0  0  0  0  0
  -29.6760  -14.8740   17.4110 C   0  0  2  0  0  0  0  0  0  0  0  0
  -29.2090  -13.6740   16.5730 C   0  0  0  0  0  0  0  0  0  0  0  0
  -30.0050  -12.7750   16.2750 O   0  0  0  0  0  0  0  0  0  0  0  0
  -29.1940  -14.7130   18.8770 C   0  0  0  0  0  0  0  0  0  0  0  0
  -29.5640  -13.3340   19.4170 C   0  0  0  0  0  0  0  0  0  0  0  0
  -29.7710  -15.8220   19.7680 C   0  0  0  0  0  0  0  0  0  0  0  0
  -27.9280  -13.6750   16.1960 N   0  0  0  0  0  0  0  0  0  0  0  0
  -27.3180  -12.5780   15.4360 C   0  0  2  0  0  0  0  0  0  0  0  0
  -27.8860  -12.4560   14.0160 C   0  0  0  0  0  0  0  0  0  0  0  0
  -28.1820  -11.3530   13.5510 O   0  0  0  0  0  0  0  0  0  0  0  0
  -25.7630  -12.6930   15.3930 C   0  0  0  0  0  0  0  0  0  0  0  0
  -25.1540  -11.6150   14.4870 C   0  0  0  0  0  0  0  0  0  0  0  0
  -25.1880  -12.5870   16.7980 C   0  0  0  0  0  0  0  0  0  0  0  0
  -28.0210  -13.5910   13.3360 N   0  0  0  0  0  0  0  0  0  0  0  0
  -28.6750  -13.6400   12.0320 C   0  0  2  0  0  0  0  0  0  0  0  0
  -29.9200  -14.5110   12.2040 C   0  0  0  0  0  0  0  0  0  0  0  0
  -29.8870  -15.7320   12.0130 O   0  0  0  0  0  0  0  0  0  0  0  0
  -27.7130  -14.1690   10.9500 C   0  0  0  0  0  0  0  0  0  0  0  0
  -28.1570  -14.4260    9.4930 C   0  0  0  0  0  0  0  0  0  0  0  0
  -29.1960  -13.4510    8.9720 C   0  0  0  0  0  0  0  0  0  0  0  0
  -26.9510  -14.5120    8.5460 C   0  0  0  0  0  0  0  0  0  0  0  0
  -31.0100  -13.8610   12.6030 N   0  0  0  0  0  0  0  0  0  0  0  0
  -32.2360  -14.5580   12.9790 C   0  0  2  0  0  0  0  0  0  0  0  0
  -33.1800  -14.7050   11.8020 C   0  0  0  0  0  0  0  0  0  0  0  0
  -33.2410  -13.8380   10.9250 O   0  0  0  0  0  0  0  0  0  0  0  0
  -32.9320  -13.8430   14.1260 C   0  0  0  0  0  0  0  0  0  0  0  0
  -33.9060  -15.8190   11.7990 N   0  0  0  0  0  0  0  0  0  0  0  0
  -34.8670  -16.1100   10.7610 C   0  0  0  0  0  0  0  0  0  0  0  0
  -29.8853  -18.3138   14.3874 H   0  0  0  0  0  0  0  0  0  0  0  0
  -29.0968  -18.7031   15.8973 H   0  0  0  0  0  0  0  0  0  0  0  0
  -28.3078  -17.6530   14.7449 H   0  0  0  0  0  0  0  0  0  0  0  0
  -28.4208  -16.5683   17.1571 H   0  0  0  0  0  0  0  0  0  0  0  0
  -30.7456  -14.8998   17.4200 H   0  0  0  0  0  0  0  0  0  0  0  0
  -28.1277  -14.8016   18.8893 H   0  0  0  0  0  0  0  0  0  0  0  0
  -30.6283  -13.2234   19.4137 H   0  0  0  0  0  0  0  0  0  0  0  0
  -29.1251  -12.5792   18.7985 H   0  0  0  0  0  0  0  0  0  0  0  0
  -29.1980  -13.2327   20.4173 H   0  0  0  0  0  0  0  0  0  0  0  0
  -30.8389  -15.7559   19.7733 H   0  0  0  0  0  0  0  0  0  0  0  0
  -29.4016  -15.7065   20.7655 H   0  0  0  0  0  0  0  0  0  0  0  0
  -29.4747  -16.7766   19.3862 H   0  0  0  0  0  0  0  0  0  0  0  0
  -27.3673  -14.4469   16.4390 H   0  0  0  0  0  0  0  0  0  0  0  0
  -27.5729  -11.6817   15.9618 H   0  0  0  0  0  0  0  0  0  0  0  0
  -25.5118  -13.6499   14.9855 H   0  0  0  0  0  0  0  0  0  0  0  0
  -25.3923  -10.6467   14.8750 H   0  0  0  0  0  0  0  0  0  0  0  0
  -25.5538  -11.7117   13.4992 H   0  0  0  0  0  0  0  0  0  0  0  0
  -24.0912  -11.7347   14.4549 H   0  0  0  0  0  0  0  0  0  0  0  0
  -25.4348  -11.6323   17.2133 H   0  0  0  0  0  0  0  0  0  0  0  0
  -24.1241  -12.6939   16.7570 H   0  0  0  0  0  0  0  0  0  0  0  0
  -25.6008  -13.3603   17.4116 H   0  0  0  0  0  0  0  0  0  0  0  0
  -27.6688  -14.4243   13.7244 H   0  0  0  0  0  0  0  0  0  0  0  0
  -28.9609  -12.6655   11.6951 H   0  0  0  0  0  0  0  0  0  0  0  0
  -26.9113  -13.4625   10.8952 H   0  0  0  0  0  0  0  0  0  0  0  0
  -27.5204  -15.1626   11.2972 H   0  0  0  0  0  0  0  0  0  0  0  0
  -28.6468  -15.3771    9.5142 H   0  0  0  0  0  0  0  0  0  0  0  0
  -28.7719  -12.4698    8.9238 H   0  0  0  0  0  0  0  0  0  0  0  0
  -30.0394  -13.4430    9.6304 H   0  0  0  0  0  0  0  0  0  0  0  0
  -29.5095  -13.7525    7.9944 H   0  0  0  0  0  0  0  0  0  0  0  0
  -26.4525  -13.5657    8.5165 H   0  0  0  0  0  0  0  0  0  0  0  0
  -27.2869  -14.7690    7.5631 H   0  0  0  0  0  0  0  0  0  0  0  0
  -26.2733  -15.2612    8.8986 H   0  0  0  0  0  0  0  0  0  0  0  0
  -30.9890  -12.8777   12.6461 H   0  0  0  0  0  0  0  0  0  0  0  0
  -31.9585  -15.5397   13.3016 H   0  0  0  0  0  0  0  0  0  0  0  0
  -33.2142  -12.8591   13.8142 H   0  0  0  0  0  0  0  0  0  0  0  0
  -32.2660  -13.7753   14.9607 H   0  0  0  0  0  0  0  0  0  0  0  0
  -33.8057  -14.3914   14.4104 H   0  0  0  0  0  0  0  0  0  0  0  0
  -33.7842  -16.4677   12.5295 H   0  0  0  0  0  0  0  0  0  0  0  0
  -34.8767  -15.3107   10.0497 H   0  0  0  0  0  0  0  0  0  0  0  0
  -35.8398  -16.2136   11.1944 H   0  0  0  0  0  0  0  0  0  0  0  0
  -34.5965  -17.0213   10.2698 H   0  0  0  0  0  0  0  0  0  0  0  0
  1  2  1  0  0  0  0
  1 33  1  0  0  0  0
  1 34  1  0  0  0  0
  1 35  1  0  0  0  0
  2  4  1  0  0  0  0
  3  2  2  0  0  0  0
  4  5  1  0  0  0  0
  4 36  1  0  0  0  0
  5  8  1  0  0  0  0
  5 37  1  1  0  0  0
  6  5  1  0  0  0  0
  7  6  2  0  0  0  0
  8  9  1  0  0  0  0
  8 10  1  0  0  0  0
  8 38  1  0  0  0  0
  9 39  1  0  0  0  0
  9 40  1  0  0  0  0
  9 41  1  0  0  0  0
 10 42  1  0  0  0  0
 10 43  1  0  0  0  0
 10 44  1  0  0  0  0
 11  6  1  0  0  0  0
 11 45  1  0  0  0  0
 12 11  1  0  0  0  0
 12 46  1  1  0  0  0
 13 12  1  0  0  0  0
 14 13  2  0  0  0  0
 15 12  1  0  0  0  0
 15 17  1  0  0  0  0
 15 47  1  0  0  0  0
 16 15  1  0  0  0  0
 16 48  1  0  0  0  0
 16 49  1  0  0  0  0
 16 50  1  0  0  0  0
 17 51  1  0  0  0  0
 17 52  1  0  0  0  0
 17 53  1  0  0  0  0
 18 13  1  0  0  0  0
 18 54  1  0  0  0  0
 19 20  1  0  0  0  0
 19 18  1  0  0  0  0
 19 55  1  6  0  0  0
 20 26  1  0  0  0  0
 21 20  2  0  0  0  0
 22 19  1  0  0  0  0
 22 56  1  0  0  0  0
 22 57  1  0  0  0  0
 23 22  1  0  0  0  0
 23 58  1  0  0  0  0
 24 23  1  0  0  0  0
 24 59  1  0  0  0  0
 24 60  1  0  0  0  0
 24 61  1  0  0  0  0
 25 23  1  0  0  0  0
 25 62  1  0  0  0  0
 25 63  1  0  0  0  0
 25 64  1  0  0  0  0
 26 27  1  0  0  0  0
 26 65  1  0  0  0  0
 27 30  1  0  0  0  0
 27 66  1  1  0  0  0
 28 27  1  0  0  0  0
 29 28  2  0  0  0  0
 30 67  1  0  0  0  0
 30 68  1  0  0  0  0
 30 69  1  0  0  0  0
 31 28  1  0  0  0  0
 31 70  1  0  0  0  0
 32 31  1  0  0  0  0
 32 71  1  0  0  0  0
 32 72  1  0  0  0  0
 32 73  1  0  0  0  0
M  END
>  <MODEL>
       0

$$$$
