
  -OEChem-05262214473D

 45 44  0     1  0  0  0  0  0999 V2000
   -2.2987    4.1032   -0.3022 C   0  0  0  0  0  0  0  0  0  0  0  0
   -1.8049    3.7117   -1.3532 O   0  0  0  0  0  0  0  0  0  0  0  0
   -3.0791    5.3755   -0.2846 C   0  0  0  0  0  0  0  0  0  0  0  0
   -2.4478    6.2532   -0.0717 H   0  0  0  0  0  0  0  0  0  0  0  0
   -3.5571    5.5891   -1.2541 H   0  0  0  0  0  0  0  0  0  0  0  0
   -3.8940    5.4184    0.4556 H   0  0  0  0  0  0  0  0  0  0  0  0
   -2.2137    3.4712    0.9275 N   0  0  0  0  0  0  0  0  0  0  0  0
   -1.5102    2.2327    1.1338 C   0  0  2  0  0  0  0  0  0  0  0  0
   -1.3539    1.5497   -0.2184 C   0  0  0  0  0  0  0  0  0  0  0  0
   -2.0852    1.7861   -1.1778 O   0  0  0  0  0  0  0  0  0  0  0  0
   -2.2477    1.3342    2.1145 C   0  0  0  0  0  0  0  0  0  0  0  0
   -2.6724    3.9052    1.7265 H   0  0  0  0  0  0  0  0  0  0  0  0
   -0.5220    2.4922    1.5290 H   0  0  0  0  0  0  0  0  0  0  0  0
   -3.2400    1.0636    1.7358 H   0  0  0  0  0  0  0  0  0  0  0  0
   -1.6970    0.4046    2.2923 H   0  0  0  0  0  0  0  0  0  0  0  0
   -2.3854    1.8384    3.0772 H   0  0  0  0  0  0  0  0  0  0  0  0
   -0.3283    0.6116   -0.2182 N   0  0  0  0  0  0  0  0  0  0  0  0
    0.0090   -0.1762   -1.3759 C   0  0  2  0  0  0  0  0  0  0  0  0
    1.1726   -1.0842   -0.9982 C   0  0  0  0  0  0  0  0  0  0  0  0
    1.6580   -1.1156    0.1308 O   0  0  0  0  0  0  0  0  0  0  0  0
    0.3692    0.6969   -2.5749 C   0  0  0  0  0  0  0  0  0  0  0  0
   -0.8397    1.4315   -3.1001 C   0  0  0  0  0  0  0  0  0  0  0  0
   -1.9864    1.0121   -3.0127 O   0  0  0  0  0  0  0  0  0  0  0  0
   -0.5173    2.6048   -3.6984 O   0  0  0  0  0  0  0  0  0  0  0  0
    0.2381    0.4970    0.6194 H   0  0  0  0  0  0  0  0  0  0  0  0
   -0.8696   -0.7958   -1.5923 H   0  0  0  0  0  0  0  0  0  0  0  0
    1.1063    1.4621   -2.3004 H   0  0  0  0  0  0  0  0  0  0  0  0
    0.8291    0.1215   -3.3875 H   0  0  0  0  0  0  0  0  0  0  0  0
   -1.2774    3.1059   -4.0641 H   0  0  0  0  0  0  0  0  0  0  0  0
    1.5730   -1.8884   -2.0560 N   0  0  0  0  0  0  0  0  0  0  0  0
    2.6487   -2.8456   -1.9436 C   0  0  2  0  0  0  0  0  0  0  0  0
    2.2009   -3.9468   -0.9917 C   0  0  0  0  0  0  0  0  0  0  0  0
    1.3152   -3.7900   -0.1538 O   0  0  0  0  0  0  0  0  0  0  0  0
    3.9267   -2.1861   -1.4490 C   0  0  0  0  0  0  0  0  0  0  0  0
    1.0900   -1.8004   -2.9452 H   0  0  0  0  0  0  0  0  0  0  0  0
    2.8033   -3.2665   -2.9431 H   0  0  0  0  0  0  0  0  0  0  0  0
    3.7912   -1.7585   -0.4488 H   0  0  0  0  0  0  0  0  0  0  0  0
    4.7487   -2.9072   -1.3915 H   0  0  0  0  0  0  0  0  0  0  0  0
    4.2310   -1.3747   -2.1189 H   0  0  0  0  0  0  0  0  0  0  0  0
    2.9361   -5.1120   -1.1588 N   0  0  0  0  0  0  0  0  0  0  0  0
    2.7099   -6.2972   -0.3650 C   0  0  0  0  0  0  0  0  0  0  0  0
    3.6387   -5.1589   -1.8909 H   0  0  0  0  0  0  0  0  0  0  0  0
    3.3754   -6.2852    0.5107 H   0  0  0  0  0  0  0  0  0  0  0  0
    1.6626   -6.3191   -0.0292 H   0  0  0  0  0  0  0  0  0  0  0  0
    2.9190   -7.1904   -0.9720 H   0  0  0  0  0  0  0  0  0  0  0  0
  1  3  1  0  0  0  0
  1  7  1  0  0  0  0
  1  2  2  0  0  0  0
 31 32  1  0  0  0  0
 32 40  1  0  0  0  0
 32 33  2  0  0  0  0
  8  9  1  0  0  0  0
  9 17  1  0  0  0  0
  9 10  2  0  0  0  0
 18 19  1  0  0  0  0
 19 30  1  0  0  0  0
 19 20  2  0  0  0  0
 21 22  1  0  0  0  0
 22 23  2  0  0  0  0
 22 24  1  0  0  0  0
 31 34  1  0  0  0  0
  8 11  1  0  0  0  0
 40 41  1  0  0  0  0
 18 21  1  0  0  0  0
 30 31  1  0  0  0  0
  7  8  1  0  0  0  0
 17 18  1  0  0  0  0
  3  4  1  0  0  0  0
  3  5  1  0  0  0  0
  3  6  1  0  0  0  0
 34 37  1  0  0  0  0
 34 38  1  0  0  0  0
 34 39  1  0  0  0  0
 11 14  1  0  0  0  0
 11 15  1  0  0  0  0
 11 16  1  0  0  0  0
 41 43  1  0  0  0  0
 41 44  1  0  0  0  0
 41 45  1  0  0  0  0
 21 27  1  0  0  0  0
 21 28  1  0  0  0  0
 31 36  1  0  0  0  0
  8 13  1  0  0  0  0
 18 26  1  0  0  0  0
 40 42  1  0  0  0  0
  7 12  1  0  0  0  0
 30 35  1  0  0  0  0
 17 25  1  0  0  0  0
 24 29  1  0  0  0  0
M  END
$$$$

  -OEChem-05262214473D

 45 44  0     1  0  0  0  0  0999 V2000
   -2.2987    4.1032   -0.3022 C   0  0  0  0  0  0  0  0  0  0  0  0
   -1.8049    3.7117   -1.3532 O   0  0  0  0  0  0  0  0  0  0  0  0
   -3.0791    5.3755   -0.2846 C   0  0  0  0  0  0  0  0  0  0  0  0
   -2.4478    6.2532   -0.0717 H   0  0  0  0  0  0  0  0  0  0  0  0
   -3.5571    5.5891   -1.2541 H   0  0  0  0  0  0  0  0  0  0  0  0
   -3.8940    5.4184    0.4556 H   0  0  0  0  0  0  0  0  0  0  0  0
   -2.2137    3.4712    0.9275 N   0  0  0  0  0  0  0  0  0  0  0  0
   -1.5102    2.2327    1.1338 C   0  0  2  0  0  0  0  0  0  0  0  0
   -1.3539    1.5497   -0.2184 C   0  0  0  0  0  0  0  0  0  0  0  0
   -2.0852    1.7861   -1.1778 O   0  0  0  0  0  0  0  0  0  0  0  0
   -2.2477    1.3342    2.1145 C   0  0  0  0  0  0  0  0  0  0  0  0
   -2.6724    3.9052    1.7265 H   0  0  0  0  0  0  0  0  0  0  0  0
   -0.5220    2.4922    1.5290 H   0  0  0  0  0  0  0  0  0  0  0  0
   -3.2400    1.0636    1.7358 H   0  0  0  0  0  0  0  0  0  0  0  0
   -1.6970    0.4046    2.2923 H   0  0  0  0  0  0  0  0  0  0  0  0
   -2.3854    1.8384    3.0772 H   0  0  0  0  0  0  0  0  0  0  0  0
   -0.3283    0.6116   -0.2182 N   0  0  0  0  0  0  0  0  0  0  0  0
    0.0090   -0.1762   -1.3759 C   0  0  2  0  0  0  0  0  0  0  0  0
    1.1726   -1.0842   -0.9982 C   0  0  0  0  0  0  0  0  0  0  0  0
    1.4868   -1.3202    0.1667 O   0  0  0  0  0  0  0  0  0  0  0  0
    0.3692    0.6969   -2.5749 C   0  0  0  0  0  0  0  0  0  0  0  0
   -0.8397    1.4315   -3.1001 C   0  0  0  0  0  0  0  0  0  0  0  0
   -1.9864    1.0121   -3.0127 O   0  0  0  0  0  0  0  0  0  0  0  0
   -0.5173    2.6048   -3.6984 O   0  0  0  0  0  0  0  0  0  0  0  0
    0.2381    0.4970    0.6194 H   0  0  0  0  0  0  0  0  0  0  0  0
   -0.8696   -0.7958   -1.5923 H   0  0  0  0  0  0  0  0  0  0  0  0
    1.1063    1.4621   -2.3004 H   0  0  0  0  0  0  0  0  0  0  0  0
    0.8291    0.1215   -3.3875 H   0  0  0  0  0  0  0  0  0  0  0  0
   -1.2774    3.1059   -4.0641 H   0  0  0  0  0  0  0  0  0  0  0  0
    1.7877   -1.6369   -2.1127 N   0  0  0  0  0  0  0  0  0  0  0  0
    2.9079   -2.5434   -2.0154 C   0  0  2  0  0  0  0  0  0  0  0  0
    2.4134   -3.8352   -1.3781 C   0  0  0  0  0  0  0  0  0  0  0  0
    1.4040   -3.8948   -0.6791 O   0  0  0  0  0  0  0  0  0  0  0  0
    4.0420   -1.9365   -1.2043 C   0  0  0  0  0  0  0  0  0  0  0  0
    1.4360   -1.3940   -3.0342 H   0  0  0  0  0  0  0  0  0  0  0  0
    3.2415   -2.7449   -3.0392 H   0  0  0  0  0  0  0  0  0  0  0  0
    3.7266   -1.7277   -0.1755 H   0  0  0  0  0  0  0  0  0  0  0  0
    4.9014   -2.6134   -1.1555 H   0  0  0  0  0  0  0  0  0  0  0  0
    4.3764   -0.9923   -1.6475 H   0  0  0  0  0  0  0  0  0  0  0  0
    3.2557   -4.9052   -1.6462 N   0  0  0  0  0  0  0  0  0  0  0  0
    3.0099   -6.2362   -1.1425 C   0  0  0  0  0  0  0  0  0  0  0  0
    4.0603   -4.7684   -2.2510 H   0  0  0  0  0  0  0  0  0  0  0  0
    3.5356   -6.3696   -0.1855 H   0  0  0  0  0  0  0  0  0  0  0  0
    1.9296   -6.3767   -0.9899 H   0  0  0  0  0  0  0  0  0  0  0  0
    3.3769   -6.9766   -1.8686 H   0  0  0  0  0  0  0  0  0  0  0  0
  1  3  1  0  0  0  0
  1  7  1  0  0  0  0
  1  2  2  0  0  0  0
 31 32  1  0  0  0  0
 32 40  1  0  0  0  0
 32 33  2  0  0  0  0
  8  9  1  0  0  0  0
  9 17  1  0  0  0  0
  9 10  2  0  0  0  0
 18 19  1  0  0  0  0
 19 30  1  0  0  0  0
 19 20  2  0  0  0  0
 21 22  1  0  0  0  0
 22 23  2  0  0  0  0
 22 24  1  0  0  0  0
 31 34  1  0  0  0  0
  8 11  1  0  0  0  0
 40 41  1  0  0  0  0
 18 21  1  0  0  0  0
 30 31  1  0  0  0  0
  7  8  1  0  0  0  0
 17 18  1  0  0  0  0
  3  4  1  0  0  0  0
  3  5  1  0  0  0  0
  3  6  1  0  0  0  0
 34 37  1  0  0  0  0
 34 38  1  0  0  0  0
 34 39  1  0  0  0  0
 11 14  1  0  0  0  0
 11 15  1  0  0  0  0
 11 16  1  0  0  0  0
 41 43  1  0  0  0  0
 41 44  1  0  0  0  0
 41 45  1  0  0  0  0
 21 27  1  0  0  0  0
 21 28  1  0  0  0  0
 31 36  1  0  0  0  0
  8 13  1  0  0  0  0
 18 26  1  0  0  0  0
 40 42  1  0  0  0  0
  7 12  1  0  0  0  0
 30 35  1  0  0  0  0
 17 25  1  0  0  0  0
 24 29  1  0  0  0  0
M  END
$$$$

  -OEChem-05262214473D

 45 44  0     1  0  0  0  0  0999 V2000
   -2.2987    4.1032   -0.3022 C   0  0  0  0  0  0  0  0  0  0  0  0
   -1.8049    3.7117   -1.3532 O   0  0  0  0  0  0  0  0  0  0  0  0
   -3.0791    5.3755   -0.2846 C   0  0  0  0  0  0  0  0  0  0  0  0
   -2.4478    6.2532   -0.0717 H   0  0  0  0  0  0  0  0  0  0  0  0
   -3.5571    5.5891   -1.2541 H   0  0  0  0  0  0  0  0  0  0  0  0
   -3.8940    5.4184    0.4556 H   0  0  0  0  0  0  0  0  0  0  0  0
   -2.2137    3.4712    0.9275 N   0  0  0  0  0  0  0  0  0  0  0  0
   -1.5102    2.2327    1.1338 C   0  0  2  0  0  0  0  0  0  0  0  0
   -1.3539    1.5497   -0.2184 C   0  0  0  0  0  0  0  0  0  0  0  0
   -2.0852    1.7861   -1.1778 O   0  0  0  0  0  0  0  0  0  0  0  0
   -2.2477    1.3342    2.1145 C   0  0  0  0  0  0  0  0  0  0  0  0
   -2.6724    3.9052    1.7265 H   0  0  0  0  0  0  0  0  0  0  0  0
   -0.5220    2.4922    1.5290 H   0  0  0  0  0  0  0  0  0  0  0  0
   -3.2400    1.0636    1.7358 H   0  0  0  0  0  0  0  0  0  0  0  0
   -1.6970    0.4046    2.2923 H   0  0  0  0  0  0  0  0  0  0  0  0
   -2.3854    1.8384    3.0772 H   0  0  0  0  0  0  0  0  0  0  0  0
   -0.3283    0.6116   -0.2182 N   0  0  0  0  0  0  0  0  0  0  0  0
    0.0090   -0.1762   -1.3759 C   0  0  2  0  0  0  0  0  0  0  0  0
    1.1726   -1.0842   -0.9982 C   0  0  0  0  0  0  0  0  0  0  0  0
    1.3290   -1.5358    0.1345 O   0  0  0  0  0  0  0  0  0  0  0  0
    0.3692    0.6969   -2.5749 C   0  0  0  0  0  0  0  0  0  0  0  0
   -0.8397    1.4315   -3.1001 C   0  0  0  0  0  0  0  0  0  0  0  0
   -1.9864    1.0121   -3.0127 O   0  0  0  0  0  0  0  0  0  0  0  0
   -0.5173    2.6048   -3.6984 O   0  0  0  0  0  0  0  0  0  0  0  0
    0.2381    0.4970    0.6194 H   0  0  0  0  0  0  0  0  0  0  0  0
   -0.8696   -0.7958   -1.5923 H   0  0  0  0  0  0  0  0  0  0  0  0
    1.1063    1.4621   -2.3004 H   0  0  0  0  0  0  0  0  0  0  0  0
    0.8291    0.1215   -3.3875 H   0  0  0  0  0  0  0  0  0  0  0  0
   -1.2774    3.1059   -4.0641 H   0  0  0  0  0  0  0  0  0  0  0  0
    1.9878   -1.3688   -2.0847 N   0  0  0  0  0  0  0  0  0  0  0  0
    3.1498   -2.2207   -1.9852 C   0  0  2  0  0  0  0  0  0  0  0  0
    2.6711   -3.6374   -1.6966 C   0  0  0  0  0  0  0  0  0  0  0  0
    1.5775   -3.8865   -1.1936 O   0  0  0  0  0  0  0  0  0  0  0  0
    4.0997   -1.7364   -0.9007 C   0  0  0  0  0  0  0  0  0  0  0  0
    1.7578   -0.9616   -2.9864 H   0  0  0  0  0  0  0  0  0  0  0  0
    3.6461   -2.1940   -2.9614 H   0  0  0  0  0  0  0  0  0  0  0  0
    3.6200   -1.7560    0.0847 H   0  0  0  0  0  0  0  0  0  0  0  0
    4.9935   -2.3665   -0.8459 H   0  0  0  0  0  0  0  0  0  0  0  0
    4.4196   -0.7068   -1.0942 H   0  0  0  0  0  0  0  0  0  0  0  0
    3.6264   -4.5885   -2.0269 N   0  0  0  0  0  0  0  0  0  0  0  0
    3.4156   -6.0044   -1.8351 C   0  0  0  0  0  0  0  0  0  0  0  0
    4.4980   -4.2930   -2.4566 H   0  0  0  0  0  0  0  0  0  0  0  0
    3.8031   -6.3032   -0.8500 H   0  0  0  0  0  0  0  0  0  0  0  0
    2.3393   -6.2252   -1.8881 H   0  0  0  0  0  0  0  0  0  0  0  0
    3.9438   -6.5634   -2.6217 H   0  0  0  0  0  0  0  0  0  0  0  0
  1  3  1  0  0  0  0
  1  7  1  0  0  0  0
  1  2  2  0  0  0  0
 31 32  1  0  0  0  0
 32 40  1  0  0  0  0
 32 33  2  0  0  0  0
  8  9  1  0  0  0  0
  9 17  1  0  0  0  0
  9 10  2  0  0  0  0
 18 19  1  0  0  0  0
 19 30  1  0  0  0  0
 19 20  2  0  0  0  0
 21 22  1  0  0  0  0
 22 23  2  0  0  0  0
 22 24  1  0  0  0  0
 31 34  1  0  0  0  0
  8 11  1  0  0  0  0
 40 41  1  0  0  0  0
 18 21  1  0  0  0  0
 30 31  1  0  0  0  0
  7  8  1  0  0  0  0
 17 18  1  0  0  0  0
  3  4  1  0  0  0  0
  3  5  1  0  0  0  0
  3  6  1  0  0  0  0
 34 37  1  0  0  0  0
 34 38  1  0  0  0  0
 34 39  1  0  0  0  0
 11 14  1  0  0  0  0
 11 15  1  0  0  0  0
 11 16  1  0  0  0  0
 41 43  1  0  0  0  0
 41 44  1  0  0  0  0
 41 45  1  0  0  0  0
 21 27  1  0  0  0  0
 21 28  1  0  0  0  0
 31 36  1  0  0  0  0
  8 13  1  0  0  0  0
 18 26  1  0  0  0  0
 40 42  1  0  0  0  0
  7 12  1  0  0  0  0
 30 35  1  0  0  0  0
 17 25  1  0  0  0  0
 24 29  1  0  0  0  0
M  END
$$$$

  -OEChem-05262214473D

 45 44  0     1  0  0  0  0  0999 V2000
   -2.2987    4.1032   -0.3022 C   0  0  0  0  0  0  0  0  0  0  0  0
   -1.8049    3.7117   -1.3532 O   0  0  0  0  0  0  0  0  0  0  0  0
   -3.0791    5.3755   -0.2846 C   0  0  0  0  0  0  0  0  0  0  0  0
   -2.4478    6.2532   -0.0717 H   0  0  0  0  0  0  0  0  0  0  0  0
   -3.5571    5.5891   -1.2541 H   0  0  0  0  0  0  0  0  0  0  0  0
   -3.8940    5.4184    0.4556 H   0  0  0  0  0  0  0  0  0  0  0  0
   -2.2137    3.4712    0.9275 N   0  0  0  0  0  0  0  0  0  0  0  0
   -1.5102    2.2327    1.1338 C   0  0  2  0  0  0  0  0  0  0  0  0
   -1.3539    1.5497   -0.2184 C   0  0  0  0  0  0  0  0  0  0  0  0
   -2.0852    1.7861   -1.1778 O   0  0  0  0  0  0  0  0  0  0  0  0
   -2.2477    1.3342    2.1145 C   0  0  0  0  0  0  0  0  0  0  0  0
   -2.6724    3.9052    1.7265 H   0  0  0  0  0  0  0  0  0  0  0  0
   -0.5220    2.4922    1.5290 H   0  0  0  0  0  0  0  0  0  0  0  0
   -3.2400    1.0636    1.7358 H   0  0  0  0  0  0  0  0  0  0  0  0
   -1.6970    0.4046    2.2923 H   0  0  0  0  0  0  0  0  0  0  0  0
   -2.3854    1.8384    3.0772 H   0  0  0  0  0  0  0  0  0  0  0  0
   -0.3283    0.6116   -0.2182 N   0  0  0  0  0  0  0  0  0  0  0  0
    0.0090   -0.1762   -1.3759 C   0  0  2  0  0  0  0  0  0  0  0  0
    1.1726   -1.0842   -0.9982 C   0  0  0  0  0  0  0  0  0  0  0  0
    1.1953   -1.7479    0.0364 O   0  0  0  0  0  0  0  0  0  0  0  0
    0.3692    0.6969   -2.5749 C   0  0  0  0  0  0  0  0  0  0  0  0
   -0.8397    1.4315   -3.1001 C   0  0  0  0  0  0  0  0  0  0  0  0
   -1.9864    1.0121   -3.0127 O   0  0  0  0  0  0  0  0  0  0  0  0
   -0.5173    2.6048   -3.6984 O   0  0  0  0  0  0  0  0  0  0  0  0
    0.2381    0.4970    0.6194 H   0  0  0  0  0  0  0  0  0  0  0  0
   -0.8696   -0.7958   -1.5923 H   0  0  0  0  0  0  0  0  0  0  0  0
    1.1063    1.4621   -2.3004 H   0  0  0  0  0  0  0  0  0  0  0  0
    0.8291    0.1215   -3.3875 H   0  0  0  0  0  0  0  0  0  0  0  0
   -1.2774    3.1059   -4.0641 H   0  0  0  0  0  0  0  0  0  0  0  0
    2.1595   -1.1026   -1.9738 N   0  0  0  0  0  0  0  0  0  0  0  0
    3.3582   -1.8994   -1.8548 C   0  0  2  0  0  0  0  0  0  0  0  0
    2.9565   -3.3668   -1.9253 C   0  0  0  0  0  0  0  0  0  0  0  0
    1.8239   -3.7656   -1.6622 O   0  0  0  0  0  0  0  0  0  0  0  0
    4.0957   -1.5994   -0.5591 C   0  0  0  0  0  0  0  0  0  0  0  0
    2.0336   -0.5328   -2.8052 H   0  0  0  0  0  0  0  0  0  0  0  0
    3.9896   -1.6513   -2.7150 H   0  0  0  0  0  0  0  0  0  0  0  0
    3.4788   -1.8417    0.3139 H   0  0  0  0  0  0  0  0  0  0  0  0
    5.0190   -2.1832   -0.4837 H   0  0  0  0  0  0  0  0  0  0  0  0
    4.3576   -0.5376   -0.4966 H   0  0  0  0  0  0  0  0  0  0  0  0
    4.0228   -4.1835   -2.2747 N   0  0  0  0  0  0  0  0  0  0  0  0
    3.8995   -5.6175   -2.3958 C   0  0  0  0  0  0  0  0  0  0  0  0
    4.9220   -3.7650   -2.4938 H   0  0  0  0  0  0  0  0  0  0  0  0
    4.1597   -6.0906   -1.4374 H   0  0  0  0  0  0  0  0  0  0  0  0
    2.8639   -5.8751   -2.6626 H   0  0  0  0  0  0  0  0  0  0  0  0
    4.5809   -5.9790   -3.1800 H   0  0  0  0  0  0  0  0  0  0  0  0
  1  3  1  0  0  0  0
  1  7  1  0  0  0  0
  1  2  2  0  0  0  0
 31 32  1  0  0  0  0
 32 40  1  0  0  0  0
 32 33  2  0  0  0  0
  8  9  1  0  0  0  0
  9 17  1  0  0  0  0
  9 10  2  0  0  0  0
 18 19  1  0  0  0  0
 19 30  1  0  0  0  0
 19 20  2  0  0  0  0
 21 22  1  0  0  0  0
 22 23  2  0  0  0  0
 22 24  1  0  0  0  0
 31 34  1  0  0  0  0
  8 11  1  0  0  0  0
 40 41  1  0  0  0  0
 18 21  1  0  0  0  0
 30 31  1  0  0  0  0
  7  8  1  0  0  0  0
 17 18  1  0  0  0  0
  3  4  1  0  0  0  0
  3  5  1  0  0  0  0
  3  6  1  0  0  0  0
 34 37  1  0  0  0  0
 34 38  1  0  0  0  0
 34 39  1  0  0  0  0
 11 14  1  0  0  0  0
 11 15  1  0  0  0  0
 11 16  1  0  0  0  0
 41 43  1  0  0  0  0
 41 44  1  0  0  0  0
 41 45  1  0  0  0  0
 21 27  1  0  0  0  0
 21 28  1  0  0  0  0
 31 36  1  0  0  0  0
  8 13  1  0  0  0  0
 18 26  1  0  0  0  0
 40 42  1  0  0  0  0
  7 12  1  0  0  0  0
 30 35  1  0  0  0  0
 17 25  1  0  0  0  0
 24 29  1  0  0  0  0
M  END
$$$$

  -OEChem-05262214473D

 45 44  0     1  0  0  0  0  0999 V2000
   -2.2987    4.1032   -0.3022 C   0  0  0  0  0  0  0  0  0  0  0  0
   -1.8049    3.7117   -1.3532 O   0  0  0  0  0  0  0  0  0  0  0  0
   -3.0791    5.3755   -0.2846 C   0  0  0  0  0  0  0  0  0  0  0  0
   -2.4478    6.2532   -0.0717 H   0  0  0  0  0  0  0  0  0  0  0  0
   -3.5571    5.5891   -1.2541 H   0  0  0  0  0  0  0  0  0  0  0  0
   -3.8940    5.4184    0.4556 H   0  0  0  0  0  0  0  0  0  0  0  0
   -2.2137    3.4712    0.9275 N   0  0  0  0  0  0  0  0  0  0  0  0
   -1.5102    2.2327    1.1338 C   0  0  2  0  0  0  0  0  0  0  0  0
   -1.3539    1.5497   -0.2184 C   0  0  0  0  0  0  0  0  0  0  0  0
   -2.0852    1.7861   -1.1778 O   0  0  0  0  0  0  0  0  0  0  0  0
   -2.2477    1.3342    2.1145 C   0  0  0  0  0  0  0  0  0  0  0  0
   -2.6724    3.9052    1.7265 H   0  0  0  0  0  0  0  0  0  0  0  0
   -0.5220    2.4922    1.5290 H   0  0  0  0  0  0  0  0  0  0  0  0
   -3.2400    1.0636    1.7358 H   0  0  0  0  0  0  0  0  0  0  0  0
   -1.6970    0.4046    2.2923 H   0  0  0  0  0  0  0  0  0  0  0  0
   -2.3854    1.8384    3.0772 H   0  0  0  0  0  0  0  0  0  0  0  0
   -0.3283    0.6116   -0.2182 N   0  0  0  0  0  0  0  0  0  0  0  0
    0.0090   -0.1762   -1.3759 C   0  0  2  0  0  0  0  0  0  0  0  0
    1.1726   -1.0842   -0.9982 C   0  0  0  0  0  0  0  0  0  0  0  0
    1.0950   -1.9419   -0.1209 O   0  0  0  0  0  0  0  0  0  0  0  0
    0.3692    0.6969   -2.5749 C   0  0  0  0  0  0  0  0  0  0  0  0
   -0.8397    1.4315   -3.1001 C   0  0  0  0  0  0  0  0  0  0  0  0
   -1.9864    1.0121   -3.0127 O   0  0  0  0  0  0  0  0  0  0  0  0
   -0.5173    2.6048   -3.6984 O   0  0  0  0  0  0  0  0  0  0  0  0
    0.2381    0.4970    0.6194 H   0  0  0  0  0  0  0  0  0  0  0  0
   -0.8696   -0.7958   -1.5923 H   0  0  0  0  0  0  0  0  0  0  0  0
    1.1063    1.4621   -2.3004 H   0  0  0  0  0  0  0  0  0  0  0  0
    0.8291    0.1215   -3.3875 H   0  0  0  0  0  0  0  0  0  0  0  0
   -1.2774    3.1059   -4.0641 H   0  0  0  0  0  0  0  0  0  0  0  0
    2.2911   -0.8564   -1.7876 N   0  0  0  0  0  0  0  0  0  0  0  0
    3.5187   -1.6015   -1.6332 C   0  0  2  0  0  0  0  0  0  0  0  0
    3.2501   -3.0419   -2.0487 C   0  0  0  0  0  0  0  0  0  0  0  0
    2.1265   -3.5404   -2.0528 O   0  0  0  0  0  0  0  0  0  0  0  0
    4.0304   -1.5348   -0.2027 C   0  0  0  0  0  0  0  0  0  0  0  0
    2.2445   -0.1367   -2.5028 H   0  0  0  0  0  0  0  0  0  0  0  0
    4.2485   -1.1537   -2.3166 H   0  0  0  0  0  0  0  0  0  0  0  0
    3.3125   -1.9788    0.4966 H   0  0  0  0  0  0  0  0  0  0  0  0
    4.9759   -2.0762   -0.0938 H   0  0  0  0  0  0  0  0  0  0  0  0
    4.1947   -0.4963    0.1044 H   0  0  0  0  0  0  0  0  0  0  0  0
    4.4180   -3.7180   -2.3730 N   0  0  0  0  0  0  0  0  0  0  0  0
    4.4286   -5.1018   -2.7862 C   0  0  0  0  0  0  0  0  0  0  0  0
    5.3034   -3.2204   -2.3599 H   0  0  0  0  0  0  0  0  0  0  0  0
    4.5811   -5.7462   -1.9078 H   0  0  0  0  0  0  0  0  0  0  0  0
    3.4676   -5.3501   -3.2605 H   0  0  0  0  0  0  0  0  0  0  0  0
    5.2450   -5.2633   -3.5054 H   0  0  0  0  0  0  0  0  0  0  0  0
  1  3  1  0  0  0  0
  1  7  1  0  0  0  0
  1  2  2  0  0  0  0
 31 32  1  0  0  0  0
 32 40  1  0  0  0  0
 32 33  2  0  0  0  0
  8  9  1  0  0  0  0
  9 17  1  0  0  0  0
  9 10  2  0  0  0  0
 18 19  1  0  0  0  0
 19 30  1  0  0  0  0
 19 20  2  0  0  0  0
 21 22  1  0  0  0  0
 22 23  2  0  0  0  0
 22 24  1  0  0  0  0
 31 34  1  0  0  0  0
  8 11  1  0  0  0  0
 40 41  1  0  0  0  0
 18 21  1  0  0  0  0
 30 31  1  0  0  0  0
  7  8  1  0  0  0  0
 17 18  1  0  0  0  0
  3  4  1  0  0  0  0
  3  5  1  0  0  0  0
  3  6  1  0  0  0  0
 34 37  1  0  0  0  0
 34 38  1  0  0  0  0
 34 39  1  0  0  0  0
 11 14  1  0  0  0  0
 11 15  1  0  0  0  0
 11 16  1  0  0  0  0
 41 43  1  0  0  0  0
 41 44  1  0  0  0  0
 41 45  1  0  0  0  0
 21 27  1  0  0  0  0
 21 28  1  0  0  0  0
 31 36  1  0  0  0  0
  8 13  1  0  0  0  0
 18 26  1  0  0  0  0
 40 42  1  0  0  0  0
  7 12  1  0  0  0  0
 30 35  1  0  0  0  0
 17 25  1  0  0  0  0
 24 29  1  0  0  0  0
M  END
$$$$

  -OEChem-05262214473D

 45 44  0     1  0  0  0  0  0999 V2000
   -2.2987    4.1032   -0.3022 C   0  0  0  0  0  0  0  0  0  0  0  0
   -1.8049    3.7117   -1.3532 O   0  0  0  0  0  0  0  0  0  0  0  0
   -3.0791    5.3755   -0.2846 C   0  0  0  0  0  0  0  0  0  0  0  0
   -2.4478    6.2532   -0.0717 H   0  0  0  0  0  0  0  0  0  0  0  0
   -3.5571    5.5891   -1.2541 H   0  0  0  0  0  0  0  0  0  0  0  0
   -3.8940    5.4184    0.4556 H   0  0  0  0  0  0  0  0  0  0  0  0
   -2.2137    3.4712    0.9275 N   0  0  0  0  0  0  0  0  0  0  0  0
   -1.5102    2.2327    1.1338 C   0  0  2  0  0  0  0  0  0  0  0  0
   -1.3539    1.5497   -0.2184 C   0  0  0  0  0  0  0  0  0  0  0  0
   -2.0852    1.7861   -1.1778 O   0  0  0  0  0  0  0  0  0  0  0  0
   -2.2477    1.3342    2.1145 C   0  0  0  0  0  0  0  0  0  0  0  0
   -2.6724    3.9052    1.7265 H   0  0  0  0  0  0  0  0  0  0  0  0
   -0.5220    2.4922    1.5290 H   0  0  0  0  0  0  0  0  0  0  0  0
   -3.2400    1.0636    1.7358 H   0  0  0  0  0  0  0  0  0  0  0  0
   -1.6970    0.4046    2.2923 H   0  0  0  0  0  0  0  0  0  0  0  0
   -2.3854    1.8384    3.0772 H   0  0  0  0  0  0  0  0  0  0  0  0
   -0.3283    0.6116   -0.2182 N   0  0  0  0  0  0  0  0  0  0  0  0
    0.0090   -0.1762   -1.3759 C   0  0  2  0  0  0  0  0  0  0  0  0
    1.1726   -1.0842   -0.9982 C   0  0  0  0  0  0  0  0  0  0  0  0
    1.0348   -2.1046   -0.3267 O   0  0  0  0  0  0  0  0  0  0  0  0
    0.3692    0.6969   -2.5749 C   0  0  0  0  0  0  0  0  0  0  0  0
   -0.8397    1.4315   -3.1001 C   0  0  0  0  0  0  0  0  0  0  0  0
   -1.9864    1.0121   -3.0127 O   0  0  0  0  0  0  0  0  0  0  0  0
   -0.5173    2.6048   -3.6984 O   0  0  0  0  0  0  0  0  0  0  0  0
    0.2381    0.4970    0.6194 H   0  0  0  0  0  0  0  0  0  0  0  0
   -0.8696   -0.7958   -1.5923 H   0  0  0  0  0  0  0  0  0  0  0  0
    1.1063    1.4621   -2.3004 H   0  0  0  0  0  0  0  0  0  0  0  0
    0.8291    0.1215   -3.3875 H   0  0  0  0  0  0  0  0  0  0  0  0
   -1.2774    3.1059   -4.0641 H   0  0  0  0  0  0  0  0  0  0  0  0
    2.3738   -0.6470   -1.5387 N   0  0  0  0  0  0  0  0  0  0  0  0
    3.6205   -1.3472   -1.3356 C   0  0  2  0  0  0  0  0  0  0  0  0
    3.5319   -2.6848   -2.0584 C   0  0  0  0  0  0  0  0  0  0  0  0
    2.4645   -3.2262   -2.3390 O   0  0  0  0  0  0  0  0  0  0  0  0
    3.9081   -1.5471    0.1443 C   0  0  0  0  0  0  0  0  0  0  0  0
    2.3762    0.1997   -2.0999 H   0  0  0  0  0  0  0  0  0  0  0  0
    4.4052   -0.7352   -1.7936 H   0  0  0  0  0  0  0  0  0  0  0  0
    3.1325   -2.1580    0.6204 H   0  0  0  0  0  0  0  0  0  0  0  0
    4.8673   -2.0527    0.2973 H   0  0  0  0  0  0  0  0  0  0  0  0
    3.9420   -0.5857    0.6681 H   0  0  0  0  0  0  0  0  0  0  0  0
    4.7849   -3.2235   -2.3149 N   0  0  0  0  0  0  0  0  0  0  0  0
    4.9667   -4.4927   -2.9798 C   0  0  0  0  0  0  0  0  0  0  0  0
    5.6163   -2.6965   -2.0640 H   0  0  0  0  0  0  0  0  0  0  0  0
    5.0386   -5.2935   -2.2291 H   0  0  0  0  0  0  0  0  0  0  0  0
    4.1093   -4.6861   -3.6412 H   0  0  0  0  0  0  0  0  0  0  0  0
    5.8908   -4.4651   -3.5759 H   0  0  0  0  0  0  0  0  0  0  0  0
  1  3  1  0  0  0  0
  1  7  1  0  0  0  0
  1  2  2  0  0  0  0
 31 32  1  0  0  0  0
 32 40  1  0  0  0  0
 32 33  2  0  0  0  0
  8  9  1  0  0  0  0
  9 17  1  0  0  0  0
  9 10  2  0  0  0  0
 18 19  1  0  0  0  0
 19 30  1  0  0  0  0
 19 20  2  0  0  0  0
 21 22  1  0  0  0  0
 22 23  2  0  0  0  0
 22 24  1  0  0  0  0
 31 34  1  0  0  0  0
  8 11  1  0  0  0  0
 40 41  1  0  0  0  0
 18 21  1  0  0  0  0
 30 31  1  0  0  0  0
  7  8  1  0  0  0  0
 17 18  1  0  0  0  0
  3  4  1  0  0  0  0
  3  5  1  0  0  0  0
  3  6  1  0  0  0  0
 34 37  1  0  0  0  0
 34 38  1  0  0  0  0
 34 39  1  0  0  0  0
 11 14  1  0  0  0  0
 11 15  1  0  0  0  0
 11 16  1  0  0  0  0
 41 43  1  0  0  0  0
 41 44  1  0  0  0  0
 41 45  1  0  0  0  0
 21 27  1  0  0  0  0
 21 28  1  0  0  0  0
 31 36  1  0  0  0  0
  8 13  1  0  0  0  0
 18 26  1  0  0  0  0
 40 42  1  0  0  0  0
  7 12  1  0  0  0  0
 30 35  1  0  0  0  0
 17 25  1  0  0  0  0
 24 29  1  0  0  0  0
M  END
$$$$

  -OEChem-05262214473D

 45 44  0     1  0  0  0  0  0999 V2000
   -2.2987    4.1032   -0.3022 C   0  0  0  0  0  0  0  0  0  0  0  0
   -1.8049    3.7117   -1.3532 O   0  0  0  0  0  0  0  0  0  0  0  0
   -3.0791    5.3755   -0.2846 C   0  0  0  0  0  0  0  0  0  0  0  0
   -2.4478    6.2532   -0.0717 H   0  0  0  0  0  0  0  0  0  0  0  0
   -3.5571    5.5891   -1.2541 H   0  0  0  0  0  0  0  0  0  0  0  0
   -3.8940    5.4184    0.4556 H   0  0  0  0  0  0  0  0  0  0  0  0
   -2.2137    3.4712    0.9275 N   0  0  0  0  0  0  0  0  0  0  0  0
   -1.5102    2.2327    1.1338 C   0  0  2  0  0  0  0  0  0  0  0  0
   -1.3539    1.5497   -0.2184 C   0  0  0  0  0  0  0  0  0  0  0  0
   -2.0852    1.7861   -1.1778 O   0  0  0  0  0  0  0  0  0  0  0  0
   -2.2477    1.3342    2.1145 C   0  0  0  0  0  0  0  0  0  0  0  0
   -2.6724    3.9052    1.7265 H   0  0  0  0  0  0  0  0  0  0  0  0
   -0.5220    2.4922    1.5290 H   0  0  0  0  0  0  0  0  0  0  0  0
   -3.2400    1.0636    1.7358 H   0  0  0  0  0  0  0  0  0  0  0  0
   -1.6970    0.4046    2.2923 H   0  0  0  0  0  0  0  0  0  0  0  0
   -2.3854    1.8384    3.0772 H   0  0  0  0  0  0  0  0  0  0  0  0
   -0.3283    0.6116   -0.2182 N   0  0  0  0  0  0  0  0  0  0  0  0
    0.0090   -0.1762   -1.3759 C   0  0  2  0  0  0  0  0  0  0  0  0
    1.1726   -1.0842   -0.9982 C   0  0  0  0  0  0  0  0  0  0  0  0
    1.0188   -2.2250   -0.5669 O   0  0  0  0  0  0  0  0  0  0  0  0
    0.3692    0.6969   -2.5749 C   0  0  0  0  0  0  0  0  0  0  0  0
   -0.8397    1.4315   -3.1001 C   0  0  0  0  0  0  0  0  0  0  0  0
   -1.9864    1.0121   -3.0127 O   0  0  0  0  0  0  0  0  0  0  0  0
   -0.5173    2.6048   -3.6984 O   0  0  0  0  0  0  0  0  0  0  0  0
    0.2381    0.4970    0.6194 H   0  0  0  0  0  0  0  0  0  0  0  0
   -0.8696   -0.7958   -1.5923 H   0  0  0  0  0  0  0  0  0  0  0  0
    1.1063    1.4621   -2.3004 H   0  0  0  0  0  0  0  0  0  0  0  0
    0.8291    0.1215   -3.3875 H   0  0  0  0  0  0  0  0  0  0  0  0
   -1.2774    3.1059   -4.0641 H   0  0  0  0  0  0  0  0  0  0  0  0
    2.4018   -0.4886   -1.2442 N   0  0  0  0  0  0  0  0  0  0  0  0
    3.6566   -1.1539   -0.9821 C   0  0  2  0  0  0  0  0  0  0  0  0
    3.7826   -2.3199   -1.9537 C   0  0  0  0  0  0  0  0  0  0  0  0
    2.8150   -2.8444   -2.5011 O   0  0  0  0  0  0  0  0  0  0  0  0
    3.7373   -1.6354    0.4582 C   0  0  0  0  0  0  0  0  0  0  0  0
    2.4196    0.4534   -1.6239 H   0  0  0  0  0  0  0  0  0  0  0  0
    4.4491   -0.4244   -1.1814 H   0  0  0  0  0  0  0  0  0  0  0  0
    2.9510   -2.3671    0.6767 H   0  0  0  0  0  0  0  0  0  0  0  0
    4.7006   -2.1142    0.6631 H   0  0  0  0  0  0  0  0  0  0  0  0
    3.6167   -0.7996    1.1559 H   0  0  0  0  0  0  0  0  0  0  0  0
    5.0987   -2.7338   -2.1044 N   0  0  0  0  0  0  0  0  0  0  0  0
    5.4773   -3.8314   -2.9633 C   0  0  0  0  0  0  0  0  0  0  0  0
    5.8392   -2.2287   -1.6265 H   0  0  0  0  0  0  0  0  0  0  0  0
    5.5011   -4.7633   -2.3794 H   0  0  0  0  0  0  0  0  0  0  0  0
    4.7453   -3.9283   -3.7786 H   0  0  0  0  0  0  0  0  0  0  0  0
    6.4742   -3.6387   -3.3866 H   0  0  0  0  0  0  0  0  0  0  0  0
  1  3  1  0  0  0  0
  1  7  1  0  0  0  0
  1  2  2  0  0  0  0
 31 32  1  0  0  0  0
 32 40  1  0  0  0  0
 32 33  2  0  0  0  0
  8  9  1  0  0  0  0
  9 17  1  0  0  0  0
  9 10  2  0  0  0  0
 18 19  1  0  0  0  0
 19 30  1  0  0  0  0
 19 20  2  0  0  0  0
 21 22  1  0  0  0  0
 22 23  2  0  0  0  0
 22 24  1  0  0  0  0
 31 34  1  0  0  0  0
  8 11  1  0  0  0  0
 40 41  1  0  0  0  0
 18 21  1  0  0  0  0
 30 31  1  0  0  0  0
  7  8  1  0  0  0  0
 17 18  1  0  0  0  0
  3  4  1  0  0  0  0
  3  5  1  0  0  0  0
  3  6  1  0  0  0  0
 34 37  1  0  0  0  0
 34 38  1  0  0  0  0
 34 39  1  0  0  0  0
 11 14  1  0  0  0  0
 11 15  1  0  0  0  0
 11 16  1  0  0  0  0
 41 43  1  0  0  0  0
 41 44  1  0  0  0  0
 41 45  1  0  0  0  0
 21 27  1  0  0  0  0
 21 28  1  0  0  0  0
 31 36  1  0  0  0  0
  8 13  1  0  0  0  0
 18 26  1  0  0  0  0
 40 42  1  0  0  0  0
  7 12  1  0  0  0  0
 30 35  1  0  0  0  0
 17 25  1  0  0  0  0
 24 29  1  0  0  0  0
M  END
$$$$

  -OEChem-05262214473D

 45 44  0     1  0  0  0  0  0999 V2000
   -2.2987    4.1032   -0.3022 C   0  0  0  0  0  0  0  0  0  0  0  0
   -1.8049    3.7117   -1.3532 O   0  0  0  0  0  0  0  0  0  0  0  0
   -3.0791    5.3755   -0.2846 C   0  0  0  0  0  0  0  0  0  0  0  0
   -2.4478    6.2532   -0.0717 H   0  0  0  0  0  0  0  0  0  0  0  0
   -3.5571    5.5891   -1.2541 H   0  0  0  0  0  0  0  0  0  0  0  0
   -3.8940    5.4184    0.4556 H   0  0  0  0  0  0  0  0  0  0  0  0
   -2.2137    3.4712    0.9275 N   0  0  0  0  0  0  0  0  0  0  0  0
   -1.5102    2.2327    1.1338 C   0  0  2  0  0  0  0  0  0  0  0  0
   -1.3539    1.5497   -0.2184 C   0  0  0  0  0  0  0  0  0  0  0  0
   -2.0852    1.7861   -1.1778 O   0  0  0  0  0  0  0  0  0  0  0  0
   -2.2477    1.3342    2.1145 C   0  0  0  0  0  0  0  0  0  0  0  0
   -2.6724    3.9052    1.7265 H   0  0  0  0  0  0  0  0  0  0  0  0
   -0.5220    2.4922    1.5290 H   0  0  0  0  0  0  0  0  0  0  0  0
   -3.2400    1.0636    1.7358 H   0  0  0  0  0  0  0  0  0  0  0  0
   -1.6970    0.4046    2.2923 H   0  0  0  0  0  0  0  0  0  0  0  0
   -2.3854    1.8384    3.0772 H   0  0  0  0  0  0  0  0  0  0  0  0
   -0.3283    0.6116   -0.2182 N   0  0  0  0  0  0  0  0  0  0  0  0
    0.0090   -0.1762   -1.3759 C   0  0  2  0  0  0  0  0  0  0  0  0
    1.1726   -1.0842   -0.9982 C   0  0  0  0  0  0  0  0  0  0  0  0
    1.0482   -2.2949   -0.8252 O   0  0  0  0  0  0  0  0  0  0  0  0
    0.3692    0.6969   -2.5749 C   0  0  0  0  0  0  0  0  0  0  0  0
   -0.8397    1.4315   -3.1001 C   0  0  0  0  0  0  0  0  0  0  0  0
   -1.9864    1.0121   -3.0127 O   0  0  0  0  0  0  0  0  0  0  0  0
   -0.5173    2.6048   -3.6984 O   0  0  0  0  0  0  0  0  0  0  0  0
    0.2381    0.4970    0.6194 H   0  0  0  0  0  0  0  0  0  0  0  0
   -0.8696   -0.7958   -1.5923 H   0  0  0  0  0  0  0  0  0  0  0  0
    1.1063    1.4621   -2.3004 H   0  0  0  0  0  0  0  0  0  0  0  0
    0.8291    0.1215   -3.3875 H   0  0  0  0  0  0  0  0  0  0  0  0
   -1.2774    3.1059   -4.0641 H   0  0  0  0  0  0  0  0  0  0  0  0
    2.3732   -0.3920   -0.9240 N   0  0  0  0  0  0  0  0  0  0  0  0
    3.6245   -1.0348   -0.5968 C   0  0  2  0  0  0  0  0  0  0  0  0
    3.9852   -1.9720   -1.7418 C   0  0  0  0  0  0  0  0  0  0  0  0
    3.1541   -2.4212   -2.5283 O   0  0  0  0  0  0  0  0  0  0  0  0
    3.5296   -1.7937    0.7176 C   0  0  0  0  0  0  0  0  0  0  0  0
    2.3719    0.6071   -1.1073 H   0  0  0  0  0  0  0  0  0  0  0  0
    4.3771   -0.2423   -0.5219 H   0  0  0  0  0  0  0  0  0  0  0  0
    2.7805   -2.5919    0.6617 H   0  0  0  0  0  0  0  0  0  0  0  0
    4.4870   -2.2567    0.9784 H   0  0  0  0  0  0  0  0  0  0  0  0
    3.2410   -1.1236    1.5346 H   0  0  0  0  0  0  0  0  0  0  0  0
    5.3379   -2.2822   -1.7559 N   0  0  0  0  0  0  0  0  0  0  0  0
    5.9256   -3.1632   -2.7380 C   0  0  0  0  0  0  0  0  0  0  0  0
    5.9570   -1.8491   -1.0770 H   0  0  0  0  0  0  0  0  0  0  0  0
    5.9369   -4.1919   -2.3484 H   0  0  0  0  0  0  0  0  0  0  0  0
    5.3321   -3.1283   -3.6635 H   0  0  0  0  0  0  0  0  0  0  0  0
    6.9554   -2.8404   -2.9504 H   0  0  0  0  0  0  0  0  0  0  0  0
  1  3  1  0  0  0  0
  1  7  1  0  0  0  0
  1  2  2  0  0  0  0
 31 32  1  0  0  0  0
 32 40  1  0  0  0  0
 32 33  2  0  0  0  0
  8  9  1  0  0  0  0
  9 17  1  0  0  0  0
  9 10  2  0  0  0  0
 18 19  1  0  0  0  0
 19 30  1  0  0  0  0
 19 20  2  0  0  0  0
 21 22  1  0  0  0  0
 22 23  2  0  0  0  0
 22 24  1  0  0  0  0
 31 34  1  0  0  0  0
  8 11  1  0  0  0  0
 40 41  1  0  0  0  0
 18 21  1  0  0  0  0
 30 31  1  0  0  0  0
  7  8  1  0  0  0  0
 17 18  1  0  0  0  0
  3  4  1  0  0  0  0
  3  5  1  0  0  0  0
  3  6  1  0  0  0  0
 34 37  1  0  0  0  0
 34 38  1  0  0  0  0
 34 39  1  0  0  0  0
 11 14  1  0  0  0  0
 11 15  1  0  0  0  0
 11 16  1  0  0  0  0
 41 43  1  0  0  0  0
 41 44  1  0  0  0  0
 41 45  1  0  0  0  0
 21 27  1  0  0  0  0
 21 28  1  0  0  0  0
 31 36  1  0  0  0  0
  8 13  1  0  0  0  0
 18 26  1  0  0  0  0
 40 42  1  0  0  0  0
  7 12  1  0  0  0  0
 30 35  1  0  0  0  0
 17 25  1  0  0  0  0
 24 29  1  0  0  0  0
M  END
$$$$

  -OEChem-05262214473D

 45 44  0     1  0  0  0  0  0999 V2000
   -2.2987    4.1032   -0.3022 C   0  0  0  0  0  0  0  0  0  0  0  0
   -1.8049    3.7117   -1.3532 O   0  0  0  0  0  0  0  0  0  0  0  0
   -3.0791    5.3755   -0.2846 C   0  0  0  0  0  0  0  0  0  0  0  0
   -2.4478    6.2532   -0.0717 H   0  0  0  0  0  0  0  0  0  0  0  0
   -3.5571    5.5891   -1.2541 H   0  0  0  0  0  0  0  0  0  0  0  0
   -3.8940    5.4184    0.4556 H   0  0  0  0  0  0  0  0  0  0  0  0
   -2.2137    3.4712    0.9275 N   0  0  0  0  0  0  0  0  0  0  0  0
   -1.5102    2.2327    1.1338 C   0  0  2  0  0  0  0  0  0  0  0  0
   -1.3539    1.5497   -0.2184 C   0  0  0  0  0  0  0  0  0  0  0  0
   -2.0852    1.7861   -1.1778 O   0  0  0  0  0  0  0  0  0  0  0  0
   -2.2477    1.3342    2.1145 C   0  0  0  0  0  0  0  0  0  0  0  0
   -2.6724    3.9052    1.7265 H   0  0  0  0  0  0  0  0  0  0  0  0
   -0.5220    2.4922    1.5290 H   0  0  0  0  0  0  0  0  0  0  0  0
   -3.2400    1.0636    1.7358 H   0  0  0  0  0  0  0  0  0  0  0  0
   -1.6970    0.4046    2.2923 H   0  0  0  0  0  0  0  0  0  0  0  0
   -2.3854    1.8384    3.0772 H   0  0  0  0  0  0  0  0  0  0  0  0
   -0.3283    0.6116   -0.2182 N   0  0  0  0  0  0  0  0  0  0  0  0
    0.0090   -0.1762   -1.3759 C   0  0  2  0  0  0  0  0  0  0  0  0
    1.1726   -1.0842   -0.9982 C   0  0  0  0  0  0  0  0  0  0  0  0
    1.1209   -2.3094   -1.0840 O   0  0  0  0  0  0  0  0  0  0  0  0
    0.3692    0.6969   -2.5749 C   0  0  0  0  0  0  0  0  0  0  0  0
   -0.8397    1.4315   -3.1001 C   0  0  0  0  0  0  0  0  0  0  0  0
   -1.9864    1.0121   -3.0127 O   0  0  0  0  0  0  0  0  0  0  0  0
   -0.5173    2.6048   -3.6984 O   0  0  0  0  0  0  0  0  0  0  0  0
    0.2381    0.4970    0.6194 H   0  0  0  0  0  0  0  0  0  0  0  0
   -0.8696   -0.7958   -1.5923 H   0  0  0  0  0  0  0  0  0  0  0  0
    1.1063    1.4621   -2.3004 H   0  0  0  0  0  0  0  0  0  0  0  0
    0.8291    0.1215   -3.3875 H   0  0  0  0  0  0  0  0  0  0  0  0
   -1.2774    3.1059   -4.0641 H   0  0  0  0  0  0  0  0  0  0  0  0
    2.2901   -0.3638   -0.6001 N   0  0  0  0  0  0  0  0  0  0  0  0
    3.5265   -0.9979   -0.2061 C   0  0  2  0  0  0  0  0  0  0  0  0
    4.1260   -1.6649   -1.4371 C   0  0  0  0  0  0  0  0  0  0  0  0
    3.4586   -1.9852   -2.4185 O   0  0  0  0  0  0  0  0  0  0  0  0
    3.2991   -2.0112    0.9048 C   0  0  0  0  0  0  0  0  0  0  0  0
    2.2362    0.6505   -0.5853 H   0  0  0  0  0  0  0  0  0  0  0  0
    4.1941   -0.2014    0.1400 H   0  0  0  0  0  0  0  0  0  0  0  0
    2.6325   -2.8170    0.5766 H   0  0  0  0  0  0  0  0  0  0  0  0
    4.2413   -2.4703    1.2220 H   0  0  0  0  0  0  0  0  0  0  0  0
    2.8405   -1.5355    1.7784 H   0  0  0  0  0  0  0  0  0  0  0  0
    5.4862   -1.8996   -1.2931 N   0  0  0  0  0  0  0  0  0  0  0  0
    6.2809   -2.5336   -2.3191 C   0  0  0  0  0  0  0  0  0  0  0  0
    5.9617   -1.5835   -0.4530 H   0  0  0  0  0  0  0  0  0  0  0  0
    6.3164   -3.6181   -2.1383 H   0  0  0  0  0  0  0  0  0  0  0  0
    5.8298   -2.3407   -3.3036 H   0  0  0  0  0  0  0  0  0  0  0  0
    7.3018   -2.1246   -2.2970 H   0  0  0  0  0  0  0  0  0  0  0  0
  1  3  1  0  0  0  0
  1  7  1  0  0  0  0
  1  2  2  0  0  0  0
 31 32  1  0  0  0  0
 32 40  1  0  0  0  0
 32 33  2  0  0  0  0
  8  9  1  0  0  0  0
  9 17  1  0  0  0  0
  9 10  2  0  0  0  0
 18 19  1  0  0  0  0
 19 30  1  0  0  0  0
 19 20  2  0  0  0  0
 21 22  1  0  0  0  0
 22 23  2  0  0  0  0
 22 24  1  0  0  0  0
 31 34  1  0  0  0  0
  8 11  1  0  0  0  0
 40 41  1  0  0  0  0
 18 21  1  0  0  0  0
 30 31  1  0  0  0  0
  7  8  1  0  0  0  0
 17 18  1  0  0  0  0
  3  4  1  0  0  0  0
  3  5  1  0  0  0  0
  3  6  1  0  0  0  0
 34 37  1  0  0  0  0
 34 38  1  0  0  0  0
 34 39  1  0  0  0  0
 11 14  1  0  0  0  0
 11 15  1  0  0  0  0
 11 16  1  0  0  0  0
 41 43  1  0  0  0  0
 41 44  1  0  0  0  0
 41 45  1  0  0  0  0
 21 27  1  0  0  0  0
 21 28  1  0  0  0  0
 31 36  1  0  0  0  0
  8 13  1  0  0  0  0
 18 26  1  0  0  0  0
 40 42  1  0  0  0  0
  7 12  1  0  0  0  0
 30 35  1  0  0  0  0
 17 25  1  0  0  0  0
 24 29  1  0  0  0  0
M  END
$$$$

  -OEChem-05262214473D

 45 44  0     1  0  0  0  0  0999 V2000
   -2.2987    4.1032   -0.3022 C   0  0  0  0  0  0  0  0  0  0  0  0
   -1.8049    3.7117   -1.3532 O   0  0  0  0  0  0  0  0  0  0  0  0
   -3.0791    5.3755   -0.2846 C   0  0  0  0  0  0  0  0  0  0  0  0
   -2.4478    6.2532   -0.0717 H   0  0  0  0  0  0  0  0  0  0  0  0
   -3.5571    5.5891   -1.2541 H   0  0  0  0  0  0  0  0  0  0  0  0
   -3.8940    5.4184    0.4556 H   0  0  0  0  0  0  0  0  0  0  0  0
   -2.2137    3.4712    0.9275 N   0  0  0  0  0  0  0  0  0  0  0  0
   -1.5102    2.2327    1.1338 C   0  0  2  0  0  0  0  0  0  0  0  0
   -1.3539    1.5497   -0.2184 C   0  0  0  0  0  0  0  0  0  0  0  0
   -2.0852    1.7861   -1.1778 O   0  0  0  0  0  0  0  0  0  0  0  0
   -2.2477    1.3342    2.1145 C   0  0  0  0  0  0  0  0  0  0  0  0
   -2.6724    3.9052    1.7265 H   0  0  0  0  0  0  0  0  0  0  0  0
   -0.5220    2.4922    1.5290 H   0  0  0  0  0  0  0  0  0  0  0  0
   -3.2400    1.0636    1.7358 H   0  0  0  0  0  0  0  0  0  0  0  0
   -1.6970    0.4046    2.2923 H   0  0  0  0  0  0  0  0  0  0  0  0
   -2.3854    1.8384    3.0772 H   0  0  0  0  0  0  0  0  0  0  0  0
   -0.3283    0.6116   -0.2182 N   0  0  0  0  0  0  0  0  0  0  0  0
    0.0090   -0.1762   -1.3759 C   0  0  2  0  0  0  0  0  0  0  0  0
    1.1726   -1.0842   -0.9982 C   0  0  0  0  0  0  0  0  0  0  0  0
    1.2319   -2.2676   -1.3256 O   0  0  0  0  0  0  0  0  0  0  0  0
    0.3692    0.6969   -2.5749 C   0  0  0  0  0  0  0  0  0  0  0  0
   -0.8397    1.4315   -3.1001 C   0  0  0  0  0  0  0  0  0  0  0  0
   -1.9864    1.0121   -3.0127 O   0  0  0  0  0  0  0  0  0  0  0  0
   -0.5173    2.6048   -3.6984 O   0  0  0  0  0  0  0  0  0  0  0  0
    0.2381    0.4970    0.6194 H   0  0  0  0  0  0  0  0  0  0  0  0
   -0.8696   -0.7958   -1.5923 H   0  0  0  0  0  0  0  0  0  0  0  0
    1.1063    1.4621   -2.3004 H   0  0  0  0  0  0  0  0  0  0  0  0
    0.8291    0.1215   -3.3875 H   0  0  0  0  0  0  0  0  0  0  0  0
   -1.2774    3.1059   -4.0641 H   0  0  0  0  0  0  0  0  0  0  0  0
    2.1580   -0.4059   -0.2945 N   0  0  0  0  0  0  0  0  0  0  0  0
    3.3691   -1.0458    0.1634 C   0  0  2  0  0  0  0  0  0  0  0  0
    4.1952   -1.4195   -1.0603 C   0  0  0  0  0  0  0  0  0  0  0  0
    3.7079   -1.5662   -2.1793 O   0  0  0  0  0  0  0  0  0  0  0  0
    3.0615   -2.2731    1.0071 C   0  0  0  0  0  0  0  0  0  0  0  0
    2.0219    0.5804   -0.0934 H   0  0  0  0  0  0  0  0  0  0  0  0
    3.9127   -0.3045    0.7592 H   0  0  0  0  0  0  0  0  0  0  0  0
    2.5171   -3.0272    0.4270 H   0  0  0  0  0  0  0  0  0  0  0  0
    3.9800   -2.7406    1.3771 H   0  0  0  0  0  0  0  0  0  0  0  0
    2.4424   -2.0073    1.8706 H   0  0  0  0  0  0  0  0  0  0  0  0
    5.5336   -1.6120   -0.7476 N   0  0  0  0  0  0  0  0  0  0  0  0
    6.5191   -1.9854   -1.7351 C   0  0  0  0  0  0  0  0  0  0  0  0
    5.8529   -1.4501    0.2030 H   0  0  0  0  0  0  0  0  0  0  0  0
    6.6138   -3.0810   -1.7634 H   0  0  0  0  0  0  0  0  0  0  0  0
    6.2046   -1.6191   -2.7235 H   0  0  0  0  0  0  0  0  0  0  0  0
    7.4897   -1.5402   -1.4709 H   0  0  0  0  0  0  0  0  0  0  0  0
  1  3  1  0  0  0  0
  1  7  1  0  0  0  0
  1  2  2  0  0  0  0
 31 32  1  0  0  0  0
 32 40  1  0  0  0  0
 32 33  2  0  0  0  0
  8  9  1  0  0  0  0
  9 17  1  0  0  0  0
  9 10  2  0  0  0  0
 18 19  1  0  0  0  0
 19 30  1  0  0  0  0
 19 20  2  0  0  0  0
 21 22  1  0  0  0  0
 22 23  2  0  0  0  0
 22 24  1  0  0  0  0
 31 34  1  0  0  0  0
  8 11  1  0  0  0  0
 40 41  1  0  0  0  0
 18 21  1  0  0  0  0
 30 31  1  0  0  0  0
  7  8  1  0  0  0  0
 17 18  1  0  0  0  0
  3  4  1  0  0  0  0
  3  5  1  0  0  0  0
  3  6  1  0  0  0  0
 34 37  1  0  0  0  0
 34 38  1  0  0  0  0
 34 39  1  0  0  0  0
 11 14  1  0  0  0  0
 11 15  1  0  0  0  0
 11 16  1  0  0  0  0
 41 43  1  0  0  0  0
 41 44  1  0  0  0  0
 41 45  1  0  0  0  0
 21 27  1  0  0  0  0
 21 28  1  0  0  0  0
 31 36  1  0  0  0  0
  8 13  1  0  0  0  0
 18 26  1  0  0  0  0
 40 42  1  0  0  0  0
  7 12  1  0  0  0  0
 30 35  1  0  0  0  0
 17 25  1  0  0  0  0
 24 29  1  0  0  0  0
M  END
$$$$

  -OEChem-05262214473D

 45 44  0     1  0  0  0  0  0999 V2000
   -2.2987    4.1032   -0.3022 C   0  0  0  0  0  0  0  0  0  0  0  0
   -1.8049    3.7117   -1.3532 O   0  0  0  0  0  0  0  0  0  0  0  0
   -3.0791    5.3755   -0.2846 C   0  0  0  0  0  0  0  0  0  0  0  0
   -2.4478    6.2532   -0.0717 H   0  0  0  0  0  0  0  0  0  0  0  0
   -3.5571    5.5891   -1.2541 H   0  0  0  0  0  0  0  0  0  0  0  0
   -3.8940    5.4184    0.4556 H   0  0  0  0  0  0  0  0  0  0  0  0
   -2.2137    3.4712    0.9275 N   0  0  0  0  0  0  0  0  0  0  0  0
   -1.5102    2.2327    1.1338 C   0  0  2  0  0  0  0  0  0  0  0  0
   -1.3539    1.5497   -0.2184 C   0  0  0  0  0  0  0  0  0  0  0  0
   -2.0852    1.7861   -1.1778 O   0  0  0  0  0  0  0  0  0  0  0  0
   -2.2477    1.3342    2.1145 C   0  0  0  0  0  0  0  0  0  0  0  0
   -2.6724    3.9052    1.7265 H   0  0  0  0  0  0  0  0  0  0  0  0
   -0.5220    2.4922    1.5290 H   0  0  0  0  0  0  0  0  0  0  0  0
   -3.2400    1.0636    1.7358 H   0  0  0  0  0  0  0  0  0  0  0  0
   -1.6970    0.4046    2.2923 H   0  0  0  0  0  0  0  0  0  0  0  0
   -2.3854    1.8384    3.0772 H   0  0  0  0  0  0  0  0  0  0  0  0
   -0.3283    0.6116   -0.2182 N   0  0  0  0  0  0  0  0  0  0  0  0
    0.0090   -0.1762   -1.3759 C   0  0  2  0  0  0  0  0  0  0  0  0
    1.1726   -1.0842   -0.9982 C   0  0  0  0  0  0  0  0  0  0  0  0
    1.3737   -2.1723   -1.5335 O   0  0  0  0  0  0  0  0  0  0  0  0
    0.3692    0.6969   -2.5749 C   0  0  0  0  0  0  0  0  0  0  0  0
   -0.8397    1.4315   -3.1001 C   0  0  0  0  0  0  0  0  0  0  0  0
   -1.9864    1.0121   -3.0127 O   0  0  0  0  0  0  0  0  0  0  0  0
   -0.5173    2.6048   -3.6984 O   0  0  0  0  0  0  0  0  0  0  0  0
    0.2381    0.4970    0.6194 H   0  0  0  0  0  0  0  0  0  0  0  0
   -0.8696   -0.7958   -1.5923 H   0  0  0  0  0  0  0  0  0  0  0  0
    1.1063    1.4621   -2.3004 H   0  0  0  0  0  0  0  0  0  0  0  0
    0.8291    0.1215   -3.3875 H   0  0  0  0  0  0  0  0  0  0  0  0
   -1.2774    3.1059   -4.0641 H   0  0  0  0  0  0  0  0  0  0  0  0
    1.9860   -0.5155   -0.0280 N   0  0  0  0  0  0  0  0  0  0  0  0
    3.1632   -1.1752    0.4866 C   0  0  2  0  0  0  0  0  0  0  0  0
    4.1882   -1.2524   -0.6372 C   0  0  0  0  0  0  0  0  0  0  0  0
    3.8849   -1.1929   -1.8269 O   0  0  0  0  0  0  0  0  0  0  0  0
    2.8331   -2.5616    1.0174 C   0  0  0  0  0  0  0  0  0  0  0  0
    1.7435    0.4017    0.3348 H   0  0  0  0  0  0  0  0  0  0  0  0
    3.5519   -0.5445    1.2935 H   0  0  0  0  0  0  0  0  0  0  0  0
    2.4422   -3.2079    0.2232 H   0  0  0  0  0  0  0  0  0  0  0  0
    3.7211   -3.0491    1.4332 H   0  0  0  0  0  0  0  0  0  0  0  0
    2.0739   -2.5068    1.8051 H   0  0  0  0  0  0  0  0  0  0  0  0
    5.4767   -1.4390   -0.1565 N   0  0  0  0  0  0  0  0  0  0  0  0
    6.6239   -1.5560   -1.0260 C   0  0  0  0  0  0  0  0  0  0  0  0
    5.6381   -1.4578    0.8462 H   0  0  0  0  0  0  0  0  0  0  0  0
    6.8088   -2.6172   -1.2492 H   0  0  0  0  0  0  0  0  0  0  0  0
    6.4307   -1.0127   -1.9628 H   0  0  0  0  0  0  0  0  0  0  0  0
    7.5062   -1.1270   -0.5285 H   0  0  0  0  0  0  0  0  0  0  0  0
  1  3  1  0  0  0  0
  1  7  1  0  0  0  0
  1  2  2  0  0  0  0
 31 32  1  0  0  0  0
 32 40  1  0  0  0  0
 32 33  2  0  0  0  0
  8  9  1  0  0  0  0
  9 17  1  0  0  0  0
  9 10  2  0  0  0  0
 18 19  1  0  0  0  0
 19 30  1  0  0  0  0
 19 20  2  0  0  0  0
 21 22  1  0  0  0  0
 22 23  2  0  0  0  0
 22 24  1  0  0  0  0
 31 34  1  0  0  0  0
  8 11  1  0  0  0  0
 40 41  1  0  0  0  0
 18 21  1  0  0  0  0
 30 31  1  0  0  0  0
  7  8  1  0  0  0  0
 17 18  1  0  0  0  0
  3  4  1  0  0  0  0
  3  5  1  0  0  0  0
  3  6  1  0  0  0  0
 34 37  1  0  0  0  0
 34 38  1  0  0  0  0
 34 39  1  0  0  0  0
 11 14  1  0  0  0  0
 11 15  1  0  0  0  0
 11 16  1  0  0  0  0
 41 43  1  0  0  0  0
 41 44  1  0  0  0  0
 41 45  1  0  0  0  0
 21 27  1  0  0  0  0
 21 28  1  0  0  0  0
 31 36  1  0  0  0  0
  8 13  1  0  0  0  0
 18 26  1  0  0  0  0
 40 42  1  0  0  0  0
  7 12  1  0  0  0  0
 30 35  1  0  0  0  0
 17 25  1  0  0  0  0
 24 29  1  0  0  0  0
M  END
$$$$

  -OEChem-05262214473D

 45 44  0     1  0  0  0  0  0999 V2000
   -2.2987    4.1032   -0.3022 C   0  0  0  0  0  0  0  0  0  0  0  0
   -1.8049    3.7117   -1.3532 O   0  0  0  0  0  0  0  0  0  0  0  0
   -3.0791    5.3755   -0.2846 C   0  0  0  0  0  0  0  0  0  0  0  0
   -2.4478    6.2532   -0.0717 H   0  0  0  0  0  0  0  0  0  0  0  0
   -3.5571    5.5891   -1.2541 H   0  0  0  0  0  0  0  0  0  0  0  0
   -3.8940    5.4184    0.4556 H   0  0  0  0  0  0  0  0  0  0  0  0
   -2.2137    3.4712    0.9275 N   0  0  0  0  0  0  0  0  0  0  0  0
   -1.5102    2.2327    1.1338 C   0  0  2  0  0  0  0  0  0  0  0  0
   -1.3539    1.5497   -0.2184 C   0  0  0  0  0  0  0  0  0  0  0  0
   -2.0852    1.7861   -1.1778 O   0  0  0  0  0  0  0  0  0  0  0  0
   -2.2477    1.3342    2.1145 C   0  0  0  0  0  0  0  0  0  0  0  0
   -2.6724    3.9052    1.7265 H   0  0  0  0  0  0  0  0  0  0  0  0
   -0.5220    2.4922    1.5290 H   0  0  0  0  0  0  0  0  0  0  0  0
   -3.2400    1.0636    1.7358 H   0  0  0  0  0  0  0  0  0  0  0  0
   -1.6970    0.4046    2.2923 H   0  0  0  0  0  0  0  0  0  0  0  0
   -2.3854    1.8384    3.0772 H   0  0  0  0  0  0  0  0  0  0  0  0
   -0.3283    0.6116   -0.2182 N   0  0  0  0  0  0  0  0  0  0  0  0
    0.0090   -0.1762   -1.3759 C   0  0  2  0  0  0  0  0  0  0  0  0
    1.1726   -1.0842   -0.9982 C   0  0  0  0  0  0  0  0  0  0  0  0
    1.5367   -2.0301   -1.6937 O   0  0  0  0  0  0  0  0  0  0  0  0
    0.3692    0.6969   -2.5749 C   0  0  0  0  0  0  0  0  0  0  0  0
   -0.8397    1.4315   -3.1001 C   0  0  0  0  0  0  0  0  0  0  0  0
   -1.9864    1.0121   -3.0127 O   0  0  0  0  0  0  0  0  0  0  0  0
   -0.5173    2.6048   -3.6984 O   0  0  0  0  0  0  0  0  0  0  0  0
    0.2381    0.4970    0.6194 H   0  0  0  0  0  0  0  0  0  0  0  0
   -0.8696   -0.7958   -1.5923 H   0  0  0  0  0  0  0  0  0  0  0  0
    1.1063    1.4621   -2.3004 H   0  0  0  0  0  0  0  0  0  0  0  0
    0.8291    0.1215   -3.3875 H   0  0  0  0  0  0  0  0  0  0  0  0
   -1.2774    3.1059   -4.0641 H   0  0  0  0  0  0  0  0  0  0  0  0
    1.7857   -0.6851    0.1812 N   0  0  0  0  0  0  0  0  0  0  0  0
    2.9228   -1.3774    0.7415 C   0  0  2  0  0  0  0  0  0  0  0  0
    4.1054   -1.1752   -0.1965 C   0  0  0  0  0  0  0  0  0  0  0  0
    3.9775   -0.8905   -1.3855 O   0  0  0  0  0  0  0  0  0  0  0  0
    2.6294   -2.8569    0.9352 C   0  0  0  0  0  0  0  0  0  0  0  0
    1.4200    0.1267    0.6702 H   0  0  0  0  0  0  0  0  0  0  0  0
    3.1364   -0.9051    1.7066 H   0  0  0  0  0  0  0  0  0  0  0  0
    2.4129   -3.3471   -0.0210 H   0  0  0  0  0  0  0  0  0  0  0  0
    3.4822   -3.3748    1.3864 H   0  0  0  0  0  0  0  0  0  0  0  0
    1.7602   -2.9999    1.5863 H   0  0  0  0  0  0  0  0  0  0  0  0
    5.3194   -1.3924    0.4399 N   0  0  0  0  0  0  0  0  0  0  0  0
    6.5882   -1.2748   -0.2400 C   0  0  0  0  0  0  0  0  0  0  0  0
    5.3319   -1.6061    1.4329 H   0  0  0  0  0  0  0  0  0  0  0  0
    6.8880   -2.2584   -0.6308 H   0  0  0  0  0  0  0  0  0  0  0  0
    6.4930   -0.5629   -1.0732 H   0  0  0  0  0  0  0  0  0  0  0  0
    7.3503   -0.9131    0.4660 H   0  0  0  0  0  0  0  0  0  0  0  0
  1  3  1  0  0  0  0
  1  7  1  0  0  0  0
  1  2  2  0  0  0  0
 31 32  1  0  0  0  0
 32 40  1  0  0  0  0
 32 33  2  0  0  0  0
  8  9  1  0  0  0  0
  9 17  1  0  0  0  0
  9 10  2  0  0  0  0
 18 19  1  0  0  0  0
 19 30  1  0  0  0  0
 19 20  2  0  0  0  0
 21 22  1  0  0  0  0
 22 23  2  0  0  0  0
 22 24  1  0  0  0  0
 31 34  1  0  0  0  0
  8 11  1  0  0  0  0
 40 41  1  0  0  0  0
 18 21  1  0  0  0  0
 30 31  1  0  0  0  0
  7  8  1  0  0  0  0
 17 18  1  0  0  0  0
  3  4  1  0  0  0  0
  3  5  1  0  0  0  0
  3  6  1  0  0  0  0
 34 37  1  0  0  0  0
 34 38  1  0  0  0  0
 34 39  1  0  0  0  0
 11 14  1  0  0  0  0
 11 15  1  0  0  0  0
 11 16  1  0  0  0  0
 41 43  1  0  0  0  0
 41 44  1  0  0  0  0
 41 45  1  0  0  0  0
 21 27  1  0  0  0  0
 21 28  1  0  0  0  0
 31 36  1  0  0  0  0
  8 13  1  0  0  0  0
 18 26  1  0  0  0  0
 40 42  1  0  0  0  0
  7 12  1  0  0  0  0
 30 35  1  0  0  0  0
 17 25  1  0  0  0  0
 24 29  1  0  0  0  0
M  END
$$$$

  -OEChem-05262214473D

 45 44  0     1  0  0  0  0  0999 V2000
   -2.2987    4.1032   -0.3022 C   0  0  0  0  0  0  0  0  0  0  0  0
   -1.8049    3.7117   -1.3532 O   0  0  0  0  0  0  0  0  0  0  0  0
   -3.0791    5.3755   -0.2846 C   0  0  0  0  0  0  0  0  0  0  0  0
   -2.4478    6.2532   -0.0717 H   0  0  0  0  0  0  0  0  0  0  0  0
   -3.5571    5.5891   -1.2541 H   0  0  0  0  0  0  0  0  0  0  0  0
   -3.8940    5.4184    0.4556 H   0  0  0  0  0  0  0  0  0  0  0  0
   -2.2137    3.4712    0.9275 N   0  0  0  0  0  0  0  0  0  0  0  0
   -1.5102    2.2327    1.1338 C   0  0  2  0  0  0  0  0  0  0  0  0
   -1.3539    1.5497   -0.2184 C   0  0  0  0  0  0  0  0  0  0  0  0
   -2.0852    1.7861   -1.1778 O   0  0  0  0  0  0  0  0  0  0  0  0
   -2.2477    1.3342    2.1145 C   0  0  0  0  0  0  0  0  0  0  0  0
   -2.6724    3.9052    1.7265 H   0  0  0  0  0  0  0  0  0  0  0  0
   -0.5220    2.4922    1.5290 H   0  0  0  0  0  0  0  0  0  0  0  0
   -3.2400    1.0636    1.7358 H   0  0  0  0  0  0  0  0  0  0  0  0
   -1.6970    0.4046    2.2923 H   0  0  0  0  0  0  0  0  0  0  0  0
   -2.3854    1.8384    3.0772 H   0  0  0  0  0  0  0  0  0  0  0  0
   -0.3283    0.6116   -0.2182 N   0  0  0  0  0  0  0  0  0  0  0  0
    0.0090   -0.1762   -1.3759 C   0  0  2  0  0  0  0  0  0  0  0  0
    1.1726   -1.0842   -0.9982 C   0  0  0  0  0  0  0  0  0  0  0  0
    1.7097   -1.8506   -1.7952 O   0  0  0  0  0  0  0  0  0  0  0  0
    0.3692    0.6969   -2.5749 C   0  0  0  0  0  0  0  0  0  0  0  0
   -0.8397    1.4315   -3.1001 C   0  0  0  0  0  0  0  0  0  0  0  0
   -1.9864    1.0121   -3.0127 O   0  0  0  0  0  0  0  0  0  0  0  0
   -0.5173    2.6048   -3.6984 O   0  0  0  0  0  0  0  0  0  0  0  0
    0.2381    0.4970    0.6194 H   0  0  0  0  0  0  0  0  0  0  0  0
   -0.8696   -0.7958   -1.5923 H   0  0  0  0  0  0  0  0  0  0  0  0
    1.1063    1.4621   -2.3004 H   0  0  0  0  0  0  0  0  0  0  0  0
    0.8291    0.1215   -3.3875 H   0  0  0  0  0  0  0  0  0  0  0  0
   -1.2774    3.1059   -4.0641 H   0  0  0  0  0  0  0  0  0  0  0  0
    1.5709   -0.9031    0.3189 N   0  0  0  0  0  0  0  0  0  0  0  0
    2.6642   -1.6384    0.9106 C   0  0  2  0  0  0  0  0  0  0  0  0
    3.9526   -1.1930    0.2316 C   0  0  0  0  0  0  0  0  0  0  0  0
    3.9795   -0.6797   -0.8851 O   0  0  0  0  0  0  0  0  0  0  0  0
    2.4642   -3.1390    0.7660 C   0  0  0  0  0  0  0  0  0  0  0  0
    1.0734   -0.2261    0.8899 H   0  0  0  0  0  0  0  0  0  0  0  0
    2.6946   -1.3618    1.9702 H   0  0  0  0  0  0  0  0  0  0  0  0
    2.4312   -3.4351   -0.2889 H   0  0  0  0  0  0  0  0  0  0  0  0
    3.2795   -3.6954    1.2400 H   0  0  0  0  0  0  0  0  0  0  0  0
    1.5225   -3.4531    1.2290 H   0  0  0  0  0  0  0  0  0  0  0  0
    5.0726   -1.4754    1.0009 N   0  0  0  0  0  0  0  0  0  0  0  0
    6.4145   -1.1607    0.5693 C   0  0  0  0  0  0  0  0  0  0  0  0
    4.9551   -1.8851    1.9229 H   0  0  0  0  0  0  0  0  0  0  0  0
    6.8461   -2.0289    0.0497 H   0  0  0  0  0  0  0  0  0  0  0  0
    6.3870   -0.3003   -0.1154 H   0  0  0  0  0  0  0  0  0  0  0  0
    7.0326   -0.9130    1.4449 H   0  0  0  0  0  0  0  0  0  0  0  0
  1  3  1  0  0  0  0
  1  7  1  0  0  0  0
  1  2  2  0  0  0  0
 31 32  1  0  0  0  0
 32 40  1  0  0  0  0
 32 33  2  0  0  0  0
  8  9  1  0  0  0  0
  9 17  1  0  0  0  0
  9 10  2  0  0  0  0
 18 19  1  0  0  0  0
 19 30  1  0  0  0  0
 19 20  2  0  0  0  0
 21 22  1  0  0  0  0
 22 23  2  0  0  0  0
 22 24  1  0  0  0  0
 31 34  1  0  0  0  0
  8 11  1  0  0  0  0
 40 41  1  0  0  0  0
 18 21  1  0  0  0  0
 30 31  1  0  0  0  0
  7  8  1  0  0  0  0
 17 18  1  0  0  0  0
  3  4  1  0  0  0  0
  3  5  1  0  0  0  0
  3  6  1  0  0  0  0
 34 37  1  0  0  0  0
 34 38  1  0  0  0  0
 34 39  1  0  0  0  0
 11 14  1  0  0  0  0
 11 15  1  0  0  0  0
 11 16  1  0  0  0  0
 41 43  1  0  0  0  0
 41 44  1  0  0  0  0
 41 45  1  0  0  0  0
 21 27  1  0  0  0  0
 21 28  1  0  0  0  0
 31 36  1  0  0  0  0
  8 13  1  0  0  0  0
 18 26  1  0  0  0  0
 40 42  1  0  0  0  0
  7 12  1  0  0  0  0
 30 35  1  0  0  0  0
 17 25  1  0  0  0  0
 24 29  1  0  0  0  0
M  END
$$$$

  -OEChem-05262214473D

 45 44  0     1  0  0  0  0  0999 V2000
   -2.2987    4.1032   -0.3022 C   0  0  0  0  0  0  0  0  0  0  0  0
   -1.8049    3.7117   -1.3532 O   0  0  0  0  0  0  0  0  0  0  0  0
   -3.0791    5.3755   -0.2846 C   0  0  0  0  0  0  0  0  0  0  0  0
   -2.4478    6.2532   -0.0717 H   0  0  0  0  0  0  0  0  0  0  0  0
   -3.5571    5.5891   -1.2541 H   0  0  0  0  0  0  0  0  0  0  0  0
   -3.8940    5.4184    0.4556 H   0  0  0  0  0  0  0  0  0  0  0  0
   -2.2137    3.4712    0.9275 N   0  0  0  0  0  0  0  0  0  0  0  0
   -1.5102    2.2327    1.1338 C   0  0  2  0  0  0  0  0  0  0  0  0
   -1.3539    1.5497   -0.2184 C   0  0  0  0  0  0  0  0  0  0  0  0
   -2.0852    1.7861   -1.1778 O   0  0  0  0  0  0  0  0  0  0  0  0
   -2.2477    1.3342    2.1145 C   0  0  0  0  0  0  0  0  0  0  0  0
   -2.6724    3.9052    1.7265 H   0  0  0  0  0  0  0  0  0  0  0  0
   -0.5220    2.4922    1.5290 H   0  0  0  0  0  0  0  0  0  0  0  0
   -3.2400    1.0636    1.7358 H   0  0  0  0  0  0  0  0  0  0  0  0
   -1.6970    0.4046    2.2923 H   0  0  0  0  0  0  0  0  0  0  0  0
   -2.3854    1.8384    3.0772 H   0  0  0  0  0  0  0  0  0  0  0  0
   -0.3283    0.6116   -0.2182 N   0  0  0  0  0  0  0  0  0  0  0  0
    0.0090   -0.1762   -1.3759 C   0  0  2  0  0  0  0  0  0  0  0  0
    1.1726   -1.0842   -0.9982 C   0  0  0  0  0  0  0  0  0  0  0  0
    1.8810   -1.6460   -1.8310 O   0  0  0  0  0  0  0  0  0  0  0  0
    0.3692    0.6969   -2.5749 C   0  0  0  0  0  0  0  0  0  0  0  0
   -0.8397    1.4315   -3.1001 C   0  0  0  0  0  0  0  0  0  0  0  0
   -1.9864    1.0121   -3.0127 O   0  0  0  0  0  0  0  0  0  0  0  0
   -0.5173    2.6048   -3.6984 O   0  0  0  0  0  0  0  0  0  0  0  0
    0.2381    0.4970    0.6194 H   0  0  0  0  0  0  0  0  0  0  0  0
   -0.8696   -0.7958   -1.5923 H   0  0  0  0  0  0  0  0  0  0  0  0
    1.1063    1.4621   -2.3004 H   0  0  0  0  0  0  0  0  0  0  0  0
    0.8291    0.1215   -3.3875 H   0  0  0  0  0  0  0  0  0  0  0  0
   -1.2774    3.1059   -4.0641 H   0  0  0  0  0  0  0  0  0  0  0  0
    1.3562   -1.1547    0.3757 N   0  0  0  0  0  0  0  0  0  0  0  0
    2.4050   -1.9406    0.9825 C   0  0  2  0  0  0  0  0  0  0  0  0
    3.7400   -1.3046    0.6180 C   0  0  0  0  0  0  0  0  0  0  0  0
    3.8907   -0.5749   -0.3597 O   0  0  0  0  0  0  0  0  0  0  0  0
    2.3489   -3.3886    0.5213 C   0  0  0  0  0  0  0  0  0  0  0  0
    0.7274   -0.6325    0.9788 H   0  0  0  0  0  0  0  0  0  0  0  0
    2.2564   -1.8834    2.0663 H   0  0  0  0  0  0  0  0  0  0  0  0
    2.4958   -3.4660   -0.5622 H   0  0  0  0  0  0  0  0  0  0  0  0
    3.1268   -3.9893    1.0040 H   0  0  0  0  0  0  0  0  0  0  0  0
    1.3772   -3.8355    0.7576 H   0  0  0  0  0  0  0  0  0  0  0  0
    4.7529   -1.6823    1.4884 N   0  0  0  0  0  0  0  0  0  0  0  0
    6.1145   -1.2217    1.3468 C   0  0  0  0  0  0  0  0  0  0  0  0
    4.5335   -2.2756    2.2831 H   0  0  0  0  0  0  0  0  0  0  0  0
    6.6860   -1.9445    0.7460 H   0  0  0  0  0  0  0  0  0  0  0  0
    6.1200   -0.2427    0.8453 H   0  0  0  0  0  0  0  0  0  0  0  0
    6.5747   -1.1269    2.3414 H   0  0  0  0  0  0  0  0  0  0  0  0
  1  3  1  0  0  0  0
  1  7  1  0  0  0  0
  1  2  2  0  0  0  0
 31 32  1  0  0  0  0
 32 40  1  0  0  0  0
 32 33  2  0  0  0  0
  8  9  1  0  0  0  0
  9 17  1  0  0  0  0
  9 10  2  0  0  0  0
 18 19  1  0  0  0  0
 19 30  1  0  0  0  0
 19 20  2  0  0  0  0
 21 22  1  0  0  0  0
 22 23  2  0  0  0  0
 22 24  1  0  0  0  0
 31 34  1  0  0  0  0
  8 11  1  0  0  0  0
 40 41  1  0  0  0  0
 18 21  1  0  0  0  0
 30 31  1  0  0  0  0
  7  8  1  0  0  0  0
 17 18  1  0  0  0  0
  3  4  1  0  0  0  0
  3  5  1  0  0  0  0
  3  6  1  0  0  0  0
 34 37  1  0  0  0  0
 34 38  1  0  0  0  0
 34 39  1  0  0  0  0
 11 14  1  0  0  0  0
 11 15  1  0  0  0  0
 11 16  1  0  0  0  0
 41 43  1  0  0  0  0
 41 44  1  0  0  0  0
 41 45  1  0  0  0  0
 21 27  1  0  0  0  0
 21 28  1  0  0  0  0
 31 36  1  0  0  0  0
  8 13  1  0  0  0  0
 18 26  1  0  0  0  0
 40 42  1  0  0  0  0
  7 12  1  0  0  0  0
 30 35  1  0  0  0  0
 17 25  1  0  0  0  0
 24 29  1  0  0  0  0
M  END
$$$$

  -OEChem-05262214473D

 45 44  0     1  0  0  0  0  0999 V2000
   -2.2987    4.1032   -0.3022 C   0  0  0  0  0  0  0  0  0  0  0  0
   -1.8049    3.7117   -1.3532 O   0  0  0  0  0  0  0  0  0  0  0  0
   -3.0791    5.3755   -0.2846 C   0  0  0  0  0  0  0  0  0  0  0  0
   -2.4478    6.2532   -0.0717 H   0  0  0  0  0  0  0  0  0  0  0  0
   -3.5571    5.5891   -1.2541 H   0  0  0  0  0  0  0  0  0  0  0  0
   -3.8940    5.4184    0.4556 H   0  0  0  0  0  0  0  0  0  0  0  0
   -2.2137    3.4712    0.9275 N   0  0  0  0  0  0  0  0  0  0  0  0
   -1.5102    2.2327    1.1338 C   0  0  2  0  0  0  0  0  0  0  0  0
   -1.3539    1.5497   -0.2184 C   0  0  0  0  0  0  0  0  0  0  0  0
   -2.0852    1.7861   -1.1778 O   0  0  0  0  0  0  0  0  0  0  0  0
   -2.2477    1.3342    2.1145 C   0  0  0  0  0  0  0  0  0  0  0  0
   -2.6724    3.9052    1.7265 H   0  0  0  0  0  0  0  0  0  0  0  0
   -0.5220    2.4922    1.5290 H   0  0  0  0  0  0  0  0  0  0  0  0
   -3.2400    1.0636    1.7358 H   0  0  0  0  0  0  0  0  0  0  0  0
   -1.6970    0.4046    2.2923 H   0  0  0  0  0  0  0  0  0  0  0  0
   -2.3854    1.8384    3.0772 H   0  0  0  0  0  0  0  0  0  0  0  0
   -0.3283    0.6116   -0.2182 N   0  0  0  0  0  0  0  0  0  0  0  0
    0.0090   -0.1762   -1.3759 C   0  0  2  0  0  0  0  0  0  0  0  0
    1.1726   -1.0842   -0.9982 C   0  0  0  0  0  0  0  0  0  0  0  0
    2.0388   -1.4304   -1.7988 O   0  0  0  0  0  0  0  0  0  0  0  0
    0.3692    0.6969   -2.5749 C   0  0  0  0  0  0  0  0  0  0  0  0
   -0.8397    1.4315   -3.1001 C   0  0  0  0  0  0  0  0  0  0  0  0
   -1.9864    1.0121   -3.0127 O   0  0  0  0  0  0  0  0  0  0  0  0
   -0.5173    2.6048   -3.6984 O   0  0  0  0  0  0  0  0  0  0  0  0
    0.2381    0.4970    0.6194 H   0  0  0  0  0  0  0  0  0  0  0  0
   -0.8696   -0.7958   -1.5923 H   0  0  0  0  0  0  0  0  0  0  0  0
    1.1063    1.4621   -2.3004 H   0  0  0  0  0  0  0  0  0  0  0  0
    0.8291    0.1215   -3.3875 H   0  0  0  0  0  0  0  0  0  0  0  0
   -1.2774    3.1059   -4.0641 H   0  0  0  0  0  0  0  0  0  0  0  0
    1.1561   -1.4227    0.3477 N   0  0  0  0  0  0  0  0  0  0  0  0
    2.1631   -2.2633    0.9522 C   0  0  2  0  0  0  0  0  0  0  0  0
    3.4823   -1.5024    0.9365 C   0  0  0  0  0  0  0  0  0  0  0  0
    3.7172   -0.5833    0.1548 O   0  0  0  0  0  0  0  0  0  0  0  0
    2.2912   -3.5887    0.2177 C   0  0  0  0  0  0  0  0  0  0  0  0
    0.4056   -1.0649    0.9311 H   0  0  0  0  0  0  0  0  0  0  0  0
    1.8518   -2.4343    1.9885 H   0  0  0  0  0  0  0  0  0  0  0  0
    2.6024   -3.4376   -0.8224 H   0  0  0  0  0  0  0  0  0  0  0  0
    3.0347   -4.2362    0.6943 H   0  0  0  0  0  0  0  0  0  0  0  0
    1.3340   -4.1210    0.2043 H   0  0  0  0  0  0  0  0  0  0  0  0
    4.3823   -1.9989    1.8690 N   0  0  0  0  0  0  0  0  0  0  0  0
    5.7088   -1.4536    2.0395 C   0  0  0  0  0  0  0  0  0  0  0  0
    4.0958   -2.7510    2.4887 H   0  0  0  0  0  0  0  0  0  0  0  0
    6.4185   -2.0109    1.4104 H   0  0  0  0  0  0  0  0  0  0  0  0
    5.7103   -0.3941    1.7435 H   0  0  0  0  0  0  0  0  0  0  0  0
    6.0078   -1.5400    3.0945 H   0  0  0  0  0  0  0  0  0  0  0  0
  1  3  1  0  0  0  0
  1  7  1  0  0  0  0
  1  2  2  0  0  0  0
 31 32  1  0  0  0  0
 32 40  1  0  0  0  0
 32 33  2  0  0  0  0
  8  9  1  0  0  0  0
  9 17  1  0  0  0  0
  9 10  2  0  0  0  0
 18 19  1  0  0  0  0
 19 30  1  0  0  0  0
 19 20  2  0  0  0  0
 21 22  1  0  0  0  0
 22 23  2  0  0  0  0
 22 24  1  0  0  0  0
 31 34  1  0  0  0  0
  8 11  1  0  0  0  0
 40 41  1  0  0  0  0
 18 21  1  0  0  0  0
 30 31  1  0  0  0  0
  7  8  1  0  0  0  0
 17 18  1  0  0  0  0
  3  4  1  0  0  0  0
  3  5  1  0  0  0  0
  3  6  1  0  0  0  0
 34 37  1  0  0  0  0
 34 38  1  0  0  0  0
 34 39  1  0  0  0  0
 11 14  1  0  0  0  0
 11 15  1  0  0  0  0
 11 16  1  0  0  0  0
 41 43  1  0  0  0  0
 41 44  1  0  0  0  0
 41 45  1  0  0  0  0
 21 27  1  0  0  0  0
 21 28  1  0  0  0  0
 31 36  1  0  0  0  0
  8 13  1  0  0  0  0
 18 26  1  0  0  0  0
 40 42  1  0  0  0  0
  7 12  1  0  0  0  0
 30 35  1  0  0  0  0
 17 25  1  0  0  0  0
 24 29  1  0  0  0  0
M  END
$$$$

  -OEChem-05262214473D

 45 44  0     1  0  0  0  0  0999 V2000
   -2.2987    4.1032   -0.3022 C   0  0  0  0  0  0  0  0  0  0  0  0
   -1.8049    3.7117   -1.3532 O   0  0  0  0  0  0  0  0  0  0  0  0
   -3.0791    5.3755   -0.2846 C   0  0  0  0  0  0  0  0  0  0  0  0
   -2.4478    6.2532   -0.0717 H   0  0  0  0  0  0  0  0  0  0  0  0
   -3.5571    5.5891   -1.2541 H   0  0  0  0  0  0  0  0  0  0  0  0
   -3.8940    5.4184    0.4556 H   0  0  0  0  0  0  0  0  0  0  0  0
   -2.2137    3.4712    0.9275 N   0  0  0  0  0  0  0  0  0  0  0  0
   -1.5102    2.2327    1.1338 C   0  0  2  0  0  0  0  0  0  0  0  0
   -1.3539    1.5497   -0.2184 C   0  0  0  0  0  0  0  0  0  0  0  0
   -2.0852    1.7861   -1.1778 O   0  0  0  0  0  0  0  0  0  0  0  0
   -2.2477    1.3342    2.1145 C   0  0  0  0  0  0  0  0  0  0  0  0
   -2.6724    3.9052    1.7265 H   0  0  0  0  0  0  0  0  0  0  0  0
   -0.5220    2.4922    1.5290 H   0  0  0  0  0  0  0  0  0  0  0  0
   -3.2400    1.0636    1.7358 H   0  0  0  0  0  0  0  0  0  0  0  0
   -1.6970    0.4046    2.2923 H   0  0  0  0  0  0  0  0  0  0  0  0
   -2.3854    1.8384    3.0772 H   0  0  0  0  0  0  0  0  0  0  0  0
   -0.3283    0.6116   -0.2182 N   0  0  0  0  0  0  0  0  0  0  0  0
    0.0090   -0.1762   -1.3759 C   0  0  2  0  0  0  0  0  0  0  0  0
    1.1726   -1.0842   -0.9982 C   0  0  0  0  0  0  0  0  0  0  0  0
    2.1724   -1.2183   -1.7007 O   0  0  0  0  0  0  0  0  0  0  0  0
    0.3692    0.6969   -2.5749 C   0  0  0  0  0  0  0  0  0  0  0  0
   -0.8397    1.4315   -3.1001 C   0  0  0  0  0  0  0  0  0  0  0  0
   -1.9864    1.0121   -3.0127 O   0  0  0  0  0  0  0  0  0  0  0  0
   -0.5173    2.6048   -3.6984 O   0  0  0  0  0  0  0  0  0  0  0  0
    0.2381    0.4970    0.6194 H   0  0  0  0  0  0  0  0  0  0  0  0
   -0.8696   -0.7958   -1.5923 H   0  0  0  0  0  0  0  0  0  0  0  0
    1.1063    1.4621   -2.3004 H   0  0  0  0  0  0  0  0  0  0  0  0
    0.8291    0.1215   -3.3875 H   0  0  0  0  0  0  0  0  0  0  0  0
   -1.2774    3.1059   -4.0641 H   0  0  0  0  0  0  0  0  0  0  0  0
    0.9844   -1.6889    0.2368 N   0  0  0  0  0  0  0  0  0  0  0  0
    1.9547   -2.5846    0.8219 C   0  0  2  0  0  0  0  0  0  0  0  0
    3.1969   -1.7730    1.1652 C   0  0  0  0  0  0  0  0  0  0  0  0
    3.4708   -0.7042    0.6233 O   0  0  0  0  0  0  0  0  0  0  0  0
    2.2952   -3.7258   -0.1239 C   0  0  0  0  0  0  0  0  0  0  0  0
    0.1298   -1.4937    0.7499 H   0  0  0  0  0  0  0  0  0  0  0  0
    1.5083   -2.9770    1.7421 H   0  0  0  0  0  0  0  0  0  0  0  0
    2.7436   -3.3520   -1.0516 H   0  0  0  0  0  0  0  0  0  0  0  0
    3.0092   -4.4194    0.3322 H   0  0  0  0  0  0  0  0  0  0  0  0
    1.3960   -4.2902   -0.3933 H   0  0  0  0  0  0  0  0  0  0  0  0
    3.9859   -2.4039    2.1169 N   0  0  0  0  0  0  0  0  0  0  0  0
    5.2249   -1.8405    2.6001 C   0  0  0  0  0  0  0  0  0  0  0  0
    3.6718   -3.2790    2.5259 H   0  0  0  0  0  0  0  0  0  0  0  0
    6.0619   -2.2235    1.9979 H   0  0  0  0  0  0  0  0  0  0  0  0
    5.1857   -0.7443    2.5180 H   0  0  0  0  0  0  0  0  0  0  0  0
    5.3706   -2.1244    3.6528 H   0  0  0  0  0  0  0  0  0  0  0  0
  1  3  1  0  0  0  0
  1  7  1  0  0  0  0
  1  2  2  0  0  0  0
 31 32  1  0  0  0  0
 32 40  1  0  0  0  0
 32 33  2  0  0  0  0
  8  9  1  0  0  0  0
  9 17  1  0  0  0  0
  9 10  2  0  0  0  0
 18 19  1  0  0  0  0
 19 30  1  0  0  0  0
 19 20  2  0  0  0  0
 21 22  1  0  0  0  0
 22 23  2  0  0  0  0
 22 24  1  0  0  0  0
 31 34  1  0  0  0  0
  8 11  1  0  0  0  0
 40 41  1  0  0  0  0
 18 21  1  0  0  0  0
 30 31  1  0  0  0  0
  7  8  1  0  0  0  0
 17 18  1  0  0  0  0
  3  4  1  0  0  0  0
  3  5  1  0  0  0  0
  3  6  1  0  0  0  0
 34 37  1  0  0  0  0
 34 38  1  0  0  0  0
 34 39  1  0  0  0  0
 11 14  1  0  0  0  0
 11 15  1  0  0  0  0
 11 16  1  0  0  0  0
 41 43  1  0  0  0  0
 41 44  1  0  0  0  0
 41 45  1  0  0  0  0
 21 27  1  0  0  0  0
 21 28  1  0  0  0  0
 31 36  1  0  0  0  0
  8 13  1  0  0  0  0
 18 26  1  0  0  0  0
 40 42  1  0  0  0  0
  7 12  1  0  0  0  0
 30 35  1  0  0  0  0
 17 25  1  0  0  0  0
 24 29  1  0  0  0  0
M  END
$$$$

  -OEChem-05262214473D

 45 44  0     1  0  0  0  0  0999 V2000
   -2.2987    4.1032   -0.3022 C   0  0  0  0  0  0  0  0  0  0  0  0
   -1.8049    3.7117   -1.3532 O   0  0  0  0  0  0  0  0  0  0  0  0
   -3.0791    5.3755   -0.2846 C   0  0  0  0  0  0  0  0  0  0  0  0
   -2.4478    6.2532   -0.0717 H   0  0  0  0  0  0  0  0  0  0  0  0
   -3.5571    5.5891   -1.2541 H   0  0  0  0  0  0  0  0  0  0  0  0
   -3.8940    5.4184    0.4556 H   0  0  0  0  0  0  0  0  0  0  0  0
   -2.2137    3.4712    0.9275 N   0  0  0  0  0  0  0  0  0  0  0  0
   -1.5102    2.2327    1.1338 C   0  0  2  0  0  0  0  0  0  0  0  0
   -1.3539    1.5497   -0.2184 C   0  0  0  0  0  0  0  0  0  0  0  0
   -2.0852    1.7861   -1.1778 O   0  0  0  0  0  0  0  0  0  0  0  0
   -2.2477    1.3342    2.1145 C   0  0  0  0  0  0  0  0  0  0  0  0
   -2.6724    3.9052    1.7265 H   0  0  0  0  0  0  0  0  0  0  0  0
   -0.5220    2.4922    1.5290 H   0  0  0  0  0  0  0  0  0  0  0  0
   -3.2400    1.0636    1.7358 H   0  0  0  0  0  0  0  0  0  0  0  0
   -1.6970    0.4046    2.2923 H   0  0  0  0  0  0  0  0  0  0  0  0
   -2.3854    1.8384    3.0772 H   0  0  0  0  0  0  0  0  0  0  0  0
   -0.3283    0.6116   -0.2182 N   0  0  0  0  0  0  0  0  0  0  0  0
    0.0090   -0.1762   -1.3759 C   0  0  2  0  0  0  0  0  0  0  0  0
    1.1726   -1.0842   -0.9982 C   0  0  0  0  0  0  0  0  0  0  0  0
    2.2727   -1.0243   -1.5434 O   0  0  0  0  0  0  0  0  0  0  0  0
    0.3692    0.6969   -2.5749 C   0  0  0  0  0  0  0  0  0  0  0  0
   -0.8397    1.4315   -3.1001 C   0  0  0  0  0  0  0  0  0  0  0  0
   -1.9864    1.0121   -3.0127 O   0  0  0  0  0  0  0  0  0  0  0  0
   -0.5173    2.6048   -3.6984 O   0  0  0  0  0  0  0  0  0  0  0  0
    0.2381    0.4970    0.6194 H   0  0  0  0  0  0  0  0  0  0  0  0
   -0.8696   -0.7958   -1.5923 H   0  0  0  0  0  0  0  0  0  0  0  0
    1.1063    1.4621   -2.3004 H   0  0  0  0  0  0  0  0  0  0  0  0
    0.8291    0.1215   -3.3875 H   0  0  0  0  0  0  0  0  0  0  0  0
   -1.2774    3.1059   -4.0641 H   0  0  0  0  0  0  0  0  0  0  0  0
    0.8528   -1.9351    0.0505 N   0  0  0  0  0  0  0  0  0  0  0  0
    1.7942   -2.8825    0.6003 C   0  0  2  0  0  0  0  0  0  0  0  0
    2.9033   -2.0979    1.2886 C   0  0  0  0  0  0  0  0  0  0  0  0
    3.1682   -0.9294    1.0140 O   0  0  0  0  0  0  0  0  0  0  0  0
    2.3605   -3.7903   -0.4803 C   0  0  0  0  0  0  0  0  0  0  0  0
   -0.0811   -1.8898    0.4475 H   0  0  0  0  0  0  0  0  0  0  0  0
    1.2494   -3.4746    1.3437 H   0  0  0  0  0  0  0  0  0  0  0  0
    2.9099   -3.2149   -1.2343 H   0  0  0  0  0  0  0  0  0  0  0  0
    3.0523   -4.5265   -0.0577 H   0  0  0  0  0  0  0  0  0  0  0  0
    1.5589   -4.3315   -0.9943 H   0  0  0  0  0  0  0  0  0  0  0  0
    3.5907   -2.8695    2.2151 N   0  0  0  0  0  0  0  0  0  0  0  0
    4.6958   -2.3561    2.9905 C   0  0  0  0  0  0  0  0  0  0  0  0
    3.2904   -3.8235    2.3919 H   0  0  0  0  0  0  0  0  0  0  0  0
    5.6405   -2.5679    2.4683 H   0  0  0  0  0  0  0  0  0  0  0  0
    4.5820   -1.2693    3.1159 H   0  0  0  0  0  0  0  0  0  0  0  0
    4.7065   -2.8401    3.9783 H   0  0  0  0  0  0  0  0  0  0  0  0
  1  3  1  0  0  0  0
  1  7  1  0  0  0  0
  1  2  2  0  0  0  0
 31 32  1  0  0  0  0
 32 40  1  0  0  0  0
 32 33  2  0  0  0  0
  8  9  1  0  0  0  0
  9 17  1  0  0  0  0
  9 10  2  0  0  0  0
 18 19  1  0  0  0  0
 19 30  1  0  0  0  0
 19 20  2  0  0  0  0
 21 22  1  0  0  0  0
 22 23  2  0  0  0  0
 22 24  1  0  0  0  0
 31 34  1  0  0  0  0
  8 11  1  0  0  0  0
 40 41  1  0  0  0  0
 18 21  1  0  0  0  0
 30 31  1  0  0  0  0
  7  8  1  0  0  0  0
 17 18  1  0  0  0  0
  3  4  1  0  0  0  0
  3  5  1  0  0  0  0
  3  6  1  0  0  0  0
 34 37  1  0  0  0  0
 34 38  1  0  0  0  0
 34 39  1  0  0  0  0
 11 14  1  0  0  0  0
 11 15  1  0  0  0  0
 11 16  1  0  0  0  0
 41 43  1  0  0  0  0
 41 44  1  0  0  0  0
 41 45  1  0  0  0  0
 21 27  1  0  0  0  0
 21 28  1  0  0  0  0
 31 36  1  0  0  0  0
  8 13  1  0  0  0  0
 18 26  1  0  0  0  0
 40 42  1  0  0  0  0
  7 12  1  0  0  0  0
 30 35  1  0  0  0  0
 17 25  1  0  0  0  0
 24 29  1  0  0  0  0
M  END
$$$$

  -OEChem-05262214473D

 45 44  0     1  0  0  0  0  0999 V2000
   -2.2987    4.1032   -0.3022 C   0  0  0  0  0  0  0  0  0  0  0  0
   -1.8049    3.7117   -1.3532 O   0  0  0  0  0  0  0  0  0  0  0  0
   -3.0791    5.3755   -0.2846 C   0  0  0  0  0  0  0  0  0  0  0  0
   -2.4478    6.2532   -0.0717 H   0  0  0  0  0  0  0  0  0  0  0  0
   -3.5571    5.5891   -1.2541 H   0  0  0  0  0  0  0  0  0  0  0  0
   -3.8940    5.4184    0.4556 H   0  0  0  0  0  0  0  0  0  0  0  0
   -2.2137    3.4712    0.9275 N   0  0  0  0  0  0  0  0  0  0  0  0
   -1.5102    2.2327    1.1338 C   0  0  2  0  0  0  0  0  0  0  0  0
   -1.3539    1.5497   -0.2184 C   0  0  0  0  0  0  0  0  0  0  0  0
   -2.0852    1.7861   -1.1778 O   0  0  0  0  0  0  0  0  0  0  0  0
   -2.2477    1.3342    2.1145 C   0  0  0  0  0  0  0  0  0  0  0  0
   -2.6724    3.9052    1.7265 H   0  0  0  0  0  0  0  0  0  0  0  0
   -0.5220    2.4922    1.5290 H   0  0  0  0  0  0  0  0  0  0  0  0
   -3.2400    1.0636    1.7358 H   0  0  0  0  0  0  0  0  0  0  0  0
   -1.6970    0.4046    2.2923 H   0  0  0  0  0  0  0  0  0  0  0  0
   -2.3854    1.8384    3.0772 H   0  0  0  0  0  0  0  0  0  0  0  0
   -0.3283    0.6116   -0.2182 N   0  0  0  0  0  0  0  0  0  0  0  0
    0.0090   -0.1762   -1.3759 C   0  0  2  0  0  0  0  0  0  0  0  0
    1.1726   -1.0842   -0.9982 C   0  0  0  0  0  0  0  0  0  0  0  0
    2.3329   -0.8616   -1.3377 O   0  0  0  0  0  0  0  0  0  0  0  0
    0.3692    0.6969   -2.5749 C   0  0  0  0  0  0  0  0  0  0  0  0
   -0.8397    1.4315   -3.1001 C   0  0  0  0  0  0  0  0  0  0  0  0
   -1.9864    1.0121   -3.0127 O   0  0  0  0  0  0  0  0  0  0  0  0
   -0.5173    2.6048   -3.6984 O   0  0  0  0  0  0  0  0  0  0  0  0
    0.2381    0.4970    0.6194 H   0  0  0  0  0  0  0  0  0  0  0  0
   -0.8696   -0.7958   -1.5923 H   0  0  0  0  0  0  0  0  0  0  0  0
    1.1063    1.4621   -2.3004 H   0  0  0  0  0  0  0  0  0  0  0  0
    0.8291    0.1215   -3.3875 H   0  0  0  0  0  0  0  0  0  0  0  0
   -1.2774    3.1059   -4.0641 H   0  0  0  0  0  0  0  0  0  0  0  0
    0.7701   -2.1446   -0.1983 N   0  0  0  0  0  0  0  0  0  0  0  0
    1.6924   -3.1368    0.3026 C   0  0  2  0  0  0  0  0  0  0  0  0
    2.6215   -2.4550    1.2983 C   0  0  0  0  0  0  0  0  0  0  0  0
    2.8302   -1.2436    1.3001 O   0  0  0  0  0  0  0  0  0  0  0  0
    2.4828   -3.7780   -0.8273 C   0  0  0  0  0  0  0  0  0  0  0  0
   -0.2128   -2.2261    0.0446 H   0  0  0  0  0  0  0  0  0  0  0  0
    1.0926   -3.8931    0.8207 H   0  0  0  0  0  0  0  0  0  0  0  0
    3.0899   -3.0356   -1.3581 H   0  0  0  0  0  0  0  0  0  0  0  0
    3.1609   -4.5500   -0.4489 H   0  0  0  0  0  0  0  0  0  0  0  0
    1.8116   -4.2421   -1.5580 H   0  0  0  0  0  0  0  0  0  0  0  0
    3.2237   -3.3639    2.1570 N   0  0  0  0  0  0  0  0  0  0  0  0
    4.1576   -2.9653    3.1841 C   0  0  0  0  0  0  0  0  0  0  0  0
    2.9775   -4.3475    2.0961 H   0  0  0  0  0  0  0  0  0  0  0  0
    5.1830   -3.0206    2.7896 H   0  0  0  0  0  0  0  0  0  0  0  0
    3.9403   -1.9333    3.4966 H   0  0  0  0  0  0  0  0  0  0  0  0
    4.0608   -3.6383    4.0488 H   0  0  0  0  0  0  0  0  0  0  0  0
  1  3  1  0  0  0  0
  1  7  1  0  0  0  0
  1  2  2  0  0  0  0
 31 32  1  0  0  0  0
 32 40  1  0  0  0  0
 32 33  2  0  0  0  0
  8  9  1  0  0  0  0
  9 17  1  0  0  0  0
  9 10  2  0  0  0  0
 18 19  1  0  0  0  0
 19 30  1  0  0  0  0
 19 20  2  0  0  0  0
 21 22  1  0  0  0  0
 22 23  2  0  0  0  0
 22 24  1  0  0  0  0
 31 34  1  0  0  0  0
  8 11  1  0  0  0  0
 40 41  1  0  0  0  0
 18 21  1  0  0  0  0
 30 31  1  0  0  0  0
  7  8  1  0  0  0  0
 17 18  1  0  0  0  0
  3  4  1  0  0  0  0
  3  5  1  0  0  0  0
  3  6  1  0  0  0  0
 34 37  1  0  0  0  0
 34 38  1  0  0  0  0
 34 39  1  0  0  0  0
 11 14  1  0  0  0  0
 11 15  1  0  0  0  0
 11 16  1  0  0  0  0
 41 43  1  0  0  0  0
 41 44  1  0  0  0  0
 41 45  1  0  0  0  0
 21 27  1  0  0  0  0
 21 28  1  0  0  0  0
 31 36  1  0  0  0  0
  8 13  1  0  0  0  0
 18 26  1  0  0  0  0
 40 42  1  0  0  0  0
  7 12  1  0  0  0  0
 30 35  1  0  0  0  0
 17 25  1  0  0  0  0
 24 29  1  0  0  0  0
M  END
$$$$

  -OEChem-05262214473D

 45 44  0     1  0  0  0  0  0999 V2000
   -2.2987    4.1032   -0.3022 C   0  0  0  0  0  0  0  0  0  0  0  0
   -1.8049    3.7117   -1.3532 O   0  0  0  0  0  0  0  0  0  0  0  0
   -3.0791    5.3755   -0.2846 C   0  0  0  0  0  0  0  0  0  0  0  0
   -2.4478    6.2532   -0.0717 H   0  0  0  0  0  0  0  0  0  0  0  0
   -3.5571    5.5891   -1.2541 H   0  0  0  0  0  0  0  0  0  0  0  0
   -3.8940    5.4184    0.4556 H   0  0  0  0  0  0  0  0  0  0  0  0
   -2.2137    3.4712    0.9275 N   0  0  0  0  0  0  0  0  0  0  0  0
   -1.5102    2.2327    1.1338 C   0  0  2  0  0  0  0  0  0  0  0  0
   -1.3539    1.5497   -0.2184 C   0  0  0  0  0  0  0  0  0  0  0  0
   -2.0852    1.7861   -1.1778 O   0  0  0  0  0  0  0  0  0  0  0  0
   -2.2477    1.3342    2.1145 C   0  0  0  0  0  0  0  0  0  0  0  0
   -2.6724    3.9052    1.7265 H   0  0  0  0  0  0  0  0  0  0  0  0
   -0.5220    2.4922    1.5290 H   0  0  0  0  0  0  0  0  0  0  0  0
   -3.2400    1.0636    1.7358 H   0  0  0  0  0  0  0  0  0  0  0  0
   -1.6970    0.4046    2.2923 H   0  0  0  0  0  0  0  0  0  0  0  0
   -2.3854    1.8384    3.0772 H   0  0  0  0  0  0  0  0  0  0  0  0
   -0.3283    0.6116   -0.2182 N   0  0  0  0  0  0  0  0  0  0  0  0
    0.0090   -0.1762   -1.3759 C   0  0  2  0  0  0  0  0  0  0  0  0
    1.1726   -1.0842   -0.9982 C   0  0  0  0  0  0  0  0  0  0  0  0
    2.3489   -0.7412   -1.0975 O   0  0  0  0  0  0  0  0  0  0  0  0
    0.3692    0.6969   -2.5749 C   0  0  0  0  0  0  0  0  0  0  0  0
   -0.8397    1.4315   -3.1001 C   0  0  0  0  0  0  0  0  0  0  0  0
   -1.9864    1.0121   -3.0127 O   0  0  0  0  0  0  0  0  0  0  0  0
   -0.5173    2.6048   -3.6984 O   0  0  0  0  0  0  0  0  0  0  0  0
    0.2381    0.4970    0.6194 H   0  0  0  0  0  0  0  0  0  0  0  0
   -0.8696   -0.7958   -1.5923 H   0  0  0  0  0  0  0  0  0  0  0  0
    1.1063    1.4621   -2.3004 H   0  0  0  0  0  0  0  0  0  0  0  0
    0.8291    0.1215   -3.3875 H   0  0  0  0  0  0  0  0  0  0  0  0
   -1.2774    3.1059   -4.0641 H   0  0  0  0  0  0  0  0  0  0  0  0
    0.7421   -2.3030   -0.4928 N   0  0  0  0  0  0  0  0  0  0  0  0
    1.6563   -3.3301   -0.0509 C   0  0  2  0  0  0  0  0  0  0  0  0
    2.3708   -2.8199    1.1936 C   0  0  0  0  0  0  0  0  0  0  0  0
    2.4797   -1.6253    1.4623 O   0  0  0  0  0  0  0  0  0  0  0  0
    2.6536   -3.6897   -1.1412 C   0  0  0  0  0  0  0  0  0  0  0  0
   -0.2562   -2.4798   -0.4314 H   0  0  0  0  0  0  0  0  0  0  0  0
    1.0488   -4.2039    0.2085 H   0  0  0  0  0  0  0  0  0  0  0  0
    3.2714   -2.8265   -1.4144 H   0  0  0  0  0  0  0  0  0  0  0  0
    3.3277   -4.4884   -0.8146 H   0  0  0  0  0  0  0  0  0  0  0  0
    2.1368   -4.0282   -2.0458 H   0  0  0  0  0  0  0  0  0  0  0  0
    2.9099   -3.8536    1.9465 N   0  0  0  0  0  0  0  0  0  0  0  0
    3.6470   -3.6265    3.1676 C   0  0  0  0  0  0  0  0  0  0  0  0
    2.7546   -4.8152    1.6586 H   0  0  0  0  0  0  0  0  0  0  0  0
    4.7205   -3.5508    2.9399 H   0  0  0  0  0  0  0  0  0  0  0  0
    3.3044   -2.6911    3.6340 H   0  0  0  0  0  0  0  0  0  0  0  0
    3.4774   -4.4648    3.8594 H   0  0  0  0  0  0  0  0  0  0  0  0
  1  3  1  0  0  0  0
  1  7  1  0  0  0  0
  1  2  2  0  0  0  0
 31 32  1  0  0  0  0
 32 40  1  0  0  0  0
 32 33  2  0  0  0  0
  8  9  1  0  0  0  0
  9 17  1  0  0  0  0
  9 10  2  0  0  0  0
 18 19  1  0  0  0  0
 19 30  1  0  0  0  0
 19 20  2  0  0  0  0
 21 22  1  0  0  0  0
 22 23  2  0  0  0  0
 22 24  1  0  0  0  0
 31 34  1  0  0  0  0
  8 11  1  0  0  0  0
 40 41  1  0  0  0  0
 18 21  1  0  0  0  0
 30 31  1  0  0  0  0
  7  8  1  0  0  0  0
 17 18  1  0  0  0  0
  3  4  1  0  0  0  0
  3  5  1  0  0  0  0
  3  6  1  0  0  0  0
 34 37  1  0  0  0  0
 34 38  1  0  0  0  0
 34 39  1  0  0  0  0
 11 14  1  0  0  0  0
 11 15  1  0  0  0  0
 11 16  1  0  0  0  0
 41 43  1  0  0  0  0
 41 44  1  0  0  0  0
 41 45  1  0  0  0  0
 21 27  1  0  0  0  0
 21 28  1  0  0  0  0
 31 36  1  0  0  0  0
  8 13  1  0  0  0  0
 18 26  1  0  0  0  0
 40 42  1  0  0  0  0
  7 12  1  0  0  0  0
 30 35  1  0  0  0  0
 17 25  1  0  0  0  0
 24 29  1  0  0  0  0
M  END
$$$$

  -OEChem-05262214473D

 45 44  0     1  0  0  0  0  0999 V2000
   -2.2987    4.1032   -0.3022 C   0  0  0  0  0  0  0  0  0  0  0  0
   -1.8049    3.7117   -1.3532 O   0  0  0  0  0  0  0  0  0  0  0  0
   -3.0791    5.3755   -0.2846 C   0  0  0  0  0  0  0  0  0  0  0  0
   -2.4478    6.2532   -0.0717 H   0  0  0  0  0  0  0  0  0  0  0  0
   -3.5571    5.5891   -1.2541 H   0  0  0  0  0  0  0  0  0  0  0  0
   -3.8940    5.4184    0.4556 H   0  0  0  0  0  0  0  0  0  0  0  0
   -2.2137    3.4712    0.9275 N   0  0  0  0  0  0  0  0  0  0  0  0
   -1.5102    2.2327    1.1338 C   0  0  2  0  0  0  0  0  0  0  0  0
   -1.3539    1.5497   -0.2184 C   0  0  0  0  0  0  0  0  0  0  0  0
   -2.0852    1.7861   -1.1778 O   0  0  0  0  0  0  0  0  0  0  0  0
   -2.2477    1.3342    2.1145 C   0  0  0  0  0  0  0  0  0  0  0  0
   -2.6724    3.9052    1.7265 H   0  0  0  0  0  0  0  0  0  0  0  0
   -0.5220    2.4922    1.5290 H   0  0  0  0  0  0  0  0  0  0  0  0
   -3.2400    1.0636    1.7358 H   0  0  0  0  0  0  0  0  0  0  0  0
   -1.6970    0.4046    2.2923 H   0  0  0  0  0  0  0  0  0  0  0  0
   -2.3854    1.8384    3.0772 H   0  0  0  0  0  0  0  0  0  0  0  0
   -0.3283    0.6116   -0.2182 N   0  0  0  0  0  0  0  0  0  0  0  0
    0.0090   -0.1762   -1.3759 C   0  0  2  0  0  0  0  0  0  0  0  0
    1.1726   -1.0842   -0.9982 C   0  0  0  0  0  0  0  0  0  0  0  0
    2.3195   -0.6713   -0.8392 O   0  0  0  0  0  0  0  0  0  0  0  0
    0.3692    0.6969   -2.5749 C   0  0  0  0  0  0  0  0  0  0  0  0
   -0.8397    1.4315   -3.1001 C   0  0  0  0  0  0  0  0  0  0  0  0
   -1.9864    1.0121   -3.0127 O   0  0  0  0  0  0  0  0  0  0  0  0
   -0.5173    2.6048   -3.6984 O   0  0  0  0  0  0  0  0  0  0  0  0
    0.2381    0.4970    0.6194 H   0  0  0  0  0  0  0  0  0  0  0  0
   -0.8696   -0.7958   -1.5923 H   0  0  0  0  0  0  0  0  0  0  0  0
    1.1063    1.4621   -2.3004 H   0  0  0  0  0  0  0  0  0  0  0  0
    0.8291    0.1215   -3.3875 H   0  0  0  0  0  0  0  0  0  0  0  0
   -1.2774    3.1059   -4.0641 H   0  0  0  0  0  0  0  0  0  0  0  0
    0.7707   -2.3996   -0.8130 N   0  0  0  0  0  0  0  0  0  0  0  0
    1.6884   -3.4492   -0.4361 C   0  0  2  0  0  0  0  0  0  0  0  0
    2.1682   -3.1678    0.9817 C   0  0  0  0  0  0  0  0  0  0  0  0
    2.1406   -2.0486    1.4894 O   0  0  0  0  0  0  0  0  0  0  0  0
    2.8613   -3.5314   -1.4006 C   0  0  0  0  0  0  0  0  0  0  0  0
   -0.2085   -2.6336   -0.9480 H   0  0  0  0  0  0  0  0  0  0  0  0
    1.1208   -4.3860   -0.4510 H   0  0  0  0  0  0  0  0  0  0  0  0
    3.4419   -2.6017   -1.3995 H   0  0  0  0  0  0  0  0  0  0  0  0
    3.5412   -4.3460   -1.1300 H   0  0  0  0  0  0  0  0  0  0  0  0
    2.5126   -3.7042   -2.4245 H   0  0  0  0  0  0  0  0  0  0  0  0
    2.6707   -4.3052    1.5980 N   0  0  0  0  0  0  0  0  0  0  0  0
    3.1988   -4.2947    2.9423 C   0  0  0  0  0  0  0  0  0  0  0  0
    2.6368   -5.1948    1.1090 H   0  0  0  0  0  0  0  0  0  0  0  0
    4.2847   -4.1222    2.9089 H   0  0  0  0  0  0  0  0  0  0  0  0
    2.7175   -3.4911    3.5189 H   0  0  0  0  0  0  0  0  0  0  0  0
    2.9961   -5.2630    3.4232 H   0  0  0  0  0  0  0  0  0  0  0  0
  1  3  1  0  0  0  0
  1  7  1  0  0  0  0
  1  2  2  0  0  0  0
 31 32  1  0  0  0  0
 32 40  1  0  0  0  0
 32 33  2  0  0  0  0
  8  9  1  0  0  0  0
  9 17  1  0  0  0  0
  9 10  2  0  0  0  0
 18 19  1  0  0  0  0
 19 30  1  0  0  0  0
 19 20  2  0  0  0  0
 21 22  1  0  0  0  0
 22 23  2  0  0  0  0
 22 24  1  0  0  0  0
 31 34  1  0  0  0  0
  8 11  1  0  0  0  0
 40 41  1  0  0  0  0
 18 21  1  0  0  0  0
 30 31  1  0  0  0  0
  7  8  1  0  0  0  0
 17 18  1  0  0  0  0
  3  4  1  0  0  0  0
  3  5  1  0  0  0  0
  3  6  1  0  0  0  0
 34 37  1  0  0  0  0
 34 38  1  0  0  0  0
 34 39  1  0  0  0  0
 11 14  1  0  0  0  0
 11 15  1  0  0  0  0
 11 16  1  0  0  0  0
 41 43  1  0  0  0  0
 41 44  1  0  0  0  0
 41 45  1  0  0  0  0
 21 27  1  0  0  0  0
 21 28  1  0  0  0  0
 31 36  1  0  0  0  0
  8 13  1  0  0  0  0
 18 26  1  0  0  0  0
 40 42  1  0  0  0  0
  7 12  1  0  0  0  0
 30 35  1  0  0  0  0
 17 25  1  0  0  0  0
 24 29  1  0  0  0  0
M  END
$$$$

  -OEChem-05262214473D

 45 44  0     1  0  0  0  0  0999 V2000
   -2.2987    4.1032   -0.3022 C   0  0  0  0  0  0  0  0  0  0  0  0
   -1.8049    3.7117   -1.3532 O   0  0  0  0  0  0  0  0  0  0  0  0
   -3.0791    5.3755   -0.2846 C   0  0  0  0  0  0  0  0  0  0  0  0
   -2.4478    6.2532   -0.0717 H   0  0  0  0  0  0  0  0  0  0  0  0
   -3.5571    5.5891   -1.2541 H   0  0  0  0  0  0  0  0  0  0  0  0
   -3.8940    5.4184    0.4556 H   0  0  0  0  0  0  0  0  0  0  0  0
   -2.2137    3.4712    0.9275 N   0  0  0  0  0  0  0  0  0  0  0  0
   -1.5102    2.2327    1.1338 C   0  0  2  0  0  0  0  0  0  0  0  0
   -1.3539    1.5497   -0.2184 C   0  0  0  0  0  0  0  0  0  0  0  0
   -2.0852    1.7861   -1.1778 O   0  0  0  0  0  0  0  0  0  0  0  0
   -2.2477    1.3342    2.1145 C   0  0  0  0  0  0  0  0  0  0  0  0
   -2.6724    3.9052    1.7265 H   0  0  0  0  0  0  0  0  0  0  0  0
   -0.5220    2.4922    1.5290 H   0  0  0  0  0  0  0  0  0  0  0  0
   -3.2400    1.0636    1.7358 H   0  0  0  0  0  0  0  0  0  0  0  0
   -1.6970    0.4046    2.2923 H   0  0  0  0  0  0  0  0  0  0  0  0
   -2.3854    1.8384    3.0772 H   0  0  0  0  0  0  0  0  0  0  0  0
   -0.3283    0.6116   -0.2182 N   0  0  0  0  0  0  0  0  0  0  0  0
    0.0090   -0.1762   -1.3759 C   0  0  2  0  0  0  0  0  0  0  0  0
    1.1726   -1.0842   -0.9982 C   0  0  0  0  0  0  0  0  0  0  0  0
    2.2469   -0.6568   -0.5804 O   0  0  0  0  0  0  0  0  0  0  0  0
    0.3692    0.6969   -2.5749 C   0  0  0  0  0  0  0  0  0  0  0  0
   -0.8397    1.4315   -3.1001 C   0  0  0  0  0  0  0  0  0  0  0  0
   -1.9864    1.0121   -3.0127 O   0  0  0  0  0  0  0  0  0  0  0  0
   -0.5173    2.6048   -3.6984 O   0  0  0  0  0  0  0  0  0  0  0  0
    0.2381    0.4970    0.6194 H   0  0  0  0  0  0  0  0  0  0  0  0
   -0.8696   -0.7958   -1.5923 H   0  0  0  0  0  0  0  0  0  0  0  0
    1.1063    1.4621   -2.3004 H   0  0  0  0  0  0  0  0  0  0  0  0
    0.8291    0.1215   -3.3875 H   0  0  0  0  0  0  0  0  0  0  0  0
   -1.2774    3.1059   -4.0641 H   0  0  0  0  0  0  0  0  0  0  0  0
    0.8538   -2.4278   -1.1369 N   0  0  0  0  0  0  0  0  0  0  0  0
    1.7864   -3.4861   -0.8268 C   0  0  2  0  0  0  0  0  0  0  0  0
    2.0275   -3.4749    0.6770 C   0  0  0  0  0  0  0  0  0  0  0  0
    1.8361   -2.4846    1.3796 O   0  0  0  0  0  0  0  0  0  0  0  0
    3.0918   -3.3139   -1.5878 C   0  0  0  0  0  0  0  0  0  0  0  0
   -0.0729   -2.6769   -1.4700 H   0  0  0  0  0  0  0  0  0  0  0  0
    1.3037   -4.4269   -1.1129 H   0  0  0  0  0  0  0  0  0  0  0  0
    3.5899   -2.3766   -1.3143 H   0  0  0  0  0  0  0  0  0  0  0  0
    3.7869   -4.1324   -1.3735 H   0  0  0  0  0  0  0  0  0  0  0  0
    2.9131   -3.2923   -2.6683 H   0  0  0  0  0  0  0  0  0  0  0  0
    2.5224   -4.6878    1.1352 N   0  0  0  0  0  0  0  0  0  0  0  0
    2.8435   -4.9244    2.5234 C   0  0  0  0  0  0  0  0  0  0  0  0
    2.6321   -5.4604    0.4850 H   0  0  0  0  0  0  0  0  0  0  0  0
    3.9051   -4.6960    2.6988 H   0  0  0  0  0  0  0  0  0  0  0  0
    2.2198   -4.2787    3.1590 H   0  0  0  0  0  0  0  0  0  0  0  0
    2.6498   -5.9788    2.7698 H   0  0  0  0  0  0  0  0  0  0  0  0
  1  3  1  0  0  0  0
  1  7  1  0  0  0  0
  1  2  2  0  0  0  0
 31 32  1  0  0  0  0
 32 40  1  0  0  0  0
 32 33  2  0  0  0  0
  8  9  1  0  0  0  0
  9 17  1  0  0  0  0
  9 10  2  0  0  0  0
 18 19  1  0  0  0  0
 19 30  1  0  0  0  0
 19 20  2  0  0  0  0
 21 22  1  0  0  0  0
 22 23  2  0  0  0  0
 22 24  1  0  0  0  0
 31 34  1  0  0  0  0
  8 11  1  0  0  0  0
 40 41  1  0  0  0  0
 18 21  1  0  0  0  0
 30 31  1  0  0  0  0
  7  8  1  0  0  0  0
 17 18  1  0  0  0  0
  3  4  1  0  0  0  0
  3  5  1  0  0  0  0
  3  6  1  0  0  0  0
 34 37  1  0  0  0  0
 34 38  1  0  0  0  0
 34 39  1  0  0  0  0
 11 14  1  0  0  0  0
 11 15  1  0  0  0  0
 11 16  1  0  0  0  0
 41 43  1  0  0  0  0
 41 44  1  0  0  0  0
 41 45  1  0  0  0  0
 21 27  1  0  0  0  0
 21 28  1  0  0  0  0
 31 36  1  0  0  0  0
  8 13  1  0  0  0  0
 18 26  1  0  0  0  0
 40 42  1  0  0  0  0
  7 12  1  0  0  0  0
 30 35  1  0  0  0  0
 17 25  1  0  0  0  0
 24 29  1  0  0  0  0
M  END
$$$$

  -OEChem-05262214473D

 45 44  0     1  0  0  0  0  0999 V2000
   -2.2987    4.1032   -0.3022 C   0  0  0  0  0  0  0  0  0  0  0  0
   -1.8049    3.7117   -1.3532 O   0  0  0  0  0  0  0  0  0  0  0  0
   -3.0791    5.3755   -0.2846 C   0  0  0  0  0  0  0  0  0  0  0  0
   -2.4478    6.2532   -0.0717 H   0  0  0  0  0  0  0  0  0  0  0  0
   -3.5571    5.5891   -1.2541 H   0  0  0  0  0  0  0  0  0  0  0  0
   -3.8940    5.4184    0.4556 H   0  0  0  0  0  0  0  0  0  0  0  0
   -2.2137    3.4712    0.9275 N   0  0  0  0  0  0  0  0  0  0  0  0
   -1.5102    2.2327    1.1338 C   0  0  2  0  0  0  0  0  0  0  0  0
   -1.3539    1.5497   -0.2184 C   0  0  0  0  0  0  0  0  0  0  0  0
   -2.0852    1.7861   -1.1778 O   0  0  0  0  0  0  0  0  0  0  0  0
   -2.2477    1.3342    2.1145 C   0  0  0  0  0  0  0  0  0  0  0  0
   -2.6724    3.9052    1.7265 H   0  0  0  0  0  0  0  0  0  0  0  0
   -0.5220    2.4922    1.5290 H   0  0  0  0  0  0  0  0  0  0  0  0
   -3.2400    1.0636    1.7358 H   0  0  0  0  0  0  0  0  0  0  0  0
   -1.6970    0.4046    2.2923 H   0  0  0  0  0  0  0  0  0  0  0  0
   -2.3854    1.8384    3.0772 H   0  0  0  0  0  0  0  0  0  0  0  0
   -0.3283    0.6116   -0.2182 N   0  0  0  0  0  0  0  0  0  0  0  0
    0.0090   -0.1762   -1.3759 C   0  0  2  0  0  0  0  0  0  0  0  0
    1.1726   -1.0842   -0.9982 C   0  0  0  0  0  0  0  0  0  0  0  0
    2.1358   -0.6986   -0.3388 O   0  0  0  0  0  0  0  0  0  0  0  0
    0.3692    0.6969   -2.5749 C   0  0  0  0  0  0  0  0  0  0  0  0
   -0.8397    1.4315   -3.1001 C   0  0  0  0  0  0  0  0  0  0  0  0
   -1.9864    1.0121   -3.0127 O   0  0  0  0  0  0  0  0  0  0  0  0
   -0.5173    2.6048   -3.6984 O   0  0  0  0  0  0  0  0  0  0  0  0
    0.2381    0.4970    0.6194 H   0  0  0  0  0  0  0  0  0  0  0  0
   -0.8696   -0.7958   -1.5923 H   0  0  0  0  0  0  0  0  0  0  0  0
    1.1063    1.4621   -2.3004 H   0  0  0  0  0  0  0  0  0  0  0  0
    0.8291    0.1215   -3.3875 H   0  0  0  0  0  0  0  0  0  0  0  0
   -1.2774    3.1059   -4.0641 H   0  0  0  0  0  0  0  0  0  0  0  0
    0.9859   -2.3856   -1.4425 N   0  0  0  0  0  0  0  0  0  0  0  0
    1.9438   -3.4382   -1.1963 C   0  0  2  0  0  0  0  0  0  0  0  0
    1.9582   -3.7203    0.3002 C   0  0  0  0  0  0  0  0  0  0  0  0
    1.5868   -2.9035    1.1404 O   0  0  0  0  0  0  0  0  0  0  0  0
    3.3294   -3.0520   -1.6901 C   0  0  0  0  0  0  0  0  0  0  0  0
    0.1415   -2.6069   -1.9619 H   0  0  0  0  0  0  0  0  0  0  0  0
    1.5852   -4.3238   -1.7321 H   0  0  0  0  0  0  0  0  0  0  0  0
    3.7053   -2.1665   -1.1647 H   0  0  0  0  0  0  0  0  0  0  0  0
    4.0482   -3.8621   -1.5286 H   0  0  0  0  0  0  0  0  0  0  0  0
    3.3112   -2.8205   -2.7605 H   0  0  0  0  0  0  0  0  0  0  0  0
    2.4751   -4.9754    0.5897 N   0  0  0  0  0  0  0  0  0  0  0  0
    2.6053   -5.4726    1.9395 C   0  0  0  0  0  0  0  0  0  0  0  0
    2.7409   -5.5939   -0.1709 H   0  0  0  0  0  0  0  0  0  0  0  0
    3.6077   -5.2331    2.3239 H   0  0  0  0  0  0  0  0  0  0  0  0
    1.8451   -5.0003    2.5790 H   0  0  0  0  0  0  0  0  0  0  0  0
    2.4619   -6.5632    1.9438 H   0  0  0  0  0  0  0  0  0  0  0  0
  1  3  1  0  0  0  0
  1  7  1  0  0  0  0
  1  2  2  0  0  0  0
 31 32  1  0  0  0  0
 32 40  1  0  0  0  0
 32 33  2  0  0  0  0
  8  9  1  0  0  0  0
  9 17  1  0  0  0  0
  9 10  2  0  0  0  0
 18 19  1  0  0  0  0
 19 30  1  0  0  0  0
 19 20  2  0  0  0  0
 21 22  1  0  0  0  0
 22 23  2  0  0  0  0
 22 24  1  0  0  0  0
 31 34  1  0  0  0  0
  8 11  1  0  0  0  0
 40 41  1  0  0  0  0
 18 21  1  0  0  0  0
 30 31  1  0  0  0  0
  7  8  1  0  0  0  0
 17 18  1  0  0  0  0
  3  4  1  0  0  0  0
  3  5  1  0  0  0  0
  3  6  1  0  0  0  0
 34 37  1  0  0  0  0
 34 38  1  0  0  0  0
 34 39  1  0  0  0  0
 11 14  1  0  0  0  0
 11 15  1  0  0  0  0
 11 16  1  0  0  0  0
 41 43  1  0  0  0  0
 41 44  1  0  0  0  0
 41 45  1  0  0  0  0
 21 27  1  0  0  0  0
 21 28  1  0  0  0  0
 31 36  1  0  0  0  0
  8 13  1  0  0  0  0
 18 26  1  0  0  0  0
 40 42  1  0  0  0  0
  7 12  1  0  0  0  0
 30 35  1  0  0  0  0
 17 25  1  0  0  0  0
 24 29  1  0  0  0  0
M  END
$$$$

  -OEChem-05262214473D

 45 44  0     1  0  0  0  0  0999 V2000
   -2.2987    4.1032   -0.3022 C   0  0  0  0  0  0  0  0  0  0  0  0
   -1.8049    3.7117   -1.3532 O   0  0  0  0  0  0  0  0  0  0  0  0
   -3.0791    5.3755   -0.2846 C   0  0  0  0  0  0  0  0  0  0  0  0
   -2.4478    6.2532   -0.0717 H   0  0  0  0  0  0  0  0  0  0  0  0
   -3.5571    5.5891   -1.2541 H   0  0  0  0  0  0  0  0  0  0  0  0
   -3.8940    5.4184    0.4556 H   0  0  0  0  0  0  0  0  0  0  0  0
   -2.2137    3.4712    0.9275 N   0  0  0  0  0  0  0  0  0  0  0  0
   -1.5102    2.2327    1.1338 C   0  0  2  0  0  0  0  0  0  0  0  0
   -1.3539    1.5497   -0.2184 C   0  0  0  0  0  0  0  0  0  0  0  0
   -2.0852    1.7861   -1.1778 O   0  0  0  0  0  0  0  0  0  0  0  0
   -2.2477    1.3342    2.1145 C   0  0  0  0  0  0  0  0  0  0  0  0
   -2.6724    3.9052    1.7265 H   0  0  0  0  0  0  0  0  0  0  0  0
   -0.5220    2.4922    1.5290 H   0  0  0  0  0  0  0  0  0  0  0  0
   -3.2400    1.0636    1.7358 H   0  0  0  0  0  0  0  0  0  0  0  0
   -1.6970    0.4046    2.2923 H   0  0  0  0  0  0  0  0  0  0  0  0
   -2.3854    1.8384    3.0772 H   0  0  0  0  0  0  0  0  0  0  0  0
   -0.3283    0.6116   -0.2182 N   0  0  0  0  0  0  0  0  0  0  0  0
    0.0090   -0.1762   -1.3759 C   0  0  2  0  0  0  0  0  0  0  0  0
    1.1726   -1.0842   -0.9982 C   0  0  0  0  0  0  0  0  0  0  0  0
    1.9940   -0.7939   -0.1308 O   0  0  0  0  0  0  0  0  0  0  0  0
    0.3692    0.6969   -2.5749 C   0  0  0  0  0  0  0  0  0  0  0  0
   -0.8397    1.4315   -3.1001 C   0  0  0  0  0  0  0  0  0  0  0  0
   -1.9864    1.0121   -3.0127 O   0  0  0  0  0  0  0  0  0  0  0  0
   -0.5173    2.6048   -3.6984 O   0  0  0  0  0  0  0  0  0  0  0  0
    0.2381    0.4970    0.6194 H   0  0  0  0  0  0  0  0  0  0  0  0
   -0.8696   -0.7958   -1.5923 H   0  0  0  0  0  0  0  0  0  0  0  0
    1.1063    1.4621   -2.3004 H   0  0  0  0  0  0  0  0  0  0  0  0
    0.8291    0.1215   -3.3875 H   0  0  0  0  0  0  0  0  0  0  0  0
   -1.2774    3.1059   -4.0641 H   0  0  0  0  0  0  0  0  0  0  0  0
    1.1579   -2.2760   -1.7090 N   0  0  0  0  0  0  0  0  0  0  0  0
    2.1497   -3.3087   -1.5196 C   0  0  2  0  0  0  0  0  0  0  0  0
    1.9652   -3.8874   -0.1229 C   0  0  0  0  0  0  0  0  0  0  0  0
    1.4098   -3.2769    0.7881 O   0  0  0  0  0  0  0  0  0  0  0  0
    3.5578   -2.7635   -1.7004 C   0  0  0  0  0  0  0  0  0  0  0  0
    0.4199   -2.4282   -2.3901 H   0  0  0  0  0  0  0  0  0  0  0  0
    1.9459   -4.0838   -2.2664 H   0  0  0  0  0  0  0  0  0  0  0  0
    3.7802   -1.9857   -0.9609 H   0  0  0  0  0  0  0  0  0  0  0  0
    4.3071   -3.5536   -1.5847 H   0  0  0  0  0  0  0  0  0  0  0  0
    3.6796   -2.3211   -2.6950 H   0  0  0  0  0  0  0  0  0  0  0  0
    2.5320   -5.1484   -0.0014 N   0  0  0  0  0  0  0  0  0  0  0  0
    2.5005   -5.9019    1.2303 C   0  0  0  0  0  0  0  0  0  0  0  0
    2.9557   -5.5862   -0.8141 H   0  0  0  0  0  0  0  0  0  0  0  0
    3.4128   -5.6969    1.8097 H   0  0  0  0  0  0  0  0  0  0  0  0
    1.6189   -5.6066    1.8182 H   0  0  0  0  0  0  0  0  0  0  0  0
    2.4454   -6.9764    1.0014 H   0  0  0  0  0  0  0  0  0  0  0  0
  1  3  1  0  0  0  0
  1  7  1  0  0  0  0
  1  2  2  0  0  0  0
 31 32  1  0  0  0  0
 32 40  1  0  0  0  0
 32 33  2  0  0  0  0
  8  9  1  0  0  0  0
  9 17  1  0  0  0  0
  9 10  2  0  0  0  0
 18 19  1  0  0  0  0
 19 30  1  0  0  0  0
 19 20  2  0  0  0  0
 21 22  1  0  0  0  0
 22 23  2  0  0  0  0
 22 24  1  0  0  0  0
 31 34  1  0  0  0  0
  8 11  1  0  0  0  0
 40 41  1  0  0  0  0
 18 21  1  0  0  0  0
 30 31  1  0  0  0  0
  7  8  1  0  0  0  0
 17 18  1  0  0  0  0
  3  4  1  0  0  0  0
  3  5  1  0  0  0  0
  3  6  1  0  0  0  0
 34 37  1  0  0  0  0
 34 38  1  0  0  0  0
 34 39  1  0  0  0  0
 11 14  1  0  0  0  0
 11 15  1  0  0  0  0
 11 16  1  0  0  0  0
 41 43  1  0  0  0  0
 41 44  1  0  0  0  0
 41 45  1  0  0  0  0
 21 27  1  0  0  0  0
 21 28  1  0  0  0  0
 31 36  1  0  0  0  0
  8 13  1  0  0  0  0
 18 26  1  0  0  0  0
 40 42  1  0  0  0  0
  7 12  1  0  0  0  0
 30 35  1  0  0  0  0
 17 25  1  0  0  0  0
 24 29  1  0  0  0  0
M  END
$$$$

  -OEChem-05262214473D

 45 44  0     1  0  0  0  0  0999 V2000
   -2.2987    4.1032   -0.3022 C   0  0  0  0  0  0  0  0  0  0  0  0
   -1.8049    3.7117   -1.3532 O   0  0  0  0  0  0  0  0  0  0  0  0
   -3.0791    5.3755   -0.2846 C   0  0  0  0  0  0  0  0  0  0  0  0
   -2.4478    6.2532   -0.0717 H   0  0  0  0  0  0  0  0  0  0  0  0
   -3.5571    5.5891   -1.2541 H   0  0  0  0  0  0  0  0  0  0  0  0
   -3.8940    5.4184    0.4556 H   0  0  0  0  0  0  0  0  0  0  0  0
   -2.2137    3.4712    0.9275 N   0  0  0  0  0  0  0  0  0  0  0  0
   -1.5102    2.2327    1.1338 C   0  0  2  0  0  0  0  0  0  0  0  0
   -1.3539    1.5497   -0.2184 C   0  0  0  0  0  0  0  0  0  0  0  0
   -2.0852    1.7861   -1.1778 O   0  0  0  0  0  0  0  0  0  0  0  0
   -2.2477    1.3342    2.1145 C   0  0  0  0  0  0  0  0  0  0  0  0
   -2.6724    3.9052    1.7265 H   0  0  0  0  0  0  0  0  0  0  0  0
   -0.5220    2.4922    1.5290 H   0  0  0  0  0  0  0  0  0  0  0  0
   -3.2400    1.0636    1.7358 H   0  0  0  0  0  0  0  0  0  0  0  0
   -1.6970    0.4046    2.2923 H   0  0  0  0  0  0  0  0  0  0  0  0
   -2.3854    1.8384    3.0772 H   0  0  0  0  0  0  0  0  0  0  0  0
   -0.3283    0.6116   -0.2182 N   0  0  0  0  0  0  0  0  0  0  0  0
    0.0090   -0.1762   -1.3759 C   0  0  2  0  0  0  0  0  0  0  0  0
    1.1726   -1.0842   -0.9982 C   0  0  0  0  0  0  0  0  0  0  0  0
    1.8310   -0.9361    0.0294 O   0  0  0  0  0  0  0  0  0  0  0  0
    0.3692    0.6969   -2.5749 C   0  0  0  0  0  0  0  0  0  0  0  0
   -0.8397    1.4315   -3.1001 C   0  0  0  0  0  0  0  0  0  0  0  0
   -1.9864    1.0121   -3.0127 O   0  0  0  0  0  0  0  0  0  0  0  0
   -0.5173    2.6048   -3.6984 O   0  0  0  0  0  0  0  0  0  0  0  0
    0.2381    0.4970    0.6194 H   0  0  0  0  0  0  0  0  0  0  0  0
   -0.8696   -0.7958   -1.5923 H   0  0  0  0  0  0  0  0  0  0  0  0
    1.1063    1.4621   -2.3004 H   0  0  0  0  0  0  0  0  0  0  0  0
    0.8291    0.1215   -3.3875 H   0  0  0  0  0  0  0  0  0  0  0  0
   -1.2774    3.1059   -4.0641 H   0  0  0  0  0  0  0  0  0  0  0  0
    1.3582   -2.1065   -1.9183 N   0  0  0  0  0  0  0  0  0  0  0  0
    2.3901   -3.1066   -1.7744 C   0  0  2  0  0  0  0  0  0  0  0  0
    2.0480   -3.9646   -0.5635 C   0  0  0  0  0  0  0  0  0  0  0  0
    1.3172   -3.5793    0.3467 O   0  0  0  0  0  0  0  0  0  0  0  0
    3.7615   -2.4682   -1.6182 C   0  0  0  0  0  0  0  0  0  0  0  0
    0.7434   -2.1531   -2.7255 H   0  0  0  0  0  0  0  0  0  0  0  0
    2.3614   -3.7231   -2.6795 H   0  0  0  0  0  0  0  0  0  0  0  0
    3.8095   -1.8466   -0.7167 H   0  0  0  0  0  0  0  0  0  0  0  0
    4.5460   -3.2279   -1.5379 H   0  0  0  0  0  0  0  0  0  0  0  0
    3.9934   -1.8279   -2.4762 H   0  0  0  0  0  0  0  0  0  0  0  0
    2.6892   -5.1950   -0.5978 N   0  0  0  0  0  0  0  0  0  0  0  0
    2.5361   -6.1832    0.4443 C   0  0  0  0  0  0  0  0  0  0  0  0
    3.2619   -5.4378   -1.4008 H   0  0  0  0  0  0  0  0  0  0  0  0
    3.3336   -6.0557    1.1912 H   0  0  0  0  0  0  0  0  0  0  0  0
    1.5566   -6.0565    0.9286 H   0  0  0  0  0  0  0  0  0  0  0  0
    2.6013   -7.1904    0.0068 H   0  0  0  0  0  0  0  0  0  0  0  0
  1  3  1  0  0  0  0
  1  7  1  0  0  0  0
  1  2  2  0  0  0  0
 31 32  1  0  0  0  0
 32 40  1  0  0  0  0
 32 33  2  0  0  0  0
  8  9  1  0  0  0  0
  9 17  1  0  0  0  0
  9 10  2  0  0  0  0
 18 19  1  0  0  0  0
 19 30  1  0  0  0  0
 19 20  2  0  0  0  0
 21 22  1  0  0  0  0
 22 23  2  0  0  0  0
 22 24  1  0  0  0  0
 31 34  1  0  0  0  0
  8 11  1  0  0  0  0
 40 41  1  0  0  0  0
 18 21  1  0  0  0  0
 30 31  1  0  0  0  0
  7  8  1  0  0  0  0
 17 18  1  0  0  0  0
  3  4  1  0  0  0  0
  3  5  1  0  0  0  0
  3  6  1  0  0  0  0
 34 37  1  0  0  0  0
 34 38  1  0  0  0  0
 34 39  1  0  0  0  0
 11 14  1  0  0  0  0
 11 15  1  0  0  0  0
 11 16  1  0  0  0  0
 41 43  1  0  0  0  0
 41 44  1  0  0  0  0
 41 45  1  0  0  0  0
 21 27  1  0  0  0  0
 21 28  1  0  0  0  0
 31 36  1  0  0  0  0
  8 13  1  0  0  0  0
 18 26  1  0  0  0  0
 40 42  1  0  0  0  0
  7 12  1  0  0  0  0
 30 35  1  0  0  0  0
 17 25  1  0  0  0  0
 24 29  1  0  0  0  0
M  END
$$$$

  -OEChem-05262214473D

 45 44  0     1  0  0  0  0  0999 V2000
   -2.2987    4.1032   -0.3022 C   0  0  0  0  0  0  0  0  0  0  0  0
   -1.8049    3.7117   -1.3532 O   0  0  0  0  0  0  0  0  0  0  0  0
   -3.0791    5.3755   -0.2846 C   0  0  0  0  0  0  0  0  0  0  0  0
   -2.4478    6.2532   -0.0717 H   0  0  0  0  0  0  0  0  0  0  0  0
   -3.5571    5.5891   -1.2541 H   0  0  0  0  0  0  0  0  0  0  0  0
   -3.8940    5.4184    0.4556 H   0  0  0  0  0  0  0  0  0  0  0  0
   -2.2137    3.4712    0.9275 N   0  0  0  0  0  0  0  0  0  0  0  0
   -1.5102    2.2327    1.1338 C   0  0  2  0  0  0  0  0  0  0  0  0
   -1.3539    1.5497   -0.2184 C   0  0  0  0  0  0  0  0  0  0  0  0
   -2.0852    1.7861   -1.1778 O   0  0  0  0  0  0  0  0  0  0  0  0
   -2.2477    1.3342    2.1145 C   0  0  0  0  0  0  0  0  0  0  0  0
   -2.6724    3.9052    1.7265 H   0  0  0  0  0  0  0  0  0  0  0  0
   -0.5220    2.4922    1.5290 H   0  0  0  0  0  0  0  0  0  0  0  0
   -3.2400    1.0636    1.7358 H   0  0  0  0  0  0  0  0  0  0  0  0
   -1.6970    0.4046    2.2923 H   0  0  0  0  0  0  0  0  0  0  0  0
   -2.3854    1.8384    3.0772 H   0  0  0  0  0  0  0  0  0  0  0  0
   -0.3283    0.6116   -0.2182 N   0  0  0  0  0  0  0  0  0  0  0  0
    0.0090   -0.1762   -1.3759 C   0  0  2  0  0  0  0  0  0  0  0  0
    0.8943   -1.3268   -0.9141 C   0  0  0  0  0  0  0  0  0  0  0  0
    1.1906   -1.5121    0.2645 O   0  0  0  0  0  0  0  0  0  0  0  0
    0.7129    0.6543   -2.4458 C   0  0  0  0  0  0  0  0  0  0  0  0
   -0.2298    1.6520   -3.0725 C   0  0  0  0  0  0  0  0  0  0  0  0
   -1.4379    1.4822   -3.1729 O   0  0  0  0  0  0  0  0  0  0  0  0
    0.4098    2.7562   -3.5313 O   0  0  0  0  0  0  0  0  0  0  0  0
    0.2381    0.4970    0.6194 H   0  0  0  0  0  0  0  0  0  0  0  0
   -0.9355   -0.5845   -1.7552 H   0  0  0  0  0  0  0  0  0  0  0  0
    1.5414    1.2321   -2.0171 H   0  0  0  0  0  0  0  0  0  0  0  0
    1.1610    0.0320   -3.2299 H   0  0  0  0  0  0  0  0  0  0  0  0
   -0.1697    3.4234   -3.9575 H   0  0  0  0  0  0  0  0  0  0  0  0
    1.2746   -2.1487   -1.9658 N   0  0  0  0  0  0  0  0  0  0  0  0
    2.1041   -3.3166   -1.7817 C   0  0  2  0  0  0  0  0  0  0  0  0
    1.3055   -4.3398   -0.9851 C   0  0  0  0  0  0  0  0  0  0  0  0
    0.3563   -4.0369   -0.2651 O   0  0  0  0  0  0  0  0  0  0  0  0
    3.4020   -2.9669   -1.0705 C   0  0  0  0  0  0  0  0  0  0  0  0
    0.9566   -1.9196   -2.9029 H   0  0  0  0  0  0  0  0  0  0  0  0
    2.3159   -3.7147   -2.7800 H   0  0  0  0  0  0  0  0  0  0  0  0
    3.2100   -2.5663   -0.0684 H   0  0  0  0  0  0  0  0  0  0  0  0
    4.0422   -3.8479   -0.9572 H   0  0  0  0  0  0  0  0  0  0  0  0
    3.9609   -2.2089   -1.6298 H   0  0  0  0  0  0  0  0  0  0  0  0
    1.8045   -5.6257   -1.1389 N   0  0  0  0  0  0  0  0  0  0  0  0
    1.2267   -6.7708   -0.4748 C   0  0  0  0  0  0  0  0  0  0  0  0
    2.5832   -5.7873   -1.7707 H   0  0  0  0  0  0  0  0  0  0  0  0
    1.7437   -6.9403    0.4813 H   0  0  0  0  0  0  0  0  0  0  0  0
    0.1590   -6.5851   -0.2862 H   0  0  0  0  0  0  0  0  0  0  0  0
    1.3371   -7.6594   -1.1137 H   0  0  0  0  0  0  0  0  0  0  0  0
  1  3  1  0  0  0  0
  1  7  1  0  0  0  0
  1  2  2  0  0  0  0
 31 32  1  0  0  0  0
 32 40  1  0  0  0  0
 32 33  2  0  0  0  0
  8  9  1  0  0  0  0
  9 17  1  0  0  0  0
  9 10  2  0  0  0  0
 18 19  1  0  0  0  0
 19 30  1  0  0  0  0
 19 20  2  0  0  0  0
 21 22  1  0  0  0  0
 22 23  2  0  0  0  0
 22 24  1  0  0  0  0
 31 34  1  0  0  0  0
  8 11  1  0  0  0  0
 40 41  1  0  0  0  0
 18 21  1  0  0  0  0
 30 31  1  0  0  0  0
  7  8  1  0  0  0  0
 17 18  1  0  0  0  0
  3  4  1  0  0  0  0
  3  5  1  0  0  0  0
  3  6  1  0  0  0  0
 34 37  1  0  0  0  0
 34 38  1  0  0  0  0
 34 39  1  0  0  0  0
 11 14  1  0  0  0  0
 11 15  1  0  0  0  0
 11 16  1  0  0  0  0
 41 43  1  0  0  0  0
 41 44  1  0  0  0  0
 41 45  1  0  0  0  0
 21 27  1  0  0  0  0
 21 28  1  0  0  0  0
 31 36  1  0  0  0  0
  8 13  1  0  0  0  0
 18 26  1  0  0  0  0
 40 42  1  0  0  0  0
  7 12  1  0  0  0  0
 30 35  1  0  0  0  0
 17 25  1  0  0  0  0
 24 29  1  0  0  0  0
M  END
$$$$

  -OEChem-05262214473D

 45 44  0     1  0  0  0  0  0999 V2000
   -2.2987    4.1032   -0.3022 C   0  0  0  0  0  0  0  0  0  0  0  0
   -1.8049    3.7117   -1.3532 O   0  0  0  0  0  0  0  0  0  0  0  0
   -3.0791    5.3755   -0.2846 C   0  0  0  0  0  0  0  0  0  0  0  0
   -2.4478    6.2532   -0.0717 H   0  0  0  0  0  0  0  0  0  0  0  0
   -3.5571    5.5891   -1.2541 H   0  0  0  0  0  0  0  0  0  0  0  0
   -3.8940    5.4184    0.4556 H   0  0  0  0  0  0  0  0  0  0  0  0
   -2.2137    3.4712    0.9275 N   0  0  0  0  0  0  0  0  0  0  0  0
   -1.5102    2.2327    1.1338 C   0  0  2  0  0  0  0  0  0  0  0  0
   -1.3539    1.5497   -0.2184 C   0  0  0  0  0  0  0  0  0  0  0  0
   -2.0852    1.7861   -1.1778 O   0  0  0  0  0  0  0  0  0  0  0  0
   -2.2477    1.3342    2.1145 C   0  0  0  0  0  0  0  0  0  0  0  0
   -2.6724    3.9052    1.7265 H   0  0  0  0  0  0  0  0  0  0  0  0
   -0.5220    2.4922    1.5290 H   0  0  0  0  0  0  0  0  0  0  0  0
   -3.2400    1.0636    1.7358 H   0  0  0  0  0  0  0  0  0  0  0  0
   -1.6970    0.4046    2.2923 H   0  0  0  0  0  0  0  0  0  0  0  0
   -2.3854    1.8384    3.0772 H   0  0  0  0  0  0  0  0  0  0  0  0
   -0.3283    0.6116   -0.2182 N   0  0  0  0  0  0  0  0  0  0  0  0
    0.0090   -0.1762   -1.3759 C   0  0  2  0  0  0  0  0  0  0  0  0
    0.8943   -1.3268   -0.9141 C   0  0  0  0  0  0  0  0  0  0  0  0
    0.9779   -1.6771    0.2613 O   0  0  0  0  0  0  0  0  0  0  0  0
    0.7129    0.6543   -2.4458 C   0  0  0  0  0  0  0  0  0  0  0  0
   -0.2298    1.6520   -3.0725 C   0  0  0  0  0  0  0  0  0  0  0  0
   -1.4379    1.4822   -3.1729 O   0  0  0  0  0  0  0  0  0  0  0  0
    0.4098    2.7562   -3.5313 O   0  0  0  0  0  0  0  0  0  0  0  0
    0.2381    0.4970    0.6194 H   0  0  0  0  0  0  0  0  0  0  0  0
   -0.9355   -0.5845   -1.7552 H   0  0  0  0  0  0  0  0  0  0  0  0
    1.5414    1.2321   -2.0171 H   0  0  0  0  0  0  0  0  0  0  0  0
    1.1610    0.0320   -3.2299 H   0  0  0  0  0  0  0  0  0  0  0  0
   -0.1697    3.4234   -3.9575 H   0  0  0  0  0  0  0  0  0  0  0  0
    1.5420   -1.9461   -1.9738 N   0  0  0  0  0  0  0  0  0  0  0  0
    2.4271   -3.0734   -1.7948 C   0  0  2  0  0  0  0  0  0  0  0  0
    1.5911   -4.2584   -1.3297 C   0  0  0  0  0  0  0  0  0  0  0  0
    0.4986   -4.1341   -0.7801 O   0  0  0  0  0  0  0  0  0  0  0  0
    3.5283   -2.7589   -0.7943 C   0  0  0  0  0  0  0  0  0  0  0  0
    1.3874   -1.5923   -2.9133 H   0  0  0  0  0  0  0  0  0  0  0  0
    2.8604   -3.2942   -2.7764 H   0  0  0  0  0  0  0  0  0  0  0  0
    3.1133   -2.5349    0.1952 H   0  0  0  0  0  0  0  0  0  0  0  0
    4.2149   -3.6043   -0.6811 H   0  0  0  0  0  0  0  0  0  0  0  0
    4.1097   -1.8880   -1.1156 H   0  0  0  0  0  0  0  0  0  0  0  0
    2.2281   -5.4695   -1.5616 N   0  0  0  0  0  0  0  0  0  0  0  0
    1.6445   -6.7395   -1.1977 C   0  0  0  0  0  0  0  0  0  0  0  0
    3.1241   -5.4792   -2.0400 H   0  0  0  0  0  0  0  0  0  0  0  0
    1.9845   -7.0250   -0.1913 H   0  0  0  0  0  0  0  0  0  0  0  0
    0.5478   -6.6541   -1.2036 H   0  0  0  0  0  0  0  0  0  0  0  0
    1.9564   -7.5070   -1.9214 H   0  0  0  0  0  0  0  0  0  0  0  0
  1  3  1  0  0  0  0
  1  7  1  0  0  0  0
  1  2  2  0  0  0  0
 31 32  1  0  0  0  0
 32 40  1  0  0  0  0
 32 33  2  0  0  0  0
  8  9  1  0  0  0  0
  9 17  1  0  0  0  0
  9 10  2  0  0  0  0
 18 19  1  0  0  0  0
 19 30  1  0  0  0  0
 19 20  2  0  0  0  0
 21 22  1  0  0  0  0
 22 23  2  0  0  0  0
 22 24  1  0  0  0  0
 31 34  1  0  0  0  0
  8 11  1  0  0  0  0
 40 41  1  0  0  0  0
 18 21  1  0  0  0  0
 30 31  1  0  0  0  0
  7  8  1  0  0  0  0
 17 18  1  0  0  0  0
  3  4  1  0  0  0  0
  3  5  1  0  0  0  0
  3  6  1  0  0  0  0
 34 37  1  0  0  0  0
 34 38  1  0  0  0  0
 34 39  1  0  0  0  0
 11 14  1  0  0  0  0
 11 15  1  0  0  0  0
 11 16  1  0  0  0  0
 41 43  1  0  0  0  0
 41 44  1  0  0  0  0
 41 45  1  0  0  0  0
 21 27  1  0  0  0  0
 21 28  1  0  0  0  0
 31 36  1  0  0  0  0
  8 13  1  0  0  0  0
 18 26  1  0  0  0  0
 40 42  1  0  0  0  0
  7 12  1  0  0  0  0
 30 35  1  0  0  0  0
 17 25  1  0  0  0  0
 24 29  1  0  0  0  0
M  END
$$$$

  -OEChem-05262214473D

 45 44  0     1  0  0  0  0  0999 V2000
   -2.2987    4.1032   -0.3022 C   0  0  0  0  0  0  0  0  0  0  0  0
   -1.8049    3.7117   -1.3532 O   0  0  0  0  0  0  0  0  0  0  0  0
   -3.0791    5.3755   -0.2846 C   0  0  0  0  0  0  0  0  0  0  0  0
   -2.4478    6.2532   -0.0717 H   0  0  0  0  0  0  0  0  0  0  0  0
   -3.5571    5.5891   -1.2541 H   0  0  0  0  0  0  0  0  0  0  0  0
   -3.8940    5.4184    0.4556 H   0  0  0  0  0  0  0  0  0  0  0  0
   -2.2137    3.4712    0.9275 N   0  0  0  0  0  0  0  0  0  0  0  0
   -1.5102    2.2327    1.1338 C   0  0  2  0  0  0  0  0  0  0  0  0
   -1.3539    1.5497   -0.2184 C   0  0  0  0  0  0  0  0  0  0  0  0
   -2.0852    1.7861   -1.1778 O   0  0  0  0  0  0  0  0  0  0  0  0
   -2.2477    1.3342    2.1145 C   0  0  0  0  0  0  0  0  0  0  0  0
   -2.6724    3.9052    1.7265 H   0  0  0  0  0  0  0  0  0  0  0  0
   -0.5220    2.4922    1.5290 H   0  0  0  0  0  0  0  0  0  0  0  0
   -3.2400    1.0636    1.7358 H   0  0  0  0  0  0  0  0  0  0  0  0
   -1.6970    0.4046    2.2923 H   0  0  0  0  0  0  0  0  0  0  0  0
   -2.3854    1.8384    3.0772 H   0  0  0  0  0  0  0  0  0  0  0  0
   -0.3283    0.6116   -0.2182 N   0  0  0  0  0  0  0  0  0  0  0  0
    0.0090   -0.1762   -1.3759 C   0  0  2  0  0  0  0  0  0  0  0  0
    0.8943   -1.3268   -0.9141 C   0  0  0  0  0  0  0  0  0  0  0  0
    0.7861   -1.8526    0.1919 O   0  0  0  0  0  0  0  0  0  0  0  0
    0.7129    0.6543   -2.4458 C   0  0  0  0  0  0  0  0  0  0  0  0
   -0.2298    1.6520   -3.0725 C   0  0  0  0  0  0  0  0  0  0  0  0
   -1.4379    1.4822   -3.1729 O   0  0  0  0  0  0  0  0  0  0  0  0
    0.4098    2.7562   -3.5313 O   0  0  0  0  0  0  0  0  0  0  0  0
    0.2381    0.4970    0.6194 H   0  0  0  0  0  0  0  0  0  0  0  0
   -0.9355   -0.5845   -1.7552 H   0  0  0  0  0  0  0  0  0  0  0  0
    1.5414    1.2321   -2.0171 H   0  0  0  0  0  0  0  0  0  0  0  0
    1.1610    0.0320   -3.2299 H   0  0  0  0  0  0  0  0  0  0  0  0
   -0.1697    3.4234   -3.9575 H   0  0  0  0  0  0  0  0  0  0  0  0
    1.7861   -1.7283   -1.8988 N   0  0  0  0  0  0  0  0  0  0  0  0
    2.7225   -2.8111   -1.7078 C   0  0  2  0  0  0  0  0  0  0  0  0
    1.9280   -4.1055   -1.5945 C   0  0  0  0  0  0  0  0  0  0  0  0
    0.7444   -4.1393   -1.2642 O   0  0  0  0  0  0  0  0  0  0  0  0
    3.5799   -2.5896   -0.4715 C   0  0  0  0  0  0  0  0  0  0  0  0
    1.7799   -1.2408   -2.7900 H   0  0  0  0  0  0  0  0  0  0  0  0
    3.3526   -2.8459   -2.6032 H   0  0  0  0  0  0  0  0  0  0  0  0
    2.9659   -2.5519    0.4357 H   0  0  0  0  0  0  0  0  0  0  0  0
    4.3085   -3.3970   -0.3441 H   0  0  0  0  0  0  0  0  0  0  0  0
    4.1278   -1.6437   -0.5416 H   0  0  0  0  0  0  0  0  0  0  0  0
    2.7076   -5.2217   -1.8636 N   0  0  0  0  0  0  0  0  0  0  0  0
    2.1869   -6.5678   -1.8097 C   0  0  0  0  0  0  0  0  0  0  0  0
    3.6750   -5.0987   -2.1480 H   0  0  0  0  0  0  0  0  0  0  0  0
    2.3552   -6.9867   -0.8066 H   0  0  0  0  0  0  0  0  0  0  0  0
    1.1081   -6.5523   -2.0242 H   0  0  0  0  0  0  0  0  0  0  0  0
    2.7006   -7.1897   -2.5576 H   0  0  0  0  0  0  0  0  0  0  0  0
  1  3  1  0  0  0  0
  1  7  1  0  0  0  0
  1  2  2  0  0  0  0
 31 32  1  0  0  0  0
 32 40  1  0  0  0  0
 32 33  2  0  0  0  0
  8  9  1  0  0  0  0
  9 17  1  0  0  0  0
  9 10  2  0  0  0  0
 18 19  1  0  0  0  0
 19 30  1  0  0  0  0
 19 20  2  0  0  0  0
 21 22  1  0  0  0  0
 22 23  2  0  0  0  0
 22 24  1  0  0  0  0
 31 34  1  0  0  0  0
  8 11  1  0  0  0  0
 40 41  1  0  0  0  0
 18 21  1  0  0  0  0
 30 31  1  0  0  0  0
  7  8  1  0  0  0  0
 17 18  1  0  0  0  0
  3  4  1  0  0  0  0
  3  5  1  0  0  0  0
  3  6  1  0  0  0  0
 34 37  1  0  0  0  0
 34 38  1  0  0  0  0
 34 39  1  0  0  0  0
 11 14  1  0  0  0  0
 11 15  1  0  0  0  0
 11 16  1  0  0  0  0
 41 43  1  0  0  0  0
 41 44  1  0  0  0  0
 41 45  1  0  0  0  0
 21 27  1  0  0  0  0
 21 28  1  0  0  0  0
 31 36  1  0  0  0  0
  8 13  1  0  0  0  0
 18 26  1  0  0  0  0
 40 42  1  0  0  0  0
  7 12  1  0  0  0  0
 30 35  1  0  0  0  0
 17 25  1  0  0  0  0
 24 29  1  0  0  0  0
M  END
$$$$

  -OEChem-05262214473D

 45 44  0     1  0  0  0  0  0999 V2000
   -2.2987    4.1032   -0.3022 C   0  0  0  0  0  0  0  0  0  0  0  0
   -1.8049    3.7117   -1.3532 O   0  0  0  0  0  0  0  0  0  0  0  0
   -3.0791    5.3755   -0.2846 C   0  0  0  0  0  0  0  0  0  0  0  0
   -2.4478    6.2532   -0.0717 H   0  0  0  0  0  0  0  0  0  0  0  0
   -3.5571    5.5891   -1.2541 H   0  0  0  0  0  0  0  0  0  0  0  0
   -3.8940    5.4184    0.4556 H   0  0  0  0  0  0  0  0  0  0  0  0
   -2.2137    3.4712    0.9275 N   0  0  0  0  0  0  0  0  0  0  0  0
   -1.5102    2.2327    1.1338 C   0  0  2  0  0  0  0  0  0  0  0  0
   -1.3539    1.5497   -0.2184 C   0  0  0  0  0  0  0  0  0  0  0  0
   -2.0852    1.7861   -1.1778 O   0  0  0  0  0  0  0  0  0  0  0  0
   -2.2477    1.3342    2.1145 C   0  0  0  0  0  0  0  0  0  0  0  0
   -2.6724    3.9052    1.7265 H   0  0  0  0  0  0  0  0  0  0  0  0
   -0.5220    2.4922    1.5290 H   0  0  0  0  0  0  0  0  0  0  0  0
   -3.2400    1.0636    1.7358 H   0  0  0  0  0  0  0  0  0  0  0  0
   -1.6970    0.4046    2.2923 H   0  0  0  0  0  0  0  0  0  0  0  0
   -2.3854    1.8384    3.0772 H   0  0  0  0  0  0  0  0  0  0  0  0
   -0.3283    0.6116   -0.2182 N   0  0  0  0  0  0  0  0  0  0  0  0
    0.0090   -0.1762   -1.3759 C   0  0  2  0  0  0  0  0  0  0  0  0
    0.8943   -1.3268   -0.9141 C   0  0  0  0  0  0  0  0  0  0  0  0
    0.6281   -2.0267    0.0609 O   0  0  0  0  0  0  0  0  0  0  0  0
    0.7129    0.6543   -2.4458 C   0  0  0  0  0  0  0  0  0  0  0  0
   -0.2298    1.6520   -3.0725 C   0  0  0  0  0  0  0  0  0  0  0  0
   -1.4379    1.4822   -3.1729 O   0  0  0  0  0  0  0  0  0  0  0  0
    0.4098    2.7562   -3.5313 O   0  0  0  0  0  0  0  0  0  0  0  0
    0.2381    0.4970    0.6194 H   0  0  0  0  0  0  0  0  0  0  0  0
   -0.9355   -0.5845   -1.7552 H   0  0  0  0  0  0  0  0  0  0  0  0
    1.5414    1.2321   -2.0171 H   0  0  0  0  0  0  0  0  0  0  0  0
    1.1610    0.0320   -3.2299 H   0  0  0  0  0  0  0  0  0  0  0  0
   -0.1697    3.4234   -3.9575 H   0  0  0  0  0  0  0  0  0  0  0  0
    1.9900   -1.5100   -1.7460 N   0  0  0  0  0  0  0  0  0  0  0  0
    2.9703   -2.5477   -1.5266 C   0  0  2  0  0  0  0  0  0  0  0  0
    2.2931   -3.8915   -1.7614 C   0  0  0  0  0  0  0  0  0  0  0  0
    1.0768   -4.0523   -1.6847 O   0  0  0  0  0  0  0  0  0  0  0  0
    3.5534   -2.4706   -0.1242 C   0  0  0  0  0  0  0  0  0  0  0  0
    2.1073   -0.8890   -2.5412 H   0  0  0  0  0  0  0  0  0  0  0  0
    3.7591   -2.4004   -2.2723 H   0  0  0  0  0  0  0  0  0  0  0  0
    2.7778   -2.6159    0.6366 H   0  0  0  0  0  0  0  0  0  0  0  0
    4.3169   -3.2401    0.0309 H   0  0  0  0  0  0  0  0  0  0  0  0
    4.0138   -1.4927    0.0532 H   0  0  0  0  0  0  0  0  0  0  0  0
    3.2104   -4.8993   -2.0243 N   0  0  0  0  0  0  0  0  0  0  0  0
    2.8170   -6.2673   -2.2689 C   0  0  0  0  0  0  0  0  0  0  0  0
    4.1983   -4.6717   -2.0875 H   0  0  0  0  0  0  0  0  0  0  0  0
    2.8306   -6.8281   -1.3227 H   0  0  0  0  0  0  0  0  0  0  0  0
    1.8018   -6.2866   -2.6919 H   0  0  0  0  0  0  0  0  0  0  0  0
    3.5189   -6.7292   -2.9788 H   0  0  0  0  0  0  0  0  0  0  0  0
  1  3  1  0  0  0  0
  1  7  1  0  0  0  0
  1  2  2  0  0  0  0
 31 32  1  0  0  0  0
 32 40  1  0  0  0  0
 32 33  2  0  0  0  0
  8  9  1  0  0  0  0
  9 17  1  0  0  0  0
  9 10  2  0  0  0  0
 18 19  1  0  0  0  0
 19 30  1  0  0  0  0
 19 20  2  0  0  0  0
 21 22  1  0  0  0  0
 22 23  2  0  0  0  0
 22 24  1  0  0  0  0
 31 34  1  0  0  0  0
  8 11  1  0  0  0  0
 40 41  1  0  0  0  0
 18 21  1  0  0  0  0
 30 31  1  0  0  0  0
  7  8  1  0  0  0  0
 17 18  1  0  0  0  0
  3  4  1  0  0  0  0
  3  5  1  0  0  0  0
  3  6  1  0  0  0  0
 34 37  1  0  0  0  0
 34 38  1  0  0  0  0
 34 39  1  0  0  0  0
 11 14  1  0  0  0  0
 11 15  1  0  0  0  0
 11 16  1  0  0  0  0
 41 43  1  0  0  0  0
 41 44  1  0  0  0  0
 41 45  1  0  0  0  0
 21 27  1  0  0  0  0
 21 28  1  0  0  0  0
 31 36  1  0  0  0  0
  8 13  1  0  0  0  0
 18 26  1  0  0  0  0
 40 42  1  0  0  0  0
  7 12  1  0  0  0  0
 30 35  1  0  0  0  0
 17 25  1  0  0  0  0
 24 29  1  0  0  0  0
M  END
$$$$

  -OEChem-05262214473D

 45 44  0     1  0  0  0  0  0999 V2000
   -2.2987    4.1032   -0.3022 C   0  0  0  0  0  0  0  0  0  0  0  0
   -1.8049    3.7117   -1.3532 O   0  0  0  0  0  0  0  0  0  0  0  0
   -3.0791    5.3755   -0.2846 C   0  0  0  0  0  0  0  0  0  0  0  0
   -2.4478    6.2532   -0.0717 H   0  0  0  0  0  0  0  0  0  0  0  0
   -3.5571    5.5891   -1.2541 H   0  0  0  0  0  0  0  0  0  0  0  0
   -3.8940    5.4184    0.4556 H   0  0  0  0  0  0  0  0  0  0  0  0
   -2.2137    3.4712    0.9275 N   0  0  0  0  0  0  0  0  0  0  0  0
   -1.5102    2.2327    1.1338 C   0  0  2  0  0  0  0  0  0  0  0  0
   -1.3539    1.5497   -0.2184 C   0  0  0  0  0  0  0  0  0  0  0  0
   -2.0852    1.7861   -1.1778 O   0  0  0  0  0  0  0  0  0  0  0  0
   -2.2477    1.3342    2.1145 C   0  0  0  0  0  0  0  0  0  0  0  0
   -2.6724    3.9052    1.7265 H   0  0  0  0  0  0  0  0  0  0  0  0
   -0.5220    2.4922    1.5290 H   0  0  0  0  0  0  0  0  0  0  0  0
   -3.2400    1.0636    1.7358 H   0  0  0  0  0  0  0  0  0  0  0  0
   -1.6970    0.4046    2.2923 H   0  0  0  0  0  0  0  0  0  0  0  0
   -2.3854    1.8384    3.0772 H   0  0  0  0  0  0  0  0  0  0  0  0
   -0.3283    0.6116   -0.2182 N   0  0  0  0  0  0  0  0  0  0  0  0
    0.0090   -0.1762   -1.3759 C   0  0  2  0  0  0  0  0  0  0  0  0
    0.8943   -1.3268   -0.9141 C   0  0  0  0  0  0  0  0  0  0  0  0
    0.5147   -2.1876   -0.1227 O   0  0  0  0  0  0  0  0  0  0  0  0
    0.7129    0.6543   -2.4458 C   0  0  0  0  0  0  0  0  0  0  0  0
   -0.2298    1.6520   -3.0725 C   0  0  0  0  0  0  0  0  0  0  0  0
   -1.4379    1.4822   -3.1729 O   0  0  0  0  0  0  0  0  0  0  0  0
    0.4098    2.7562   -3.5313 O   0  0  0  0  0  0  0  0  0  0  0  0
    0.2381    0.4970    0.6194 H   0  0  0  0  0  0  0  0  0  0  0  0
   -0.9355   -0.5845   -1.7552 H   0  0  0  0  0  0  0  0  0  0  0  0
    1.5414    1.2321   -2.0171 H   0  0  0  0  0  0  0  0  0  0  0  0
    1.1610    0.0320   -3.2299 H   0  0  0  0  0  0  0  0  0  0  0  0
   -0.1697    3.4234   -3.9575 H   0  0  0  0  0  0  0  0  0  0  0  0
    2.1400   -1.3061   -1.5256 N   0  0  0  0  0  0  0  0  0  0  0  0
    3.1535   -2.3011   -1.2635 C   0  0  2  0  0  0  0  0  0  0  0  0
    2.6617   -3.6311   -1.8191 C   0  0  0  0  0  0  0  0  0  0  0  0
    1.4733   -3.8789   -2.0127 O   0  0  0  0  0  0  0  0  0  0  0  0
    3.4506   -2.4099    0.2240 C   0  0  0  0  0  0  0  0  0  0  0  0
    2.3473   -0.5610   -2.1841 H   0  0  0  0  0  0  0  0  0  0  0  0
    4.0521   -1.9878   -1.8062 H   0  0  0  0  0  0  0  0  0  0  0  0
    2.5619   -2.7228    0.7843 H   0  0  0  0  0  0  0  0  0  0  0  0
    4.2393   -3.1442    0.4184 H   0  0  0  0  0  0  0  0  0  0  0  0
    3.7757   -1.4452    0.6281 H   0  0  0  0  0  0  0  0  0  0  0  0
    3.7022   -4.5243   -2.0327 N   0  0  0  0  0  0  0  0  0  0  0  0
    3.4918   -5.8585   -2.5441 C   0  0  0  0  0  0  0  0  0  0  0  0
    4.6586   -4.2273   -1.8625 H   0  0  0  0  0  0  0  0  0  0  0  0
    3.3782   -6.5600   -1.7044 H   0  0  0  0  0  0  0  0  0  0  0  0
    2.5814   -5.8752   -3.1613 H   0  0  0  0  0  0  0  0  0  0  0  0
    4.3555   -6.1568   -3.1566 H   0  0  0  0  0  0  0  0  0  0  0  0
  1  3  1  0  0  0  0
  1  7  1  0  0  0  0
  1  2  2  0  0  0  0
 31 32  1  0  0  0  0
 32 40  1  0  0  0  0
 32 33  2  0  0  0  0
  8  9  1  0  0  0  0
  9 17  1  0  0  0  0
  9 10  2  0  0  0  0
 18 19  1  0  0  0  0
 19 30  1  0  0  0  0
 19 20  2  0  0  0  0
 21 22  1  0  0  0  0
 22 23  2  0  0  0  0
 22 24  1  0  0  0  0
 31 34  1  0  0  0  0
  8 11  1  0  0  0  0
 40 41  1  0  0  0  0
 18 21  1  0  0  0  0
 30 31  1  0  0  0  0
  7  8  1  0  0  0  0
 17 18  1  0  0  0  0
  3  4  1  0  0  0  0
  3  5  1  0  0  0  0
  3  6  1  0  0  0  0
 34 37  1  0  0  0  0
 34 38  1  0  0  0  0
 34 39  1  0  0  0  0
 11 14  1  0  0  0  0
 11 15  1  0  0  0  0
 11 16  1  0  0  0  0
 41 43  1  0  0  0  0
 41 44  1  0  0  0  0
 41 45  1  0  0  0  0
 21 27  1  0  0  0  0
 21 28  1  0  0  0  0
 31 36  1  0  0  0  0
  8 13  1  0  0  0  0
 18 26  1  0  0  0  0
 40 42  1  0  0  0  0
  7 12  1  0  0  0  0
 30 35  1  0  0  0  0
 17 25  1  0  0  0  0
 24 29  1  0  0  0  0
M  END
$$$$

  -OEChem-05262214473D

 45 44  0     1  0  0  0  0  0999 V2000
   -2.2987    4.1032   -0.3022 C   0  0  0  0  0  0  0  0  0  0  0  0
   -1.8049    3.7117   -1.3532 O   0  0  0  0  0  0  0  0  0  0  0  0
   -3.0791    5.3755   -0.2846 C   0  0  0  0  0  0  0  0  0  0  0  0
   -2.4478    6.2532   -0.0717 H   0  0  0  0  0  0  0  0  0  0  0  0
   -3.5571    5.5891   -1.2541 H   0  0  0  0  0  0  0  0  0  0  0  0
   -3.8940    5.4184    0.4556 H   0  0  0  0  0  0  0  0  0  0  0  0
   -2.2137    3.4712    0.9275 N   0  0  0  0  0  0  0  0  0  0  0  0
   -1.5102    2.2327    1.1338 C   0  0  2  0  0  0  0  0  0  0  0  0
   -1.3539    1.5497   -0.2184 C   0  0  0  0  0  0  0  0  0  0  0  0
   -2.0852    1.7861   -1.1778 O   0  0  0  0  0  0  0  0  0  0  0  0
   -2.2477    1.3342    2.1145 C   0  0  0  0  0  0  0  0  0  0  0  0
   -2.6724    3.9052    1.7265 H   0  0  0  0  0  0  0  0  0  0  0  0
   -0.5220    2.4922    1.5290 H   0  0  0  0  0  0  0  0  0  0  0  0
   -3.2400    1.0636    1.7358 H   0  0  0  0  0  0  0  0  0  0  0  0
   -1.6970    0.4046    2.2923 H   0  0  0  0  0  0  0  0  0  0  0  0
   -2.3854    1.8384    3.0772 H   0  0  0  0  0  0  0  0  0  0  0  0
   -0.3283    0.6116   -0.2182 N   0  0  0  0  0  0  0  0  0  0  0  0
    0.0090   -0.1762   -1.3759 C   0  0  2  0  0  0  0  0  0  0  0  0
    0.8943   -1.3268   -0.9141 C   0  0  0  0  0  0  0  0  0  0  0  0
    0.4538   -2.3243   -0.3465 O   0  0  0  0  0  0  0  0  0  0  0  0
    0.7129    0.6543   -2.4458 C   0  0  0  0  0  0  0  0  0  0  0  0
   -0.2298    1.6520   -3.0725 C   0  0  0  0  0  0  0  0  0  0  0  0
   -1.4379    1.4822   -3.1729 O   0  0  0  0  0  0  0  0  0  0  0  0
    0.4098    2.7562   -3.5313 O   0  0  0  0  0  0  0  0  0  0  0  0
    0.2381    0.4970    0.6194 H   0  0  0  0  0  0  0  0  0  0  0  0
   -0.9355   -0.5845   -1.7552 H   0  0  0  0  0  0  0  0  0  0  0  0
    1.5414    1.2321   -2.0171 H   0  0  0  0  0  0  0  0  0  0  0  0
    1.1610    0.0320   -3.2299 H   0  0  0  0  0  0  0  0  0  0  0  0
   -0.1697    3.4234   -3.9575 H   0  0  0  0  0  0  0  0  0  0  0  0
    2.2258   -1.1306   -1.2527 N   0  0  0  0  0  0  0  0  0  0  0  0
    3.2598   -2.0881   -0.9364 C   0  0  2  0  0  0  0  0  0  0  0  0
    3.0085   -3.3420   -1.7636 C   0  0  0  0  0  0  0  0  0  0  0  0
    1.9068   -3.6309   -2.2260 O   0  0  0  0  0  0  0  0  0  0  0  0
    3.2784   -2.4118    0.5494 C   0  0  0  0  0  0  0  0  0  0  0  0
    2.4836   -0.2790   -1.7428 H   0  0  0  0  0  0  0  0  0  0  0  0
    4.2116   -1.6365   -1.2366 H   0  0  0  0  0  0  0  0  0  0  0  0
    2.3329   -2.8651    0.8687 H   0  0  0  0  0  0  0  0  0  0  0  0
    4.0811   -3.1160    0.7920 H   0  0  0  0  0  0  0  0  0  0  0  0
    3.4295   -1.5045    1.1441 H   0  0  0  0  0  0  0  0  0  0  0  0
    4.1495   -4.1222   -1.8883 N   0  0  0  0  0  0  0  0  0  0  0  0
    4.1654   -5.3694   -2.6166 C   0  0  0  0  0  0  0  0  0  0  0  0
    5.0243   -3.7958   -1.4884 H   0  0  0  0  0  0  0  0  0  0  0  0
    3.9607   -6.2006   -1.9258 H   0  0  0  0  0  0  0  0  0  0  0  0
    3.3940   -5.3459   -3.4005 H   0  0  0  0  0  0  0  0  0  0  0  0
    5.1535   -5.5115   -3.0786 H   0  0  0  0  0  0  0  0  0  0  0  0
  1  3  1  0  0  0  0
  1  7  1  0  0  0  0
  1  2  2  0  0  0  0
 31 32  1  0  0  0  0
 32 40  1  0  0  0  0
 32 33  2  0  0  0  0
  8  9  1  0  0  0  0
  9 17  1  0  0  0  0
  9 10  2  0  0  0  0
 18 19  1  0  0  0  0
 19 30  1  0  0  0  0
 19 20  2  0  0  0  0
 21 22  1  0  0  0  0
 22 23  2  0  0  0  0
 22 24  1  0  0  0  0
 31 34  1  0  0  0  0
  8 11  1  0  0  0  0
 40 41  1  0  0  0  0
 18 21  1  0  0  0  0
 30 31  1  0  0  0  0
  7  8  1  0  0  0  0
 17 18  1  0  0  0  0
  3  4  1  0  0  0  0
  3  5  1  0  0  0  0
  3  6  1  0  0  0  0
 34 37  1  0  0  0  0
 34 38  1  0  0  0  0
 34 39  1  0  0  0  0
 11 14  1  0  0  0  0
 11 15  1  0  0  0  0
 11 16  1  0  0  0  0
 41 43  1  0  0  0  0
 41 44  1  0  0  0  0
 41 45  1  0  0  0  0
 21 27  1  0  0  0  0
 21 28  1  0  0  0  0
 31 36  1  0  0  0  0
  8 13  1  0  0  0  0
 18 26  1  0  0  0  0
 40 42  1  0  0  0  0
  7 12  1  0  0  0  0
 30 35  1  0  0  0  0
 17 25  1  0  0  0  0
 24 29  1  0  0  0  0
M  END
$$$$

  -OEChem-05262214473D

 45 44  0     1  0  0  0  0  0999 V2000
   -2.2987    4.1032   -0.3022 C   0  0  0  0  0  0  0  0  0  0  0  0
   -1.8049    3.7117   -1.3532 O   0  0  0  0  0  0  0  0  0  0  0  0
   -3.0791    5.3755   -0.2846 C   0  0  0  0  0  0  0  0  0  0  0  0
   -2.4478    6.2532   -0.0717 H   0  0  0  0  0  0  0  0  0  0  0  0
   -3.5571    5.5891   -1.2541 H   0  0  0  0  0  0  0  0  0  0  0  0
   -3.8940    5.4184    0.4556 H   0  0  0  0  0  0  0  0  0  0  0  0
   -2.2137    3.4712    0.9275 N   0  0  0  0  0  0  0  0  0  0  0  0
   -1.5102    2.2327    1.1338 C   0  0  2  0  0  0  0  0  0  0  0  0
   -1.3539    1.5497   -0.2184 C   0  0  0  0  0  0  0  0  0  0  0  0
   -2.0852    1.7861   -1.1778 O   0  0  0  0  0  0  0  0  0  0  0  0
   -2.2477    1.3342    2.1145 C   0  0  0  0  0  0  0  0  0  0  0  0
   -2.6724    3.9052    1.7265 H   0  0  0  0  0  0  0  0  0  0  0  0
   -0.5220    2.4922    1.5290 H   0  0  0  0  0  0  0  0  0  0  0  0
   -3.2400    1.0636    1.7358 H   0  0  0  0  0  0  0  0  0  0  0  0
   -1.6970    0.4046    2.2923 H   0  0  0  0  0  0  0  0  0  0  0  0
   -2.3854    1.8384    3.0772 H   0  0  0  0  0  0  0  0  0  0  0  0
   -0.3283    0.6116   -0.2182 N   0  0  0  0  0  0  0  0  0  0  0  0
    0.0090   -0.1762   -1.3759 C   0  0  2  0  0  0  0  0  0  0  0  0
    0.8943   -1.3268   -0.9141 C   0  0  0  0  0  0  0  0  0  0  0  0
    0.4493   -2.4275   -0.5950 O   0  0  0  0  0  0  0  0  0  0  0  0
    0.7129    0.6543   -2.4458 C   0  0  0  0  0  0  0  0  0  0  0  0
   -0.2298    1.6520   -3.0725 C   0  0  0  0  0  0  0  0  0  0  0  0
   -1.4379    1.4822   -3.1729 O   0  0  0  0  0  0  0  0  0  0  0  0
    0.4098    2.7562   -3.5313 O   0  0  0  0  0  0  0  0  0  0  0  0
    0.2381    0.4970    0.6194 H   0  0  0  0  0  0  0  0  0  0  0  0
   -0.9355   -0.5845   -1.7552 H   0  0  0  0  0  0  0  0  0  0  0  0
    1.5414    1.2321   -2.0171 H   0  0  0  0  0  0  0  0  0  0  0  0
    1.1610    0.0320   -3.2299 H   0  0  0  0  0  0  0  0  0  0  0  0
   -0.1697    3.4234   -3.9575 H   0  0  0  0  0  0  0  0  0  0  0  0
    2.2416   -0.9953   -0.9460 N   0  0  0  0  0  0  0  0  0  0  0  0
    3.2817   -1.9232   -0.5677 C   0  0  2  0  0  0  0  0  0  0  0  0
    3.3100   -3.0438   -1.5987 C   0  0  0  0  0  0  0  0  0  0  0  0
    2.3478   -3.3253   -2.3100 O   0  0  0  0  0  0  0  0  0  0  0  0
    3.0487   -2.4761    0.8297 C   0  0  0  0  0  0  0  0  0  0  0  0
    2.5069   -0.0623   -1.2475 H   0  0  0  0  0  0  0  0  0  0  0  0
    4.2268   -1.3703   -0.6024 H   0  0  0  0  0  0  0  0  0  0  0  0
    2.1063   -3.0333    0.8840 H   0  0  0  0  0  0  0  0  0  0  0  0
    3.8530   -3.1574    1.1261 H   0  0  0  0  0  0  0  0  0  0  0  0
    2.9989   -1.6665    1.5658 H   0  0  0  0  0  0  0  0  0  0  0  0
    4.5217   -3.7205   -1.6010 N   0  0  0  0  0  0  0  0  0  0  0  0
    4.7917   -4.8331   -2.4814 C   0  0  0  0  0  0  0  0  0  0  0  0
    5.2705   -3.4065   -0.9906 H   0  0  0  0  0  0  0  0  0  0  0  0
    4.5385   -5.7745   -1.9717 H   0  0  0  0  0  0  0  0  0  0  0  0
    4.1841   -4.7350   -3.3931 H   0  0  0  0  0  0  0  0  0  0  0  0
    5.8584   -4.8373   -2.7502 H   0  0  0  0  0  0  0  0  0  0  0  0
  1  3  1  0  0  0  0
  1  7  1  0  0  0  0
  1  2  2  0  0  0  0
 31 32  1  0  0  0  0
 32 40  1  0  0  0  0
 32 33  2  0  0  0  0
  8  9  1  0  0  0  0
  9 17  1  0  0  0  0
  9 10  2  0  0  0  0
 18 19  1  0  0  0  0
 19 30  1  0  0  0  0
 19 20  2  0  0  0  0
 21 22  1  0  0  0  0
 22 23  2  0  0  0  0
 22 24  1  0  0  0  0
 31 34  1  0  0  0  0
  8 11  1  0  0  0  0
 40 41  1  0  0  0  0
 18 21  1  0  0  0  0
 30 31  1  0  0  0  0
  7  8  1  0  0  0  0
 17 18  1  0  0  0  0
  3  4  1  0  0  0  0
  3  5  1  0  0  0  0
  3  6  1  0  0  0  0
 34 37  1  0  0  0  0
 34 38  1  0  0  0  0
 34 39  1  0  0  0  0
 11 14  1  0  0  0  0
 11 15  1  0  0  0  0
 11 16  1  0  0  0  0
 41 43  1  0  0  0  0
 41 44  1  0  0  0  0
 41 45  1  0  0  0  0
 21 27  1  0  0  0  0
 21 28  1  0  0  0  0
 31 36  1  0  0  0  0
  8 13  1  0  0  0  0
 18 26  1  0  0  0  0
 40 42  1  0  0  0  0
  7 12  1  0  0  0  0
 30 35  1  0  0  0  0
 17 25  1  0  0  0  0
 24 29  1  0  0  0  0
M  END
$$$$

  -OEChem-05262214473D

 45 44  0     1  0  0  0  0  0999 V2000
   -2.2987    4.1032   -0.3022 C   0  0  0  0  0  0  0  0  0  0  0  0
   -1.8049    3.7117   -1.3532 O   0  0  0  0  0  0  0  0  0  0  0  0
   -3.0791    5.3755   -0.2846 C   0  0  0  0  0  0  0  0  0  0  0  0
   -2.4478    6.2532   -0.0717 H   0  0  0  0  0  0  0  0  0  0  0  0
   -3.5571    5.5891   -1.2541 H   0  0  0  0  0  0  0  0  0  0  0  0
   -3.8940    5.4184    0.4556 H   0  0  0  0  0  0  0  0  0  0  0  0
   -2.2137    3.4712    0.9275 N   0  0  0  0  0  0  0  0  0  0  0  0
   -1.5102    2.2327    1.1338 C   0  0  2  0  0  0  0  0  0  0  0  0
   -1.3539    1.5497   -0.2184 C   0  0  0  0  0  0  0  0  0  0  0  0
   -2.0852    1.7861   -1.1778 O   0  0  0  0  0  0  0  0  0  0  0  0
   -2.2477    1.3342    2.1145 C   0  0  0  0  0  0  0  0  0  0  0  0
   -2.6724    3.9052    1.7265 H   0  0  0  0  0  0  0  0  0  0  0  0
   -0.5220    2.4922    1.5290 H   0  0  0  0  0  0  0  0  0  0  0  0
   -3.2400    1.0636    1.7358 H   0  0  0  0  0  0  0  0  0  0  0  0
   -1.6970    0.4046    2.2923 H   0  0  0  0  0  0  0  0  0  0  0  0
   -2.3854    1.8384    3.0772 H   0  0  0  0  0  0  0  0  0  0  0  0
   -0.3283    0.6116   -0.2182 N   0  0  0  0  0  0  0  0  0  0  0  0
    0.0090   -0.1762   -1.3759 C   0  0  2  0  0  0  0  0  0  0  0  0
    0.8943   -1.3268   -0.9141 C   0  0  0  0  0  0  0  0  0  0  0  0
    0.5017   -2.4901   -0.8515 O   0  0  0  0  0  0  0  0  0  0  0  0
    0.7129    0.6543   -2.4458 C   0  0  0  0  0  0  0  0  0  0  0  0
   -0.2298    1.6520   -3.0725 C   0  0  0  0  0  0  0  0  0  0  0  0
   -1.4379    1.4822   -3.1729 O   0  0  0  0  0  0  0  0  0  0  0  0
    0.4098    2.7562   -3.5313 O   0  0  0  0  0  0  0  0  0  0  0  0
    0.2381    0.4970    0.6194 H   0  0  0  0  0  0  0  0  0  0  0  0
   -0.9355   -0.5845   -1.7552 H   0  0  0  0  0  0  0  0  0  0  0  0
    1.5414    1.2321   -2.0171 H   0  0  0  0  0  0  0  0  0  0  0  0
    1.1610    0.0320   -3.2299 H   0  0  0  0  0  0  0  0  0  0  0  0
   -0.1697    3.4234   -3.9575 H   0  0  0  0  0  0  0  0  0  0  0  0
    2.1863   -0.9096   -0.6263 N   0  0  0  0  0  0  0  0  0  0  0  0
    3.2179   -1.8177   -0.1825 C   0  0  2  0  0  0  0  0  0  0  0  0
    3.5456   -2.7570   -1.3357 C   0  0  0  0  0  0  0  0  0  0  0  0
    2.7661   -2.9830   -2.2589 O   0  0  0  0  0  0  0  0  0  0  0  0
    2.7770   -2.5983    1.0459 C   0  0  0  0  0  0  0  0  0  0  0  0
    2.4156    0.0743   -0.7320 H   0  0  0  0  0  0  0  0  0  0  0  0
    4.0966   -1.2074    0.0532 H   0  0  0  0  0  0  0  0  0  0  0  0
    1.8977   -3.2158    0.8292 H   0  0  0  0  0  0  0  0  0  0  0  0
    3.5707   -3.2655    1.3980 H   0  0  0  0  0  0  0  0  0  0  0  0
    2.5133   -1.9202    1.8647 H   0  0  0  0  0  0  0  0  0  0  0  0
    4.7936   -3.3464   -1.1902 N   0  0  0  0  0  0  0  0  0  0  0  0
    5.3283   -4.2864   -2.1476 C   0  0  0  0  0  0  0  0  0  0  0  0
    5.3805   -3.0861   -0.4031 H   0  0  0  0  0  0  0  0  0  0  0  0
    5.0721   -5.3106   -1.8390 H   0  0  0  0  0  0  0  0  0  0  0  0
    4.8980   -4.0840   -3.1395 H   0  0  0  0  0  0  0  0  0  0  0  0
    6.4222   -4.1802   -2.1939 H   0  0  0  0  0  0  0  0  0  0  0  0
  1  3  1  0  0  0  0
  1  7  1  0  0  0  0
  1  2  2  0  0  0  0
 31 32  1  0  0  0  0
 32 40  1  0  0  0  0
 32 33  2  0  0  0  0
  8  9  1  0  0  0  0
  9 17  1  0  0  0  0
  9 10  2  0  0  0  0
 18 19  1  0  0  0  0
 19 30  1  0  0  0  0
 19 20  2  0  0  0  0
 21 22  1  0  0  0  0
 22 23  2  0  0  0  0
 22 24  1  0  0  0  0
 31 34  1  0  0  0  0
  8 11  1  0  0  0  0
 40 41  1  0  0  0  0
 18 21  1  0  0  0  0
 30 31  1  0  0  0  0
  7  8  1  0  0  0  0
 17 18  1  0  0  0  0
  3  4  1  0  0  0  0
  3  5  1  0  0  0  0
  3  6  1  0  0  0  0
 34 37  1  0  0  0  0
 34 38  1  0  0  0  0
 34 39  1  0  0  0  0
 11 14  1  0  0  0  0
 11 15  1  0  0  0  0
 11 16  1  0  0  0  0
 41 43  1  0  0  0  0
 41 44  1  0  0  0  0
 41 45  1  0  0  0  0
 21 27  1  0  0  0  0
 21 28  1  0  0  0  0
 31 36  1  0  0  0  0
  8 13  1  0  0  0  0
 18 26  1  0  0  0  0
 40 42  1  0  0  0  0
  7 12  1  0  0  0  0
 30 35  1  0  0  0  0
 17 25  1  0  0  0  0
 24 29  1  0  0  0  0
M  END
$$$$

  -OEChem-05262214473D

 45 44  0     1  0  0  0  0  0999 V2000
   -2.2987    4.1032   -0.3022 C   0  0  0  0  0  0  0  0  0  0  0  0
   -1.8049    3.7117   -1.3532 O   0  0  0  0  0  0  0  0  0  0  0  0
   -3.0791    5.3755   -0.2846 C   0  0  0  0  0  0  0  0  0  0  0  0
   -2.4478    6.2532   -0.0717 H   0  0  0  0  0  0  0  0  0  0  0  0
   -3.5571    5.5891   -1.2541 H   0  0  0  0  0  0  0  0  0  0  0  0
   -3.8940    5.4184    0.4556 H   0  0  0  0  0  0  0  0  0  0  0  0
   -2.2137    3.4712    0.9275 N   0  0  0  0  0  0  0  0  0  0  0  0
   -1.5102    2.2327    1.1338 C   0  0  2  0  0  0  0  0  0  0  0  0
   -1.3539    1.5497   -0.2184 C   0  0  0  0  0  0  0  0  0  0  0  0
   -2.0852    1.7861   -1.1778 O   0  0  0  0  0  0  0  0  0  0  0  0
   -2.2477    1.3342    2.1145 C   0  0  0  0  0  0  0  0  0  0  0  0
   -2.6724    3.9052    1.7265 H   0  0  0  0  0  0  0  0  0  0  0  0
   -0.5220    2.4922    1.5290 H   0  0  0  0  0  0  0  0  0  0  0  0
   -3.2400    1.0636    1.7358 H   0  0  0  0  0  0  0  0  0  0  0  0
   -1.6970    0.4046    2.2923 H   0  0  0  0  0  0  0  0  0  0  0  0
   -2.3854    1.8384    3.0772 H   0  0  0  0  0  0  0  0  0  0  0  0
   -0.3283    0.6116   -0.2182 N   0  0  0  0  0  0  0  0  0  0  0  0
    0.0090   -0.1762   -1.3759 C   0  0  2  0  0  0  0  0  0  0  0  0
    0.8943   -1.3268   -0.9141 C   0  0  0  0  0  0  0  0  0  0  0  0
    0.6074   -2.5079   -1.0984 O   0  0  0  0  0  0  0  0  0  0  0  0
    0.7129    0.6543   -2.4458 C   0  0  0  0  0  0  0  0  0  0  0  0
   -0.2298    1.6520   -3.0725 C   0  0  0  0  0  0  0  0  0  0  0  0
   -1.4379    1.4822   -3.1729 O   0  0  0  0  0  0  0  0  0  0  0  0
    0.4098    2.7562   -3.5313 O   0  0  0  0  0  0  0  0  0  0  0  0
    0.2381    0.4970    0.6194 H   0  0  0  0  0  0  0  0  0  0  0  0
   -0.9355   -0.5845   -1.7552 H   0  0  0  0  0  0  0  0  0  0  0  0
    1.5414    1.2321   -2.0171 H   0  0  0  0  0  0  0  0  0  0  0  0
    1.1610    0.0320   -3.2299 H   0  0  0  0  0  0  0  0  0  0  0  0
   -0.1697    3.4234   -3.9575 H   0  0  0  0  0  0  0  0  0  0  0  0
    2.0636   -0.8792   -0.3153 N   0  0  0  0  0  0  0  0  0  0  0  0
    3.0727   -1.7787    0.1931 C   0  0  2  0  0  0  0  0  0  0  0  0
    3.6992   -2.5010   -0.9924 C   0  0  0  0  0  0  0  0  0  0  0  0
    3.1334   -2.6271   -2.0764 O   0  0  0  0  0  0  0  0  0  0  0  0
    2.4819   -2.7702    1.1833 C   0  0  0  0  0  0  0  0  0  0  0  0
    2.2159    0.1216   -0.2313 H   0  0  0  0  0  0  0  0  0  0  0  0
    3.8299   -1.1588    0.6854 H   0  0  0  0  0  0  0  0  0  0  0  0
    1.7212   -3.4002    0.7080 H   0  0  0  0  0  0  0  0  0  0  0  0
    3.2533   -3.4329    1.5893 H   0  0  0  0  0  0  0  0  0  0  0  0
    2.0057   -2.2483    2.0203 H   0  0  0  0  0  0  0  0  0  0  0  0
    4.9466   -3.0255   -0.6841 N   0  0  0  0  0  0  0  0  0  0  0  0
    5.7384   -3.7663   -1.6382 C   0  0  0  0  0  0  0  0  0  0  0  0
    5.3468   -2.8563    0.2341 H   0  0  0  0  0  0  0  0  0  0  0  0
    5.5252   -4.8407   -1.5368 H   0  0  0  0  0  0  0  0  0  0  0  0
    5.4868   -3.4373   -2.6572 H   0  0  0  0  0  0  0  0  0  0  0  0
    6.8064   -3.5850   -1.4475 H   0  0  0  0  0  0  0  0  0  0  0  0
  1  3  1  0  0  0  0
  1  7  1  0  0  0  0
  1  2  2  0  0  0  0
 31 32  1  0  0  0  0
 32 40  1  0  0  0  0
 32 33  2  0  0  0  0
  8  9  1  0  0  0  0
  9 17  1  0  0  0  0
  9 10  2  0  0  0  0
 18 19  1  0  0  0  0
 19 30  1  0  0  0  0
 19 20  2  0  0  0  0
 21 22  1  0  0  0  0
 22 23  2  0  0  0  0
 22 24  1  0  0  0  0
 31 34  1  0  0  0  0
  8 11  1  0  0  0  0
 40 41  1  0  0  0  0
 18 21  1  0  0  0  0
 30 31  1  0  0  0  0
  7  8  1  0  0  0  0
 17 18  1  0  0  0  0
  3  4  1  0  0  0  0
  3  5  1  0  0  0  0
  3  6  1  0  0  0  0
 34 37  1  0  0  0  0
 34 38  1  0  0  0  0
 34 39  1  0  0  0  0
 11 14  1  0  0  0  0
 11 15  1  0  0  0  0
 11 16  1  0  0  0  0
 41 43  1  0  0  0  0
 41 44  1  0  0  0  0
 41 45  1  0  0  0  0
 21 27  1  0  0  0  0
 21 28  1  0  0  0  0
 31 36  1  0  0  0  0
  8 13  1  0  0  0  0
 18 26  1  0  0  0  0
 40 42  1  0  0  0  0
  7 12  1  0  0  0  0
 30 35  1  0  0  0  0
 17 25  1  0  0  0  0
 24 29  1  0  0  0  0
M  END
$$$$

  -OEChem-05262214473D

 45 44  0     1  0  0  0  0  0999 V2000
   -2.2987    4.1032   -0.3022 C   0  0  0  0  0  0  0  0  0  0  0  0
   -1.8049    3.7117   -1.3532 O   0  0  0  0  0  0  0  0  0  0  0  0
   -3.0791    5.3755   -0.2846 C   0  0  0  0  0  0  0  0  0  0  0  0
   -2.4478    6.2532   -0.0717 H   0  0  0  0  0  0  0  0  0  0  0  0
   -3.5571    5.5891   -1.2541 H   0  0  0  0  0  0  0  0  0  0  0  0
   -3.8940    5.4184    0.4556 H   0  0  0  0  0  0  0  0  0  0  0  0
   -2.2137    3.4712    0.9275 N   0  0  0  0  0  0  0  0  0  0  0  0
   -1.5102    2.2327    1.1338 C   0  0  2  0  0  0  0  0  0  0  0  0
   -1.3539    1.5497   -0.2184 C   0  0  0  0  0  0  0  0  0  0  0  0
   -2.0852    1.7861   -1.1778 O   0  0  0  0  0  0  0  0  0  0  0  0
   -2.2477    1.3342    2.1145 C   0  0  0  0  0  0  0  0  0  0  0  0
   -2.6724    3.9052    1.7265 H   0  0  0  0  0  0  0  0  0  0  0  0
   -0.5220    2.4922    1.5290 H   0  0  0  0  0  0  0  0  0  0  0  0
   -3.2400    1.0636    1.7358 H   0  0  0  0  0  0  0  0  0  0  0  0
   -1.6970    0.4046    2.2923 H   0  0  0  0  0  0  0  0  0  0  0  0
   -2.3854    1.8384    3.0772 H   0  0  0  0  0  0  0  0  0  0  0  0
   -0.3283    0.6116   -0.2182 N   0  0  0  0  0  0  0  0  0  0  0  0
    0.0090   -0.1762   -1.3759 C   0  0  2  0  0  0  0  0  0  0  0  0
    0.8943   -1.3268   -0.9141 C   0  0  0  0  0  0  0  0  0  0  0  0
    0.7591   -2.4797   -1.3189 O   0  0  0  0  0  0  0  0  0  0  0  0
    0.7129    0.6543   -2.4458 C   0  0  0  0  0  0  0  0  0  0  0  0
   -0.2298    1.6520   -3.0725 C   0  0  0  0  0  0  0  0  0  0  0  0
   -1.4379    1.4822   -3.1729 O   0  0  0  0  0  0  0  0  0  0  0  0
    0.4098    2.7562   -3.5313 O   0  0  0  0  0  0  0  0  0  0  0  0
    0.2381    0.4970    0.6194 H   0  0  0  0  0  0  0  0  0  0  0  0
   -0.9355   -0.5845   -1.7552 H   0  0  0  0  0  0  0  0  0  0  0  0
    1.5414    1.2321   -2.0171 H   0  0  0  0  0  0  0  0  0  0  0  0
    1.1610    0.0320   -3.2299 H   0  0  0  0  0  0  0  0  0  0  0  0
   -0.1697    3.4234   -3.9575 H   0  0  0  0  0  0  0  0  0  0  0  0
    1.8820   -0.9062   -0.0344 N   0  0  0  0  0  0  0  0  0  0  0  0
    2.8560   -1.8089    0.5333 C   0  0  2  0  0  0  0  0  0  0  0  0
    3.7605   -2.2933   -0.5923 C   0  0  0  0  0  0  0  0  0  0  0  0
    3.4246   -2.2820   -1.7747 O   0  0  0  0  0  0  0  0  0  0  0  0
    2.1836   -2.9801    1.2324 C   0  0  0  0  0  0  0  0  0  0  0  0
    1.9214    0.0763    0.2204 H   0  0  0  0  0  0  0  0  0  0  0  0
    3.4449   -1.2279    1.2514 H   0  0  0  0  0  0  0  0  0  0  0  0
    1.5889   -3.5740    0.5288 H   0  0  0  0  0  0  0  0  0  0  0  0
    2.9225   -3.6483    1.6868 H   0  0  0  0  0  0  0  0  0  0  0  0
    1.5107   -2.6285    2.0220 H   0  0  0  0  0  0  0  0  0  0  0  0
    4.9703   -2.7797   -0.1170 N   0  0  0  0  0  0  0  0  0  0  0  0
    5.9941   -3.3085   -0.9877 C   0  0  0  0  0  0  0  0  0  0  0  0
    5.1716   -2.7328    0.8775 H   0  0  0  0  0  0  0  0  0  0  0  0
    5.8669   -4.3967   -1.0856 H   0  0  0  0  0  0  0  0  0  0  0  0
    5.9106   -2.8390   -1.9790 H   0  0  0  0  0  0  0  0  0  0  0  0
    6.9850   -3.0921   -0.5618 H   0  0  0  0  0  0  0  0  0  0  0  0
  1  3  1  0  0  0  0
  1  7  1  0  0  0  0
  1  2  2  0  0  0  0
 31 32  1  0  0  0  0
 32 40  1  0  0  0  0
 32 33  2  0  0  0  0
  8  9  1  0  0  0  0
  9 17  1  0  0  0  0
  9 10  2  0  0  0  0
 18 19  1  0  0  0  0
 19 30  1  0  0  0  0
 19 20  2  0  0  0  0
 21 22  1  0  0  0  0
 22 23  2  0  0  0  0
 22 24  1  0  0  0  0
 31 34  1  0  0  0  0
  8 11  1  0  0  0  0
 40 41  1  0  0  0  0
 18 21  1  0  0  0  0
 30 31  1  0  0  0  0
  7  8  1  0  0  0  0
 17 18  1  0  0  0  0
  3  4  1  0  0  0  0
  3  5  1  0  0  0  0
  3  6  1  0  0  0  0
 34 37  1  0  0  0  0
 34 38  1  0  0  0  0
 34 39  1  0  0  0  0
 11 14  1  0  0  0  0
 11 15  1  0  0  0  0
 11 16  1  0  0  0  0
 41 43  1  0  0  0  0
 41 44  1  0  0  0  0
 41 45  1  0  0  0  0
 21 27  1  0  0  0  0
 21 28  1  0  0  0  0
 31 36  1  0  0  0  0
  8 13  1  0  0  0  0
 18 26  1  0  0  0  0
 40 42  1  0  0  0  0
  7 12  1  0  0  0  0
 30 35  1  0  0  0  0
 17 25  1  0  0  0  0
 24 29  1  0  0  0  0
M  END
$$$$

  -OEChem-05262214473D

 45 44  0     1  0  0  0  0  0999 V2000
   -2.2987    4.1032   -0.3022 C   0  0  0  0  0  0  0  0  0  0  0  0
   -1.8049    3.7117   -1.3532 O   0  0  0  0  0  0  0  0  0  0  0  0
   -3.0791    5.3755   -0.2846 C   0  0  0  0  0  0  0  0  0  0  0  0
   -2.4478    6.2532   -0.0717 H   0  0  0  0  0  0  0  0  0  0  0  0
   -3.5571    5.5891   -1.2541 H   0  0  0  0  0  0  0  0  0  0  0  0
   -3.8940    5.4184    0.4556 H   0  0  0  0  0  0  0  0  0  0  0  0
   -2.2137    3.4712    0.9275 N   0  0  0  0  0  0  0  0  0  0  0  0
   -1.5102    2.2327    1.1338 C   0  0  2  0  0  0  0  0  0  0  0  0
   -1.3539    1.5497   -0.2184 C   0  0  0  0  0  0  0  0  0  0  0  0
   -2.0852    1.7861   -1.1778 O   0  0  0  0  0  0  0  0  0  0  0  0
   -2.2477    1.3342    2.1145 C   0  0  0  0  0  0  0  0  0  0  0  0
   -2.6724    3.9052    1.7265 H   0  0  0  0  0  0  0  0  0  0  0  0
   -0.5220    2.4922    1.5290 H   0  0  0  0  0  0  0  0  0  0  0  0
   -3.2400    1.0636    1.7358 H   0  0  0  0  0  0  0  0  0  0  0  0
   -1.6970    0.4046    2.2923 H   0  0  0  0  0  0  0  0  0  0  0  0
   -2.3854    1.8384    3.0772 H   0  0  0  0  0  0  0  0  0  0  0  0
   -0.3283    0.6116   -0.2182 N   0  0  0  0  0  0  0  0  0  0  0  0
    0.0090   -0.1762   -1.3759 C   0  0  2  0  0  0  0  0  0  0  0  0
    0.8943   -1.3268   -0.9141 C   0  0  0  0  0  0  0  0  0  0  0  0
    0.9466   -2.4073   -1.4981 O   0  0  0  0  0  0  0  0  0  0  0  0
    0.7129    0.6543   -2.4458 C   0  0  0  0  0  0  0  0  0  0  0  0
   -0.2298    1.6520   -3.0725 C   0  0  0  0  0  0  0  0  0  0  0  0
   -1.4379    1.4822   -3.1729 O   0  0  0  0  0  0  0  0  0  0  0  0
    0.4098    2.7562   -3.5313 O   0  0  0  0  0  0  0  0  0  0  0  0
    0.2381    0.4970    0.6194 H   0  0  0  0  0  0  0  0  0  0  0  0
   -0.9355   -0.5845   -1.7552 H   0  0  0  0  0  0  0  0  0  0  0  0
    1.5414    1.2321   -2.0171 H   0  0  0  0  0  0  0  0  0  0  0  0
    1.1610    0.0320   -3.2299 H   0  0  0  0  0  0  0  0  0  0  0  0
   -0.1697    3.4234   -3.9575 H   0  0  0  0  0  0  0  0  0  0  0  0
    1.6537   -0.9888    0.1973 N   0  0  0  0  0  0  0  0  0  0  0  0
    2.5826   -1.9062    0.8150 C   0  0  2  0  0  0  0  0  0  0  0  0
    3.7251   -2.1480   -0.1626 C   0  0  0  0  0  0  0  0  0  0  0  0
    3.6197   -1.9712   -1.3745 O   0  0  0  0  0  0  0  0  0  0  0  0
    1.9022   -3.2136    1.1900 C   0  0  0  0  0  0  0  0  0  0  0  0
    1.5522   -0.0585    0.5923 H   0  0  0  0  0  0  0  0  0  0  0  0
    2.9678   -1.4100    1.7124 H   0  0  0  0  0  0  0  0  0  0  0  0
    1.5098   -3.7253    0.3036 H   0  0  0  0  0  0  0  0  0  0  0  0
    2.6008   -3.8970    1.6839 H   0  0  0  0  0  0  0  0  0  0  0  0
    1.0621   -3.0348    1.8697 H   0  0  0  0  0  0  0  0  0  0  0  0
    4.8630   -2.6257    0.4724 N   0  0  0  0  0  0  0  0  0  0  0  0
    6.0781   -2.9440   -0.2405 C   0  0  0  0  0  0  0  0  0  0  0  0
    4.8670   -2.7241    1.4834 H   0  0  0  0  0  0  0  0  0  0  0  0
    6.0739   -4.0088   -0.5162 H   0  0  0  0  0  0  0  0  0  0  0  0
    6.1404   -2.3299   -1.1510 H   0  0  0  0  0  0  0  0  0  0  0  0
    6.9457   -2.7352    0.4027 H   0  0  0  0  0  0  0  0  0  0  0  0
  1  3  1  0  0  0  0
  1  7  1  0  0  0  0
  1  2  2  0  0  0  0
 31 32  1  0  0  0  0
 32 40  1  0  0  0  0
 32 33  2  0  0  0  0
  8  9  1  0  0  0  0
  9 17  1  0  0  0  0
  9 10  2  0  0  0  0
 18 19  1  0  0  0  0
 19 30  1  0  0  0  0
 19 20  2  0  0  0  0
 21 22  1  0  0  0  0
 22 23  2  0  0  0  0
 22 24  1  0  0  0  0
 31 34  1  0  0  0  0
  8 11  1  0  0  0  0
 40 41  1  0  0  0  0
 18 21  1  0  0  0  0
 30 31  1  0  0  0  0
  7  8  1  0  0  0  0
 17 18  1  0  0  0  0
  3  4  1  0  0  0  0
  3  5  1  0  0  0  0
  3  6  1  0  0  0  0
 34 37  1  0  0  0  0
 34 38  1  0  0  0  0
 34 39  1  0  0  0  0
 11 14  1  0  0  0  0
 11 15  1  0  0  0  0
 11 16  1  0  0  0  0
 41 43  1  0  0  0  0
 41 44  1  0  0  0  0
 41 45  1  0  0  0  0
 21 27  1  0  0  0  0
 21 28  1  0  0  0  0
 31 36  1  0  0  0  0
  8 13  1  0  0  0  0
 18 26  1  0  0  0  0
 40 42  1  0  0  0  0
  7 12  1  0  0  0  0
 30 35  1  0  0  0  0
 17 25  1  0  0  0  0
 24 29  1  0  0  0  0
M  END
$$$$

  -OEChem-05262214473D

 45 44  0     1  0  0  0  0  0999 V2000
   -2.2987    4.1032   -0.3022 C   0  0  0  0  0  0  0  0  0  0  0  0
   -1.8049    3.7117   -1.3532 O   0  0  0  0  0  0  0  0  0  0  0  0
   -3.0791    5.3755   -0.2846 C   0  0  0  0  0  0  0  0  0  0  0  0
   -2.4478    6.2532   -0.0717 H   0  0  0  0  0  0  0  0  0  0  0  0
   -3.5571    5.5891   -1.2541 H   0  0  0  0  0  0  0  0  0  0  0  0
   -3.8940    5.4184    0.4556 H   0  0  0  0  0  0  0  0  0  0  0  0
   -2.2137    3.4712    0.9275 N   0  0  0  0  0  0  0  0  0  0  0  0
   -1.5102    2.2327    1.1338 C   0  0  2  0  0  0  0  0  0  0  0  0
   -1.3539    1.5497   -0.2184 C   0  0  0  0  0  0  0  0  0  0  0  0
   -2.0852    1.7861   -1.1778 O   0  0  0  0  0  0  0  0  0  0  0  0
   -2.2477    1.3342    2.1145 C   0  0  0  0  0  0  0  0  0  0  0  0
   -2.6724    3.9052    1.7265 H   0  0  0  0  0  0  0  0  0  0  0  0
   -0.5220    2.4922    1.5290 H   0  0  0  0  0  0  0  0  0  0  0  0
   -3.2400    1.0636    1.7358 H   0  0  0  0  0  0  0  0  0  0  0  0
   -1.6970    0.4046    2.2923 H   0  0  0  0  0  0  0  0  0  0  0  0
   -2.3854    1.8384    3.0772 H   0  0  0  0  0  0  0  0  0  0  0  0
   -0.3283    0.6116   -0.2182 N   0  0  0  0  0  0  0  0  0  0  0  0
    0.0090   -0.1762   -1.3759 C   0  0  2  0  0  0  0  0  0  0  0  0
    0.8943   -1.3268   -0.9141 C   0  0  0  0  0  0  0  0  0  0  0  0
    1.1570   -2.2958   -1.6235 O   0  0  0  0  0  0  0  0  0  0  0  0
    0.7129    0.6543   -2.4458 C   0  0  0  0  0  0  0  0  0  0  0  0
   -0.2298    1.6520   -3.0725 C   0  0  0  0  0  0  0  0  0  0  0  0
   -1.4379    1.4822   -3.1729 O   0  0  0  0  0  0  0  0  0  0  0  0
    0.4098    2.7562   -3.5313 O   0  0  0  0  0  0  0  0  0  0  0  0
    0.2381    0.4970    0.6194 H   0  0  0  0  0  0  0  0  0  0  0  0
   -0.9355   -0.5845   -1.7552 H   0  0  0  0  0  0  0  0  0  0  0  0
    1.5414    1.2321   -2.0171 H   0  0  0  0  0  0  0  0  0  0  0  0
    1.1610    0.0320   -3.2299 H   0  0  0  0  0  0  0  0  0  0  0  0
   -0.1697    3.4234   -3.9575 H   0  0  0  0  0  0  0  0  0  0  0  0
    1.3944   -1.1213    0.3641 N   0  0  0  0  0  0  0  0  0  0  0  0
    2.2710   -2.0641    1.0190 C   0  0  2  0  0  0  0  0  0  0  0  0
    3.5955   -2.0751    0.2674 C   0  0  0  0  0  0  0  0  0  0  0  0
    3.7057   -1.7158   -0.9030 O   0  0  0  0  0  0  0  0  0  0  0  0
    1.6570   -3.4549    1.0589 C   0  0  0  0  0  0  0  0  0  0  0  0
    1.1335   -0.2736    0.8591 H   0  0  0  0  0  0  0  0  0  0  0  0
    2.4311   -1.6926    2.0370 H   0  0  0  0  0  0  0  0  0  0  0  0
    1.4892   -3.8437    0.0479 H   0  0  0  0  0  0  0  0  0  0  0  0
    2.3101   -4.1621    1.5808 H   0  0  0  0  0  0  0  0  0  0  0  0
    0.6904   -3.4395    1.5738 H   0  0  0  0  0  0  0  0  0  0  0  0
    4.6320   -2.5741    1.0438 N   0  0  0  0  0  0  0  0  0  0  0  0
    5.9845   -2.6977    0.5525 C   0  0  0  0  0  0  0  0  0  0  0  0
    4.4536   -2.8306    2.0103 H   0  0  0  0  0  0  0  0  0  0  0  0
    6.1322   -3.7036    0.1326 H   0  0  0  0  0  0  0  0  0  0  0  0
    6.1606   -1.9446   -0.2297 H   0  0  0  0  0  0  0  0  0  0  0  0
    6.6912   -2.5387    1.3803 H   0  0  0  0  0  0  0  0  0  0  0  0
  1  3  1  0  0  0  0
  1  7  1  0  0  0  0
  1  2  2  0  0  0  0
 31 32  1  0  0  0  0
 32 40  1  0  0  0  0
 32 33  2  0  0  0  0
  8  9  1  0  0  0  0
  9 17  1  0  0  0  0
  9 10  2  0  0  0  0
 18 19  1  0  0  0  0
 19 30  1  0  0  0  0
 19 20  2  0  0  0  0
 21 22  1  0  0  0  0
 22 23  2  0  0  0  0
 22 24  1  0  0  0  0
 31 34  1  0  0  0  0
  8 11  1  0  0  0  0
 40 41  1  0  0  0  0
 18 21  1  0  0  0  0
 30 31  1  0  0  0  0
  7  8  1  0  0  0  0
 17 18  1  0  0  0  0
  3  4  1  0  0  0  0
  3  5  1  0  0  0  0
  3  6  1  0  0  0  0
 34 37  1  0  0  0  0
 34 38  1  0  0  0  0
 34 39  1  0  0  0  0
 11 14  1  0  0  0  0
 11 15  1  0  0  0  0
 11 16  1  0  0  0  0
 41 43  1  0  0  0  0
 41 44  1  0  0  0  0
 41 45  1  0  0  0  0
 21 27  1  0  0  0  0
 21 28  1  0  0  0  0
 31 36  1  0  0  0  0
  8 13  1  0  0  0  0
 18 26  1  0  0  0  0
 40 42  1  0  0  0  0
  7 12  1  0  0  0  0
 30 35  1  0  0  0  0
 17 25  1  0  0  0  0
 24 29  1  0  0  0  0
M  END
$$$$

  -OEChem-05262214473D

 45 44  0     1  0  0  0  0  0999 V2000
   -2.2987    4.1032   -0.3022 C   0  0  0  0  0  0  0  0  0  0  0  0
   -1.8049    3.7117   -1.3532 O   0  0  0  0  0  0  0  0  0  0  0  0
   -3.0791    5.3755   -0.2846 C   0  0  0  0  0  0  0  0  0  0  0  0
   -2.4478    6.2532   -0.0717 H   0  0  0  0  0  0  0  0  0  0  0  0
   -3.5571    5.5891   -1.2541 H   0  0  0  0  0  0  0  0  0  0  0  0
   -3.8940    5.4184    0.4556 H   0  0  0  0  0  0  0  0  0  0  0  0
   -2.2137    3.4712    0.9275 N   0  0  0  0  0  0  0  0  0  0  0  0
   -1.5102    2.2327    1.1338 C   0  0  2  0  0  0  0  0  0  0  0  0
   -1.3539    1.5497   -0.2184 C   0  0  0  0  0  0  0  0  0  0  0  0
   -2.0852    1.7861   -1.1778 O   0  0  0  0  0  0  0  0  0  0  0  0
   -2.2477    1.3342    2.1145 C   0  0  0  0  0  0  0  0  0  0  0  0
   -2.6724    3.9052    1.7265 H   0  0  0  0  0  0  0  0  0  0  0  0
   -0.5220    2.4922    1.5290 H   0  0  0  0  0  0  0  0  0  0  0  0
   -3.2400    1.0636    1.7358 H   0  0  0  0  0  0  0  0  0  0  0  0
   -1.6970    0.4046    2.2923 H   0  0  0  0  0  0  0  0  0  0  0  0
   -2.3854    1.8384    3.0772 H   0  0  0  0  0  0  0  0  0  0  0  0
   -0.3283    0.6116   -0.2182 N   0  0  0  0  0  0  0  0  0  0  0  0
    0.0090   -0.1762   -1.3759 C   0  0  2  0  0  0  0  0  0  0  0  0
    0.8943   -1.3268   -0.9141 C   0  0  0  0  0  0  0  0  0  0  0  0
    1.3760   -2.1527   -1.6868 O   0  0  0  0  0  0  0  0  0  0  0  0
    0.7129    0.6543   -2.4458 C   0  0  0  0  0  0  0  0  0  0  0  0
   -0.2298    1.6520   -3.0725 C   0  0  0  0  0  0  0  0  0  0  0  0
   -1.4379    1.4822   -3.1729 O   0  0  0  0  0  0  0  0  0  0  0  0
    0.4098    2.7562   -3.5313 O   0  0  0  0  0  0  0  0  0  0  0  0
    0.2381    0.4970    0.6194 H   0  0  0  0  0  0  0  0  0  0  0  0
   -0.9355   -0.5845   -1.7552 H   0  0  0  0  0  0  0  0  0  0  0  0
    1.5414    1.2321   -2.0171 H   0  0  0  0  0  0  0  0  0  0  0  0
    1.1610    0.0320   -3.2299 H   0  0  0  0  0  0  0  0  0  0  0  0
   -0.1697    3.4234   -3.9575 H   0  0  0  0  0  0  0  0  0  0  0  0
    1.1218   -1.2948    0.4547 N   0  0  0  0  0  0  0  0  0  0  0  0
    1.9425   -2.2717    1.1314 C   0  0  2  0  0  0  0  0  0  0  0  0
    3.3806   -2.0796    0.6684 C   0  0  0  0  0  0  0  0  0  0  0  0
    3.6765   -1.5334   -0.3924 O   0  0  0  0  0  0  0  0  0  0  0  0
    1.4648   -3.6874    0.8480 C   0  0  0  0  0  0  0  0  0  0  0  0
    0.6937   -0.5543    1.0026 H   0  0  0  0  0  0  0  0  0  0  0  0
    1.8715   -2.0565    2.2032 H   0  0  0  0  0  0  0  0  0  0  0  0
    1.5286   -3.9213   -0.2209 H   0  0  0  0  0  0  0  0  0  0  0  0
    2.0703   -4.4253    1.3845 H   0  0  0  0  0  0  0  0  0  0  0  0
    0.4210   -3.8152    1.1544 H   0  0  0  0  0  0  0  0  0  0  0  0
    4.2932   -2.6282    1.5585 N   0  0  0  0  0  0  0  0  0  0  0  0
    5.7198   -2.5864    1.3372 C   0  0  0  0  0  0  0  0  0  0  0  0
    3.9596   -3.0453    2.4225 H   0  0  0  0  0  0  0  0  0  0  0  0
    6.0377   -3.5018    0.8166 H   0  0  0  0  0  0  0  0  0  0  0  0
    5.9698   -1.7094    0.7221 H   0  0  0  0  0  0  0  0  0  0  0  0
    6.2389   -2.5158    2.3044 H   0  0  0  0  0  0  0  0  0  0  0  0
  1  3  1  0  0  0  0
  1  7  1  0  0  0  0
  1  2  2  0  0  0  0
 31 32  1  0  0  0  0
 32 40  1  0  0  0  0
 32 33  2  0  0  0  0
  8  9  1  0  0  0  0
  9 17  1  0  0  0  0
  9 10  2  0  0  0  0
 18 19  1  0  0  0  0
 19 30  1  0  0  0  0
 19 20  2  0  0  0  0
 21 22  1  0  0  0  0
 22 23  2  0  0  0  0
 22 24  1  0  0  0  0
 31 34  1  0  0  0  0
  8 11  1  0  0  0  0
 40 41  1  0  0  0  0
 18 21  1  0  0  0  0
 30 31  1  0  0  0  0
  7  8  1  0  0  0  0
 17 18  1  0  0  0  0
  3  4  1  0  0  0  0
  3  5  1  0  0  0  0
  3  6  1  0  0  0  0
 34 37  1  0  0  0  0
 34 38  1  0  0  0  0
 34 39  1  0  0  0  0
 11 14  1  0  0  0  0
 11 15  1  0  0  0  0
 11 16  1  0  0  0  0
 41 43  1  0  0  0  0
 41 44  1  0  0  0  0
 41 45  1  0  0  0  0
 21 27  1  0  0  0  0
 21 28  1  0  0  0  0
 31 36  1  0  0  0  0
  8 13  1  0  0  0  0
 18 26  1  0  0  0  0
 40 42  1  0  0  0  0
  7 12  1  0  0  0  0
 30 35  1  0  0  0  0
 17 25  1  0  0  0  0
 24 29  1  0  0  0  0
M  END
$$$$

  -OEChem-05262214473D

 45 44  0     1  0  0  0  0  0999 V2000
   -2.2987    4.1032   -0.3022 C   0  0  0  0  0  0  0  0  0  0  0  0
   -1.8049    3.7117   -1.3532 O   0  0  0  0  0  0  0  0  0  0  0  0
   -3.0791    5.3755   -0.2846 C   0  0  0  0  0  0  0  0  0  0  0  0
   -2.4478    6.2532   -0.0717 H   0  0  0  0  0  0  0  0  0  0  0  0
   -3.5571    5.5891   -1.2541 H   0  0  0  0  0  0  0  0  0  0  0  0
   -3.8940    5.4184    0.4556 H   0  0  0  0  0  0  0  0  0  0  0  0
   -2.2137    3.4712    0.9275 N   0  0  0  0  0  0  0  0  0  0  0  0
   -1.5102    2.2327    1.1338 C   0  0  2  0  0  0  0  0  0  0  0  0
   -1.3539    1.5497   -0.2184 C   0  0  0  0  0  0  0  0  0  0  0  0
   -2.0852    1.7861   -1.1778 O   0  0  0  0  0  0  0  0  0  0  0  0
   -2.2477    1.3342    2.1145 C   0  0  0  0  0  0  0  0  0  0  0  0
   -2.6724    3.9052    1.7265 H   0  0  0  0  0  0  0  0  0  0  0  0
   -0.5220    2.4922    1.5290 H   0  0  0  0  0  0  0  0  0  0  0  0
   -3.2400    1.0636    1.7358 H   0  0  0  0  0  0  0  0  0  0  0  0
   -1.6970    0.4046    2.2923 H   0  0  0  0  0  0  0  0  0  0  0  0
   -2.3854    1.8384    3.0772 H   0  0  0  0  0  0  0  0  0  0  0  0
   -0.3283    0.6116   -0.2182 N   0  0  0  0  0  0  0  0  0  0  0  0
    0.0090   -0.1762   -1.3759 C   0  0  2  0  0  0  0  0  0  0  0  0
    0.8943   -1.3268   -0.9141 C   0  0  0  0  0  0  0  0  0  0  0  0
    1.5887   -1.9878   -1.6836 O   0  0  0  0  0  0  0  0  0  0  0  0
    0.7129    0.6543   -2.4458 C   0  0  0  0  0  0  0  0  0  0  0  0
   -0.2298    1.6520   -3.0725 C   0  0  0  0  0  0  0  0  0  0  0  0
   -1.4379    1.4822   -3.1729 O   0  0  0  0  0  0  0  0  0  0  0  0
    0.4098    2.7562   -3.5313 O   0  0  0  0  0  0  0  0  0  0  0  0
    0.2381    0.4970    0.6194 H   0  0  0  0  0  0  0  0  0  0  0  0
   -0.9355   -0.5845   -1.7552 H   0  0  0  0  0  0  0  0  0  0  0  0
    1.5414    1.2321   -2.0171 H   0  0  0  0  0  0  0  0  0  0  0  0
    1.1610    0.0320   -3.2299 H   0  0  0  0  0  0  0  0  0  0  0  0
   -0.1697    3.4234   -3.9575 H   0  0  0  0  0  0  0  0  0  0  0  0
    0.8543   -1.4974    0.4627 N   0  0  0  0  0  0  0  0  0  0  0  0
    1.6196   -2.5149    1.1446 C   0  0  2  0  0  0  0  0  0  0  0  0
    3.0950   -2.1610    1.0130 C   0  0  0  0  0  0  0  0  0  0  0  0
    3.5341   -1.4362    0.1225 O   0  0  0  0  0  0  0  0  0  0  0  0
    1.3386   -3.8954    0.5718 C   0  0  0  0  0  0  0  0  0  0  0  0
    0.2629   -0.8816    1.0131 H   0  0  0  0  0  0  0  0  0  0  0  0
    1.3270   -2.4769    2.1995 H   0  0  0  0  0  0  0  0  0  0  0  0
    1.6253   -3.9527   -0.4846 H   0  0  0  0  0  0  0  0  0  0  0  0
    1.8977   -4.6690    1.1085 H   0  0  0  0  0  0  0  0  0  0  0  0
    0.2721   -4.1360    0.6402 H   0  0  0  0  0  0  0  0  0  0  0  0
    3.8696   -2.7845    1.9812 N   0  0  0  0  0  0  0  0  0  0  0  0
    5.3021   -2.6177    2.0601 C   0  0  0  0  0  0  0  0  0  0  0  0
    3.4188   -3.3533    2.6918 H   0  0  0  0  0  0  0  0  0  0  0  0
    5.7968   -3.4172    1.4892 H   0  0  0  0  0  0  0  0  0  0  0  0
    5.5810   -1.6403    1.6395 H   0  0  0  0  0  0  0  0  0  0  0  0
    5.6195   -2.6682    3.1121 H   0  0  0  0  0  0  0  0  0  0  0  0
  1  3  1  0  0  0  0
  1  7  1  0  0  0  0
  1  2  2  0  0  0  0
 31 32  1  0  0  0  0
 32 40  1  0  0  0  0
 32 33  2  0  0  0  0
  8  9  1  0  0  0  0
  9 17  1  0  0  0  0
  9 10  2  0  0  0  0
 18 19  1  0  0  0  0
 19 30  1  0  0  0  0
 19 20  2  0  0  0  0
 21 22  1  0  0  0  0
 22 23  2  0  0  0  0
 22 24  1  0  0  0  0
 31 34  1  0  0  0  0
  8 11  1  0  0  0  0
 40 41  1  0  0  0  0
 18 21  1  0  0  0  0
 30 31  1  0  0  0  0
  7  8  1  0  0  0  0
 17 18  1  0  0  0  0
  3  4  1  0  0  0  0
  3  5  1  0  0  0  0
  3  6  1  0  0  0  0
 34 37  1  0  0  0  0
 34 38  1  0  0  0  0
 34 39  1  0  0  0  0
 11 14  1  0  0  0  0
 11 15  1  0  0  0  0
 11 16  1  0  0  0  0
 41 43  1  0  0  0  0
 41 44  1  0  0  0  0
 41 45  1  0  0  0  0
 21 27  1  0  0  0  0
 21 28  1  0  0  0  0
 31 36  1  0  0  0  0
  8 13  1  0  0  0  0
 18 26  1  0  0  0  0
 40 42  1  0  0  0  0
  7 12  1  0  0  0  0
 30 35  1  0  0  0  0
 17 25  1  0  0  0  0
 24 29  1  0  0  0  0
M  END
$$$$

  -OEChem-05262214473D

 45 44  0     1  0  0  0  0  0999 V2000
   -2.2987    4.1032   -0.3022 C   0  0  0  0  0  0  0  0  0  0  0  0
   -1.8049    3.7117   -1.3532 O   0  0  0  0  0  0  0  0  0  0  0  0
   -3.0791    5.3755   -0.2846 C   0  0  0  0  0  0  0  0  0  0  0  0
   -2.4478    6.2532   -0.0717 H   0  0  0  0  0  0  0  0  0  0  0  0
   -3.5571    5.5891   -1.2541 H   0  0  0  0  0  0  0  0  0  0  0  0
   -3.8940    5.4184    0.4556 H   0  0  0  0  0  0  0  0  0  0  0  0
   -2.2137    3.4712    0.9275 N   0  0  0  0  0  0  0  0  0  0  0  0
   -1.5102    2.2327    1.1338 C   0  0  2  0  0  0  0  0  0  0  0  0
   -1.3539    1.5497   -0.2184 C   0  0  0  0  0  0  0  0  0  0  0  0
   -2.0852    1.7861   -1.1778 O   0  0  0  0  0  0  0  0  0  0  0  0
   -2.2477    1.3342    2.1145 C   0  0  0  0  0  0  0  0  0  0  0  0
   -2.6724    3.9052    1.7265 H   0  0  0  0  0  0  0  0  0  0  0  0
   -0.5220    2.4922    1.5290 H   0  0  0  0  0  0  0  0  0  0  0  0
   -3.2400    1.0636    1.7358 H   0  0  0  0  0  0  0  0  0  0  0  0
   -1.6970    0.4046    2.2923 H   0  0  0  0  0  0  0  0  0  0  0  0
   -2.3854    1.8384    3.0772 H   0  0  0  0  0  0  0  0  0  0  0  0
   -0.3283    0.6116   -0.2182 N   0  0  0  0  0  0  0  0  0  0  0  0
    0.0090   -0.1762   -1.3759 C   0  0  2  0  0  0  0  0  0  0  0  0
    0.8943   -1.3268   -0.9141 C   0  0  0  0  0  0  0  0  0  0  0  0
    1.7806   -1.8122   -1.6142 O   0  0  0  0  0  0  0  0  0  0  0  0
    0.7129    0.6543   -2.4458 C   0  0  0  0  0  0  0  0  0  0  0  0
   -0.2298    1.6520   -3.0725 C   0  0  0  0  0  0  0  0  0  0  0  0
   -1.4379    1.4822   -3.1729 O   0  0  0  0  0  0  0  0  0  0  0  0
    0.4098    2.7562   -3.5313 O   0  0  0  0  0  0  0  0  0  0  0  0
    0.2381    0.4970    0.6194 H   0  0  0  0  0  0  0  0  0  0  0  0
   -0.9355   -0.5845   -1.7552 H   0  0  0  0  0  0  0  0  0  0  0  0
    1.5414    1.2321   -2.0171 H   0  0  0  0  0  0  0  0  0  0  0  0
    1.1610    0.0320   -3.2299 H   0  0  0  0  0  0  0  0  0  0  0  0
   -0.1697    3.4234   -3.9575 H   0  0  0  0  0  0  0  0  0  0  0  0
    0.6103   -1.7152    0.3877 N   0  0  0  0  0  0  0  0  0  0  0  0
    1.3241   -2.7772    1.0575 C   0  0  2  0  0  0  0  0  0  0  0  0
    2.7581   -2.3139    1.2778 C   0  0  0  0  0  0  0  0  0  0  0  0
    3.2884   -1.4310    0.6067 O   0  0  0  0  0  0  0  0  0  0  0  0
    1.2869   -4.0647    0.2491 C   0  0  0  0  0  0  0  0  0  0  0  0
   -0.1296   -1.2331    0.8897 H   0  0  0  0  0  0  0  0  0  0  0  0
    0.8347   -2.9252    2.0263 H   0  0  0  0  0  0  0  0  0  0  0  0
    1.7727   -3.9358   -0.7250 H   0  0  0  0  0  0  0  0  0  0  0  0
    1.8040   -4.8763    0.7715 H   0  0  0  0  0  0  0  0  0  0  0  0
    0.2541   -4.3803    0.0662 H   0  0  0  0  0  0  0  0  0  0  0  0
    3.3900   -3.0323    2.2832 N   0  0  0  0  0  0  0  0  0  0  0  0
    4.7596   -2.7894    2.6721 C   0  0  0  0  0  0  0  0  0  0  0  0
    2.8679   -3.7338    2.7999 H   0  0  0  0  0  0  0  0  0  0  0  0
    5.4261   -3.4555    2.1045 H   0  0  0  0  0  0  0  0  0  0  0  0
    5.0207   -1.7421    2.4600 H   0  0  0  0  0  0  0  0  0  0  0  0
    4.8753   -2.9855    3.7483 H   0  0  0  0  0  0  0  0  0  0  0  0
  1  3  1  0  0  0  0
  1  7  1  0  0  0  0
  1  2  2  0  0  0  0
 31 32  1  0  0  0  0
 32 40  1  0  0  0  0
 32 33  2  0  0  0  0
  8  9  1  0  0  0  0
  9 17  1  0  0  0  0
  9 10  2  0  0  0  0
 18 19  1  0  0  0  0
 19 30  1  0  0  0  0
 19 20  2  0  0  0  0
 21 22  1  0  0  0  0
 22 23  2  0  0  0  0
 22 24  1  0  0  0  0
 31 34  1  0  0  0  0
  8 11  1  0  0  0  0
 40 41  1  0  0  0  0
 18 21  1  0  0  0  0
 30 31  1  0  0  0  0
  7  8  1  0  0  0  0
 17 18  1  0  0  0  0
  3  4  1  0  0  0  0
  3  5  1  0  0  0  0
  3  6  1  0  0  0  0
 34 37  1  0  0  0  0
 34 38  1  0  0  0  0
 34 39  1  0  0  0  0
 11 14  1  0  0  0  0
 11 15  1  0  0  0  0
 11 16  1  0  0  0  0
 41 43  1  0  0  0  0
 41 44  1  0  0  0  0
 41 45  1  0  0  0  0
 21 27  1  0  0  0  0
 21 28  1  0  0  0  0
 31 36  1  0  0  0  0
  8 13  1  0  0  0  0
 18 26  1  0  0  0  0
 40 42  1  0  0  0  0
  7 12  1  0  0  0  0
 30 35  1  0  0  0  0
 17 25  1  0  0  0  0
 24 29  1  0  0  0  0
M  END
$$$$

  -OEChem-05262214473D

 45 44  0     1  0  0  0  0  0999 V2000
   -2.2987    4.1032   -0.3022 C   0  0  0  0  0  0  0  0  0  0  0  0
   -1.8049    3.7117   -1.3532 O   0  0  0  0  0  0  0  0  0  0  0  0
   -3.0791    5.3755   -0.2846 C   0  0  0  0  0  0  0  0  0  0  0  0
   -2.4478    6.2532   -0.0717 H   0  0  0  0  0  0  0  0  0  0  0  0
   -3.5571    5.5891   -1.2541 H   0  0  0  0  0  0  0  0  0  0  0  0
   -3.8940    5.4184    0.4556 H   0  0  0  0  0  0  0  0  0  0  0  0
   -2.2137    3.4712    0.9275 N   0  0  0  0  0  0  0  0  0  0  0  0
   -1.5102    2.2327    1.1338 C   0  0  2  0  0  0  0  0  0  0  0  0
   -1.3539    1.5497   -0.2184 C   0  0  0  0  0  0  0  0  0  0  0  0
   -2.0852    1.7861   -1.1778 O   0  0  0  0  0  0  0  0  0  0  0  0
   -2.2477    1.3342    2.1145 C   0  0  0  0  0  0  0  0  0  0  0  0
   -2.6724    3.9052    1.7265 H   0  0  0  0  0  0  0  0  0  0  0  0
   -0.5220    2.4922    1.5290 H   0  0  0  0  0  0  0  0  0  0  0  0
   -3.2400    1.0636    1.7358 H   0  0  0  0  0  0  0  0  0  0  0  0
   -1.6970    0.4046    2.2923 H   0  0  0  0  0  0  0  0  0  0  0  0
   -2.3854    1.8384    3.0772 H   0  0  0  0  0  0  0  0  0  0  0  0
   -0.3283    0.6116   -0.2182 N   0  0  0  0  0  0  0  0  0  0  0  0
    0.0090   -0.1762   -1.3759 C   0  0  2  0  0  0  0  0  0  0  0  0
    0.8943   -1.3268   -0.9141 C   0  0  0  0  0  0  0  0  0  0  0  0
    1.9386   -1.6381   -1.4832 O   0  0  0  0  0  0  0  0  0  0  0  0
    0.7129    0.6543   -2.4458 C   0  0  0  0  0  0  0  0  0  0  0  0
   -0.2298    1.6520   -3.0725 C   0  0  0  0  0  0  0  0  0  0  0  0
   -1.4379    1.4822   -3.1729 O   0  0  0  0  0  0  0  0  0  0  0  0
    0.4098    2.7562   -3.5313 O   0  0  0  0  0  0  0  0  0  0  0  0
    0.2381    0.4970    0.6194 H   0  0  0  0  0  0  0  0  0  0  0  0
   -0.9355   -0.5845   -1.7552 H   0  0  0  0  0  0  0  0  0  0  0  0
    1.5414    1.2321   -2.0171 H   0  0  0  0  0  0  0  0  0  0  0  0
    1.1610    0.0320   -3.2299 H   0  0  0  0  0  0  0  0  0  0  0  0
   -0.1697    3.4234   -3.9575 H   0  0  0  0  0  0  0  0  0  0  0  0
    0.4063   -1.9335    0.2348 N   0  0  0  0  0  0  0  0  0  0  0  0
    1.0763   -3.0406    0.8763 C   0  0  2  0  0  0  0  0  0  0  0  0
    2.3930   -2.5279    1.4447 C   0  0  0  0  0  0  0  0  0  0  0  0
    2.9559   -1.5180    1.0272 O   0  0  0  0  0  0  0  0  0  0  0  0
    1.3134   -4.1837   -0.0983 C   0  0  0  0  0  0  0  0  0  0  0  0
   -0.4570   -1.5849    0.6410 H   0  0  0  0  0  0  0  0  0  0  0  0
    0.4282   -3.3708    1.6954 H   0  0  0  0  0  0  0  0  0  0  0  0
    1.9608   -3.8717   -0.9259 H   0  0  0  0  0  0  0  0  0  0  0  0
    1.7957   -5.0332    0.3964 H   0  0  0  0  0  0  0  0  0  0  0  0
    0.3681   -4.5314   -0.5286 H   0  0  0  0  0  0  0  0  0  0  0  0
    2.8872   -3.3547    2.4439 N   0  0  0  0  0  0  0  0  0  0  0  0
    4.1296   -3.0899    3.1313 C   0  0  0  0  0  0  0  0  0  0  0  0
    2.3445   -4.1608    2.7393 H   0  0  0  0  0  0  0  0  0  0  0  0
    4.9508   -3.6141    2.6206 H   0  0  0  0  0  0  0  0  0  0  0  0
    4.3271   -2.0078    3.1278 H   0  0  0  0  0  0  0  0  0  0  0  0
    4.0570   -3.4460    4.1696 H   0  0  0  0  0  0  0  0  0  0  0  0
  1  3  1  0  0  0  0
  1  7  1  0  0  0  0
  1  2  2  0  0  0  0
 31 32  1  0  0  0  0
 32 40  1  0  0  0  0
 32 33  2  0  0  0  0
  8  9  1  0  0  0  0
  9 17  1  0  0  0  0
  9 10  2  0  0  0  0
 18 19  1  0  0  0  0
 19 30  1  0  0  0  0
 19 20  2  0  0  0  0
 21 22  1  0  0  0  0
 22 23  2  0  0  0  0
 22 24  1  0  0  0  0
 31 34  1  0  0  0  0
  8 11  1  0  0  0  0
 40 41  1  0  0  0  0
 18 21  1  0  0  0  0
 30 31  1  0  0  0  0
  7  8  1  0  0  0  0
 17 18  1  0  0  0  0
  3  4  1  0  0  0  0
  3  5  1  0  0  0  0
  3  6  1  0  0  0  0
 34 37  1  0  0  0  0
 34 38  1  0  0  0  0
 34 39  1  0  0  0  0
 11 14  1  0  0  0  0
 11 15  1  0  0  0  0
 11 16  1  0  0  0  0
 41 43  1  0  0  0  0
 41 44  1  0  0  0  0
 41 45  1  0  0  0  0
 21 27  1  0  0  0  0
 21 28  1  0  0  0  0
 31 36  1  0  0  0  0
  8 13  1  0  0  0  0
 18 26  1  0  0  0  0
 40 42  1  0  0  0  0
  7 12  1  0  0  0  0
 30 35  1  0  0  0  0
 17 25  1  0  0  0  0
 24 29  1  0  0  0  0
M  END
$$$$

  -OEChem-05262214473D

 45 44  0     1  0  0  0  0  0999 V2000
   -2.2987    4.1032   -0.3022 C   0  0  0  0  0  0  0  0  0  0  0  0
   -1.8049    3.7117   -1.3532 O   0  0  0  0  0  0  0  0  0  0  0  0
   -3.0791    5.3755   -0.2846 C   0  0  0  0  0  0  0  0  0  0  0  0
   -2.4478    6.2532   -0.0717 H   0  0  0  0  0  0  0  0  0  0  0  0
   -3.5571    5.5891   -1.2541 H   0  0  0  0  0  0  0  0  0  0  0  0
   -3.8940    5.4184    0.4556 H   0  0  0  0  0  0  0  0  0  0  0  0
   -2.2137    3.4712    0.9275 N   0  0  0  0  0  0  0  0  0  0  0  0
   -1.5102    2.2327    1.1338 C   0  0  2  0  0  0  0  0  0  0  0  0
   -1.3539    1.5497   -0.2184 C   0  0  0  0  0  0  0  0  0  0  0  0
   -2.0852    1.7861   -1.1778 O   0  0  0  0  0  0  0  0  0  0  0  0
   -2.2477    1.3342    2.1145 C   0  0  0  0  0  0  0  0  0  0  0  0
   -2.6724    3.9052    1.7265 H   0  0  0  0  0  0  0  0  0  0  0  0
   -0.5220    2.4922    1.5290 H   0  0  0  0  0  0  0  0  0  0  0  0
   -3.2400    1.0636    1.7358 H   0  0  0  0  0  0  0  0  0  0  0  0
   -1.6970    0.4046    2.2923 H   0  0  0  0  0  0  0  0  0  0  0  0
   -2.3854    1.8384    3.0772 H   0  0  0  0  0  0  0  0  0  0  0  0
   -0.3283    0.6116   -0.2182 N   0  0  0  0  0  0  0  0  0  0  0  0
    0.0090   -0.1762   -1.3759 C   0  0  2  0  0  0  0  0  0  0  0  0
    0.8943   -1.3268   -0.9141 C   0  0  0  0  0  0  0  0  0  0  0  0
    2.0519   -1.4772   -1.2995 O   0  0  0  0  0  0  0  0  0  0  0  0
    0.7129    0.6543   -2.4458 C   0  0  0  0  0  0  0  0  0  0  0  0
   -0.2298    1.6520   -3.0725 C   0  0  0  0  0  0  0  0  0  0  0  0
   -1.4379    1.4822   -3.1729 O   0  0  0  0  0  0  0  0  0  0  0  0
    0.4098    2.7562   -3.5313 O   0  0  0  0  0  0  0  0  0  0  0  0
    0.2381    0.4970    0.6194 H   0  0  0  0  0  0  0  0  0  0  0  0
   -0.9355   -0.5845   -1.7552 H   0  0  0  0  0  0  0  0  0  0  0  0
    1.5414    1.2321   -2.0171 H   0  0  0  0  0  0  0  0  0  0  0  0
    1.1610    0.0320   -3.2299 H   0  0  0  0  0  0  0  0  0  0  0  0
   -0.1697    3.4234   -3.9575 H   0  0  0  0  0  0  0  0  0  0  0  0
    0.2563   -2.1374    0.0144 N   0  0  0  0  0  0  0  0  0  0  0  0
    0.8931   -3.2872    0.6132 C   0  0  2  0  0  0  0  0  0  0  0  0
    2.0244   -2.7883    1.5024 C   0  0  0  0  0  0  0  0  0  0  0  0
    2.5594   -1.6914    1.3552 O   0  0  0  0  0  0  0  0  0  0  0  0
    1.4163   -4.2443   -0.4465 C   0  0  0  0  0  0  0  0  0  0  0  0
   -0.6970   -1.9129    0.2838 H   0  0  0  0  0  0  0  0  0  0  0  0
    0.1352   -3.7833    1.2293 H   0  0  0  0  0  0  0  0  0  0  0  0
    2.1767   -3.7649   -1.0736 H   0  0  0  0  0  0  0  0  0  0  0  0
    1.8733   -5.1291    0.0089 H   0  0  0  0  0  0  0  0  0  0  0  0
    0.6062   -4.5789   -1.1035 H   0  0  0  0  0  0  0  0  0  0  0  0
    2.3955   -3.7297    2.4523 N   0  0  0  0  0  0  0  0  0  0  0  0
    3.4548   -3.4987    3.4065 C   0  0  0  0  0  0  0  0  0  0  0  0
    1.8843   -4.6052    2.5143 H   0  0  0  0  0  0  0  0  0  0  0  0
    4.4032   -3.8822    3.0023 H   0  0  0  0  0  0  0  0  0  0  0  0
    3.5474   -2.4193    3.5972 H   0  0  0  0  0  0  0  0  0  0  0  0
    3.2204   -4.0184    4.3473 H   0  0  0  0  0  0  0  0  0  0  0  0
  1  3  1  0  0  0  0
  1  7  1  0  0  0  0
  1  2  2  0  0  0  0
 31 32  1  0  0  0  0
 32 40  1  0  0  0  0
 32 33  2  0  0  0  0
  8  9  1  0  0  0  0
  9 17  1  0  0  0  0
  9 10  2  0  0  0  0
 18 19  1  0  0  0  0
 19 30  1  0  0  0  0
 19 20  2  0  0  0  0
 21 22  1  0  0  0  0
 22 23  2  0  0  0  0
 22 24  1  0  0  0  0
 31 34  1  0  0  0  0
  8 11  1  0  0  0  0
 40 41  1  0  0  0  0
 18 21  1  0  0  0  0
 30 31  1  0  0  0  0
  7  8  1  0  0  0  0
 17 18  1  0  0  0  0
  3  4  1  0  0  0  0
  3  5  1  0  0  0  0
  3  6  1  0  0  0  0
 34 37  1  0  0  0  0
 34 38  1  0  0  0  0
 34 39  1  0  0  0  0
 11 14  1  0  0  0  0
 11 15  1  0  0  0  0
 11 16  1  0  0  0  0
 41 43  1  0  0  0  0
 41 44  1  0  0  0  0
 41 45  1  0  0  0  0
 21 27  1  0  0  0  0
 21 28  1  0  0  0  0
 31 36  1  0  0  0  0
  8 13  1  0  0  0  0
 18 26  1  0  0  0  0
 40 42  1  0  0  0  0
  7 12  1  0  0  0  0
 30 35  1  0  0  0  0
 17 25  1  0  0  0  0
 24 29  1  0  0  0  0
M  END
$$$$

  -OEChem-05262214473D

 45 44  0     1  0  0  0  0  0999 V2000
   -2.2987    4.1032   -0.3022 C   0  0  0  0  0  0  0  0  0  0  0  0
   -1.8049    3.7117   -1.3532 O   0  0  0  0  0  0  0  0  0  0  0  0
   -3.0791    5.3755   -0.2846 C   0  0  0  0  0  0  0  0  0  0  0  0
   -2.4478    6.2532   -0.0717 H   0  0  0  0  0  0  0  0  0  0  0  0
   -3.5571    5.5891   -1.2541 H   0  0  0  0  0  0  0  0  0  0  0  0
   -3.8940    5.4184    0.4556 H   0  0  0  0  0  0  0  0  0  0  0  0
   -2.2137    3.4712    0.9275 N   0  0  0  0  0  0  0  0  0  0  0  0
   -1.5102    2.2327    1.1338 C   0  0  2  0  0  0  0  0  0  0  0  0
   -1.3539    1.5497   -0.2184 C   0  0  0  0  0  0  0  0  0  0  0  0
   -2.0852    1.7861   -1.1778 O   0  0  0  0  0  0  0  0  0  0  0  0
   -2.2477    1.3342    2.1145 C   0  0  0  0  0  0  0  0  0  0  0  0
   -2.6724    3.9052    1.7265 H   0  0  0  0  0  0  0  0  0  0  0  0
   -0.5220    2.4922    1.5290 H   0  0  0  0  0  0  0  0  0  0  0  0
   -3.2400    1.0636    1.7358 H   0  0  0  0  0  0  0  0  0  0  0  0
   -1.6970    0.4046    2.2923 H   0  0  0  0  0  0  0  0  0  0  0  0
   -2.3854    1.8384    3.0772 H   0  0  0  0  0  0  0  0  0  0  0  0
   -0.3283    0.6116   -0.2182 N   0  0  0  0  0  0  0  0  0  0  0  0
    0.0090   -0.1762   -1.3759 C   0  0  2  0  0  0  0  0  0  0  0  0
    0.8943   -1.3268   -0.9141 C   0  0  0  0  0  0  0  0  0  0  0  0
    2.1129   -1.3405   -1.0758 O   0  0  0  0  0  0  0  0  0  0  0  0
    0.7129    0.6543   -2.4458 C   0  0  0  0  0  0  0  0  0  0  0  0
   -0.2298    1.6520   -3.0725 C   0  0  0  0  0  0  0  0  0  0  0  0
   -1.4379    1.4822   -3.1729 O   0  0  0  0  0  0  0  0  0  0  0  0
    0.4098    2.7562   -3.5313 O   0  0  0  0  0  0  0  0  0  0  0  0
    0.2381    0.4970    0.6194 H   0  0  0  0  0  0  0  0  0  0  0  0
   -0.9355   -0.5845   -1.7552 H   0  0  0  0  0  0  0  0  0  0  0  0
    1.5414    1.2321   -2.0171 H   0  0  0  0  0  0  0  0  0  0  0  0
    1.1610    0.0320   -3.2299 H   0  0  0  0  0  0  0  0  0  0  0  0
   -0.1697    3.4234   -3.9575 H   0  0  0  0  0  0  0  0  0  0  0  0
    0.1705   -2.3129   -0.2584 N   0  0  0  0  0  0  0  0  0  0  0  0
    0.7868   -3.5002    0.2861 C   0  0  2  0  0  0  0  0  0  0  0  0
    1.6776   -3.0775    1.4469 C   0  0  0  0  0  0  0  0  0  0  0  0
    2.1260   -1.9394    1.5685 O   0  0  0  0  0  0  0  0  0  0  0  0
    1.5884   -4.2424   -0.7718 C   0  0  0  0  0  0  0  0  0  0  0  0
   -0.8333   -2.1949   -0.1575 H   0  0  0  0  0  0  0  0  0  0  0  0
   -0.0243   -4.1347    0.6597 H   0  0  0  0  0  0  0  0  0  0  0  0
    2.4057   -3.6225   -1.1580 H   0  0  0  0  0  0  0  0  0  0  0  0
    2.0315   -5.1573   -0.3646 H   0  0  0  0  0  0  0  0  0  0  0  0
    0.9524   -4.5196   -1.6195 H   0  0  0  0  0  0  0  0  0  0  0  0
    1.9482   -4.1318    2.3079 N   0  0  0  0  0  0  0  0  0  0  0  0
    2.7812   -3.9879    3.4790 C   0  0  0  0  0  0  0  0  0  0  0  0
    1.5186   -5.0368    2.1402 H   0  0  0  0  0  0  0  0  0  0  0  0
    3.8206   -4.2416    3.2237 H   0  0  0  0  0  0  0  0  0  0  0  0
    2.7348   -2.9485    3.8364 H   0  0  0  0  0  0  0  0  0  0  0  0
    2.4225   -4.6637    4.2693 H   0  0  0  0  0  0  0  0  0  0  0  0
  1  3  1  0  0  0  0
  1  7  1  0  0  0  0
  1  2  2  0  0  0  0
 31 32  1  0  0  0  0
 32 40  1  0  0  0  0
 32 33  2  0  0  0  0
  8  9  1  0  0  0  0
  9 17  1  0  0  0  0
  9 10  2  0  0  0  0
 18 19  1  0  0  0  0
 19 30  1  0  0  0  0
 19 20  2  0  0  0  0
 21 22  1  0  0  0  0
 22 23  2  0  0  0  0
 22 24  1  0  0  0  0
 31 34  1  0  0  0  0
  8 11  1  0  0  0  0
 40 41  1  0  0  0  0
 18 21  1  0  0  0  0
 30 31  1  0  0  0  0
  7  8  1  0  0  0  0
 17 18  1  0  0  0  0
  3  4  1  0  0  0  0
  3  5  1  0  0  0  0
  3  6  1  0  0  0  0
 34 37  1  0  0  0  0
 34 38  1  0  0  0  0
 34 39  1  0  0  0  0
 11 14  1  0  0  0  0
 11 15  1  0  0  0  0
 11 16  1  0  0  0  0
 41 43  1  0  0  0  0
 41 44  1  0  0  0  0
 41 45  1  0  0  0  0
 21 27  1  0  0  0  0
 21 28  1  0  0  0  0
 31 36  1  0  0  0  0
  8 13  1  0  0  0  0
 18 26  1  0  0  0  0
 40 42  1  0  0  0  0
  7 12  1  0  0  0  0
 30 35  1  0  0  0  0
 17 25  1  0  0  0  0
 24 29  1  0  0  0  0
M  END
$$$$

  -OEChem-05262214473D

 45 44  0     1  0  0  0  0  0999 V2000
   -2.2987    4.1032   -0.3022 C   0  0  0  0  0  0  0  0  0  0  0  0
   -1.8049    3.7117   -1.3532 O   0  0  0  0  0  0  0  0  0  0  0  0
   -3.0791    5.3755   -0.2846 C   0  0  0  0  0  0  0  0  0  0  0  0
   -2.4478    6.2532   -0.0717 H   0  0  0  0  0  0  0  0  0  0  0  0
   -3.5571    5.5891   -1.2541 H   0  0  0  0  0  0  0  0  0  0  0  0
   -3.8940    5.4184    0.4556 H   0  0  0  0  0  0  0  0  0  0  0  0
   -2.2137    3.4712    0.9275 N   0  0  0  0  0  0  0  0  0  0  0  0
   -1.5102    2.2327    1.1338 C   0  0  2  0  0  0  0  0  0  0  0  0
   -1.3539    1.5497   -0.2184 C   0  0  0  0  0  0  0  0  0  0  0  0
   -2.0852    1.7861   -1.1778 O   0  0  0  0  0  0  0  0  0  0  0  0
   -2.2477    1.3342    2.1145 C   0  0  0  0  0  0  0  0  0  0  0  0
   -2.6724    3.9052    1.7265 H   0  0  0  0  0  0  0  0  0  0  0  0
   -0.5220    2.4922    1.5290 H   0  0  0  0  0  0  0  0  0  0  0  0
   -3.2400    1.0636    1.7358 H   0  0  0  0  0  0  0  0  0  0  0  0
   -1.6970    0.4046    2.2923 H   0  0  0  0  0  0  0  0  0  0  0  0
   -2.3854    1.8384    3.0772 H   0  0  0  0  0  0  0  0  0  0  0  0
   -0.3283    0.6116   -0.2182 N   0  0  0  0  0  0  0  0  0  0  0  0
    0.0090   -0.1762   -1.3759 C   0  0  2  0  0  0  0  0  0  0  0  0
    0.8943   -1.3268   -0.9141 C   0  0  0  0  0  0  0  0  0  0  0  0
    2.1173   -1.2373   -0.8273 O   0  0  0  0  0  0  0  0  0  0  0  0
    0.7129    0.6543   -2.4458 C   0  0  0  0  0  0  0  0  0  0  0  0
   -0.2298    1.6520   -3.0725 C   0  0  0  0  0  0  0  0  0  0  0  0
   -1.4379    1.4822   -3.1729 O   0  0  0  0  0  0  0  0  0  0  0  0
    0.4098    2.7562   -3.5313 O   0  0  0  0  0  0  0  0  0  0  0  0
    0.2381    0.4970    0.6194 H   0  0  0  0  0  0  0  0  0  0  0  0
   -0.9355   -0.5845   -1.7552 H   0  0  0  0  0  0  0  0  0  0  0  0
    1.5414    1.2321   -2.0171 H   0  0  0  0  0  0  0  0  0  0  0  0
    1.1610    0.0320   -3.2299 H   0  0  0  0  0  0  0  0  0  0  0  0
   -0.1697    3.4234   -3.9575 H   0  0  0  0  0  0  0  0  0  0  0  0
    0.1547   -2.4482   -0.5652 N   0  0  0  0  0  0  0  0  0  0  0  0
    0.7649   -3.6651   -0.0826 C   0  0  2  0  0  0  0  0  0  0  0  0
    1.3761   -3.3756    1.2820 C   0  0  0  0  0  0  0  0  0  0  0  0
    1.6850   -2.2449    1.6525 O   0  0  0  0  0  0  0  0  0  0  0  0
    1.8181   -4.1782   -1.0521 C   0  0  0  0  0  0  0  0  0  0  0  0
   -0.8566   -2.4116   -0.6527 H   0  0  0  0  0  0  0  0  0  0  0  0
   -0.0394   -4.4009    0.0255 H   0  0  0  0  0  0  0  0  0  0  0  0
    2.6323   -3.4543   -1.1733 H   0  0  0  0  0  0  0  0  0  0  0  0
    2.2595   -5.1159   -0.6987 H   0  0  0  0  0  0  0  0  0  0  0  0
    1.3830   -4.3576   -2.0412 H   0  0  0  0  0  0  0  0  0  0  0  0
    1.5759   -4.5335    2.0206 N   0  0  0  0  0  0  0  0  0  0  0  0
    2.1548   -4.5241    3.3438 C   0  0  0  0  0  0  0  0  0  0  0  0
    1.2724   -5.4260    1.6424 H   0  0  0  0  0  0  0  0  0  0  0  0
    3.2429   -4.6677    3.2696 H   0  0  0  0  0  0  0  0  0  0  0  0
    1.9447   -3.5595    3.8289 H   0  0  0  0  0  0  0  0  0  0  0  0
    1.7176   -5.3378    3.9409 H   0  0  0  0  0  0  0  0  0  0  0  0
  1  3  1  0  0  0  0
  1  7  1  0  0  0  0
  1  2  2  0  0  0  0
 31 32  1  0  0  0  0
 32 40  1  0  0  0  0
 32 33  2  0  0  0  0
  8  9  1  0  0  0  0
  9 17  1  0  0  0  0
  9 10  2  0  0  0  0
 18 19  1  0  0  0  0
 19 30  1  0  0  0  0
 19 20  2  0  0  0  0
 21 22  1  0  0  0  0
 22 23  2  0  0  0  0
 22 24  1  0  0  0  0
 31 34  1  0  0  0  0
  8 11  1  0  0  0  0
 40 41  1  0  0  0  0
 18 21  1  0  0  0  0
 30 31  1  0  0  0  0
  7  8  1  0  0  0  0
 17 18  1  0  0  0  0
  3  4  1  0  0  0  0
  3  5  1  0  0  0  0
  3  6  1  0  0  0  0
 34 37  1  0  0  0  0
 34 38  1  0  0  0  0
 34 39  1  0  0  0  0
 11 14  1  0  0  0  0
 11 15  1  0  0  0  0
 11 16  1  0  0  0  0
 41 43  1  0  0  0  0
 41 44  1  0  0  0  0
 41 45  1  0  0  0  0
 21 27  1  0  0  0  0
 21 28  1  0  0  0  0
 31 36  1  0  0  0  0
  8 13  1  0  0  0  0
 18 26  1  0  0  0  0
 40 42  1  0  0  0  0
  7 12  1  0  0  0  0
 30 35  1  0  0  0  0
 17 25  1  0  0  0  0
 24 29  1  0  0  0  0
M  END
$$$$

  -OEChem-05262214473D

 45 44  0     1  0  0  0  0  0999 V2000
   -2.2987    4.1032   -0.3022 C   0  0  0  0  0  0  0  0  0  0  0  0
   -1.8049    3.7117   -1.3532 O   0  0  0  0  0  0  0  0  0  0  0  0
   -3.0791    5.3755   -0.2846 C   0  0  0  0  0  0  0  0  0  0  0  0
   -2.4478    6.2532   -0.0717 H   0  0  0  0  0  0  0  0  0  0  0  0
   -3.5571    5.5891   -1.2541 H   0  0  0  0  0  0  0  0  0  0  0  0
   -3.8940    5.4184    0.4556 H   0  0  0  0  0  0  0  0  0  0  0  0
   -2.2137    3.4712    0.9275 N   0  0  0  0  0  0  0  0  0  0  0  0
   -1.5102    2.2327    1.1338 C   0  0  2  0  0  0  0  0  0  0  0  0
   -1.3539    1.5497   -0.2184 C   0  0  0  0  0  0  0  0  0  0  0  0
   -2.0852    1.7861   -1.1778 O   0  0  0  0  0  0  0  0  0  0  0  0
   -2.2477    1.3342    2.1145 C   0  0  0  0  0  0  0  0  0  0  0  0
   -2.6724    3.9052    1.7265 H   0  0  0  0  0  0  0  0  0  0  0  0
   -0.5220    2.4922    1.5290 H   0  0  0  0  0  0  0  0  0  0  0  0
   -3.2400    1.0636    1.7358 H   0  0  0  0  0  0  0  0  0  0  0  0
   -1.6970    0.4046    2.2923 H   0  0  0  0  0  0  0  0  0  0  0  0
   -2.3854    1.8384    3.0772 H   0  0  0  0  0  0  0  0  0  0  0  0
   -0.3283    0.6116   -0.2182 N   0  0  0  0  0  0  0  0  0  0  0  0
    0.0090   -0.1762   -1.3759 C   0  0  2  0  0  0  0  0  0  0  0  0
    0.8943   -1.3268   -0.9141 C   0  0  0  0  0  0  0  0  0  0  0  0
    2.0649   -1.1747   -0.5708 O   0  0  0  0  0  0  0  0  0  0  0  0
    0.7129    0.6543   -2.4458 C   0  0  0  0  0  0  0  0  0  0  0  0
   -0.2298    1.6520   -3.0725 C   0  0  0  0  0  0  0  0  0  0  0  0
   -1.4379    1.4822   -3.1729 O   0  0  0  0  0  0  0  0  0  0  0  0
    0.4098    2.7562   -3.5313 O   0  0  0  0  0  0  0  0  0  0  0  0
    0.2381    0.4970    0.6194 H   0  0  0  0  0  0  0  0  0  0  0  0
   -0.9355   -0.5845   -1.7552 H   0  0  0  0  0  0  0  0  0  0  0  0
    1.5414    1.2321   -2.0171 H   0  0  0  0  0  0  0  0  0  0  0  0
    1.1610    0.0320   -3.2299 H   0  0  0  0  0  0  0  0  0  0  0  0
   -0.1697    3.4234   -3.9575 H   0  0  0  0  0  0  0  0  0  0  0  0
    0.2101   -2.5339   -0.8849 N   0  0  0  0  0  0  0  0  0  0  0  0
    0.8287   -3.7706   -0.4678 C   0  0  2  0  0  0  0  0  0  0  0  0
    1.1405   -3.6625    1.0190 C   0  0  0  0  0  0  0  0  0  0  0  0
    1.2666   -2.5873    1.6014 O   0  0  0  0  0  0  0  0  0  0  0  0
    2.0898   -4.0559   -1.2684 C   0  0  0  0  0  0  0  0  0  0  0  0
   -0.7653   -2.5482   -1.1683 H   0  0  0  0  0  0  0  0  0  0  0  0
    0.0907   -4.5638   -0.6300 H   0  0  0  0  0  0  0  0  0  0  0  0
    2.8409   -3.2718   -1.1185 H   0  0  0  0  0  0  0  0  0  0  0  0
    2.5418   -5.0078   -0.9707 H   0  0  0  0  0  0  0  0  0  0  0  0
    1.8686   -4.1038   -2.3401 H   0  0  0  0  0  0  0  0  0  0  0  0
    1.3041   -4.9076    1.6098 N   0  0  0  0  0  0  0  0  0  0  0  0
    1.6183   -5.0709    3.0100 C   0  0  0  0  0  0  0  0  0  0  0  0
    1.1624   -5.7465    1.0549 H   0  0  0  0  0  0  0  0  0  0  0  0
    2.7093   -5.1315    3.1369 H   0  0  0  0  0  0  0  0  0  0  0  0
    1.2309   -4.2105    3.5754 H   0  0  0  0  0  0  0  0  0  0  0  0
    1.1538   -5.9949    3.3846 H   0  0  0  0  0  0  0  0  0  0  0  0
  1  3  1  0  0  0  0
  1  7  1  0  0  0  0
  1  2  2  0  0  0  0
 31 32  1  0  0  0  0
 32 40  1  0  0  0  0
 32 33  2  0  0  0  0
  8  9  1  0  0  0  0
  9 17  1  0  0  0  0
  9 10  2  0  0  0  0
 18 19  1  0  0  0  0
 19 30  1  0  0  0  0
 19 20  2  0  0  0  0
 21 22  1  0  0  0  0
 22 23  2  0  0  0  0
 22 24  1  0  0  0  0
 31 34  1  0  0  0  0
  8 11  1  0  0  0  0
 40 41  1  0  0  0  0
 18 21  1  0  0  0  0
 30 31  1  0  0  0  0
  7  8  1  0  0  0  0
 17 18  1  0  0  0  0
  3  4  1  0  0  0  0
  3  5  1  0  0  0  0
  3  6  1  0  0  0  0
 34 37  1  0  0  0  0
 34 38  1  0  0  0  0
 34 39  1  0  0  0  0
 11 14  1  0  0  0  0
 11 15  1  0  0  0  0
 11 16  1  0  0  0  0
 41 43  1  0  0  0  0
 41 44  1  0  0  0  0
 41 45  1  0  0  0  0
 21 27  1  0  0  0  0
 21 28  1  0  0  0  0
 31 36  1  0  0  0  0
  8 13  1  0  0  0  0
 18 26  1  0  0  0  0
 40 42  1  0  0  0  0
  7 12  1  0  0  0  0
 30 35  1  0  0  0  0
 17 25  1  0  0  0  0
 24 29  1  0  0  0  0
M  END
$$$$

  -OEChem-05262214473D

 45 44  0     1  0  0  0  0  0999 V2000
   -2.2987    4.1032   -0.3022 C   0  0  0  0  0  0  0  0  0  0  0  0
   -1.8049    3.7117   -1.3532 O   0  0  0  0  0  0  0  0  0  0  0  0
   -3.0791    5.3755   -0.2846 C   0  0  0  0  0  0  0  0  0  0  0  0
   -2.4478    6.2532   -0.0717 H   0  0  0  0  0  0  0  0  0  0  0  0
   -3.5571    5.5891   -1.2541 H   0  0  0  0  0  0  0  0  0  0  0  0
   -3.8940    5.4184    0.4556 H   0  0  0  0  0  0  0  0  0  0  0  0
   -2.2137    3.4712    0.9275 N   0  0  0  0  0  0  0  0  0  0  0  0
   -1.5102    2.2327    1.1338 C   0  0  2  0  0  0  0  0  0  0  0  0
   -1.3539    1.5497   -0.2184 C   0  0  0  0  0  0  0  0  0  0  0  0
   -2.0852    1.7861   -1.1778 O   0  0  0  0  0  0  0  0  0  0  0  0
   -2.2477    1.3342    2.1145 C   0  0  0  0  0  0  0  0  0  0  0  0
   -2.6724    3.9052    1.7265 H   0  0  0  0  0  0  0  0  0  0  0  0
   -0.5220    2.4922    1.5290 H   0  0  0  0  0  0  0  0  0  0  0  0
   -3.2400    1.0636    1.7358 H   0  0  0  0  0  0  0  0  0  0  0  0
   -1.6970    0.4046    2.2923 H   0  0  0  0  0  0  0  0  0  0  0  0
   -2.3854    1.8384    3.0772 H   0  0  0  0  0  0  0  0  0  0  0  0
   -0.3283    0.6116   -0.2182 N   0  0  0  0  0  0  0  0  0  0  0  0
    0.0090   -0.1762   -1.3759 C   0  0  2  0  0  0  0  0  0  0  0  0
    0.8943   -1.3268   -0.9141 C   0  0  0  0  0  0  0  0  0  0  0  0
    1.9592   -1.1569   -0.3239 O   0  0  0  0  0  0  0  0  0  0  0  0
    0.7129    0.6543   -2.4458 C   0  0  0  0  0  0  0  0  0  0  0  0
   -0.2298    1.6520   -3.0725 C   0  0  0  0  0  0  0  0  0  0  0  0
   -1.4379    1.4822   -3.1729 O   0  0  0  0  0  0  0  0  0  0  0  0
    0.4098    2.7562   -3.5313 O   0  0  0  0  0  0  0  0  0  0  0  0
    0.2381    0.4970    0.6194 H   0  0  0  0  0  0  0  0  0  0  0  0
   -0.9355   -0.5845   -1.7552 H   0  0  0  0  0  0  0  0  0  0  0  0
    1.5414    1.2321   -2.0171 H   0  0  0  0  0  0  0  0  0  0  0  0
    1.1610    0.0320   -3.2299 H   0  0  0  0  0  0  0  0  0  0  0  0
   -0.1697    3.4234   -3.9575 H   0  0  0  0  0  0  0  0  0  0  0  0
    0.3327   -2.5643   -1.1958 N   0  0  0  0  0  0  0  0  0  0  0  0
    0.9739   -3.8096   -0.8433 C   0  0  2  0  0  0  0  0  0  0  0  0
    0.9869   -3.9185    0.6757 C   0  0  0  0  0  0  0  0  0  0  0  0
    0.8994   -2.9432    1.4189 O   0  0  0  0  0  0  0  0  0  0  0  0
    2.3849   -3.8840   -1.4057 C   0  0  0  0  0  0  0  0  0  0  0  0
   -0.5656   -2.5955   -1.6690 H   0  0  0  0  0  0  0  0  0  0  0  0
    0.3574   -4.6124   -1.2623 H   0  0  0  0  0  0  0  0  0  0  0  0
    3.0174   -3.0874   -0.9973 H   0  0  0  0  0  0  0  0  0  0  0  0
    2.8592   -4.8404   -1.1619 H   0  0  0  0  0  0  0  0  0  0  0  0
    2.3762   -3.7757   -2.4957 H   0  0  0  0  0  0  0  0  0  0  0  0
    1.1511   -5.2284    1.1037 N   0  0  0  0  0  0  0  0  0  0  0  0
    1.2082   -5.5909    2.5006 C   0  0  0  0  0  0  0  0  0  0  0  0
    1.1961   -5.9763    0.4177 H   0  0  0  0  0  0  0  0  0  0  0  0
    2.2562   -5.6015    2.8346 H   0  0  0  0  0  0  0  0  0  0  0  0
    0.6420   -4.8571    3.0931 H   0  0  0  0  0  0  0  0  0  0  0  0
    0.7695   -6.5902    2.6382 H   0  0  0  0  0  0  0  0  0  0  0  0
  1  3  1  0  0  0  0
  1  7  1  0  0  0  0
  1  2  2  0  0  0  0
 31 32  1  0  0  0  0
 32 40  1  0  0  0  0
 32 33  2  0  0  0  0
  8  9  1  0  0  0  0
  9 17  1  0  0  0  0
  9 10  2  0  0  0  0
 18 19  1  0  0  0  0
 19 30  1  0  0  0  0
 19 20  2  0  0  0  0
 21 22  1  0  0  0  0
 22 23  2  0  0  0  0
 22 24  1  0  0  0  0
 31 34  1  0  0  0  0
  8 11  1  0  0  0  0
 40 41  1  0  0  0  0
 18 21  1  0  0  0  0
 30 31  1  0  0  0  0
  7  8  1  0  0  0  0
 17 18  1  0  0  0  0
  3  4  1  0  0  0  0
  3  5  1  0  0  0  0
  3  6  1  0  0  0  0
 34 37  1  0  0  0  0
 34 38  1  0  0  0  0
 34 39  1  0  0  0  0
 11 14  1  0  0  0  0
 11 15  1  0  0  0  0
 11 16  1  0  0  0  0
 41 43  1  0  0  0  0
 41 44  1  0  0  0  0
 41 45  1  0  0  0  0
 21 27  1  0  0  0  0
 21 28  1  0  0  0  0
 31 36  1  0  0  0  0
  8 13  1  0  0  0  0
 18 26  1  0  0  0  0
 40 42  1  0  0  0  0
  7 12  1  0  0  0  0
 30 35  1  0  0  0  0
 17 25  1  0  0  0  0
 24 29  1  0  0  0  0
M  END
$$$$

  -OEChem-05262214473D

 45 44  0     1  0  0  0  0  0999 V2000
   -2.2987    4.1032   -0.3022 C   0  0  0  0  0  0  0  0  0  0  0  0
   -1.8049    3.7117   -1.3532 O   0  0  0  0  0  0  0  0  0  0  0  0
   -3.0791    5.3755   -0.2846 C   0  0  0  0  0  0  0  0  0  0  0  0
   -2.4478    6.2532   -0.0717 H   0  0  0  0  0  0  0  0  0  0  0  0
   -3.5571    5.5891   -1.2541 H   0  0  0  0  0  0  0  0  0  0  0  0
   -3.8940    5.4184    0.4556 H   0  0  0  0  0  0  0  0  0  0  0  0
   -2.2137    3.4712    0.9275 N   0  0  0  0  0  0  0  0  0  0  0  0
   -1.5102    2.2327    1.1338 C   0  0  2  0  0  0  0  0  0  0  0  0
   -1.3539    1.5497   -0.2184 C   0  0  0  0  0  0  0  0  0  0  0  0
   -2.0852    1.7861   -1.1778 O   0  0  0  0  0  0  0  0  0  0  0  0
   -2.2477    1.3342    2.1145 C   0  0  0  0  0  0  0  0  0  0  0  0
   -2.6724    3.9052    1.7265 H   0  0  0  0  0  0  0  0  0  0  0  0
   -0.5220    2.4922    1.5290 H   0  0  0  0  0  0  0  0  0  0  0  0
   -3.2400    1.0636    1.7358 H   0  0  0  0  0  0  0  0  0  0  0  0
   -1.6970    0.4046    2.2923 H   0  0  0  0  0  0  0  0  0  0  0  0
   -2.3854    1.8384    3.0772 H   0  0  0  0  0  0  0  0  0  0  0  0
   -0.3283    0.6116   -0.2182 N   0  0  0  0  0  0  0  0  0  0  0  0
    0.0090   -0.1762   -1.3759 C   0  0  2  0  0  0  0  0  0  0  0  0
    0.8943   -1.3268   -0.9141 C   0  0  0  0  0  0  0  0  0  0  0  0
    1.8075   -1.1851   -0.1033 O   0  0  0  0  0  0  0  0  0  0  0  0
    0.7129    0.6543   -2.4458 C   0  0  0  0  0  0  0  0  0  0  0  0
   -0.2298    1.6520   -3.0725 C   0  0  0  0  0  0  0  0  0  0  0  0
   -1.4379    1.4822   -3.1729 O   0  0  0  0  0  0  0  0  0  0  0  0
    0.4098    2.7562   -3.5313 O   0  0  0  0  0  0  0  0  0  0  0  0
    0.2381    0.4970    0.6194 H   0  0  0  0  0  0  0  0  0  0  0  0
   -0.9355   -0.5845   -1.7552 H   0  0  0  0  0  0  0  0  0  0  0  0
    1.5414    1.2321   -2.0171 H   0  0  0  0  0  0  0  0  0  0  0  0
    1.1610    0.0320   -3.2299 H   0  0  0  0  0  0  0  0  0  0  0  0
   -0.1697    3.4234   -3.9575 H   0  0  0  0  0  0  0  0  0  0  0  0
    0.5144   -2.5373   -1.4767 N   0  0  0  0  0  0  0  0  0  0  0  0
    1.1906   -3.7794   -1.1836 C   0  0  2  0  0  0  0  0  0  0  0  0
    0.9257   -4.1261    0.2756 C   0  0  0  0  0  0  0  0  0  0  0  0
    0.6082   -3.2883    1.1172 O   0  0  0  0  0  0  0  0  0  0  0  0
    2.6833   -3.6742   -1.4549 C   0  0  0  0  0  0  0  0  0  0  0  0
   -0.2711   -2.5502   -2.1207 H   0  0  0  0  0  0  0  0  0  0  0  0
    0.7424   -4.5433   -1.8283 H   0  0  0  0  0  0  0  0  0  0  0  0
    3.1497   -2.9136   -0.8181 H   0  0  0  0  0  0  0  0  0  0  0  0
    3.1900   -4.6250   -1.2594 H   0  0  0  0  0  0  0  0  0  0  0  0
    2.8712   -3.3955   -2.4974 H   0  0  0  0  0  0  0  0  0  0  0  0
    1.1274   -5.4742    0.5366 N   0  0  0  0  0  0  0  0  0  0  0  0
    0.9524   -6.0488    1.8501 C   0  0  0  0  0  0  0  0  0  0  0  0
    1.3713   -6.0997   -0.2257 H   0  0  0  0  0  0  0  0  0  0  0  0
    1.9145   -6.0455    2.3834 H   0  0  0  0  0  0  0  0  0  0  0  0
    0.2182   -5.4554    2.4148 H   0  0  0  0  0  0  0  0  0  0  0  0
    0.5909   -7.0831    1.7525 H   0  0  0  0  0  0  0  0  0  0  0  0
  1  3  1  0  0  0  0
  1  7  1  0  0  0  0
  1  2  2  0  0  0  0
 31 32  1  0  0  0  0
 32 40  1  0  0  0  0
 32 33  2  0  0  0  0
  8  9  1  0  0  0  0
  9 17  1  0  0  0  0
  9 10  2  0  0  0  0
 18 19  1  0  0  0  0
 19 30  1  0  0  0  0
 19 20  2  0  0  0  0
 21 22  1  0  0  0  0
 22 23  2  0  0  0  0
 22 24  1  0  0  0  0
 31 34  1  0  0  0  0
  8 11  1  0  0  0  0
 40 41  1  0  0  0  0
 18 21  1  0  0  0  0
 30 31  1  0  0  0  0
  7  8  1  0  0  0  0
 17 18  1  0  0  0  0
  3  4  1  0  0  0  0
  3  5  1  0  0  0  0
  3  6  1  0  0  0  0
 34 37  1  0  0  0  0
 34 38  1  0  0  0  0
 34 39  1  0  0  0  0
 11 14  1  0  0  0  0
 11 15  1  0  0  0  0
 11 16  1  0  0  0  0
 41 43  1  0  0  0  0
 41 44  1  0  0  0  0
 41 45  1  0  0  0  0
 21 27  1  0  0  0  0
 21 28  1  0  0  0  0
 31 36  1  0  0  0  0
  8 13  1  0  0  0  0
 18 26  1  0  0  0  0
 40 42  1  0  0  0  0
  7 12  1  0  0  0  0
 30 35  1  0  0  0  0
 17 25  1  0  0  0  0
 24 29  1  0  0  0  0
M  END
$$$$

  -OEChem-05262214473D

 45 44  0     1  0  0  0  0  0999 V2000
   -2.2987    4.1032   -0.3022 C   0  0  0  0  0  0  0  0  0  0  0  0
   -1.8049    3.7117   -1.3532 O   0  0  0  0  0  0  0  0  0  0  0  0
   -3.0791    5.3755   -0.2846 C   0  0  0  0  0  0  0  0  0  0  0  0
   -2.4478    6.2532   -0.0717 H   0  0  0  0  0  0  0  0  0  0  0  0
   -3.5571    5.5891   -1.2541 H   0  0  0  0  0  0  0  0  0  0  0  0
   -3.8940    5.4184    0.4556 H   0  0  0  0  0  0  0  0  0  0  0  0
   -2.2137    3.4712    0.9275 N   0  0  0  0  0  0  0  0  0  0  0  0
   -1.5102    2.2327    1.1338 C   0  0  2  0  0  0  0  0  0  0  0  0
   -1.3539    1.5497   -0.2184 C   0  0  0  0  0  0  0  0  0  0  0  0
   -2.0852    1.7861   -1.1778 O   0  0  0  0  0  0  0  0  0  0  0  0
   -2.2477    1.3342    2.1145 C   0  0  0  0  0  0  0  0  0  0  0  0
   -2.6724    3.9052    1.7265 H   0  0  0  0  0  0  0  0  0  0  0  0
   -0.5220    2.4922    1.5290 H   0  0  0  0  0  0  0  0  0  0  0  0
   -3.2400    1.0636    1.7358 H   0  0  0  0  0  0  0  0  0  0  0  0
   -1.6970    0.4046    2.2923 H   0  0  0  0  0  0  0  0  0  0  0  0
   -2.3854    1.8384    3.0772 H   0  0  0  0  0  0  0  0  0  0  0  0
   -0.3283    0.6116   -0.2182 N   0  0  0  0  0  0  0  0  0  0  0  0
    0.0090   -0.1762   -1.3759 C   0  0  2  0  0  0  0  0  0  0  0  0
    0.8943   -1.3268   -0.9141 C   0  0  0  0  0  0  0  0  0  0  0  0
    1.6200   -1.2575    0.0758 O   0  0  0  0  0  0  0  0  0  0  0  0
    0.7129    0.6543   -2.4458 C   0  0  0  0  0  0  0  0  0  0  0  0
   -0.2298    1.6520   -3.0725 C   0  0  0  0  0  0  0  0  0  0  0  0
   -1.4379    1.4822   -3.1729 O   0  0  0  0  0  0  0  0  0  0  0  0
    0.4098    2.7562   -3.5313 O   0  0  0  0  0  0  0  0  0  0  0  0
    0.2381    0.4970    0.6194 H   0  0  0  0  0  0  0  0  0  0  0  0
   -0.9355   -0.5845   -1.7552 H   0  0  0  0  0  0  0  0  0  0  0  0
    1.5414    1.2321   -2.0171 H   0  0  0  0  0  0  0  0  0  0  0  0
    1.1610    0.0320   -3.2299 H   0  0  0  0  0  0  0  0  0  0  0  0
   -0.1697    3.4234   -3.9575 H   0  0  0  0  0  0  0  0  0  0  0  0
    0.7426   -2.4547   -1.7084 N   0  0  0  0  0  0  0  0  0  0  0  0
    1.4641   -3.6820   -1.4653 C   0  0  2  0  0  0  0  0  0  0  0  0
    0.9610   -4.2714   -0.1541 C   0  0  0  0  0  0  0  0  0  0  0  0
    0.4130   -3.5991    0.7170 O   0  0  0  0  0  0  0  0  0  0  0  0
    2.9646   -3.4407   -1.4124 C   0  0  0  0  0  0  0  0  0  0  0  0
    0.0981   -2.4154   -2.4926 H   0  0  0  0  0  0  0  0  0  0  0  0
    1.2195   -4.3612   -2.2892 H   0  0  0  0  0  0  0  0  0  0  0  0
    3.2288   -2.7624   -0.5929 H   0  0  0  0  0  0  0  0  0  0  0  0
    3.5117   -4.3763   -1.2565 H   0  0  0  0  0  0  0  0  0  0  0  0
    3.3198   -2.9892   -2.3451 H   0  0  0  0  0  0  0  0  0  0  0  0
    1.2347   -5.6282   -0.0528 N   0  0  0  0  0  0  0  0  0  0  0  0
    0.8685   -6.4133    1.1029 C   0  0  0  0  0  0  0  0  0  0  0  0
    1.6759   -6.1085   -0.8315 H   0  0  0  0  0  0  0  0  0  0  0  0
    1.7074   -6.4333    1.8140 H   0  0  0  0  0  0  0  0  0  0  0  0
   -0.0116   -5.9646    1.5868 H   0  0  0  0  0  0  0  0  0  0  0  0
    0.6302   -7.4399    0.7880 H   0  0  0  0  0  0  0  0  0  0  0  0
  1  3  1  0  0  0  0
  1  7  1  0  0  0  0
  1  2  2  0  0  0  0
 31 32  1  0  0  0  0
 32 40  1  0  0  0  0
 32 33  2  0  0  0  0
  8  9  1  0  0  0  0
  9 17  1  0  0  0  0
  9 10  2  0  0  0  0
 18 19  1  0  0  0  0
 19 30  1  0  0  0  0
 19 20  2  0  0  0  0
 21 22  1  0  0  0  0
 22 23  2  0  0  0  0
 22 24  1  0  0  0  0
 31 34  1  0  0  0  0
  8 11  1  0  0  0  0
 40 41  1  0  0  0  0
 18 21  1  0  0  0  0
 30 31  1  0  0  0  0
  7  8  1  0  0  0  0
 17 18  1  0  0  0  0
  3  4  1  0  0  0  0
  3  5  1  0  0  0  0
  3  6  1  0  0  0  0
 34 37  1  0  0  0  0
 34 38  1  0  0  0  0
 34 39  1  0  0  0  0
 11 14  1  0  0  0  0
 11 15  1  0  0  0  0
 11 16  1  0  0  0  0
 41 43  1  0  0  0  0
 41 44  1  0  0  0  0
 41 45  1  0  0  0  0
 21 27  1  0  0  0  0
 21 28  1  0  0  0  0
 31 36  1  0  0  0  0
  8 13  1  0  0  0  0
 18 26  1  0  0  0  0
 40 42  1  0  0  0  0
  7 12  1  0  0  0  0
 30 35  1  0  0  0  0
 17 25  1  0  0  0  0
 24 29  1  0  0  0  0
M  END
$$$$

  -OEChem-05262214473D

 45 44  0     1  0  0  0  0  0999 V2000
   -2.2987    4.1032   -0.3022 C   0  0  0  0  0  0  0  0  0  0  0  0
   -1.8049    3.7117   -1.3532 O   0  0  0  0  0  0  0  0  0  0  0  0
   -3.0791    5.3755   -0.2846 C   0  0  0  0  0  0  0  0  0  0  0  0
   -2.4478    6.2532   -0.0717 H   0  0  0  0  0  0  0  0  0  0  0  0
   -3.5571    5.5891   -1.2541 H   0  0  0  0  0  0  0  0  0  0  0  0
   -3.8940    5.4184    0.4556 H   0  0  0  0  0  0  0  0  0  0  0  0
   -2.2137    3.4712    0.9275 N   0  0  0  0  0  0  0  0  0  0  0  0
   -1.5102    2.2327    1.1338 C   0  0  2  0  0  0  0  0  0  0  0  0
   -1.3539    1.5497   -0.2184 C   0  0  0  0  0  0  0  0  0  0  0  0
   -2.0852    1.7861   -1.1778 O   0  0  0  0  0  0  0  0  0  0  0  0
   -2.2477    1.3342    2.1145 C   0  0  0  0  0  0  0  0  0  0  0  0
   -2.6724    3.9052    1.7265 H   0  0  0  0  0  0  0  0  0  0  0  0
   -0.5220    2.4922    1.5290 H   0  0  0  0  0  0  0  0  0  0  0  0
   -3.2400    1.0636    1.7358 H   0  0  0  0  0  0  0  0  0  0  0  0
   -1.6970    0.4046    2.2923 H   0  0  0  0  0  0  0  0  0  0  0  0
   -2.3854    1.8384    3.0772 H   0  0  0  0  0  0  0  0  0  0  0  0
   -0.3283    0.6116   -0.2182 N   0  0  0  0  0  0  0  0  0  0  0  0
    0.0090   -0.1762   -1.3759 C   0  0  2  0  0  0  0  0  0  0  0  0
    0.8943   -1.3268   -0.9141 C   0  0  0  0  0  0  0  0  0  0  0  0
    1.4096   -1.3690    0.2012 O   0  0  0  0  0  0  0  0  0  0  0  0
    0.7129    0.6543   -2.4458 C   0  0  0  0  0  0  0  0  0  0  0  0
   -0.2298    1.6520   -3.0725 C   0  0  0  0  0  0  0  0  0  0  0  0
   -1.4379    1.4822   -3.1729 O   0  0  0  0  0  0  0  0  0  0  0  0
    0.4098    2.7562   -3.5313 O   0  0  0  0  0  0  0  0  0  0  0  0
    0.2381    0.4970    0.6194 H   0  0  0  0  0  0  0  0  0  0  0  0
   -0.9355   -0.5845   -1.7552 H   0  0  0  0  0  0  0  0  0  0  0  0
    1.5414    1.2321   -2.0171 H   0  0  0  0  0  0  0  0  0  0  0  0
    1.1610    0.0320   -3.2299 H   0  0  0  0  0  0  0  0  0  0  0  0
   -0.1697    3.4234   -3.9575 H   0  0  0  0  0  0  0  0  0  0  0  0
    1.0019   -2.3222   -1.8753 N   0  0  0  0  0  0  0  0  0  0  0  0
    1.7756   -3.5242   -1.6693 C   0  0  2  0  0  0  0  0  0  0  0  0
    1.0906   -4.3443   -0.5841 C   0  0  0  0  0  0  0  0  0  0  0  0
    0.3271   -3.8545    0.2455 O   0  0  0  0  0  0  0  0  0  0  0  0
    3.2098   -3.1994   -1.2813 C   0  0  0  0  0  0  0  0  0  0  0  0
    0.5169   -2.2003   -2.7594 H   0  0  0  0  0  0  0  0  0  0  0  0
    1.7562   -4.0786   -2.6139 H   0  0  0  0  0  0  0  0  0  0  0  0
    3.2494   -2.6439   -0.3372 H   0  0  0  0  0  0  0  0  0  0  0  0
    3.8024   -4.1112   -1.1534 H   0  0  0  0  0  0  0  0  0  0  0  0
    3.6915   -2.5845   -2.0492 H   0  0  0  0  0  0  0  0  0  0  0  0
    1.4657   -5.6799   -0.6242 N   0  0  0  0  0  0  0  0  0  0  0  0
    0.9620   -6.6595    0.3099 C   0  0  0  0  0  0  0  0  0  0  0  0
    2.0893   -6.0019   -1.3585 H   0  0  0  0  0  0  0  0  0  0  0  0
    1.6492   -6.7385    1.1652 H   0  0  0  0  0  0  0  0  0  0  0  0
   -0.0318   -6.3499    0.6656 H   0  0  0  0  0  0  0  0  0  0  0  0
    0.8847   -7.6365   -0.1896 H   0  0  0  0  0  0  0  0  0  0  0  0
  1  3  1  0  0  0  0
  1  7  1  0  0  0  0
  1  2  2  0  0  0  0
 31 32  1  0  0  0  0
 32 40  1  0  0  0  0
 32 33  2  0  0  0  0
  8  9  1  0  0  0  0
  9 17  1  0  0  0  0
  9 10  2  0  0  0  0
 18 19  1  0  0  0  0
 19 30  1  0  0  0  0
 19 20  2  0  0  0  0
 21 22  1  0  0  0  0
 22 23  2  0  0  0  0
 22 24  1  0  0  0  0
 31 34  1  0  0  0  0
  8 11  1  0  0  0  0
 40 41  1  0  0  0  0
 18 21  1  0  0  0  0
 30 31  1  0  0  0  0
  7  8  1  0  0  0  0
 17 18  1  0  0  0  0
  3  4  1  0  0  0  0
  3  5  1  0  0  0  0
  3  6  1  0  0  0  0
 34 37  1  0  0  0  0
 34 38  1  0  0  0  0
 34 39  1  0  0  0  0
 11 14  1  0  0  0  0
 11 15  1  0  0  0  0
 11 16  1  0  0  0  0
 41 43  1  0  0  0  0
 41 44  1  0  0  0  0
 41 45  1  0  0  0  0
 21 27  1  0  0  0  0
 21 28  1  0  0  0  0
 31 36  1  0  0  0  0
  8 13  1  0  0  0  0
 18 26  1  0  0  0  0
 40 42  1  0  0  0  0
  7 12  1  0  0  0  0
 30 35  1  0  0  0  0
 17 25  1  0  0  0  0
 24 29  1  0  0  0  0
M  END
$$$$

  -OEChem-05262214473D

 45 44  0     1  0  0  0  0  0999 V2000
   -2.2987    4.1032   -0.3022 C   0  0  0  0  0  0  0  0  0  0  0  0
   -1.8049    3.7117   -1.3532 O   0  0  0  0  0  0  0  0  0  0  0  0
   -3.0791    5.3755   -0.2846 C   0  0  0  0  0  0  0  0  0  0  0  0
   -2.4478    6.2532   -0.0717 H   0  0  0  0  0  0  0  0  0  0  0  0
   -3.5571    5.5891   -1.2541 H   0  0  0  0  0  0  0  0  0  0  0  0
   -3.8940    5.4184    0.4556 H   0  0  0  0  0  0  0  0  0  0  0  0
   -2.2137    3.4712    0.9275 N   0  0  0  0  0  0  0  0  0  0  0  0
   -1.5102    2.2327    1.1338 C   0  0  2  0  0  0  0  0  0  0  0  0
   -1.3539    1.5497   -0.2184 C   0  0  0  0  0  0  0  0  0  0  0  0
   -2.0852    1.7861   -1.1778 O   0  0  0  0  0  0  0  0  0  0  0  0
   -2.2477    1.3342    2.1145 C   0  0  0  0  0  0  0  0  0  0  0  0
   -2.6724    3.9052    1.7265 H   0  0  0  0  0  0  0  0  0  0  0  0
   -0.5220    2.4922    1.5290 H   0  0  0  0  0  0  0  0  0  0  0  0
   -3.2400    1.0636    1.7358 H   0  0  0  0  0  0  0  0  0  0  0  0
   -1.6970    0.4046    2.2923 H   0  0  0  0  0  0  0  0  0  0  0  0
   -2.3854    1.8384    3.0772 H   0  0  0  0  0  0  0  0  0  0  0  0
   -0.3283    0.6116   -0.2182 N   0  0  0  0  0  0  0  0  0  0  0  0
    0.0090   -0.1762   -1.3759 C   0  0  2  0  0  0  0  0  0  0  0  0
    0.5631   -1.5085   -0.8869 C   0  0  0  0  0  0  0  0  0  0  0  0
    0.6378   -1.8060    0.3035 O   0  0  0  0  0  0  0  0  0  0  0  0
    1.0177    0.5338   -2.2750 C   0  0  0  0  0  0  0  0  0  0  0  0
    0.4013    1.7365   -2.9461 C   0  0  0  0  0  0  0  0  0  0  0  0
   -0.7876    1.8319   -3.2214 O   0  0  0  0  0  0  0  0  0  0  0  0
    1.3130    2.6993   -3.2295 O   0  0  0  0  0  0  0  0  0  0  0  0
    0.2381    0.4970    0.6194 H   0  0  0  0  0  0  0  0  0  0  0  0
   -0.9321   -0.3569   -1.9092 H   0  0  0  0  0  0  0  0  0  0  0  0
    1.8738    0.9023   -1.6958 H   0  0  0  0  0  0  0  0  0  0  0  0
    1.4407   -0.1331   -3.0361 H   0  0  0  0  0  0  0  0  0  0  0  0
    0.9511    3.4932   -3.6785 H   0  0  0  0  0  0  0  0  0  0  0  0
    0.9194   -2.3435   -1.9367 N   0  0  0  0  0  0  0  0  0  0  0  0
    1.4571   -3.6680   -1.7310 C   0  0  2  0  0  0  0  0  0  0  0  0
    0.3580   -4.5336   -1.1292 C   0  0  0  0  0  0  0  0  0  0  0  0
   -0.6055   -4.0692   -0.5234 O   0  0  0  0  0  0  0  0  0  0  0  0
    2.6792   -3.6348   -0.8265 C   0  0  0  0  0  0  0  0  0  0  0  0
    0.7970   -2.0095   -2.8882 H   0  0  0  0  0  0  0  0  0  0  0  0
    1.7287   -4.0560   -2.7188 H   0  0  0  0  0  0  0  0  0  0  0  0
    2.4267   -3.2488    0.1678 H   0  0  0  0  0  0  0  0  0  0  0  0
    3.1026   -4.6360   -0.6946 H   0  0  0  0  0  0  0  0  0  0  0  0
    3.4573   -2.9881   -1.2463 H   0  0  0  0  0  0  0  0  0  0  0  0
    0.6017   -5.8878   -1.3109 N   0  0  0  0  0  0  0  0  0  0  0  0
   -0.2889   -6.9131   -0.8195 C   0  0  0  0  0  0  0  0  0  0  0  0
    1.4160   -6.1820   -1.8421 H   0  0  0  0  0  0  0  0  0  0  0  0
    0.0355   -7.2320    0.1821 H   0  0  0  0  0  0  0  0  0  0  0  0
   -1.3122   -6.5136   -0.7635 H   0  0  0  0  0  0  0  0  0  0  0  0
   -0.2685   -7.7747   -1.5030 H   0  0  0  0  0  0  0  0  0  0  0  0
  1  3  1  0  0  0  0
  1  7  1  0  0  0  0
  1  2  2  0  0  0  0
 31 32  1  0  0  0  0
 32 40  1  0  0  0  0
 32 33  2  0  0  0  0
  8  9  1  0  0  0  0
  9 17  1  0  0  0  0
  9 10  2  0  0  0  0
 18 19  1  0  0  0  0
 19 30  1  0  0  0  0
 19 20  2  0  0  0  0
 21 22  1  0  0  0  0
 22 23  2  0  0  0  0
 22 24  1  0  0  0  0
 31 34  1  0  0  0  0
  8 11  1  0  0  0  0
 40 41  1  0  0  0  0
 18 21  1  0  0  0  0
 30 31  1  0  0  0  0
  7  8  1  0  0  0  0
 17 18  1  0  0  0  0
  3  4  1  0  0  0  0
  3  5  1  0  0  0  0
  3  6  1  0  0  0  0
 34 37  1  0  0  0  0
 34 38  1  0  0  0  0
 34 39  1  0  0  0  0
 11 14  1  0  0  0  0
 11 15  1  0  0  0  0
 11 16  1  0  0  0  0
 41 43  1  0  0  0  0
 41 44  1  0  0  0  0
 41 45  1  0  0  0  0
 21 27  1  0  0  0  0
 21 28  1  0  0  0  0
 31 36  1  0  0  0  0
  8 13  1  0  0  0  0
 18 26  1  0  0  0  0
 40 42  1  0  0  0  0
  7 12  1  0  0  0  0
 30 35  1  0  0  0  0
 17 25  1  0  0  0  0
 24 29  1  0  0  0  0
M  END
$$$$

  -OEChem-05262214473D

 45 44  0     1  0  0  0  0  0999 V2000
   -2.2987    4.1032   -0.3022 C   0  0  0  0  0  0  0  0  0  0  0  0
   -1.8049    3.7117   -1.3532 O   0  0  0  0  0  0  0  0  0  0  0  0
   -3.0791    5.3755   -0.2846 C   0  0  0  0  0  0  0  0  0  0  0  0
   -2.4478    6.2532   -0.0717 H   0  0  0  0  0  0  0  0  0  0  0  0
   -3.5571    5.5891   -1.2541 H   0  0  0  0  0  0  0  0  0  0  0  0
   -3.8940    5.4184    0.4556 H   0  0  0  0  0  0  0  0  0  0  0  0
   -2.2137    3.4712    0.9275 N   0  0  0  0  0  0  0  0  0  0  0  0
   -1.5102    2.2327    1.1338 C   0  0  2  0  0  0  0  0  0  0  0  0
   -1.3539    1.5497   -0.2184 C   0  0  0  0  0  0  0  0  0  0  0  0
   -2.0852    1.7861   -1.1778 O   0  0  0  0  0  0  0  0  0  0  0  0
   -2.2477    1.3342    2.1145 C   0  0  0  0  0  0  0  0  0  0  0  0
   -2.6724    3.9052    1.7265 H   0  0  0  0  0  0  0  0  0  0  0  0
   -0.5220    2.4922    1.5290 H   0  0  0  0  0  0  0  0  0  0  0  0
   -3.2400    1.0636    1.7358 H   0  0  0  0  0  0  0  0  0  0  0  0
   -1.6970    0.4046    2.2923 H   0  0  0  0  0  0  0  0  0  0  0  0
   -2.3854    1.8384    3.0772 H   0  0  0  0  0  0  0  0  0  0  0  0
   -0.3283    0.6116   -0.2182 N   0  0  0  0  0  0  0  0  0  0  0  0
    0.0090   -0.1762   -1.3759 C   0  0  2  0  0  0  0  0  0  0  0  0
    0.5631   -1.5085   -0.8869 C   0  0  0  0  0  0  0  0  0  0  0  0
    0.3988   -1.9217    0.2591 O   0  0  0  0  0  0  0  0  0  0  0  0
    1.0177    0.5338   -2.2750 C   0  0  0  0  0  0  0  0  0  0  0  0
    0.4013    1.7365   -2.9461 C   0  0  0  0  0  0  0  0  0  0  0  0
   -0.7876    1.8319   -3.2214 O   0  0  0  0  0  0  0  0  0  0  0  0
    1.3130    2.6993   -3.2295 O   0  0  0  0  0  0  0  0  0  0  0  0
    0.2381    0.4970    0.6194 H   0  0  0  0  0  0  0  0  0  0  0  0
   -0.9321   -0.3569   -1.9092 H   0  0  0  0  0  0  0  0  0  0  0  0
    1.8738    0.9023   -1.6958 H   0  0  0  0  0  0  0  0  0  0  0  0
    1.4407   -0.1331   -3.0361 H   0  0  0  0  0  0  0  0  0  0  0  0
    0.9511    3.4932   -3.6785 H   0  0  0  0  0  0  0  0  0  0  0  0
    1.2207   -2.2022   -1.8932 N   0  0  0  0  0  0  0  0  0  0  0  0
    1.8212   -3.4986   -1.6819 C   0  0  2  0  0  0  0  0  0  0  0  0
    0.7020   -4.4990   -1.4249 C   0  0  0  0  0  0  0  0  0  0  0  0
   -0.4113   -4.1707   -1.0202 O   0  0  0  0  0  0  0  0  0  0  0  0
    2.8029   -3.4712   -0.5208 C   0  0  0  0  0  0  0  0  0  0  0  0
    1.2821   -1.7811   -2.8155 H   0  0  0  0  0  0  0  0  0  0  0  0
    2.3408   -3.7615   -2.6098 H   0  0  0  0  0  0  0  0  0  0  0  0
    2.3005   -3.2096    0.4176 H   0  0  0  0  0  0  0  0  0  0  0  0
    3.2784   -4.4474   -0.3801 H   0  0  0  0  0  0  0  0  0  0  0  0
    3.5906   -2.7299   -0.6939 H   0  0  0  0  0  0  0  0  0  0  0  0
    1.1061   -5.8059   -1.6595 N   0  0  0  0  0  0  0  0  0  0  0  0
    0.2288   -6.9383   -1.4749 C   0  0  0  0  0  0  0  0  0  0  0  0
    2.0420   -5.9839   -2.0117 H   0  0  0  0  0  0  0  0  0  0  0  0
    0.3508   -7.3351   -0.4562 H   0  0  0  0  0  0  0  0  0  0  0  0
   -0.8143   -6.6217   -1.6225 H   0  0  0  0  0  0  0  0  0  0  0  0
    0.4815   -7.7206   -2.2057 H   0  0  0  0  0  0  0  0  0  0  0  0
  1  3  1  0  0  0  0
  1  7  1  0  0  0  0
  1  2  2  0  0  0  0
 31 32  1  0  0  0  0
 32 40  1  0  0  0  0
 32 33  2  0  0  0  0
  8  9  1  0  0  0  0
  9 17  1  0  0  0  0
  9 10  2  0  0  0  0
 18 19  1  0  0  0  0
 19 30  1  0  0  0  0
 19 20  2  0  0  0  0
 21 22  1  0  0  0  0
 22 23  2  0  0  0  0
 22 24  1  0  0  0  0
 31 34  1  0  0  0  0
  8 11  1  0  0  0  0
 40 41  1  0  0  0  0
 18 21  1  0  0  0  0
 30 31  1  0  0  0  0
  7  8  1  0  0  0  0
 17 18  1  0  0  0  0
  3  4  1  0  0  0  0
  3  5  1  0  0  0  0
  3  6  1  0  0  0  0
 34 37  1  0  0  0  0
 34 38  1  0  0  0  0
 34 39  1  0  0  0  0
 11 14  1  0  0  0  0
 11 15  1  0  0  0  0
 11 16  1  0  0  0  0
 41 43  1  0  0  0  0
 41 44  1  0  0  0  0
 41 45  1  0  0  0  0
 21 27  1  0  0  0  0
 21 28  1  0  0  0  0
 31 36  1  0  0  0  0
  8 13  1  0  0  0  0
 18 26  1  0  0  0  0
 40 42  1  0  0  0  0
  7 12  1  0  0  0  0
 30 35  1  0  0  0  0
 17 25  1  0  0  0  0
 24 29  1  0  0  0  0
M  END
$$$$

  -OEChem-05262214473D

 45 44  0     1  0  0  0  0  0999 V2000
   -2.2987    4.1032   -0.3022 C   0  0  0  0  0  0  0  0  0  0  0  0
   -1.8049    3.7117   -1.3532 O   0  0  0  0  0  0  0  0  0  0  0  0
   -3.0791    5.3755   -0.2846 C   0  0  0  0  0  0  0  0  0  0  0  0
   -2.4478    6.2532   -0.0717 H   0  0  0  0  0  0  0  0  0  0  0  0
   -3.5571    5.5891   -1.2541 H   0  0  0  0  0  0  0  0  0  0  0  0
   -3.8940    5.4184    0.4556 H   0  0  0  0  0  0  0  0  0  0  0  0
   -2.2137    3.4712    0.9275 N   0  0  0  0  0  0  0  0  0  0  0  0
   -1.5102    2.2327    1.1338 C   0  0  2  0  0  0  0  0  0  0  0  0
   -1.3539    1.5497   -0.2184 C   0  0  0  0  0  0  0  0  0  0  0  0
   -2.0852    1.7861   -1.1778 O   0  0  0  0  0  0  0  0  0  0  0  0
   -2.2477    1.3342    2.1145 C   0  0  0  0  0  0  0  0  0  0  0  0
   -2.6724    3.9052    1.7265 H   0  0  0  0  0  0  0  0  0  0  0  0
   -0.5220    2.4922    1.5290 H   0  0  0  0  0  0  0  0  0  0  0  0
   -3.2400    1.0636    1.7358 H   0  0  0  0  0  0  0  0  0  0  0  0
   -1.6970    0.4046    2.2923 H   0  0  0  0  0  0  0  0  0  0  0  0
   -2.3854    1.8384    3.0772 H   0  0  0  0  0  0  0  0  0  0  0  0
   -0.3283    0.6116   -0.2182 N   0  0  0  0  0  0  0  0  0  0  0  0
    0.0090   -0.1762   -1.3759 C   0  0  2  0  0  0  0  0  0  0  0  0
    0.5631   -1.5085   -0.8869 C   0  0  0  0  0  0  0  0  0  0  0  0
    0.1876   -2.0491    0.1513 O   0  0  0  0  0  0  0  0  0  0  0  0
    1.0177    0.5338   -2.2750 C   0  0  0  0  0  0  0  0  0  0  0  0
    0.4013    1.7365   -2.9461 C   0  0  0  0  0  0  0  0  0  0  0  0
   -0.7876    1.8319   -3.2214 O   0  0  0  0  0  0  0  0  0  0  0  0
    1.3130    2.6993   -3.2295 O   0  0  0  0  0  0  0  0  0  0  0  0
    0.2381    0.4970    0.6194 H   0  0  0  0  0  0  0  0  0  0  0  0
   -0.9321   -0.3569   -1.9092 H   0  0  0  0  0  0  0  0  0  0  0  0
    1.8738    0.9023   -1.6958 H   0  0  0  0  0  0  0  0  0  0  0  0
    1.4407   -0.1331   -3.0361 H   0  0  0  0  0  0  0  0  0  0  0  0
    0.9511    3.4932   -3.6785 H   0  0  0  0  0  0  0  0  0  0  0  0
    1.4901   -2.0448   -1.7697 N   0  0  0  0  0  0  0  0  0  0  0  0
    2.1476   -3.3094   -1.5362 C   0  0  2  0  0  0  0  0  0  0  0  0
    1.0983   -4.4092   -1.6295 C   0  0  0  0  0  0  0  0  0  0  0  0
   -0.1029   -4.2060   -1.4657 O   0  0  0  0  0  0  0  0  0  0  0  0
    2.8396   -3.3316   -0.1822 C   0  0  0  0  0  0  0  0  0  0  0  0
    1.7153   -1.5270   -2.6140 H   0  0  0  0  0  0  0  0  0  0  0  0
    2.8829   -3.4363   -2.3383 H   0  0  0  0  0  0  0  0  0  0  0  0
    2.1188   -3.2058    0.6339 H   0  0  0  0  0  0  0  0  0  0  0  0
    3.3614   -4.2803   -0.0189 H   0  0  0  0  0  0  0  0  0  0  0  0
    3.5728   -2.5215   -0.1059 H   0  0  0  0  0  0  0  0  0  0  0  0
    1.6654   -5.6521   -1.8743 N   0  0  0  0  0  0  0  0  0  0  0  0
    0.8793   -6.8579   -1.9932 C   0  0  0  0  0  0  0  0  0  0  0  0
    2.6687   -5.7246   -2.0153 H   0  0  0  0  0  0  0  0  0  0  0  0
    0.8084   -7.3483   -1.0111 H   0  0  0  0  0  0  0  0  0  0  0  0
   -0.1299   -6.6039   -2.3497 H   0  0  0  0  0  0  0  0  0  0  0  0
    1.3604   -7.5400   -2.7096 H   0  0  0  0  0  0  0  0  0  0  0  0
  1  3  1  0  0  0  0
  1  7  1  0  0  0  0
  1  2  2  0  0  0  0
 31 32  1  0  0  0  0
 32 40  1  0  0  0  0
 32 33  2  0  0  0  0
  8  9  1  0  0  0  0
  9 17  1  0  0  0  0
  9 10  2  0  0  0  0
 18 19  1  0  0  0  0
 19 30  1  0  0  0  0
 19 20  2  0  0  0  0
 21 22  1  0  0  0  0
 22 23  2  0  0  0  0
 22 24  1  0  0  0  0
 31 34  1  0  0  0  0
  8 11  1  0  0  0  0
 40 41  1  0  0  0  0
 18 21  1  0  0  0  0
 30 31  1  0  0  0  0
  7  8  1  0  0  0  0
 17 18  1  0  0  0  0
  3  4  1  0  0  0  0
  3  5  1  0  0  0  0
  3  6  1  0  0  0  0
 34 37  1  0  0  0  0
 34 38  1  0  0  0  0
 34 39  1  0  0  0  0
 11 14  1  0  0  0  0
 11 15  1  0  0  0  0
 11 16  1  0  0  0  0
 41 43  1  0  0  0  0
 41 44  1  0  0  0  0
 41 45  1  0  0  0  0
 21 27  1  0  0  0  0
 21 28  1  0  0  0  0
 31 36  1  0  0  0  0
  8 13  1  0  0  0  0
 18 26  1  0  0  0  0
 40 42  1  0  0  0  0
  7 12  1  0  0  0  0
 30 35  1  0  0  0  0
 17 25  1  0  0  0  0
 24 29  1  0  0  0  0
M  END
$$$$

  -OEChem-05262214473D

 45 44  0     1  0  0  0  0  0999 V2000
   -2.2987    4.1032   -0.3022 C   0  0  0  0  0  0  0  0  0  0  0  0
   -1.8049    3.7117   -1.3532 O   0  0  0  0  0  0  0  0  0  0  0  0
   -3.0791    5.3755   -0.2846 C   0  0  0  0  0  0  0  0  0  0  0  0
   -2.4478    6.2532   -0.0717 H   0  0  0  0  0  0  0  0  0  0  0  0
   -3.5571    5.5891   -1.2541 H   0  0  0  0  0  0  0  0  0  0  0  0
   -3.8940    5.4184    0.4556 H   0  0  0  0  0  0  0  0  0  0  0  0
   -2.2137    3.4712    0.9275 N   0  0  0  0  0  0  0  0  0  0  0  0
   -1.5102    2.2327    1.1338 C   0  0  2  0  0  0  0  0  0  0  0  0
   -1.3539    1.5497   -0.2184 C   0  0  0  0  0  0  0  0  0  0  0  0
   -2.0852    1.7861   -1.1778 O   0  0  0  0  0  0  0  0  0  0  0  0
   -2.2477    1.3342    2.1145 C   0  0  0  0  0  0  0  0  0  0  0  0
   -2.6724    3.9052    1.7265 H   0  0  0  0  0  0  0  0  0  0  0  0
   -0.5220    2.4922    1.5290 H   0  0  0  0  0  0  0  0  0  0  0  0
   -3.2400    1.0636    1.7358 H   0  0  0  0  0  0  0  0  0  0  0  0
   -1.6970    0.4046    2.2923 H   0  0  0  0  0  0  0  0  0  0  0  0
   -2.3854    1.8384    3.0772 H   0  0  0  0  0  0  0  0  0  0  0  0
   -0.3283    0.6116   -0.2182 N   0  0  0  0  0  0  0  0  0  0  0  0
    0.0090   -0.1762   -1.3759 C   0  0  2  0  0  0  0  0  0  0  0  0
    0.5631   -1.5085   -0.8869 C   0  0  0  0  0  0  0  0  0  0  0  0
    0.0187   -2.1796   -0.0127 O   0  0  0  0  0  0  0  0  0  0  0  0
    1.0177    0.5338   -2.2750 C   0  0  0  0  0  0  0  0  0  0  0  0
    0.4013    1.7365   -2.9461 C   0  0  0  0  0  0  0  0  0  0  0  0
   -0.7876    1.8319   -3.2214 O   0  0  0  0  0  0  0  0  0  0  0  0
    1.3130    2.6993   -3.2295 O   0  0  0  0  0  0  0  0  0  0  0  0
    0.2381    0.4970    0.6194 H   0  0  0  0  0  0  0  0  0  0  0  0
   -0.9321   -0.3569   -1.9092 H   0  0  0  0  0  0  0  0  0  0  0  0
    1.8738    0.9023   -1.6958 H   0  0  0  0  0  0  0  0  0  0  0  0
    1.4407   -0.1331   -3.0361 H   0  0  0  0  0  0  0  0  0  0  0  0
    0.9511    3.4932   -3.6785 H   0  0  0  0  0  0  0  0  0  0  0  0
    1.7094   -1.8820   -1.5745 N   0  0  0  0  0  0  0  0  0  0  0  0
    2.4143   -3.1131   -1.3038 C   0  0  2  0  0  0  0  0  0  0  0  0
    1.5200   -4.2703   -1.7289 C   0  0  0  0  0  0  0  0  0  0  0  0
    0.2988   -4.1724   -1.8296 O   0  0  0  0  0  0  0  0  0  0  0  0
    2.7868   -3.2257    0.1663 C   0  0  0  0  0  0  0  0  0  0  0  0
    2.0670   -1.2645   -2.2975 H   0  0  0  0  0  0  0  0  0  0  0  0
    3.3180   -3.1028   -1.9227 H   0  0  0  0  0  0  0  0  0  0  0  0
    1.8940   -3.2375    0.8022 H   0  0  0  0  0  0  0  0  0  0  0  0
    3.3460   -4.1460    0.3646 H   0  0  0  0  0  0  0  0  0  0  0  0
    3.4053   -2.3770    0.4777 H   0  0  0  0  0  0  0  0  0  0  0  0
    2.2414   -5.4369   -1.9407 N   0  0  0  0  0  0  0  0  0  0  0  0
    1.6182   -6.6775   -2.3390 C   0  0  0  0  0  0  0  0  0  0  0  0
    3.2532   -5.4217   -1.8525 H   0  0  0  0  0  0  0  0  0  0  0  0
    1.3772   -7.2709   -1.4447 H   0  0  0  0  0  0  0  0  0  0  0  0
    0.6944   -6.4614   -2.8955 H   0  0  0  0  0  0  0  0  0  0  0  0
    2.3085   -7.2450   -2.9804 H   0  0  0  0  0  0  0  0  0  0  0  0
  1  3  1  0  0  0  0
  1  7  1  0  0  0  0
  1  2  2  0  0  0  0
 31 32  1  0  0  0  0
 32 40  1  0  0  0  0
 32 33  2  0  0  0  0
  8  9  1  0  0  0  0
  9 17  1  0  0  0  0
  9 10  2  0  0  0  0
 18 19  1  0  0  0  0
 19 30  1  0  0  0  0
 19 20  2  0  0  0  0
 21 22  1  0  0  0  0
 22 23  2  0  0  0  0
 22 24  1  0  0  0  0
 31 34  1  0  0  0  0
  8 11  1  0  0  0  0
 40 41  1  0  0  0  0
 18 21  1  0  0  0  0
 30 31  1  0  0  0  0
  7  8  1  0  0  0  0
 17 18  1  0  0  0  0
  3  4  1  0  0  0  0
  3  5  1  0  0  0  0
  3  6  1  0  0  0  0
 34 37  1  0  0  0  0
 34 38  1  0  0  0  0
 34 39  1  0  0  0  0
 11 14  1  0  0  0  0
 11 15  1  0  0  0  0
 11 16  1  0  0  0  0
 41 43  1  0  0  0  0
 41 44  1  0  0  0  0
 41 45  1  0  0  0  0
 21 27  1  0  0  0  0
 21 28  1  0  0  0  0
 31 36  1  0  0  0  0
  8 13  1  0  0  0  0
 18 26  1  0  0  0  0
 40 42  1  0  0  0  0
  7 12  1  0  0  0  0
 30 35  1  0  0  0  0
 17 25  1  0  0  0  0
 24 29  1  0  0  0  0
M  END
$$$$

  -OEChem-05262214473D

 45 44  0     1  0  0  0  0  0999 V2000
   -2.2987    4.1032   -0.3022 C   0  0  0  0  0  0  0  0  0  0  0  0
   -1.8049    3.7117   -1.3532 O   0  0  0  0  0  0  0  0  0  0  0  0
   -3.0791    5.3755   -0.2846 C   0  0  0  0  0  0  0  0  0  0  0  0
   -2.4478    6.2532   -0.0717 H   0  0  0  0  0  0  0  0  0  0  0  0
   -3.5571    5.5891   -1.2541 H   0  0  0  0  0  0  0  0  0  0  0  0
   -3.8940    5.4184    0.4556 H   0  0  0  0  0  0  0  0  0  0  0  0
   -2.2137    3.4712    0.9275 N   0  0  0  0  0  0  0  0  0  0  0  0
   -1.5102    2.2327    1.1338 C   0  0  2  0  0  0  0  0  0  0  0  0
   -1.3539    1.5497   -0.2184 C   0  0  0  0  0  0  0  0  0  0  0  0
   -2.0852    1.7861   -1.1778 O   0  0  0  0  0  0  0  0  0  0  0  0
   -2.2477    1.3342    2.1145 C   0  0  0  0  0  0  0  0  0  0  0  0
   -2.6724    3.9052    1.7265 H   0  0  0  0  0  0  0  0  0  0  0  0
   -0.5220    2.4922    1.5290 H   0  0  0  0  0  0  0  0  0  0  0  0
   -3.2400    1.0636    1.7358 H   0  0  0  0  0  0  0  0  0  0  0  0
   -1.6970    0.4046    2.2923 H   0  0  0  0  0  0  0  0  0  0  0  0
   -2.3854    1.8384    3.0772 H   0  0  0  0  0  0  0  0  0  0  0  0
   -0.3283    0.6116   -0.2182 N   0  0  0  0  0  0  0  0  0  0  0  0
    0.0090   -0.1762   -1.3759 C   0  0  2  0  0  0  0  0  0  0  0  0
    0.5631   -1.5085   -0.8869 C   0  0  0  0  0  0  0  0  0  0  0  0
   -0.0966   -2.3042   -0.2215 O   0  0  0  0  0  0  0  0  0  0  0  0
    1.0177    0.5338   -2.2750 C   0  0  0  0  0  0  0  0  0  0  0  0
    0.4013    1.7365   -2.9461 C   0  0  0  0  0  0  0  0  0  0  0  0
   -0.7876    1.8319   -3.2214 O   0  0  0  0  0  0  0  0  0  0  0  0
    1.3130    2.6993   -3.2295 O   0  0  0  0  0  0  0  0  0  0  0  0
    0.2381    0.4970    0.6194 H   0  0  0  0  0  0  0  0  0  0  0  0
   -0.9321   -0.3569   -1.9092 H   0  0  0  0  0  0  0  0  0  0  0  0
    1.8738    0.9023   -1.6958 H   0  0  0  0  0  0  0  0  0  0  0  0
    1.4407   -0.1331   -3.0361 H   0  0  0  0  0  0  0  0  0  0  0  0
    0.9511    3.4932   -3.6785 H   0  0  0  0  0  0  0  0  0  0  0  0
    1.8634   -1.7249   -1.3211 N   0  0  0  0  0  0  0  0  0  0  0  0
    2.6029   -2.9234   -1.0004 C   0  0  2  0  0  0  0  0  0  0  0  0
    1.9382   -4.0918   -1.7163 C   0  0  0  0  0  0  0  0  0  0  0  0
    0.7663   -4.0724   -2.0870 O   0  0  0  0  0  0  0  0  0  0  0  0
    2.6481   -3.1605    0.5010 C   0  0  0  0  0  0  0  0  0  0  0  0
    2.3133   -1.0116   -1.8874 H   0  0  0  0  0  0  0  0  0  0  0  0
    3.6166   -2.7837   -1.3914 H   0  0  0  0  0  0  0  0  0  0  0  0
    1.6414   -3.3027    0.9108 H   0  0  0  0  0  0  0  0  0  0  0  0
    3.2331   -4.0537    0.7442 H   0  0  0  0  0  0  0  0  0  0  0  0
    3.0994   -2.3063    1.0171 H   0  0  0  0  0  0  0  0  0  0  0  0
    2.7950   -5.1749   -1.8543 N   0  0  0  0  0  0  0  0  0  0  0  0
    2.3953   -6.4092   -2.4888 C   0  0  0  0  0  0  0  0  0  0  0  0
    3.7558   -5.0959   -1.5344 H   0  0  0  0  0  0  0  0  0  0  0  0
    2.0182   -7.1081   -1.7276 H   0  0  0  0  0  0  0  0  0  0  0  0
    1.6022   -6.2040   -3.2229 H   0  0  0  0  0  0  0  0  0  0  0  0
    3.2611   -6.8559   -2.9996 H   0  0  0  0  0  0  0  0  0  0  0  0
  1  3  1  0  0  0  0
  1  7  1  0  0  0  0
  1  2  2  0  0  0  0
 31 32  1  0  0  0  0
 32 40  1  0  0  0  0
 32 33  2  0  0  0  0
  8  9  1  0  0  0  0
  9 17  1  0  0  0  0
  9 10  2  0  0  0  0
 18 19  1  0  0  0  0
 19 30  1  0  0  0  0
 19 20  2  0  0  0  0
 21 22  1  0  0  0  0
 22 23  2  0  0  0  0
 22 24  1  0  0  0  0
 31 34  1  0  0  0  0
  8 11  1  0  0  0  0
 40 41  1  0  0  0  0
 18 21  1  0  0  0  0
 30 31  1  0  0  0  0
  7  8  1  0  0  0  0
 17 18  1  0  0  0  0
  3  4  1  0  0  0  0
  3  5  1  0  0  0  0
  3  6  1  0  0  0  0
 34 37  1  0  0  0  0
 34 38  1  0  0  0  0
 34 39  1  0  0  0  0
 11 14  1  0  0  0  0
 11 15  1  0  0  0  0
 11 16  1  0  0  0  0
 41 43  1  0  0  0  0
 41 44  1  0  0  0  0
 41 45  1  0  0  0  0
 21 27  1  0  0  0  0
 21 28  1  0  0  0  0
 31 36  1  0  0  0  0
  8 13  1  0  0  0  0
 18 26  1  0  0  0  0
 40 42  1  0  0  0  0
  7 12  1  0  0  0  0
 30 35  1  0  0  0  0
 17 25  1  0  0  0  0
 24 29  1  0  0  0  0
M  END
$$$$

  -OEChem-05262214473D

 45 44  0     1  0  0  0  0  0999 V2000
   -2.2987    4.1032   -0.3022 C   0  0  0  0  0  0  0  0  0  0  0  0
   -1.8049    3.7117   -1.3532 O   0  0  0  0  0  0  0  0  0  0  0  0
   -3.0791    5.3755   -0.2846 C   0  0  0  0  0  0  0  0  0  0  0  0
   -2.4478    6.2532   -0.0717 H   0  0  0  0  0  0  0  0  0  0  0  0
   -3.5571    5.5891   -1.2541 H   0  0  0  0  0  0  0  0  0  0  0  0
   -3.8940    5.4184    0.4556 H   0  0  0  0  0  0  0  0  0  0  0  0
   -2.2137    3.4712    0.9275 N   0  0  0  0  0  0  0  0  0  0  0  0
   -1.5102    2.2327    1.1338 C   0  0  2  0  0  0  0  0  0  0  0  0
   -1.3539    1.5497   -0.2184 C   0  0  0  0  0  0  0  0  0  0  0  0
   -2.0852    1.7861   -1.1778 O   0  0  0  0  0  0  0  0  0  0  0  0
   -2.2477    1.3342    2.1145 C   0  0  0  0  0  0  0  0  0  0  0  0
   -2.6724    3.9052    1.7265 H   0  0  0  0  0  0  0  0  0  0  0  0
   -0.5220    2.4922    1.5290 H   0  0  0  0  0  0  0  0  0  0  0  0
   -3.2400    1.0636    1.7358 H   0  0  0  0  0  0  0  0  0  0  0  0
   -1.6970    0.4046    2.2923 H   0  0  0  0  0  0  0  0  0  0  0  0
   -2.3854    1.8384    3.0772 H   0  0  0  0  0  0  0  0  0  0  0  0
   -0.3283    0.6116   -0.2182 N   0  0  0  0  0  0  0  0  0  0  0  0
    0.0090   -0.1762   -1.3759 C   0  0  2  0  0  0  0  0  0  0  0  0
    0.5631   -1.5085   -0.8869 C   0  0  0  0  0  0  0  0  0  0  0  0
   -0.1504   -2.4145   -0.4611 O   0  0  0  0  0  0  0  0  0  0  0  0
    1.0177    0.5338   -2.2750 C   0  0  0  0  0  0  0  0  0  0  0  0
    0.4013    1.7365   -2.9461 C   0  0  0  0  0  0  0  0  0  0  0  0
   -0.7876    1.8319   -3.2214 O   0  0  0  0  0  0  0  0  0  0  0  0
    1.3130    2.6993   -3.2295 O   0  0  0  0  0  0  0  0  0  0  0  0
    0.2381    0.4970    0.6194 H   0  0  0  0  0  0  0  0  0  0  0  0
   -0.9321   -0.3569   -1.9092 H   0  0  0  0  0  0  0  0  0  0  0  0
    1.8738    0.9023   -1.6958 H   0  0  0  0  0  0  0  0  0  0  0  0
    1.4407   -0.1331   -3.0361 H   0  0  0  0  0  0  0  0  0  0  0  0
    0.9511    3.4932   -3.6785 H   0  0  0  0  0  0  0  0  0  0  0  0
    1.9419   -1.5842   -1.0267 N   0  0  0  0  0  0  0  0  0  0  0  0
    2.7007   -2.7529   -0.6469 C   0  0  2  0  0  0  0  0  0  0  0  0
    2.3246   -3.8857   -1.5928 C   0  0  0  0  0  0  0  0  0  0  0  0
    1.2679   -3.9127   -2.2203 O   0  0  0  0  0  0  0  0  0  0  0  0
    2.4329   -3.1406    0.7991 C   0  0  0  0  0  0  0  0  0  0  0  0
    2.4373   -0.7854   -1.4117 H   0  0  0  0  0  0  0  0  0  0  0  0
    3.7583   -2.5006   -0.7806 H   0  0  0  0  0  0  0  0  0  0  0  0
    1.3783   -3.3969    0.9524 H   0  0  0  0  0  0  0  0  0  0  0  0
    3.0304   -4.0096    1.0940 H   0  0  0  0  0  0  0  0  0  0  0  0
    2.6759   -2.3142    1.4756 H   0  0  0  0  0  0  0  0  0  0  0  0
    3.2884   -4.8840   -1.6208 N   0  0  0  0  0  0  0  0  0  0  0  0
    3.1575   -6.0715   -2.4324 C   0  0  0  0  0  0  0  0  0  0  0  0
    4.1422   -4.7694   -1.0827 H   0  0  0  0  0  0  0  0  0  0  0  0
    2.6879   -6.8709   -1.8404 H   0  0  0  0  0  0  0  0  0  0  0  0
    2.5318   -5.8490   -3.3093 H   0  0  0  0  0  0  0  0  0  0  0  0
    4.1532   -6.3990   -2.7660 H   0  0  0  0  0  0  0  0  0  0  0  0
  1  3  1  0  0  0  0
  1  7  1  0  0  0  0
  1  2  2  0  0  0  0
 31 32  1  0  0  0  0
 32 40  1  0  0  0  0
 32 33  2  0  0  0  0
  8  9  1  0  0  0  0
  9 17  1  0  0  0  0
  9 10  2  0  0  0  0
 18 19  1  0  0  0  0
 19 30  1  0  0  0  0
 19 20  2  0  0  0  0
 21 22  1  0  0  0  0
 22 23  2  0  0  0  0
 22 24  1  0  0  0  0
 31 34  1  0  0  0  0
  8 11  1  0  0  0  0
 40 41  1  0  0  0  0
 18 21  1  0  0  0  0
 30 31  1  0  0  0  0
  7  8  1  0  0  0  0
 17 18  1  0  0  0  0
  3  4  1  0  0  0  0
  3  5  1  0  0  0  0
  3  6  1  0  0  0  0
 34 37  1  0  0  0  0
 34 38  1  0  0  0  0
 34 39  1  0  0  0  0
 11 14  1  0  0  0  0
 11 15  1  0  0  0  0
 11 16  1  0  0  0  0
 41 43  1  0  0  0  0
 41 44  1  0  0  0  0
 41 45  1  0  0  0  0
 21 27  1  0  0  0  0
 21 28  1  0  0  0  0
 31 36  1  0  0  0  0
  8 13  1  0  0  0  0
 18 26  1  0  0  0  0
 40 42  1  0  0  0  0
  7 12  1  0  0  0  0
 30 35  1  0  0  0  0
 17 25  1  0  0  0  0
 24 29  1  0  0  0  0
M  END
$$$$

  -OEChem-05262214473D

 45 44  0     1  0  0  0  0  0999 V2000
   -2.2987    4.1032   -0.3022 C   0  0  0  0  0  0  0  0  0  0  0  0
   -1.8049    3.7117   -1.3532 O   0  0  0  0  0  0  0  0  0  0  0  0
   -3.0791    5.3755   -0.2846 C   0  0  0  0  0  0  0  0  0  0  0  0
   -2.4478    6.2532   -0.0717 H   0  0  0  0  0  0  0  0  0  0  0  0
   -3.5571    5.5891   -1.2541 H   0  0  0  0  0  0  0  0  0  0  0  0
   -3.8940    5.4184    0.4556 H   0  0  0  0  0  0  0  0  0  0  0  0
   -2.2137    3.4712    0.9275 N   0  0  0  0  0  0  0  0  0  0  0  0
   -1.5102    2.2327    1.1338 C   0  0  2  0  0  0  0  0  0  0  0  0
   -1.3539    1.5497   -0.2184 C   0  0  0  0  0  0  0  0  0  0  0  0
   -2.0852    1.7861   -1.1778 O   0  0  0  0  0  0  0  0  0  0  0  0
   -2.2477    1.3342    2.1145 C   0  0  0  0  0  0  0  0  0  0  0  0
   -2.6724    3.9052    1.7265 H   0  0  0  0  0  0  0  0  0  0  0  0
   -0.5220    2.4922    1.5290 H   0  0  0  0  0  0  0  0  0  0  0  0
   -3.2400    1.0636    1.7358 H   0  0  0  0  0  0  0  0  0  0  0  0
   -1.6970    0.4046    2.2923 H   0  0  0  0  0  0  0  0  0  0  0  0
   -2.3854    1.8384    3.0772 H   0  0  0  0  0  0  0  0  0  0  0  0
   -0.3283    0.6116   -0.2182 N   0  0  0  0  0  0  0  0  0  0  0  0
    0.0090   -0.1762   -1.3759 C   0  0  2  0  0  0  0  0  0  0  0  0
    0.5631   -1.5085   -0.8869 C   0  0  0  0  0  0  0  0  0  0  0  0
   -0.1389   -2.5029   -0.7151 O   0  0  0  0  0  0  0  0  0  0  0  0
    1.0177    0.5338   -2.2750 C   0  0  0  0  0  0  0  0  0  0  0  0
    0.4013    1.7365   -2.9461 C   0  0  0  0  0  0  0  0  0  0  0  0
   -0.7876    1.8319   -3.2214 O   0  0  0  0  0  0  0  0  0  0  0  0
    1.3130    2.6993   -3.2295 O   0  0  0  0  0  0  0  0  0  0  0  0
    0.2381    0.4970    0.6194 H   0  0  0  0  0  0  0  0  0  0  0  0
   -0.9321   -0.3569   -1.9092 H   0  0  0  0  0  0  0  0  0  0  0  0
    1.8738    0.9023   -1.6958 H   0  0  0  0  0  0  0  0  0  0  0  0
    1.4407   -0.1331   -3.0361 H   0  0  0  0  0  0  0  0  0  0  0  0
    0.9511    3.4932   -3.6785 H   0  0  0  0  0  0  0  0  0  0  0  0
    1.9393   -1.4695   -0.7113 N   0  0  0  0  0  0  0  0  0  0  0  0
    2.7010   -2.6135   -0.2672 C   0  0  2  0  0  0  0  0  0  0  0  0
    2.6527   -3.6662   -1.3666 C   0  0  0  0  0  0  0  0  0  0  0  0
    1.7693   -3.7043   -2.2206 O   0  0  0  0  0  0  0  0  0  0  0  0
    2.1560   -3.1674    1.0401 C   0  0  0  0  0  0  0  0  0  0  0  0
    2.4307   -0.6014   -0.9029 H   0  0  0  0  0  0  0  0  0  0  0  0
    3.7333   -2.2729   -0.1319 H   0  0  0  0  0  0  0  0  0  0  0  0
    1.1225   -3.5136    0.9242 H   0  0  0  0  0  0  0  0  0  0  0  0
    2.7519   -4.0167    1.3901 H   0  0  0  0  0  0  0  0  0  0  0  0
    2.1638   -2.4001    1.8218 H   0  0  0  0  0  0  0  0  0  0  0  0
    3.6879   -4.5840   -1.2562 N   0  0  0  0  0  0  0  0  0  0  0  0
    3.8529   -5.6873   -2.1736 C   0  0  0  0  0  0  0  0  0  0  0  0
    4.3862   -4.4644   -0.5283 H   0  0  0  0  0  0  0  0  0  0  0  0
    3.3407   -6.5756   -1.7754 H   0  0  0  0  0  0  0  0  0  0  0  0
    3.4198   -5.4208   -3.1490 H   0  0  0  0  0  0  0  0  0  0  0  0
    4.9241   -5.9057   -2.2954 H   0  0  0  0  0  0  0  0  0  0  0  0
  1  3  1  0  0  0  0
  1  7  1  0  0  0  0
  1  2  2  0  0  0  0
 31 32  1  0  0  0  0
 32 40  1  0  0  0  0
 32 33  2  0  0  0  0
  8  9  1  0  0  0  0
  9 17  1  0  0  0  0
  9 10  2  0  0  0  0
 18 19  1  0  0  0  0
 19 30  1  0  0  0  0
 19 20  2  0  0  0  0
 21 22  1  0  0  0  0
 22 23  2  0  0  0  0
 22 24  1  0  0  0  0
 31 34  1  0  0  0  0
  8 11  1  0  0  0  0
 40 41  1  0  0  0  0
 18 21  1  0  0  0  0
 30 31  1  0  0  0  0
  7  8  1  0  0  0  0
 17 18  1  0  0  0  0
  3  4  1  0  0  0  0
  3  5  1  0  0  0  0
  3  6  1  0  0  0  0
 34 37  1  0  0  0  0
 34 38  1  0  0  0  0
 34 39  1  0  0  0  0
 11 14  1  0  0  0  0
 11 15  1  0  0  0  0
 11 16  1  0  0  0  0
 41 43  1  0  0  0  0
 41 44  1  0  0  0  0
 41 45  1  0  0  0  0
 21 27  1  0  0  0  0
 21 28  1  0  0  0  0
 31 36  1  0  0  0  0
  8 13  1  0  0  0  0
 18 26  1  0  0  0  0
 40 42  1  0  0  0  0
  7 12  1  0  0  0  0
 30 35  1  0  0  0  0
 17 25  1  0  0  0  0
 24 29  1  0  0  0  0
M  END
$$$$

  -OEChem-05262214473D

 45 44  0     1  0  0  0  0  0999 V2000
   -2.2987    4.1032   -0.3022 C   0  0  0  0  0  0  0  0  0  0  0  0
   -1.8049    3.7117   -1.3532 O   0  0  0  0  0  0  0  0  0  0  0  0
   -3.0791    5.3755   -0.2846 C   0  0  0  0  0  0  0  0  0  0  0  0
   -2.4478    6.2532   -0.0717 H   0  0  0  0  0  0  0  0  0  0  0  0
   -3.5571    5.5891   -1.2541 H   0  0  0  0  0  0  0  0  0  0  0  0
   -3.8940    5.4184    0.4556 H   0  0  0  0  0  0  0  0  0  0  0  0
   -2.2137    3.4712    0.9275 N   0  0  0  0  0  0  0  0  0  0  0  0
   -1.5102    2.2327    1.1338 C   0  0  2  0  0  0  0  0  0  0  0  0
   -1.3539    1.5497   -0.2184 C   0  0  0  0  0  0  0  0  0  0  0  0
   -2.0852    1.7861   -1.1778 O   0  0  0  0  0  0  0  0  0  0  0  0
   -2.2477    1.3342    2.1145 C   0  0  0  0  0  0  0  0  0  0  0  0
   -2.6724    3.9052    1.7265 H   0  0  0  0  0  0  0  0  0  0  0  0
   -0.5220    2.4922    1.5290 H   0  0  0  0  0  0  0  0  0  0  0  0
   -3.2400    1.0636    1.7358 H   0  0  0  0  0  0  0  0  0  0  0  0
   -1.6970    0.4046    2.2923 H   0  0  0  0  0  0  0  0  0  0  0  0
   -2.3854    1.8384    3.0772 H   0  0  0  0  0  0  0  0  0  0  0  0
   -0.3283    0.6116   -0.2182 N   0  0  0  0  0  0  0  0  0  0  0  0
    0.0090   -0.1762   -1.3759 C   0  0  2  0  0  0  0  0  0  0  0  0
    0.5631   -1.5085   -0.8869 C   0  0  0  0  0  0  0  0  0  0  0  0
   -0.0630   -2.5634   -0.9661 O   0  0  0  0  0  0  0  0  0  0  0  0
    1.0177    0.5338   -2.2750 C   0  0  0  0  0  0  0  0  0  0  0  0
    0.4013    1.7365   -2.9461 C   0  0  0  0  0  0  0  0  0  0  0  0
   -0.7876    1.8319   -3.2214 O   0  0  0  0  0  0  0  0  0  0  0  0
    1.3130    2.6993   -3.2295 O   0  0  0  0  0  0  0  0  0  0  0  0
    0.2381    0.4970    0.6194 H   0  0  0  0  0  0  0  0  0  0  0  0
   -0.9321   -0.3569   -1.9092 H   0  0  0  0  0  0  0  0  0  0  0  0
    1.8738    0.9023   -1.6958 H   0  0  0  0  0  0  0  0  0  0  0  0
    1.4407   -0.1331   -3.0361 H   0  0  0  0  0  0  0  0  0  0  0  0
    0.9511    3.4932   -3.6785 H   0  0  0  0  0  0  0  0  0  0  0  0
    1.8559   -1.3887   -0.3964 N   0  0  0  0  0  0  0  0  0  0  0  0
    2.6037   -2.5145    0.1128 C   0  0  2  0  0  0  0  0  0  0  0  0
    2.9002   -3.4483   -1.0532 C   0  0  0  0  0  0  0  0  0  0  0  0
    2.2364   -3.4612   -2.0878 O   0  0  0  0  0  0  0  0  0  0  0  0
    1.8362   -3.2388    1.2077 C   0  0  0  0  0  0  0  0  0  0  0  0
    2.2938   -0.4722   -0.3956 H   0  0  0  0  0  0  0  0  0  0  0  0
    3.5435   -2.1161    0.5104 H   0  0  0  0  0  0  0  0  0  0  0  0
    0.8915   -3.6450    0.8281 H   0  0  0  0  0  0  0  0  0  0  0  0
    2.4164   -4.0747    1.6125 H   0  0  0  0  0  0  0  0  0  0  0  0
    1.5979   -2.5583    2.0323 H   0  0  0  0  0  0  0  0  0  0  0  0
    3.9664   -4.2953   -0.7854 N   0  0  0  0  0  0  0  0  0  0  0  0
    4.4341   -5.2827   -1.7300 C   0  0  0  0  0  0  0  0  0  0  0  0
    4.4709   -4.2018    0.0912 H   0  0  0  0  0  0  0  0  0  0  0  0
    3.9319   -6.2422   -1.5372 H   0  0  0  0  0  0  0  0  0  0  0  0
    4.2057   -4.9486   -2.7528 H   0  0  0  0  0  0  0  0  0  0  0  0
    5.5212   -5.4094   -1.6199 H   0  0  0  0  0  0  0  0  0  0  0  0
  1  3  1  0  0  0  0
  1  7  1  0  0  0  0
  1  2  2  0  0  0  0
 31 32  1  0  0  0  0
 32 40  1  0  0  0  0
 32 33  2  0  0  0  0
  8  9  1  0  0  0  0
  9 17  1  0  0  0  0
  9 10  2  0  0  0  0
 18 19  1  0  0  0  0
 19 30  1  0  0  0  0
 19 20  2  0  0  0  0
 21 22  1  0  0  0  0
 22 23  2  0  0  0  0
 22 24  1  0  0  0  0
 31 34  1  0  0  0  0
  8 11  1  0  0  0  0
 40 41  1  0  0  0  0
 18 21  1  0  0  0  0
 30 31  1  0  0  0  0
  7  8  1  0  0  0  0
 17 18  1  0  0  0  0
  3  4  1  0  0  0  0
  3  5  1  0  0  0  0
  3  6  1  0  0  0  0
 34 37  1  0  0  0  0
 34 38  1  0  0  0  0
 34 39  1  0  0  0  0
 11 14  1  0  0  0  0
 11 15  1  0  0  0  0
 11 16  1  0  0  0  0
 41 43  1  0  0  0  0
 41 44  1  0  0  0  0
 41 45  1  0  0  0  0
 21 27  1  0  0  0  0
 21 28  1  0  0  0  0
 31 36  1  0  0  0  0
  8 13  1  0  0  0  0
 18 26  1  0  0  0  0
 40 42  1  0  0  0  0
  7 12  1  0  0  0  0
 30 35  1  0  0  0  0
 17 25  1  0  0  0  0
 24 29  1  0  0  0  0
M  END
$$$$

  -OEChem-05262214473D

 45 44  0     1  0  0  0  0  0999 V2000
   -2.2987    4.1032   -0.3022 C   0  0  0  0  0  0  0  0  0  0  0  0
   -1.8049    3.7117   -1.3532 O   0  0  0  0  0  0  0  0  0  0  0  0
   -3.0791    5.3755   -0.2846 C   0  0  0  0  0  0  0  0  0  0  0  0
   -2.4478    6.2532   -0.0717 H   0  0  0  0  0  0  0  0  0  0  0  0
   -3.5571    5.5891   -1.2541 H   0  0  0  0  0  0  0  0  0  0  0  0
   -3.8940    5.4184    0.4556 H   0  0  0  0  0  0  0  0  0  0  0  0
   -2.2137    3.4712    0.9275 N   0  0  0  0  0  0  0  0  0  0  0  0
   -1.5102    2.2327    1.1338 C   0  0  2  0  0  0  0  0  0  0  0  0
   -1.3539    1.5497   -0.2184 C   0  0  0  0  0  0  0  0  0  0  0  0
   -2.0852    1.7861   -1.1778 O   0  0  0  0  0  0  0  0  0  0  0  0
   -2.2477    1.3342    2.1145 C   0  0  0  0  0  0  0  0  0  0  0  0
   -2.6724    3.9052    1.7265 H   0  0  0  0  0  0  0  0  0  0  0  0
   -0.5220    2.4922    1.5290 H   0  0  0  0  0  0  0  0  0  0  0  0
   -3.2400    1.0636    1.7358 H   0  0  0  0  0  0  0  0  0  0  0  0
   -1.6970    0.4046    2.2923 H   0  0  0  0  0  0  0  0  0  0  0  0
   -2.3854    1.8384    3.0772 H   0  0  0  0  0  0  0  0  0  0  0  0
   -0.3283    0.6116   -0.2182 N   0  0  0  0  0  0  0  0  0  0  0  0
    0.0090   -0.1762   -1.3759 C   0  0  2  0  0  0  0  0  0  0  0  0
    0.5631   -1.5085   -0.8869 C   0  0  0  0  0  0  0  0  0  0  0  0
    0.0722   -2.5920   -1.1971 O   0  0  0  0  0  0  0  0  0  0  0  0
    1.0177    0.5338   -2.2750 C   0  0  0  0  0  0  0  0  0  0  0  0
    0.4013    1.7365   -2.9461 C   0  0  0  0  0  0  0  0  0  0  0  0
   -0.7876    1.8319   -3.2214 O   0  0  0  0  0  0  0  0  0  0  0  0
    1.3130    2.6993   -3.2295 O   0  0  0  0  0  0  0  0  0  0  0  0
    0.2381    0.4970    0.6194 H   0  0  0  0  0  0  0  0  0  0  0  0
   -0.9321   -0.3569   -1.9092 H   0  0  0  0  0  0  0  0  0  0  0  0
    1.8738    0.9023   -1.6958 H   0  0  0  0  0  0  0  0  0  0  0  0
    1.4407   -0.1331   -3.0361 H   0  0  0  0  0  0  0  0  0  0  0  0
    0.9511    3.4932   -3.6785 H   0  0  0  0  0  0  0  0  0  0  0  0
    1.6974   -1.3471   -0.1036 N   0  0  0  0  0  0  0  0  0  0  0  0
    2.4156   -2.4627    0.4671 C   0  0  2  0  0  0  0  0  0  0  0  0
    3.0502   -3.2467   -0.6740 C   0  0  0  0  0  0  0  0  0  0  0  0
    2.6373   -3.2002   -1.8309 O   0  0  0  0  0  0  0  0  0  0  0  0
    1.4953   -3.3503    1.2906 C   0  0  0  0  0  0  0  0  0  0  0  0
    2.0361   -0.4064    0.0757 H   0  0  0  0  0  0  0  0  0  0  0  0
    3.2017   -2.0409    1.1027 H   0  0  0  0  0  0  0  0  0  0  0  0
    0.7011   -3.7820    0.6706 H   0  0  0  0  0  0  0  0  0  0  0  0
    2.0468   -4.1795    1.7459 H   0  0  0  0  0  0  0  0  0  0  0  0
    1.0168   -2.7778    2.0926 H   0  0  0  0  0  0  0  0  0  0  0  0
    4.1049   -4.0377   -0.2404 N   0  0  0  0  0  0  0  0  0  0  0  0
    4.8615   -4.8855   -1.1320 C   0  0  0  0  0  0  0  0  0  0  0  0
    4.3908   -3.9994    0.7335 H   0  0  0  0  0  0  0  0  0  0  0  0
    4.4214   -5.8935   -1.1418 H   0  0  0  0  0  0  0  0  0  0  0  0
    4.8359   -4.4644   -2.1479 H   0  0  0  0  0  0  0  0  0  0  0  0
    5.9039   -4.9440   -0.7855 H   0  0  0  0  0  0  0  0  0  0  0  0
  1  3  1  0  0  0  0
  1  7  1  0  0  0  0
  1  2  2  0  0  0  0
 31 32  1  0  0  0  0
 32 40  1  0  0  0  0
 32 33  2  0  0  0  0
  8  9  1  0  0  0  0
  9 17  1  0  0  0  0
  9 10  2  0  0  0  0
 18 19  1  0  0  0  0
 19 30  1  0  0  0  0
 19 20  2  0  0  0  0
 21 22  1  0  0  0  0
 22 23  2  0  0  0  0
 22 24  1  0  0  0  0
 31 34  1  0  0  0  0
  8 11  1  0  0  0  0
 40 41  1  0  0  0  0
 18 21  1  0  0  0  0
 30 31  1  0  0  0  0
  7  8  1  0  0  0  0
 17 18  1  0  0  0  0
  3  4  1  0  0  0  0
  3  5  1  0  0  0  0
  3  6  1  0  0  0  0
 34 37  1  0  0  0  0
 34 38  1  0  0  0  0
 34 39  1  0  0  0  0
 11 14  1  0  0  0  0
 11 15  1  0  0  0  0
 11 16  1  0  0  0  0
 41 43  1  0  0  0  0
 41 44  1  0  0  0  0
 41 45  1  0  0  0  0
 21 27  1  0  0  0  0
 21 28  1  0  0  0  0
 31 36  1  0  0  0  0
  8 13  1  0  0  0  0
 18 26  1  0  0  0  0
 40 42  1  0  0  0  0
  7 12  1  0  0  0  0
 30 35  1  0  0  0  0
 17 25  1  0  0  0  0
 24 29  1  0  0  0  0
M  END
$$$$

  -OEChem-05262214473D

 45 44  0     1  0  0  0  0  0999 V2000
   -2.2987    4.1032   -0.3022 C   0  0  0  0  0  0  0  0  0  0  0  0
   -1.8049    3.7117   -1.3532 O   0  0  0  0  0  0  0  0  0  0  0  0
   -3.0791    5.3755   -0.2846 C   0  0  0  0  0  0  0  0  0  0  0  0
   -2.4478    6.2532   -0.0717 H   0  0  0  0  0  0  0  0  0  0  0  0
   -3.5571    5.5891   -1.2541 H   0  0  0  0  0  0  0  0  0  0  0  0
   -3.8940    5.4184    0.4556 H   0  0  0  0  0  0  0  0  0  0  0  0
   -2.2137    3.4712    0.9275 N   0  0  0  0  0  0  0  0  0  0  0  0
   -1.5102    2.2327    1.1338 C   0  0  2  0  0  0  0  0  0  0  0  0
   -1.3539    1.5497   -0.2184 C   0  0  0  0  0  0  0  0  0  0  0  0
   -2.0852    1.7861   -1.1778 O   0  0  0  0  0  0  0  0  0  0  0  0
   -2.2477    1.3342    2.1145 C   0  0  0  0  0  0  0  0  0  0  0  0
   -2.6724    3.9052    1.7265 H   0  0  0  0  0  0  0  0  0  0  0  0
   -0.5220    2.4922    1.5290 H   0  0  0  0  0  0  0  0  0  0  0  0
   -3.2400    1.0636    1.7358 H   0  0  0  0  0  0  0  0  0  0  0  0
   -1.6970    0.4046    2.2923 H   0  0  0  0  0  0  0  0  0  0  0  0
   -2.3854    1.8384    3.0772 H   0  0  0  0  0  0  0  0  0  0  0  0
   -0.3283    0.6116   -0.2182 N   0  0  0  0  0  0  0  0  0  0  0  0
    0.0090   -0.1762   -1.3759 C   0  0  2  0  0  0  0  0  0  0  0  0
    0.5631   -1.5085   -0.8869 C   0  0  0  0  0  0  0  0  0  0  0  0
    0.2575   -2.5866   -1.3923 O   0  0  0  0  0  0  0  0  0  0  0  0
    1.0177    0.5338   -2.2750 C   0  0  0  0  0  0  0  0  0  0  0  0
    0.4013    1.7365   -2.9461 C   0  0  0  0  0  0  0  0  0  0  0  0
   -0.7876    1.8319   -3.2214 O   0  0  0  0  0  0  0  0  0  0  0  0
    1.3130    2.6993   -3.2295 O   0  0  0  0  0  0  0  0  0  0  0  0
    0.2381    0.4970    0.6194 H   0  0  0  0  0  0  0  0  0  0  0  0
   -0.9321   -0.3569   -1.9092 H   0  0  0  0  0  0  0  0  0  0  0  0
    1.8738    0.9023   -1.6958 H   0  0  0  0  0  0  0  0  0  0  0  0
    1.4407   -0.1331   -3.0361 H   0  0  0  0  0  0  0  0  0  0  0  0
    0.9511    3.4932   -3.6785 H   0  0  0  0  0  0  0  0  0  0  0  0
    1.4745   -1.3477    0.1474 N   0  0  0  0  0  0  0  0  0  0  0  0
    2.1493   -2.4617    0.7716 C   0  0  2  0  0  0  0  0  0  0  0  0
    3.0925   -3.0752   -0.2547 C   0  0  0  0  0  0  0  0  0  0  0  0
    2.9447   -2.9389   -1.4674 O   0  0  0  0  0  0  0  0  0  0  0  0
    1.1565   -3.4940    1.2829 C   0  0  0  0  0  0  0  0  0  0  0  0
    1.6750   -0.4087    0.4787 H   0  0  0  0  0  0  0  0  0  0  0  0
    2.7313   -2.0524    1.6046 H   0  0  0  0  0  0  0  0  0  0  0  0
    0.5642   -3.9153    0.4625 H   0  0  0  0  0  0  0  0  0  0  0  0
    1.6683   -4.3239    1.7812 H   0  0  0  0  0  0  0  0  0  0  0  0
    0.4601   -3.0439    1.9986 H   0  0  0  0  0  0  0  0  0  0  0  0
    4.0940   -3.8287    0.3416 N   0  0  0  0  0  0  0  0  0  0  0  0
    5.1060   -4.5225   -0.4202 C   0  0  0  0  0  0  0  0  0  0  0  0
    4.1512   -3.8710    1.3549 H   0  0  0  0  0  0  0  0  0  0  0  0
    4.7758   -5.5533   -0.6163 H   0  0  0  0  0  0  0  0  0  0  0  0
    5.2675   -4.0013   -1.3753 H   0  0  0  0  0  0  0  0  0  0  0  0
    6.0460   -4.5412    0.1508 H   0  0  0  0  0  0  0  0  0  0  0  0
  1  3  1  0  0  0  0
  1  7  1  0  0  0  0
  1  2  2  0  0  0  0
 31 32  1  0  0  0  0
 32 40  1  0  0  0  0
 32 33  2  0  0  0  0
  8  9  1  0  0  0  0
  9 17  1  0  0  0  0
  9 10  2  0  0  0  0
 18 19  1  0  0  0  0
 19 30  1  0  0  0  0
 19 20  2  0  0  0  0
 21 22  1  0  0  0  0
 22 23  2  0  0  0  0
 22 24  1  0  0  0  0
 31 34  1  0  0  0  0
  8 11  1  0  0  0  0
 40 41  1  0  0  0  0
 18 21  1  0  0  0  0
 30 31  1  0  0  0  0
  7  8  1  0  0  0  0
 17 18  1  0  0  0  0
  3  4  1  0  0  0  0
  3  5  1  0  0  0  0
  3  6  1  0  0  0  0
 34 37  1  0  0  0  0
 34 38  1  0  0  0  0
 34 39  1  0  0  0  0
 11 14  1  0  0  0  0
 11 15  1  0  0  0  0
 11 16  1  0  0  0  0
 41 43  1  0  0  0  0
 41 44  1  0  0  0  0
 41 45  1  0  0  0  0
 21 27  1  0  0  0  0
 21 28  1  0  0  0  0
 31 36  1  0  0  0  0
  8 13  1  0  0  0  0
 18 26  1  0  0  0  0
 40 42  1  0  0  0  0
  7 12  1  0  0  0  0
 30 35  1  0  0  0  0
 17 25  1  0  0  0  0
 24 29  1  0  0  0  0
M  END
$$$$

  -OEChem-05262214473D

 45 44  0     1  0  0  0  0  0999 V2000
   -2.2987    4.1032   -0.3022 C   0  0  0  0  0  0  0  0  0  0  0  0
   -1.8049    3.7117   -1.3532 O   0  0  0  0  0  0  0  0  0  0  0  0
   -3.0791    5.3755   -0.2846 C   0  0  0  0  0  0  0  0  0  0  0  0
   -2.4478    6.2532   -0.0717 H   0  0  0  0  0  0  0  0  0  0  0  0
   -3.5571    5.5891   -1.2541 H   0  0  0  0  0  0  0  0  0  0  0  0
   -3.8940    5.4184    0.4556 H   0  0  0  0  0  0  0  0  0  0  0  0
   -2.2137    3.4712    0.9275 N   0  0  0  0  0  0  0  0  0  0  0  0
   -1.5102    2.2327    1.1338 C   0  0  2  0  0  0  0  0  0  0  0  0
   -1.3539    1.5497   -0.2184 C   0  0  0  0  0  0  0  0  0  0  0  0
   -2.0852    1.7861   -1.1778 O   0  0  0  0  0  0  0  0  0  0  0  0
   -2.2477    1.3342    2.1145 C   0  0  0  0  0  0  0  0  0  0  0  0
   -2.6724    3.9052    1.7265 H   0  0  0  0  0  0  0  0  0  0  0  0
   -0.5220    2.4922    1.5290 H   0  0  0  0  0  0  0  0  0  0  0  0
   -3.2400    1.0636    1.7358 H   0  0  0  0  0  0  0  0  0  0  0  0
   -1.6970    0.4046    2.2923 H   0  0  0  0  0  0  0  0  0  0  0  0
   -2.3854    1.8384    3.0772 H   0  0  0  0  0  0  0  0  0  0  0  0
   -0.3283    0.6116   -0.2182 N   0  0  0  0  0  0  0  0  0  0  0  0
    0.0090   -0.1762   -1.3759 C   0  0  2  0  0  0  0  0  0  0  0  0
    0.5631   -1.5085   -0.8869 C   0  0  0  0  0  0  0  0  0  0  0  0
    0.4801   -2.5476   -1.5385 O   0  0  0  0  0  0  0  0  0  0  0  0
    1.0177    0.5338   -2.2750 C   0  0  0  0  0  0  0  0  0  0  0  0
    0.4013    1.7365   -2.9461 C   0  0  0  0  0  0  0  0  0  0  0  0
   -0.7876    1.8319   -3.2214 O   0  0  0  0  0  0  0  0  0  0  0  0
    1.3130    2.6993   -3.2295 O   0  0  0  0  0  0  0  0  0  0  0  0
    0.2381    0.4970    0.6194 H   0  0  0  0  0  0  0  0  0  0  0  0
   -0.9321   -0.3569   -1.9092 H   0  0  0  0  0  0  0  0  0  0  0  0
    1.8738    0.9023   -1.6958 H   0  0  0  0  0  0  0  0  0  0  0  0
    1.4407   -0.1331   -3.0361 H   0  0  0  0  0  0  0  0  0  0  0  0
    0.9511    3.4932   -3.6785 H   0  0  0  0  0  0  0  0  0  0  0  0
    1.2025   -1.3905    0.3392 N   0  0  0  0  0  0  0  0  0  0  0  0
    1.8231   -2.5115    1.0056 C   0  0  2  0  0  0  0  0  0  0  0  0
    3.0243   -2.9455    0.1760 C   0  0  0  0  0  0  0  0  0  0  0  0
    3.1377   -2.6952   -1.0222 O   0  0  0  0  0  0  0  0  0  0  0  0
    0.8429   -3.6602    1.1853 C   0  0  0  0  0  0  0  0  0  0  0  0
    1.2352   -0.4788    0.7860 H   0  0  0  0  0  0  0  0  0  0  0  0
    2.1643   -2.1498    1.9818 H   0  0  0  0  0  0  0  0  0  0  0  0
    0.4901   -4.0359    0.2179 H   0  0  0  0  0  0  0  0  0  0  0  0
    1.3068   -4.4982    1.7160 H   0  0  0  0  0  0  0  0  0  0  0  0
   -0.0343   -3.3382    1.7568 H   0  0  0  0  0  0  0  0  0  0  0  0
    3.9343   -3.6825    0.9210 N   0  0  0  0  0  0  0  0  0  0  0  0
    5.1509   -4.2187    0.3569 C   0  0  0  0  0  0  0  0  0  0  0  0
    3.7685   -3.8254    1.9129 H   0  0  0  0  0  0  0  0  0  0  0  0
    4.9708   -5.2446    0.0035 H   0  0  0  0  0  0  0  0  0  0  0  0
    5.4711   -3.5909   -0.4878 H   0  0  0  0  0  0  0  0  0  0  0  0
    5.9380   -4.2285    1.1254 H   0  0  0  0  0  0  0  0  0  0  0  0
  1  3  1  0  0  0  0
  1  7  1  0  0  0  0
  1  2  2  0  0  0  0
 31 32  1  0  0  0  0
 32 40  1  0  0  0  0
 32 33  2  0  0  0  0
  8  9  1  0  0  0  0
  9 17  1  0  0  0  0
  9 10  2  0  0  0  0
 18 19  1  0  0  0  0
 19 30  1  0  0  0  0
 19 20  2  0  0  0  0
 21 22  1  0  0  0  0
 22 23  2  0  0  0  0
 22 24  1  0  0  0  0
 31 34  1  0  0  0  0
  8 11  1  0  0  0  0
 40 41  1  0  0  0  0
 18 21  1  0  0  0  0
 30 31  1  0  0  0  0
  7  8  1  0  0  0  0
 17 18  1  0  0  0  0
  3  4  1  0  0  0  0
  3  5  1  0  0  0  0
  3  6  1  0  0  0  0
 34 37  1  0  0  0  0
 34 38  1  0  0  0  0
 34 39  1  0  0  0  0
 11 14  1  0  0  0  0
 11 15  1  0  0  0  0
 11 16  1  0  0  0  0
 41 43  1  0  0  0  0
 41 44  1  0  0  0  0
 41 45  1  0  0  0  0
 21 27  1  0  0  0  0
 21 28  1  0  0  0  0
 31 36  1  0  0  0  0
  8 13  1  0  0  0  0
 18 26  1  0  0  0  0
 40 42  1  0  0  0  0
  7 12  1  0  0  0  0
 30 35  1  0  0  0  0
 17 25  1  0  0  0  0
 24 29  1  0  0  0  0
M  END
$$$$

  -OEChem-05262214473D

 45 44  0     1  0  0  0  0  0999 V2000
   -2.2987    4.1032   -0.3022 C   0  0  0  0  0  0  0  0  0  0  0  0
   -1.8049    3.7117   -1.3532 O   0  0  0  0  0  0  0  0  0  0  0  0
   -3.0791    5.3755   -0.2846 C   0  0  0  0  0  0  0  0  0  0  0  0
   -2.4478    6.2532   -0.0717 H   0  0  0  0  0  0  0  0  0  0  0  0
   -3.5571    5.5891   -1.2541 H   0  0  0  0  0  0  0  0  0  0  0  0
   -3.8940    5.4184    0.4556 H   0  0  0  0  0  0  0  0  0  0  0  0
   -2.2137    3.4712    0.9275 N   0  0  0  0  0  0  0  0  0  0  0  0
   -1.5102    2.2327    1.1338 C   0  0  2  0  0  0  0  0  0  0  0  0
   -1.3539    1.5497   -0.2184 C   0  0  0  0  0  0  0  0  0  0  0  0
   -2.0852    1.7861   -1.1778 O   0  0  0  0  0  0  0  0  0  0  0  0
   -2.2477    1.3342    2.1145 C   0  0  0  0  0  0  0  0  0  0  0  0
   -2.6724    3.9052    1.7265 H   0  0  0  0  0  0  0  0  0  0  0  0
   -0.5220    2.4922    1.5290 H   0  0  0  0  0  0  0  0  0  0  0  0
   -3.2400    1.0636    1.7358 H   0  0  0  0  0  0  0  0  0  0  0  0
   -1.6970    0.4046    2.2923 H   0  0  0  0  0  0  0  0  0  0  0  0
   -2.3854    1.8384    3.0772 H   0  0  0  0  0  0  0  0  0  0  0  0
   -0.3283    0.6116   -0.2182 N   0  0  0  0  0  0  0  0  0  0  0  0
    0.0090   -0.1762   -1.3759 C   0  0  2  0  0  0  0  0  0  0  0  0
    0.5631   -1.5085   -0.8869 C   0  0  0  0  0  0  0  0  0  0  0  0
    0.7250   -2.4777   -1.6256 O   0  0  0  0  0  0  0  0  0  0  0  0
    1.0177    0.5338   -2.2750 C   0  0  0  0  0  0  0  0  0  0  0  0
    0.4013    1.7365   -2.9461 C   0  0  0  0  0  0  0  0  0  0  0  0
   -0.7876    1.8319   -3.2214 O   0  0  0  0  0  0  0  0  0  0  0  0
    1.3130    2.6993   -3.2295 O   0  0  0  0  0  0  0  0  0  0  0  0
    0.2381    0.4970    0.6194 H   0  0  0  0  0  0  0  0  0  0  0  0
   -0.9321   -0.3569   -1.9092 H   0  0  0  0  0  0  0  0  0  0  0  0
    1.8738    0.9023   -1.6958 H   0  0  0  0  0  0  0  0  0  0  0  0
    1.4407   -0.1331   -3.0361 H   0  0  0  0  0  0  0  0  0  0  0  0
    0.9511    3.4932   -3.6785 H   0  0  0  0  0  0  0  0  0  0  0  0
    0.8999   -1.4724    0.4590 N   0  0  0  0  0  0  0  0  0  0  0  0
    1.4593   -2.6087    1.1531 C   0  0  2  0  0  0  0  0  0  0  0  0
    2.8501   -2.8665    0.5888 C   0  0  0  0  0  0  0  0  0  0  0  0
    3.2031   -2.4858   -0.5255 O   0  0  0  0  0  0  0  0  0  0  0  0
    0.5760   -3.8377    1.0045 C   0  0  0  0  0  0  0  0  0  0  0  0
    0.7467   -0.6120    0.9768 H   0  0  0  0  0  0  0  0  0  0  0  0
    1.5393   -2.3265    2.2086 H   0  0  0  0  0  0  0  0  0  0  0  0
    0.4839   -4.1355   -0.0464 H   0  0  0  0  0  0  0  0  0  0  0  0
    0.9868   -4.6905    1.5549 H   0  0  0  0  0  0  0  0  0  0  0  0
   -0.4326   -3.6409    1.3837 H   0  0  0  0  0  0  0  0  0  0  0  0
    3.6367   -3.6091    1.4583 N   0  0  0  0  0  0  0  0  0  0  0  0
    4.9932   -3.9946    1.1463 C   0  0  0  0  0  0  0  0  0  0  0  0
    3.2688   -3.8657    2.3696 H   0  0  0  0  0  0  0  0  0  0  0  0
    4.9934   -4.9887    0.6754 H   0  0  0  0  0  0  0  0  0  0  0  0
    5.4327   -3.2611    0.4542 H   0  0  0  0  0  0  0  0  0  0  0  0
    5.5870   -4.0272    2.0717 H   0  0  0  0  0  0  0  0  0  0  0  0
  1  3  1  0  0  0  0
  1  7  1  0  0  0  0
  1  2  2  0  0  0  0
 31 32  1  0  0  0  0
 32 40  1  0  0  0  0
 32 33  2  0  0  0  0
  8  9  1  0  0  0  0
  9 17  1  0  0  0  0
  9 10  2  0  0  0  0
 18 19  1  0  0  0  0
 19 30  1  0  0  0  0
 19 20  2  0  0  0  0
 21 22  1  0  0  0  0
 22 23  2  0  0  0  0
 22 24  1  0  0  0  0
 31 34  1  0  0  0  0
  8 11  1  0  0  0  0
 40 41  1  0  0  0  0
 18 21  1  0  0  0  0
 30 31  1  0  0  0  0
  7  8  1  0  0  0  0
 17 18  1  0  0  0  0
  3  4  1  0  0  0  0
  3  5  1  0  0  0  0
  3  6  1  0  0  0  0
 34 37  1  0  0  0  0
 34 38  1  0  0  0  0
 34 39  1  0  0  0  0
 11 14  1  0  0  0  0
 11 15  1  0  0  0  0
 11 16  1  0  0  0  0
 41 43  1  0  0  0  0
 41 44  1  0  0  0  0
 41 45  1  0  0  0  0
 21 27  1  0  0  0  0
 21 28  1  0  0  0  0
 31 36  1  0  0  0  0
  8 13  1  0  0  0  0
 18 26  1  0  0  0  0
 40 42  1  0  0  0  0
  7 12  1  0  0  0  0
 30 35  1  0  0  0  0
 17 25  1  0  0  0  0
 24 29  1  0  0  0  0
M  END
$$$$

  -OEChem-05262214473D

 45 44  0     1  0  0  0  0  0999 V2000
   -2.2987    4.1032   -0.3022 C   0  0  0  0  0  0  0  0  0  0  0  0
   -1.8049    3.7117   -1.3532 O   0  0  0  0  0  0  0  0  0  0  0  0
   -3.0791    5.3755   -0.2846 C   0  0  0  0  0  0  0  0  0  0  0  0
   -2.4478    6.2532   -0.0717 H   0  0  0  0  0  0  0  0  0  0  0  0
   -3.5571    5.5891   -1.2541 H   0  0  0  0  0  0  0  0  0  0  0  0
   -3.8940    5.4184    0.4556 H   0  0  0  0  0  0  0  0  0  0  0  0
   -2.2137    3.4712    0.9275 N   0  0  0  0  0  0  0  0  0  0  0  0
   -1.5102    2.2327    1.1338 C   0  0  2  0  0  0  0  0  0  0  0  0
   -1.3539    1.5497   -0.2184 C   0  0  0  0  0  0  0  0  0  0  0  0
   -2.0852    1.7861   -1.1778 O   0  0  0  0  0  0  0  0  0  0  0  0
   -2.2477    1.3342    2.1145 C   0  0  0  0  0  0  0  0  0  0  0  0
   -2.6724    3.9052    1.7265 H   0  0  0  0  0  0  0  0  0  0  0  0
   -0.5220    2.4922    1.5290 H   0  0  0  0  0  0  0  0  0  0  0  0
   -3.2400    1.0636    1.7358 H   0  0  0  0  0  0  0  0  0  0  0  0
   -1.6970    0.4046    2.2923 H   0  0  0  0  0  0  0  0  0  0  0  0
   -2.3854    1.8384    3.0772 H   0  0  0  0  0  0  0  0  0  0  0  0
   -0.3283    0.6116   -0.2182 N   0  0  0  0  0  0  0  0  0  0  0  0
    0.0090   -0.1762   -1.3759 C   0  0  2  0  0  0  0  0  0  0  0  0
    0.5631   -1.5085   -0.8869 C   0  0  0  0  0  0  0  0  0  0  0  0
    0.9755   -2.3816   -1.6477 O   0  0  0  0  0  0  0  0  0  0  0  0
    1.0177    0.5338   -2.2750 C   0  0  0  0  0  0  0  0  0  0  0  0
    0.4013    1.7365   -2.9461 C   0  0  0  0  0  0  0  0  0  0  0  0
   -0.7876    1.8319   -3.2214 O   0  0  0  0  0  0  0  0  0  0  0  0
    1.3130    2.6993   -3.2295 O   0  0  0  0  0  0  0  0  0  0  0  0
    0.2381    0.4970    0.6194 H   0  0  0  0  0  0  0  0  0  0  0  0
   -0.9321   -0.3569   -1.9092 H   0  0  0  0  0  0  0  0  0  0  0  0
    1.8738    0.9023   -1.6958 H   0  0  0  0  0  0  0  0  0  0  0  0
    1.4407   -0.1331   -3.0361 H   0  0  0  0  0  0  0  0  0  0  0  0
    0.9511    3.4932   -3.6785 H   0  0  0  0  0  0  0  0  0  0  0  0
    0.5872   -1.5879    0.4984 N   0  0  0  0  0  0  0  0  0  0  0  0
    1.0825   -2.7467    1.2041 C   0  0  2  0  0  0  0  0  0  0  0  0
    2.5819   -2.8435    0.9555 C   0  0  0  0  0  0  0  0  0  0  0  0
    3.1364   -2.3247   -0.0112 O   0  0  0  0  0  0  0  0  0  0  0  0
    0.3737   -4.0142    0.7526 C   0  0  0  0  0  0  0  0  0  0  0  0
    0.2427   -0.7992    1.0379 H   0  0  0  0  0  0  0  0  0  0  0  0
    0.8989   -2.5705    2.2696 H   0  0  0  0  0  0  0  0  0  0  0  0
    0.5461   -4.2073   -0.3125 H   0  0  0  0  0  0  0  0  0  0  0  0
    0.7301   -4.8876    1.3087 H   0  0  0  0  0  0  0  0  0  0  0  0
   -0.7078   -3.9312    0.9046 H   0  0  0  0  0  0  0  0  0  0  0  0
    3.2217   -3.6134    1.9168 N   0  0  0  0  0  0  0  0  0  0  0  0
    4.6436   -3.8655    1.8941 C   0  0  0  0  0  0  0  0  0  0  0  0
    2.6860   -3.9891    2.6938 H   0  0  0  0  0  0  0  0  0  0  0  0
    4.8418   -4.8028    1.3536 H   0  0  0  0  0  0  0  0  0  0  0  0
    5.1551   -3.0345    1.3865 H   0  0  0  0  0  0  0  0  0  0  0  0
    5.0172   -3.9510    2.9252 H   0  0  0  0  0  0  0  0  0  0  0  0
  1  3  1  0  0  0  0
  1  7  1  0  0  0  0
  1  2  2  0  0  0  0
 31 32  1  0  0  0  0
 32 40  1  0  0  0  0
 32 33  2  0  0  0  0
  8  9  1  0  0  0  0
  9 17  1  0  0  0  0
  9 10  2  0  0  0  0
 18 19  1  0  0  0  0
 19 30  1  0  0  0  0
 19 20  2  0  0  0  0
 21 22  1  0  0  0  0
 22 23  2  0  0  0  0
 22 24  1  0  0  0  0
 31 34  1  0  0  0  0
  8 11  1  0  0  0  0
 40 41  1  0  0  0  0
 18 21  1  0  0  0  0
 30 31  1  0  0  0  0
  7  8  1  0  0  0  0
 17 18  1  0  0  0  0
  3  4  1  0  0  0  0
  3  5  1  0  0  0  0
  3  6  1  0  0  0  0
 34 37  1  0  0  0  0
 34 38  1  0  0  0  0
 34 39  1  0  0  0  0
 11 14  1  0  0  0  0
 11 15  1  0  0  0  0
 11 16  1  0  0  0  0
 41 43  1  0  0  0  0
 41 44  1  0  0  0  0
 41 45  1  0  0  0  0
 21 27  1  0  0  0  0
 21 28  1  0  0  0  0
 31 36  1  0  0  0  0
  8 13  1  0  0  0  0
 18 26  1  0  0  0  0
 40 42  1  0  0  0  0
  7 12  1  0  0  0  0
 30 35  1  0  0  0  0
 17 25  1  0  0  0  0
 24 29  1  0  0  0  0
M  END
$$$$

  -OEChem-05262214473D

 45 44  0     1  0  0  0  0  0999 V2000
   -2.2987    4.1032   -0.3022 C   0  0  0  0  0  0  0  0  0  0  0  0
   -1.8049    3.7117   -1.3532 O   0  0  0  0  0  0  0  0  0  0  0  0
   -3.0791    5.3755   -0.2846 C   0  0  0  0  0  0  0  0  0  0  0  0
   -2.4478    6.2532   -0.0717 H   0  0  0  0  0  0  0  0  0  0  0  0
   -3.5571    5.5891   -1.2541 H   0  0  0  0  0  0  0  0  0  0  0  0
   -3.8940    5.4184    0.4556 H   0  0  0  0  0  0  0  0  0  0  0  0
   -2.2137    3.4712    0.9275 N   0  0  0  0  0  0  0  0  0  0  0  0
   -1.5102    2.2327    1.1338 C   0  0  2  0  0  0  0  0  0  0  0  0
   -1.3539    1.5497   -0.2184 C   0  0  0  0  0  0  0  0  0  0  0  0
   -2.0852    1.7861   -1.1778 O   0  0  0  0  0  0  0  0  0  0  0  0
   -2.2477    1.3342    2.1145 C   0  0  0  0  0  0  0  0  0  0  0  0
   -2.6724    3.9052    1.7265 H   0  0  0  0  0  0  0  0  0  0  0  0
   -0.5220    2.4922    1.5290 H   0  0  0  0  0  0  0  0  0  0  0  0
   -3.2400    1.0636    1.7358 H   0  0  0  0  0  0  0  0  0  0  0  0
   -1.6970    0.4046    2.2923 H   0  0  0  0  0  0  0  0  0  0  0  0
   -2.3854    1.8384    3.0772 H   0  0  0  0  0  0  0  0  0  0  0  0
   -0.3283    0.6116   -0.2182 N   0  0  0  0  0  0  0  0  0  0  0  0
    0.0090   -0.1762   -1.3759 C   0  0  2  0  0  0  0  0  0  0  0  0
    0.5631   -1.5085   -0.8869 C   0  0  0  0  0  0  0  0  0  0  0  0
    1.2144   -2.2660   -1.6033 O   0  0  0  0  0  0  0  0  0  0  0  0
    1.0177    0.5338   -2.2750 C   0  0  0  0  0  0  0  0  0  0  0  0
    0.4013    1.7365   -2.9461 C   0  0  0  0  0  0  0  0  0  0  0  0
   -0.7876    1.8319   -3.2214 O   0  0  0  0  0  0  0  0  0  0  0  0
    1.3130    2.6993   -3.2295 O   0  0  0  0  0  0  0  0  0  0  0  0
    0.2381    0.4970    0.6194 H   0  0  0  0  0  0  0  0  0  0  0  0
   -0.9321   -0.3569   -1.9092 H   0  0  0  0  0  0  0  0  0  0  0  0
    1.8738    0.9023   -1.6958 H   0  0  0  0  0  0  0  0  0  0  0  0
    1.4407   -0.1331   -3.0361 H   0  0  0  0  0  0  0  0  0  0  0  0
    0.9511    3.4932   -3.6785 H   0  0  0  0  0  0  0  0  0  0  0  0
    0.2860   -1.7292    0.4549 N   0  0  0  0  0  0  0  0  0  0  0  0
    0.7184   -2.9161    1.1551 C   0  0  2  0  0  0  0  0  0  0  0  0
    2.2379   -2.8780    1.2512 C   0  0  0  0  0  0  0  0  0  0  0  0
    2.9423   -2.2232    0.4857 O   0  0  0  0  0  0  0  0  0  0  0  0
    0.2501   -4.1778    0.4469 C   0  0  0  0  0  0  0  0  0  0  0  0
   -0.2424   -1.0277    0.9652 H   0  0  0  0  0  0  0  0  0  0  0  0
    0.2869   -2.8650    2.1606 H   0  0  0  0  0  0  0  0  0  0  0  0
    0.6723   -4.2465   -0.5623 H   0  0  0  0  0  0  0  0  0  0  0  0
    0.5543   -5.0761    0.9942 H   0  0  0  0  0  0  0  0  0  0  0  0
   -0.8411   -4.1893    0.3522 H   0  0  0  0  0  0  0  0  0  0  0  0
    2.7173   -3.6953    2.2653 N   0  0  0  0  0  0  0  0  0  0  0  0
    4.1259   -3.8403    2.5496 C   0  0  0  0  0  0  0  0  0  0  0  0
    2.0600   -4.1872    2.8635 H   0  0  0  0  0  0  0  0  0  0  0  0
    4.5264   -4.6997    1.9919 H   0  0  0  0  0  0  0  0  0  0  0  0
    4.6572   -2.9263    2.2455 H   0  0  0  0  0  0  0  0  0  0  0  0
    4.2672   -4.0050    3.6279 H   0  0  0  0  0  0  0  0  0  0  0  0
  1  3  1  0  0  0  0
  1  7  1  0  0  0  0
  1  2  2  0  0  0  0
 31 32  1  0  0  0  0
 32 40  1  0  0  0  0
 32 33  2  0  0  0  0
  8  9  1  0  0  0  0
  9 17  1  0  0  0  0
  9 10  2  0  0  0  0
 18 19  1  0  0  0  0
 19 30  1  0  0  0  0
 19 20  2  0  0  0  0
 21 22  1  0  0  0  0
 22 23  2  0  0  0  0
 22 24  1  0  0  0  0
 31 34  1  0  0  0  0
  8 11  1  0  0  0  0
 40 41  1  0  0  0  0
 18 21  1  0  0  0  0
 30 31  1  0  0  0  0
  7  8  1  0  0  0  0
 17 18  1  0  0  0  0
  3  4  1  0  0  0  0
  3  5  1  0  0  0  0
  3  6  1  0  0  0  0
 34 37  1  0  0  0  0
 34 38  1  0  0  0  0
 34 39  1  0  0  0  0
 11 14  1  0  0  0  0
 11 15  1  0  0  0  0
 11 16  1  0  0  0  0
 41 43  1  0  0  0  0
 41 44  1  0  0  0  0
 41 45  1  0  0  0  0
 21 27  1  0  0  0  0
 21 28  1  0  0  0  0
 31 36  1  0  0  0  0
  8 13  1  0  0  0  0
 18 26  1  0  0  0  0
 40 42  1  0  0  0  0
  7 12  1  0  0  0  0
 30 35  1  0  0  0  0
 17 25  1  0  0  0  0
 24 29  1  0  0  0  0
M  END
$$$$

  -OEChem-05262214473D

 45 44  0     1  0  0  0  0  0999 V2000
   -2.2987    4.1032   -0.3022 C   0  0  0  0  0  0  0  0  0  0  0  0
   -1.8049    3.7117   -1.3532 O   0  0  0  0  0  0  0  0  0  0  0  0
   -3.0791    5.3755   -0.2846 C   0  0  0  0  0  0  0  0  0  0  0  0
   -2.4478    6.2532   -0.0717 H   0  0  0  0  0  0  0  0  0  0  0  0
   -3.5571    5.5891   -1.2541 H   0  0  0  0  0  0  0  0  0  0  0  0
   -3.8940    5.4184    0.4556 H   0  0  0  0  0  0  0  0  0  0  0  0
   -2.2137    3.4712    0.9275 N   0  0  0  0  0  0  0  0  0  0  0  0
   -1.5102    2.2327    1.1338 C   0  0  2  0  0  0  0  0  0  0  0  0
   -1.3539    1.5497   -0.2184 C   0  0  0  0  0  0  0  0  0  0  0  0
   -2.0852    1.7861   -1.1778 O   0  0  0  0  0  0  0  0  0  0  0  0
   -2.2477    1.3342    2.1145 C   0  0  0  0  0  0  0  0  0  0  0  0
   -2.6724    3.9052    1.7265 H   0  0  0  0  0  0  0  0  0  0  0  0
   -0.5220    2.4922    1.5290 H   0  0  0  0  0  0  0  0  0  0  0  0
   -3.2400    1.0636    1.7358 H   0  0  0  0  0  0  0  0  0  0  0  0
   -1.6970    0.4046    2.2923 H   0  0  0  0  0  0  0  0  0  0  0  0
   -2.3854    1.8384    3.0772 H   0  0  0  0  0  0  0  0  0  0  0  0
   -0.3283    0.6116   -0.2182 N   0  0  0  0  0  0  0  0  0  0  0  0
    0.0090   -0.1762   -1.3759 C   0  0  2  0  0  0  0  0  0  0  0  0
    0.5631   -1.5085   -0.8869 C   0  0  0  0  0  0  0  0  0  0  0  0
    1.4256   -2.1386   -1.4955 O   0  0  0  0  0  0  0  0  0  0  0  0
    1.0177    0.5338   -2.2750 C   0  0  0  0  0  0  0  0  0  0  0  0
    0.4013    1.7365   -2.9461 C   0  0  0  0  0  0  0  0  0  0  0  0
   -0.7876    1.8319   -3.2214 O   0  0  0  0  0  0  0  0  0  0  0  0
    1.3130    2.6993   -3.2295 O   0  0  0  0  0  0  0  0  0  0  0  0
    0.2381    0.4970    0.6194 H   0  0  0  0  0  0  0  0  0  0  0  0
   -0.9321   -0.3569   -1.9092 H   0  0  0  0  0  0  0  0  0  0  0  0
    1.8738    0.9023   -1.6958 H   0  0  0  0  0  0  0  0  0  0  0  0
    1.4407   -0.1331   -3.0361 H   0  0  0  0  0  0  0  0  0  0  0  0
    0.9511    3.4932   -3.6785 H   0  0  0  0  0  0  0  0  0  0  0  0
    0.0165   -1.8866    0.3314 N   0  0  0  0  0  0  0  0  0  0  0  0
    0.3920   -3.1054    1.0094 C   0  0  2  0  0  0  0  0  0  0  0  0
    1.8416   -2.9678    1.4558 C   0  0  0  0  0  0  0  0  0  0  0  0
    2.6338   -2.1879    0.9312 O   0  0  0  0  0  0  0  0  0  0  0  0
    0.2134   -4.3174    0.1083 C   0  0  0  0  0  0  0  0  0  0  0  0
   -0.6756   -1.2818    0.7638 H   0  0  0  0  0  0  0  0  0  0  0  0
   -0.2552   -3.1902    1.8891 H   0  0  0  0  0  0  0  0  0  0  0  0
    0.8540   -4.2503   -0.7787 H   0  0  0  0  0  0  0  0  0  0  0  0
    0.4713   -5.2433    0.6329 H   0  0  0  0  0  0  0  0  0  0  0  0
   -0.8234   -4.3978   -0.2358 H   0  0  0  0  0  0  0  0  0  0  0  0
    2.1580   -3.8491    2.4801 N   0  0  0  0  0  0  0  0  0  0  0  0
    3.4754   -3.9207    3.0678 C   0  0  0  0  0  0  0  0  0  0  0  0
    1.4334   -4.4466    2.8670 H   0  0  0  0  0  0  0  0  0  0  0  0
    4.0688   -4.6865    2.5468 H   0  0  0  0  0  0  0  0  0  0  0  0
    3.9727   -2.9441    2.9728 H   0  0  0  0  0  0  0  0  0  0  0  0
    3.3882   -4.1857    4.1318 H   0  0  0  0  0  0  0  0  0  0  0  0
  1  3  1  0  0  0  0
  1  7  1  0  0  0  0
  1  2  2  0  0  0  0
 31 32  1  0  0  0  0
 32 40  1  0  0  0  0
 32 33  2  0  0  0  0
  8  9  1  0  0  0  0
  9 17  1  0  0  0  0
  9 10  2  0  0  0  0
 18 19  1  0  0  0  0
 19 30  1  0  0  0  0
 19 20  2  0  0  0  0
 21 22  1  0  0  0  0
 22 23  2  0  0  0  0
 22 24  1  0  0  0  0
 31 34  1  0  0  0  0
  8 11  1  0  0  0  0
 40 41  1  0  0  0  0
 18 21  1  0  0  0  0
 30 31  1  0  0  0  0
  7  8  1  0  0  0  0
 17 18  1  0  0  0  0
  3  4  1  0  0  0  0
  3  5  1  0  0  0  0
  3  6  1  0  0  0  0
 34 37  1  0  0  0  0
 34 38  1  0  0  0  0
 34 39  1  0  0  0  0
 11 14  1  0  0  0  0
 11 15  1  0  0  0  0
 11 16  1  0  0  0  0
 41 43  1  0  0  0  0
 41 44  1  0  0  0  0
 41 45  1  0  0  0  0
 21 27  1  0  0  0  0
 21 28  1  0  0  0  0
 31 36  1  0  0  0  0
  8 13  1  0  0  0  0
 18 26  1  0  0  0  0
 40 42  1  0  0  0  0
  7 12  1  0  0  0  0
 30 35  1  0  0  0  0
 17 25  1  0  0  0  0
 24 29  1  0  0  0  0
M  END
$$$$

  -OEChem-05262214473D

 45 44  0     1  0  0  0  0  0999 V2000
   -2.2987    4.1032   -0.3022 C   0  0  0  0  0  0  0  0  0  0  0  0
   -1.8049    3.7117   -1.3532 O   0  0  0  0  0  0  0  0  0  0  0  0
   -3.0791    5.3755   -0.2846 C   0  0  0  0  0  0  0  0  0  0  0  0
   -2.4478    6.2532   -0.0717 H   0  0  0  0  0  0  0  0  0  0  0  0
   -3.5571    5.5891   -1.2541 H   0  0  0  0  0  0  0  0  0  0  0  0
   -3.8940    5.4184    0.4556 H   0  0  0  0  0  0  0  0  0  0  0  0
   -2.2137    3.4712    0.9275 N   0  0  0  0  0  0  0  0  0  0  0  0
   -1.5102    2.2327    1.1338 C   0  0  2  0  0  0  0  0  0  0  0  0
   -1.3539    1.5497   -0.2184 C   0  0  0  0  0  0  0  0  0  0  0  0
   -2.0852    1.7861   -1.1778 O   0  0  0  0  0  0  0  0  0  0  0  0
   -2.2477    1.3342    2.1145 C   0  0  0  0  0  0  0  0  0  0  0  0
   -2.6724    3.9052    1.7265 H   0  0  0  0  0  0  0  0  0  0  0  0
   -0.5220    2.4922    1.5290 H   0  0  0  0  0  0  0  0  0  0  0  0
   -3.2400    1.0636    1.7358 H   0  0  0  0  0  0  0  0  0  0  0  0
   -1.6970    0.4046    2.2923 H   0  0  0  0  0  0  0  0  0  0  0  0
   -2.3854    1.8384    3.0772 H   0  0  0  0  0  0  0  0  0  0  0  0
   -0.3283    0.6116   -0.2182 N   0  0  0  0  0  0  0  0  0  0  0  0
    0.0090   -0.1762   -1.3759 C   0  0  2  0  0  0  0  0  0  0  0  0
    0.5631   -1.5085   -0.8869 C   0  0  0  0  0  0  0  0  0  0  0  0
    1.5946   -2.0081   -1.3316 O   0  0  0  0  0  0  0  0  0  0  0  0
    1.0177    0.5338   -2.2750 C   0  0  0  0  0  0  0  0  0  0  0  0
    0.4013    1.7365   -2.9461 C   0  0  0  0  0  0  0  0  0  0  0  0
   -0.7876    1.8319   -3.2214 O   0  0  0  0  0  0  0  0  0  0  0  0
    1.3130    2.6993   -3.2295 O   0  0  0  0  0  0  0  0  0  0  0  0
    0.2381    0.4970    0.6194 H   0  0  0  0  0  0  0  0  0  0  0  0
   -0.9321   -0.3569   -1.9092 H   0  0  0  0  0  0  0  0  0  0  0  0
    1.8738    0.9023   -1.6958 H   0  0  0  0  0  0  0  0  0  0  0  0
    1.4407   -0.1331   -3.0361 H   0  0  0  0  0  0  0  0  0  0  0  0
    0.9511    3.4932   -3.6785 H   0  0  0  0  0  0  0  0  0  0  0  0
   -0.2027   -2.0494    0.1363 N   0  0  0  0  0  0  0  0  0  0  0  0
    0.1253   -3.3016    0.7769 C   0  0  2  0  0  0  0  0  0  0  0  0
    1.4199   -3.1067    1.5552 C   0  0  0  0  0  0  0  0  0  0  0  0
    2.2321   -2.2215    1.2951 O   0  0  0  0  0  0  0  0  0  0  0  0
    0.2662   -4.4233   -0.2402 C   0  0  0  0  0  0  0  0  0  0  0  0
   -1.0273   -1.5443    0.4472 H   0  0  0  0  0  0  0  0  0  0  0  0
   -0.6904   -3.5237    1.4736 H   0  0  0  0  0  0  0  0  0  0  0  0
    1.0787   -4.2185   -0.9469 H   0  0  0  0  0  0  0  0  0  0  0  0
    0.4867   -5.3776    0.2494 H   0  0  0  0  0  0  0  0  0  0  0  0
   -0.6558   -4.5423   -0.8194 H   0  0  0  0  0  0  0  0  0  0  0  0
    1.5820   -4.0643    2.5466 N   0  0  0  0  0  0  0  0  0  0  0  0
    2.7365   -4.1011    3.4136 C   0  0  0  0  0  0  0  0  0  0  0  0
    0.8489   -4.7494    2.7042 H   0  0  0  0  0  0  0  0  0  0  0  0
    3.5001   -4.7639    2.9804 H   0  0  0  0  0  0  0  0  0  0  0  0
    3.1485   -3.0866    3.5186 H   0  0  0  0  0  0  0  0  0  0  0  0
    2.4401   -4.4807    4.4027 H   0  0  0  0  0  0  0  0  0  0  0  0
  1  3  1  0  0  0  0
  1  7  1  0  0  0  0
  1  2  2  0  0  0  0
 31 32  1  0  0  0  0
 32 40  1  0  0  0  0
 32 33  2  0  0  0  0
  8  9  1  0  0  0  0
  9 17  1  0  0  0  0
  9 10  2  0  0  0  0
 18 19  1  0  0  0  0
 19 30  1  0  0  0  0
 19 20  2  0  0  0  0
 21 22  1  0  0  0  0
 22 23  2  0  0  0  0
 22 24  1  0  0  0  0
 31 34  1  0  0  0  0
  8 11  1  0  0  0  0
 40 41  1  0  0  0  0
 18 21  1  0  0  0  0
 30 31  1  0  0  0  0
  7  8  1  0  0  0  0
 17 18  1  0  0  0  0
  3  4  1  0  0  0  0
  3  5  1  0  0  0  0
  3  6  1  0  0  0  0
 34 37  1  0  0  0  0
 34 38  1  0  0  0  0
 34 39  1  0  0  0  0
 11 14  1  0  0  0  0
 11 15  1  0  0  0  0
 11 16  1  0  0  0  0
 41 43  1  0  0  0  0
 41 44  1  0  0  0  0
 41 45  1  0  0  0  0
 21 27  1  0  0  0  0
 21 28  1  0  0  0  0
 31 36  1  0  0  0  0
  8 13  1  0  0  0  0
 18 26  1  0  0  0  0
 40 42  1  0  0  0  0
  7 12  1  0  0  0  0
 30 35  1  0  0  0  0
 17 25  1  0  0  0  0
 24 29  1  0  0  0  0
M  END
$$$$

  -OEChem-05262214473D

 45 44  0     1  0  0  0  0  0999 V2000
   -2.2987    4.1032   -0.3022 C   0  0  0  0  0  0  0  0  0  0  0  0
   -1.8049    3.7117   -1.3532 O   0  0  0  0  0  0  0  0  0  0  0  0
   -3.0791    5.3755   -0.2846 C   0  0  0  0  0  0  0  0  0  0  0  0
   -2.4478    6.2532   -0.0717 H   0  0  0  0  0  0  0  0  0  0  0  0
   -3.5571    5.5891   -1.2541 H   0  0  0  0  0  0  0  0  0  0  0  0
   -3.8940    5.4184    0.4556 H   0  0  0  0  0  0  0  0  0  0  0  0
   -2.2137    3.4712    0.9275 N   0  0  0  0  0  0  0  0  0  0  0  0
   -1.5102    2.2327    1.1338 C   0  0  2  0  0  0  0  0  0  0  0  0
   -1.3539    1.5497   -0.2184 C   0  0  0  0  0  0  0  0  0  0  0  0
   -2.0852    1.7861   -1.1778 O   0  0  0  0  0  0  0  0  0  0  0  0
   -2.2477    1.3342    2.1145 C   0  0  0  0  0  0  0  0  0  0  0  0
   -2.6724    3.9052    1.7265 H   0  0  0  0  0  0  0  0  0  0  0  0
   -0.5220    2.4922    1.5290 H   0  0  0  0  0  0  0  0  0  0  0  0
   -3.2400    1.0636    1.7358 H   0  0  0  0  0  0  0  0  0  0  0  0
   -1.6970    0.4046    2.2923 H   0  0  0  0  0  0  0  0  0  0  0  0
   -2.3854    1.8384    3.0772 H   0  0  0  0  0  0  0  0  0  0  0  0
   -0.3283    0.6116   -0.2182 N   0  0  0  0  0  0  0  0  0  0  0  0
    0.0090   -0.1762   -1.3759 C   0  0  2  0  0  0  0  0  0  0  0  0
    0.5631   -1.5085   -0.8869 C   0  0  0  0  0  0  0  0  0  0  0  0
    1.7099   -1.8835   -1.1227 O   0  0  0  0  0  0  0  0  0  0  0  0
    1.0177    0.5338   -2.2750 C   0  0  0  0  0  0  0  0  0  0  0  0
    0.4013    1.7365   -2.9461 C   0  0  0  0  0  0  0  0  0  0  0  0
   -0.7876    1.8319   -3.2214 O   0  0  0  0  0  0  0  0  0  0  0  0
    1.3130    2.6993   -3.2295 O   0  0  0  0  0  0  0  0  0  0  0  0
    0.2381    0.4970    0.6194 H   0  0  0  0  0  0  0  0  0  0  0  0
   -0.9321   -0.3569   -1.9092 H   0  0  0  0  0  0  0  0  0  0  0  0
    1.8738    0.9023   -1.6958 H   0  0  0  0  0  0  0  0  0  0  0  0
    1.4407   -0.1331   -3.0361 H   0  0  0  0  0  0  0  0  0  0  0  0
    0.9511    3.4932   -3.6785 H   0  0  0  0  0  0  0  0  0  0  0  0
   -0.3568   -2.2065   -0.1171 N   0  0  0  0  0  0  0  0  0  0  0  0
   -0.0633   -3.4914    0.4736 C   0  0  2  0  0  0  0  0  0  0  0  0
    1.0016   -3.2853    1.5427 C   0  0  0  0  0  0  0  0  0  0  0  0
    1.7646   -2.3215    1.5525 O   0  0  0  0  0  0  0  0  0  0  0  0
    0.4049   -4.4884   -0.5749 C   0  0  0  0  0  0  0  0  0  0  0  0
   -1.2736   -1.7972    0.0371 H   0  0  0  0  0  0  0  0  0  0  0  0
   -0.9889   -3.8428    0.9423 H   0  0  0  0  0  0  0  0  0  0  0  0
    1.3313   -4.1533   -1.0555 H   0  0  0  0  0  0  0  0  0  0  0  0
    0.5996   -5.4699   -0.1301 H   0  0  0  0  0  0  0  0  0  0  0  0
   -0.3499   -4.6130   -1.3588 H   0  0  0  0  0  0  0  0  0  0  0  0
    1.0284   -4.3263    2.4601 N   0  0  0  0  0  0  0  0  0  0  0  0
    1.9594   -4.3694    3.5635 C   0  0  0  0  0  0  0  0  0  0  0  0
    0.3462   -5.0752    2.3861 H   0  0  0  0  0  0  0  0  0  0  0  0
    2.8590   -4.9267    3.2633 H   0  0  0  0  0  0  0  0  0  0  0  0
    2.2407   -3.3441    3.8459 H   0  0  0  0  0  0  0  0  0  0  0  0
    1.4876   -4.8698    4.4219 H   0  0  0  0  0  0  0  0  0  0  0  0
  1  3  1  0  0  0  0
  1  7  1  0  0  0  0
  1  2  2  0  0  0  0
 31 32  1  0  0  0  0
 32 40  1  0  0  0  0
 32 33  2  0  0  0  0
  8  9  1  0  0  0  0
  9 17  1  0  0  0  0
  9 10  2  0  0  0  0
 18 19  1  0  0  0  0
 19 30  1  0  0  0  0
 19 20  2  0  0  0  0
 21 22  1  0  0  0  0
 22 23  2  0  0  0  0
 22 24  1  0  0  0  0
 31 34  1  0  0  0  0
  8 11  1  0  0  0  0
 40 41  1  0  0  0  0
 18 21  1  0  0  0  0
 30 31  1  0  0  0  0
  7  8  1  0  0  0  0
 17 18  1  0  0  0  0
  3  4  1  0  0  0  0
  3  5  1  0  0  0  0
  3  6  1  0  0  0  0
 34 37  1  0  0  0  0
 34 38  1  0  0  0  0
 34 39  1  0  0  0  0
 11 14  1  0  0  0  0
 11 15  1  0  0  0  0
 11 16  1  0  0  0  0
 41 43  1  0  0  0  0
 41 44  1  0  0  0  0
 41 45  1  0  0  0  0
 21 27  1  0  0  0  0
 21 28  1  0  0  0  0
 31 36  1  0  0  0  0
  8 13  1  0  0  0  0
 18 26  1  0  0  0  0
 40 42  1  0  0  0  0
  7 12  1  0  0  0  0
 30 35  1  0  0  0  0
 17 25  1  0  0  0  0
 24 29  1  0  0  0  0
M  END
$$$$

  -OEChem-05262214473D

 45 44  0     1  0  0  0  0  0999 V2000
   -2.2987    4.1032   -0.3022 C   0  0  0  0  0  0  0  0  0  0  0  0
   -1.8049    3.7117   -1.3532 O   0  0  0  0  0  0  0  0  0  0  0  0
   -3.0791    5.3755   -0.2846 C   0  0  0  0  0  0  0  0  0  0  0  0
   -2.4478    6.2532   -0.0717 H   0  0  0  0  0  0  0  0  0  0  0  0
   -3.5571    5.5891   -1.2541 H   0  0  0  0  0  0  0  0  0  0  0  0
   -3.8940    5.4184    0.4556 H   0  0  0  0  0  0  0  0  0  0  0  0
   -2.2137    3.4712    0.9275 N   0  0  0  0  0  0  0  0  0  0  0  0
   -1.5102    2.2327    1.1338 C   0  0  2  0  0  0  0  0  0  0  0  0
   -1.3539    1.5497   -0.2184 C   0  0  0  0  0  0  0  0  0  0  0  0
   -2.0852    1.7861   -1.1778 O   0  0  0  0  0  0  0  0  0  0  0  0
   -2.2477    1.3342    2.1145 C   0  0  0  0  0  0  0  0  0  0  0  0
   -2.6724    3.9052    1.7265 H   0  0  0  0  0  0  0  0  0  0  0  0
   -0.5220    2.4922    1.5290 H   0  0  0  0  0  0  0  0  0  0  0  0
   -3.2400    1.0636    1.7358 H   0  0  0  0  0  0  0  0  0  0  0  0
   -1.6970    0.4046    2.2923 H   0  0  0  0  0  0  0  0  0  0  0  0
   -2.3854    1.8384    3.0772 H   0  0  0  0  0  0  0  0  0  0  0  0
   -0.3283    0.6116   -0.2182 N   0  0  0  0  0  0  0  0  0  0  0  0
    0.0090   -0.1762   -1.3759 C   0  0  2  0  0  0  0  0  0  0  0  0
    0.5631   -1.5085   -0.8869 C   0  0  0  0  0  0  0  0  0  0  0  0
    1.7636   -1.7732   -0.8831 O   0  0  0  0  0  0  0  0  0  0  0  0
    1.0177    0.5338   -2.2750 C   0  0  0  0  0  0  0  0  0  0  0  0
    0.4013    1.7365   -2.9461 C   0  0  0  0  0  0  0  0  0  0  0  0
   -0.7876    1.8319   -3.2214 O   0  0  0  0  0  0  0  0  0  0  0  0
    1.3130    2.6993   -3.2295 O   0  0  0  0  0  0  0  0  0  0  0  0
    0.2381    0.4970    0.6194 H   0  0  0  0  0  0  0  0  0  0  0  0
   -0.9321   -0.3569   -1.9092 H   0  0  0  0  0  0  0  0  0  0  0  0
    1.8738    0.9023   -1.6958 H   0  0  0  0  0  0  0  0  0  0  0  0
    1.4407   -0.1331   -3.0361 H   0  0  0  0  0  0  0  0  0  0  0  0
    0.9511    3.4932   -3.6785 H   0  0  0  0  0  0  0  0  0  0  0  0
   -0.4352   -2.3472   -0.4116 N   0  0  0  0  0  0  0  0  0  0  0  0
   -0.1611   -3.6618    0.1200 C   0  0  2  0  0  0  0  0  0  0  0  0
    0.6153   -3.4913    1.4191 C   0  0  0  0  0  0  0  0  0  0  0  0
    1.2630   -2.4812    1.6858 O   0  0  0  0  0  0  0  0  0  0  0  0
    0.6200   -4.5083   -0.8730 C   0  0  0  0  0  0  0  0  0  0  0  0
   -1.3976   -2.0234   -0.4386 H   0  0  0  0  0  0  0  0  0  0  0  0
   -1.1306   -4.1259    0.3315 H   0  0  0  0  0  0  0  0  0  0  0  0
    1.5944   -4.0592   -1.0971 H   0  0  0  0  0  0  0  0  0  0  0  0
    0.8023   -5.5140   -0.4799 H   0  0  0  0  0  0  0  0  0  0  0  0
    0.0735   -4.6051   -1.8173 H   0  0  0  0  0  0  0  0  0  0  0  0
    0.5350   -4.6172    2.2266 N   0  0  0  0  0  0  0  0  0  0  0  0
    1.1972   -4.7071    3.5070 C   0  0  0  0  0  0  0  0  0  0  0  0
   -0.0402   -5.4017    1.9345 H   0  0  0  0  0  0  0  0  0  0  0  0
    2.1893   -5.1639    3.3761 H   0  0  0  0  0  0  0  0  0  0  0  0
    1.3111   -3.6991    3.9324 H   0  0  0  0  0  0  0  0  0  0  0  0
    0.5955   -5.3266    4.1882 H   0  0  0  0  0  0  0  0  0  0  0  0
  1  3  1  0  0  0  0
  1  7  1  0  0  0  0
  1  2  2  0  0  0  0
 31 32  1  0  0  0  0
 32 40  1  0  0  0  0
 32 33  2  0  0  0  0
  8  9  1  0  0  0  0
  9 17  1  0  0  0  0
  9 10  2  0  0  0  0
 18 19  1  0  0  0  0
 19 30  1  0  0  0  0
 19 20  2  0  0  0  0
 21 22  1  0  0  0  0
 22 23  2  0  0  0  0
 22 24  1  0  0  0  0
 31 34  1  0  0  0  0
  8 11  1  0  0  0  0
 40 41  1  0  0  0  0
 18 21  1  0  0  0  0
 30 31  1  0  0  0  0
  7  8  1  0  0  0  0
 17 18  1  0  0  0  0
  3  4  1  0  0  0  0
  3  5  1  0  0  0  0
  3  6  1  0  0  0  0
 34 37  1  0  0  0  0
 34 38  1  0  0  0  0
 34 39  1  0  0  0  0
 11 14  1  0  0  0  0
 11 15  1  0  0  0  0
 11 16  1  0  0  0  0
 41 43  1  0  0  0  0
 41 44  1  0  0  0  0
 41 45  1  0  0  0  0
 21 27  1  0  0  0  0
 21 28  1  0  0  0  0
 31 36  1  0  0  0  0
  8 13  1  0  0  0  0
 18 26  1  0  0  0  0
 40 42  1  0  0  0  0
  7 12  1  0  0  0  0
 30 35  1  0  0  0  0
 17 25  1  0  0  0  0
 24 29  1  0  0  0  0
M  END
$$$$

  -OEChem-05262214473D

 45 44  0     1  0  0  0  0  0999 V2000
   -2.2987    4.1032   -0.3022 C   0  0  0  0  0  0  0  0  0  0  0  0
   -1.8049    3.7117   -1.3532 O   0  0  0  0  0  0  0  0  0  0  0  0
   -3.0791    5.3755   -0.2846 C   0  0  0  0  0  0  0  0  0  0  0  0
   -2.4478    6.2532   -0.0717 H   0  0  0  0  0  0  0  0  0  0  0  0
   -3.5571    5.5891   -1.2541 H   0  0  0  0  0  0  0  0  0  0  0  0
   -3.8940    5.4184    0.4556 H   0  0  0  0  0  0  0  0  0  0  0  0
   -2.2137    3.4712    0.9275 N   0  0  0  0  0  0  0  0  0  0  0  0
   -1.5102    2.2327    1.1338 C   0  0  2  0  0  0  0  0  0  0  0  0
   -1.3539    1.5497   -0.2184 C   0  0  0  0  0  0  0  0  0  0  0  0
   -2.0852    1.7861   -1.1778 O   0  0  0  0  0  0  0  0  0  0  0  0
   -2.2477    1.3342    2.1145 C   0  0  0  0  0  0  0  0  0  0  0  0
   -2.6724    3.9052    1.7265 H   0  0  0  0  0  0  0  0  0  0  0  0
   -0.5220    2.4922    1.5290 H   0  0  0  0  0  0  0  0  0  0  0  0
   -3.2400    1.0636    1.7358 H   0  0  0  0  0  0  0  0  0  0  0  0
   -1.6970    0.4046    2.2923 H   0  0  0  0  0  0  0  0  0  0  0  0
   -2.3854    1.8384    3.0772 H   0  0  0  0  0  0  0  0  0  0  0  0
   -0.3283    0.6116   -0.2182 N   0  0  0  0  0  0  0  0  0  0  0  0
    0.0090   -0.1762   -1.3759 C   0  0  2  0  0  0  0  0  0  0  0  0
    0.5631   -1.5085   -0.8869 C   0  0  0  0  0  0  0  0  0  0  0  0
    1.7521   -1.6848   -0.6291 O   0  0  0  0  0  0  0  0  0  0  0  0
    1.0177    0.5338   -2.2750 C   0  0  0  0  0  0  0  0  0  0  0  0
    0.4013    1.7365   -2.9461 C   0  0  0  0  0  0  0  0  0  0  0  0
   -0.7876    1.8319   -3.2214 O   0  0  0  0  0  0  0  0  0  0  0  0
    1.3130    2.6993   -3.2295 O   0  0  0  0  0  0  0  0  0  0  0  0
    0.2381    0.4970    0.6194 H   0  0  0  0  0  0  0  0  0  0  0  0
   -0.9321   -0.3569   -1.9092 H   0  0  0  0  0  0  0  0  0  0  0  0
    1.8738    0.9023   -1.6958 H   0  0  0  0  0  0  0  0  0  0  0  0
    1.4407   -0.1331   -3.0361 H   0  0  0  0  0  0  0  0  0  0  0  0
    0.9511    3.4932   -3.6785 H   0  0  0  0  0  0  0  0  0  0  0  0
   -0.4326   -2.4619   -0.7270 N   0  0  0  0  0  0  0  0  0  0  0  0
   -0.1614   -3.8013   -0.2597 C   0  0  2  0  0  0  0  0  0  0  0  0
    0.2872   -3.7108    1.1929 C   0  0  0  0  0  0  0  0  0  0  0  0
    0.7616   -2.6896    1.6861 O   0  0  0  0  0  0  0  0  0  0  0  0
    0.8969   -4.4816   -1.1140 C   0  0  0  0  0  0  0  0  0  0  0  0
   -1.3910   -2.2074   -0.9474 H   0  0  0  0  0  0  0  0  0  0  0  0
   -1.1056   -4.3536   -0.3172 H   0  0  0  0  0  0  0  0  0  0  0  0
    1.8502   -3.9424   -1.0689 H   0  0  0  0  0  0  0  0  0  0  0  0
    1.0808   -5.5068   -0.7761 H   0  0  0  0  0  0  0  0  0  0  0  0
    0.5856   -4.5192   -2.1635 H   0  0  0  0  0  0  0  0  0  0  0  0
    0.1355   -4.9172    1.8621 N   0  0  0  0  0  0  0  0  0  0  0  0
    0.5018   -5.0913    3.2482 C   0  0  0  0  0  0  0  0  0  0  0  0
   -0.2841   -5.7067    1.3800 H   0  0  0  0  0  0  0  0  0  0  0  0
    1.5366   -5.4592    3.3111 H   0  0  0  0  0  0  0  0  0  0  0  0
    0.4231   -4.1273    3.7720 H   0  0  0  0  0  0  0  0  0  0  0  0
   -0.1754   -5.8200    3.7176 H   0  0  0  0  0  0  0  0  0  0  0  0
  1  3  1  0  0  0  0
  1  7  1  0  0  0  0
  1  2  2  0  0  0  0
 31 32  1  0  0  0  0
 32 40  1  0  0  0  0
 32 33  2  0  0  0  0
  8  9  1  0  0  0  0
  9 17  1  0  0  0  0
  9 10  2  0  0  0  0
 18 19  1  0  0  0  0
 19 30  1  0  0  0  0
 19 20  2  0  0  0  0
 21 22  1  0  0  0  0
 22 23  2  0  0  0  0
 22 24  1  0  0  0  0
 31 34  1  0  0  0  0
  8 11  1  0  0  0  0
 40 41  1  0  0  0  0
 18 21  1  0  0  0  0
 30 31  1  0  0  0  0
  7  8  1  0  0  0  0
 17 18  1  0  0  0  0
  3  4  1  0  0  0  0
  3  5  1  0  0  0  0
  3  6  1  0  0  0  0
 34 37  1  0  0  0  0
 34 38  1  0  0  0  0
 34 39  1  0  0  0  0
 11 14  1  0  0  0  0
 11 15  1  0  0  0  0
 11 16  1  0  0  0  0
 41 43  1  0  0  0  0
 41 44  1  0  0  0  0
 41 45  1  0  0  0  0
 21 27  1  0  0  0  0
 21 28  1  0  0  0  0
 31 36  1  0  0  0  0
  8 13  1  0  0  0  0
 18 26  1  0  0  0  0
 40 42  1  0  0  0  0
  7 12  1  0  0  0  0
 30 35  1  0  0  0  0
 17 25  1  0  0  0  0
 24 29  1  0  0  0  0
M  END
$$$$

  -OEChem-05262214473D

 45 44  0     1  0  0  0  0  0999 V2000
   -2.2987    4.1032   -0.3022 C   0  0  0  0  0  0  0  0  0  0  0  0
   -1.8049    3.7117   -1.3532 O   0  0  0  0  0  0  0  0  0  0  0  0
   -3.0791    5.3755   -0.2846 C   0  0  0  0  0  0  0  0  0  0  0  0
   -2.4478    6.2532   -0.0717 H   0  0  0  0  0  0  0  0  0  0  0  0
   -3.5571    5.5891   -1.2541 H   0  0  0  0  0  0  0  0  0  0  0  0
   -3.8940    5.4184    0.4556 H   0  0  0  0  0  0  0  0  0  0  0  0
   -2.2137    3.4712    0.9275 N   0  0  0  0  0  0  0  0  0  0  0  0
   -1.5102    2.2327    1.1338 C   0  0  2  0  0  0  0  0  0  0  0  0
   -1.3539    1.5497   -0.2184 C   0  0  0  0  0  0  0  0  0  0  0  0
   -2.0852    1.7861   -1.1778 O   0  0  0  0  0  0  0  0  0  0  0  0
   -2.2477    1.3342    2.1145 C   0  0  0  0  0  0  0  0  0  0  0  0
   -2.6724    3.9052    1.7265 H   0  0  0  0  0  0  0  0  0  0  0  0
   -0.5220    2.4922    1.5290 H   0  0  0  0  0  0  0  0  0  0  0  0
   -3.2400    1.0636    1.7358 H   0  0  0  0  0  0  0  0  0  0  0  0
   -1.6970    0.4046    2.2923 H   0  0  0  0  0  0  0  0  0  0  0  0
   -2.3854    1.8384    3.0772 H   0  0  0  0  0  0  0  0  0  0  0  0
   -0.3283    0.6116   -0.2182 N   0  0  0  0  0  0  0  0  0  0  0  0
    0.0090   -0.1762   -1.3759 C   0  0  2  0  0  0  0  0  0  0  0  0
    0.5631   -1.5085   -0.8869 C   0  0  0  0  0  0  0  0  0  0  0  0
    1.6762   -1.6242   -0.3781 O   0  0  0  0  0  0  0  0  0  0  0  0
    1.0177    0.5338   -2.2750 C   0  0  0  0  0  0  0  0  0  0  0  0
    0.4013    1.7365   -2.9461 C   0  0  0  0  0  0  0  0  0  0  0  0
   -0.7876    1.8319   -3.2214 O   0  0  0  0  0  0  0  0  0  0  0  0
    1.3130    2.6993   -3.2295 O   0  0  0  0  0  0  0  0  0  0  0  0
    0.2381    0.4970    0.6194 H   0  0  0  0  0  0  0  0  0  0  0  0
   -0.9321   -0.3569   -1.9092 H   0  0  0  0  0  0  0  0  0  0  0  0
    1.8738    0.9023   -1.6958 H   0  0  0  0  0  0  0  0  0  0  0  0
    1.4407   -0.1331   -3.0361 H   0  0  0  0  0  0  0  0  0  0  0  0
    0.9511    3.4932   -3.6785 H   0  0  0  0  0  0  0  0  0  0  0  0
   -0.3492   -2.5427   -1.0418 N   0  0  0  0  0  0  0  0  0  0  0  0
   -0.0641   -3.9003   -0.6397 C   0  0  2  0  0  0  0  0  0  0  0  0
    0.0397   -3.9288    0.8795 C   0  0  0  0  0  0  0  0  0  0  0  0
    0.2945   -2.9327    1.5533 O   0  0  0  0  0  0  0  0  0  0  0  0
    1.2167   -4.4101   -1.2817 C   0  0  0  0  0  0  0  0  0  0  0  0
   -1.2541   -2.3366   -1.4547 H   0  0  0  0  0  0  0  0  0  0  0  0
   -0.9158   -4.5104   -0.9596 H   0  0  0  0  0  0  0  0  0  0  0  0
    2.0812   -3.8111   -0.9728 H   0  0  0  0  0  0  0  0  0  0  0  0
    1.4163   -5.4489   -0.9984 H   0  0  0  0  0  0  0  0  0  0  0  0
    1.1515   -4.3610   -2.3740 H   0  0  0  0  0  0  0  0  0  0  0  0
   -0.1430   -5.2058    1.3912 N   0  0  0  0  0  0  0  0  0  0  0  0
   -0.0794   -5.4959    2.8047 C   0  0  0  0  0  0  0  0  0  0  0  0
   -0.3689   -5.9693    0.7605 H   0  0  0  0  0  0  0  0  0  0  0  0
    0.9453   -5.7926    3.0729 H   0  0  0  0  0  0  0  0  0  0  0  0
   -0.3628   -4.5995    3.3759 H   0  0  0  0  0  0  0  0  0  0  0  0
   -0.7726   -6.3163    3.0421 H   0  0  0  0  0  0  0  0  0  0  0  0
  1  3  1  0  0  0  0
  1  7  1  0  0  0  0
  1  2  2  0  0  0  0
 31 32  1  0  0  0  0
 32 40  1  0  0  0  0
 32 33  2  0  0  0  0
  8  9  1  0  0  0  0
  9 17  1  0  0  0  0
  9 10  2  0  0  0  0
 18 19  1  0  0  0  0
 19 30  1  0  0  0  0
 19 20  2  0  0  0  0
 21 22  1  0  0  0  0
 22 23  2  0  0  0  0
 22 24  1  0  0  0  0
 31 34  1  0  0  0  0
  8 11  1  0  0  0  0
 40 41  1  0  0  0  0
 18 21  1  0  0  0  0
 30 31  1  0  0  0  0
  7  8  1  0  0  0  0
 17 18  1  0  0  0  0
  3  4  1  0  0  0  0
  3  5  1  0  0  0  0
  3  6  1  0  0  0  0
 34 37  1  0  0  0  0
 34 38  1  0  0  0  0
 34 39  1  0  0  0  0
 11 14  1  0  0  0  0
 11 15  1  0  0  0  0
 11 16  1  0  0  0  0
 41 43  1  0  0  0  0
 41 44  1  0  0  0  0
 41 45  1  0  0  0  0
 21 27  1  0  0  0  0
 21 28  1  0  0  0  0
 31 36  1  0  0  0  0
  8 13  1  0  0  0  0
 18 26  1  0  0  0  0
 40 42  1  0  0  0  0
  7 12  1  0  0  0  0
 30 35  1  0  0  0  0
 17 25  1  0  0  0  0
 24 29  1  0  0  0  0
M  END
$$$$

  -OEChem-05262214473D

 45 44  0     1  0  0  0  0  0999 V2000
   -2.2987    4.1032   -0.3022 C   0  0  0  0  0  0  0  0  0  0  0  0
   -1.8049    3.7117   -1.3532 O   0  0  0  0  0  0  0  0  0  0  0  0
   -3.0791    5.3755   -0.2846 C   0  0  0  0  0  0  0  0  0  0  0  0
   -2.4478    6.2532   -0.0717 H   0  0  0  0  0  0  0  0  0  0  0  0
   -3.5571    5.5891   -1.2541 H   0  0  0  0  0  0  0  0  0  0  0  0
   -3.8940    5.4184    0.4556 H   0  0  0  0  0  0  0  0  0  0  0  0
   -2.2137    3.4712    0.9275 N   0  0  0  0  0  0  0  0  0  0  0  0
   -1.5102    2.2327    1.1338 C   0  0  2  0  0  0  0  0  0  0  0  0
   -1.3539    1.5497   -0.2184 C   0  0  0  0  0  0  0  0  0  0  0  0
   -2.0852    1.7861   -1.1778 O   0  0  0  0  0  0  0  0  0  0  0  0
   -2.2477    1.3342    2.1145 C   0  0  0  0  0  0  0  0  0  0  0  0
   -2.6724    3.9052    1.7265 H   0  0  0  0  0  0  0  0  0  0  0  0
   -0.5220    2.4922    1.5290 H   0  0  0  0  0  0  0  0  0  0  0  0
   -3.2400    1.0636    1.7358 H   0  0  0  0  0  0  0  0  0  0  0  0
   -1.6970    0.4046    2.2923 H   0  0  0  0  0  0  0  0  0  0  0  0
   -2.3854    1.8384    3.0772 H   0  0  0  0  0  0  0  0  0  0  0  0
   -0.3283    0.6116   -0.2182 N   0  0  0  0  0  0  0  0  0  0  0  0
    0.0090   -0.1762   -1.3759 C   0  0  2  0  0  0  0  0  0  0  0  0
    0.5631   -1.5085   -0.8869 C   0  0  0  0  0  0  0  0  0  0  0  0
    1.5410   -1.5957   -0.1471 O   0  0  0  0  0  0  0  0  0  0  0  0
    1.0177    0.5338   -2.2750 C   0  0  0  0  0  0  0  0  0  0  0  0
    0.4013    1.7365   -2.9461 C   0  0  0  0  0  0  0  0  0  0  0  0
   -0.7876    1.8319   -3.2214 O   0  0  0  0  0  0  0  0  0  0  0  0
    1.3130    2.6993   -3.2295 O   0  0  0  0  0  0  0  0  0  0  0  0
    0.2381    0.4970    0.6194 H   0  0  0  0  0  0  0  0  0  0  0  0
   -0.9321   -0.3569   -1.9092 H   0  0  0  0  0  0  0  0  0  0  0  0
    1.8738    0.9023   -1.6958 H   0  0  0  0  0  0  0  0  0  0  0  0
    1.4407   -0.1331   -3.0361 H   0  0  0  0  0  0  0  0  0  0  0  0
    0.9511    3.4932   -3.6785 H   0  0  0  0  0  0  0  0  0  0  0  0
   -0.1907   -2.5843   -1.3347 N   0  0  0  0  0  0  0  0  0  0  0  0
    0.1240   -3.9521   -0.9940 C   0  0  2  0  0  0  0  0  0  0  0  0
   -0.1103   -4.1304    0.5003 C   0  0  0  0  0  0  0  0  0  0  0  0
   -0.1064   -3.1937    1.2964 O   0  0  0  0  0  0  0  0  0  0  0  0
    1.5577   -4.2987   -1.3645 C   0  0  0  0  0  0  0  0  0  0  0  0
   -0.9964   -2.4024   -1.9259 H   0  0  0  0  0  0  0  0  0  0  0  0
   -0.5740   -4.5856   -1.5519 H   0  0  0  0  0  0  0  0  0  0  0  0
    2.2716   -3.6741   -0.8153 H   0  0  0  0  0  0  0  0  0  0  0  0
    1.7859   -5.3441   -1.1318 H   0  0  0  0  0  0  0  0  0  0  0  0
    1.7326   -4.1414   -2.4343 H   0  0  0  0  0  0  0  0  0  0  0  0
   -0.2815   -5.4635    0.8463 N   0  0  0  0  0  0  0  0  0  0  0  0
   -0.5068   -5.8931    2.2066 C   0  0  0  0  0  0  0  0  0  0  0  0
   -0.2888   -6.1717    0.1182 H   0  0  0  0  0  0  0  0  0  0  0  0
    0.4558   -6.1413    2.6775 H   0  0  0  0  0  0  0  0  0  0  0  0
   -0.9930   -5.0837    2.7709 H   0  0  0  0  0  0  0  0  0  0  0  0
   -1.1552   -6.7817    2.2078 H   0  0  0  0  0  0  0  0  0  0  0  0
  1  3  1  0  0  0  0
  1  7  1  0  0  0  0
  1  2  2  0  0  0  0
 31 32  1  0  0  0  0
 32 40  1  0  0  0  0
 32 33  2  0  0  0  0
  8  9  1  0  0  0  0
  9 17  1  0  0  0  0
  9 10  2  0  0  0  0
 18 19  1  0  0  0  0
 19 30  1  0  0  0  0
 19 20  2  0  0  0  0
 21 22  1  0  0  0  0
 22 23  2  0  0  0  0
 22 24  1  0  0  0  0
 31 34  1  0  0  0  0
  8 11  1  0  0  0  0
 40 41  1  0  0  0  0
 18 21  1  0  0  0  0
 30 31  1  0  0  0  0
  7  8  1  0  0  0  0
 17 18  1  0  0  0  0
  3  4  1  0  0  0  0
  3  5  1  0  0  0  0
  3  6  1  0  0  0  0
 34 37  1  0  0  0  0
 34 38  1  0  0  0  0
 34 39  1  0  0  0  0
 11 14  1  0  0  0  0
 11 15  1  0  0  0  0
 11 16  1  0  0  0  0
 41 43  1  0  0  0  0
 41 44  1  0  0  0  0
 41 45  1  0  0  0  0
 21 27  1  0  0  0  0
 21 28  1  0  0  0  0
 31 36  1  0  0  0  0
  8 13  1  0  0  0  0
 18 26  1  0  0  0  0
 40 42  1  0  0  0  0
  7 12  1  0  0  0  0
 30 35  1  0  0  0  0
 17 25  1  0  0  0  0
 24 29  1  0  0  0  0
M  END
$$$$

  -OEChem-05262214473D

 45 44  0     1  0  0  0  0  0999 V2000
   -2.2987    4.1032   -0.3022 C   0  0  0  0  0  0  0  0  0  0  0  0
   -1.8049    3.7117   -1.3532 O   0  0  0  0  0  0  0  0  0  0  0  0
   -3.0791    5.3755   -0.2846 C   0  0  0  0  0  0  0  0  0  0  0  0
   -2.4478    6.2532   -0.0717 H   0  0  0  0  0  0  0  0  0  0  0  0
   -3.5571    5.5891   -1.2541 H   0  0  0  0  0  0  0  0  0  0  0  0
   -3.8940    5.4184    0.4556 H   0  0  0  0  0  0  0  0  0  0  0  0
   -2.2137    3.4712    0.9275 N   0  0  0  0  0  0  0  0  0  0  0  0
   -1.5102    2.2327    1.1338 C   0  0  2  0  0  0  0  0  0  0  0  0
   -1.3539    1.5497   -0.2184 C   0  0  0  0  0  0  0  0  0  0  0  0
   -2.0852    1.7861   -1.1778 O   0  0  0  0  0  0  0  0  0  0  0  0
   -2.2477    1.3342    2.1145 C   0  0  0  0  0  0  0  0  0  0  0  0
   -2.6724    3.9052    1.7265 H   0  0  0  0  0  0  0  0  0  0  0  0
   -0.5220    2.4922    1.5290 H   0  0  0  0  0  0  0  0  0  0  0  0
   -3.2400    1.0636    1.7358 H   0  0  0  0  0  0  0  0  0  0  0  0
   -1.6970    0.4046    2.2923 H   0  0  0  0  0  0  0  0  0  0  0  0
   -2.3854    1.8384    3.0772 H   0  0  0  0  0  0  0  0  0  0  0  0
   -0.3283    0.6116   -0.2182 N   0  0  0  0  0  0  0  0  0  0  0  0
    0.0090   -0.1762   -1.3759 C   0  0  2  0  0  0  0  0  0  0  0  0
    0.5631   -1.5085   -0.8869 C   0  0  0  0  0  0  0  0  0  0  0  0
    1.3558   -1.6011    0.0481 O   0  0  0  0  0  0  0  0  0  0  0  0
    1.0177    0.5338   -2.2750 C   0  0  0  0  0  0  0  0  0  0  0  0
    0.4013    1.7365   -2.9461 C   0  0  0  0  0  0  0  0  0  0  0  0
   -0.7876    1.8319   -3.2214 O   0  0  0  0  0  0  0  0  0  0  0  0
    1.3130    2.6993   -3.2295 O   0  0  0  0  0  0  0  0  0  0  0  0
    0.2381    0.4970    0.6194 H   0  0  0  0  0  0  0  0  0  0  0  0
   -0.9321   -0.3569   -1.9092 H   0  0  0  0  0  0  0  0  0  0  0  0
    1.8738    0.9023   -1.6958 H   0  0  0  0  0  0  0  0  0  0  0  0
    1.4407   -0.1331   -3.0361 H   0  0  0  0  0  0  0  0  0  0  0  0
    0.9511    3.4932   -3.6785 H   0  0  0  0  0  0  0  0  0  0  0  0
    0.0322   -2.5837   -1.5856 N   0  0  0  0  0  0  0  0  0  0  0  0
    0.3903   -3.9531   -1.2985 C   0  0  2  0  0  0  0  0  0  0  0  0
   -0.1527   -4.3019    0.0810 C   0  0  0  0  0  0  0  0  0  0  0  0
   -0.4138   -3.4550    0.9329 O   0  0  0  0  0  0  0  0  0  0  0  0
    1.8964   -4.1550   -1.3568 C   0  0  0  0  0  0  0  0  0  0  0  0
   -0.6353   -2.4001   -2.3289 H   0  0  0  0  0  0  0  0  0  0  0  0
   -0.1036   -4.5741   -2.0537 H   0  0  0  0  0  0  0  0  0  0  0  0
    2.4085   -3.5407   -0.6072 H   0  0  0  0  0  0  0  0  0  0  0  0
    2.1644   -5.1996   -1.1671 H   0  0  0  0  0  0  0  0  0  0  0  0
    2.2893   -3.8754   -2.3403 H   0  0  0  0  0  0  0  0  0  0  0  0
   -0.2706   -5.6725    0.2642 N   0  0  0  0  0  0  0  0  0  0  0  0
   -0.7513   -6.2561    1.4948 C   0  0  0  0  0  0  0  0  0  0  0  0
   -0.0492   -6.3001   -0.5031 H   0  0  0  0  0  0  0  0  0  0  0  0
    0.1015   -6.4815    2.1520 H   0  0  0  0  0  0  0  0  0  0  0  0
   -1.4246   -5.5468    1.9984 H   0  0  0  0  0  0  0  0  0  0  0  0
   -1.2974   -7.1844    1.2714 H   0  0  0  0  0  0  0  0  0  0  0  0
  1  3  1  0  0  0  0
  1  7  1  0  0  0  0
  1  2  2  0  0  0  0
 31 32  1  0  0  0  0
 32 40  1  0  0  0  0
 32 33  2  0  0  0  0
  8  9  1  0  0  0  0
  9 17  1  0  0  0  0
  9 10  2  0  0  0  0
 18 19  1  0  0  0  0
 19 30  1  0  0  0  0
 19 20  2  0  0  0  0
 21 22  1  0  0  0  0
 22 23  2  0  0  0  0
 22 24  1  0  0  0  0
 31 34  1  0  0  0  0
  8 11  1  0  0  0  0
 40 41  1  0  0  0  0
 18 21  1  0  0  0  0
 30 31  1  0  0  0  0
  7  8  1  0  0  0  0
 17 18  1  0  0  0  0
  3  4  1  0  0  0  0
  3  5  1  0  0  0  0
  3  6  1  0  0  0  0
 34 37  1  0  0  0  0
 34 38  1  0  0  0  0
 34 39  1  0  0  0  0
 11 14  1  0  0  0  0
 11 15  1  0  0  0  0
 11 16  1  0  0  0  0
 41 43  1  0  0  0  0
 41 44  1  0  0  0  0
 41 45  1  0  0  0  0
 21 27  1  0  0  0  0
 21 28  1  0  0  0  0
 31 36  1  0  0  0  0
  8 13  1  0  0  0  0
 18 26  1  0  0  0  0
 40 42  1  0  0  0  0
  7 12  1  0  0  0  0
 30 35  1  0  0  0  0
 17 25  1  0  0  0  0
 24 29  1  0  0  0  0
M  END
$$$$

  -OEChem-05262214473D

 45 44  0     1  0  0  0  0  0999 V2000
   -2.2987    4.1032   -0.3022 C   0  0  0  0  0  0  0  0  0  0  0  0
   -1.8049    3.7117   -1.3532 O   0  0  0  0  0  0  0  0  0  0  0  0
   -3.0791    5.3755   -0.2846 C   0  0  0  0  0  0  0  0  0  0  0  0
   -2.4478    6.2532   -0.0717 H   0  0  0  0  0  0  0  0  0  0  0  0
   -3.5571    5.5891   -1.2541 H   0  0  0  0  0  0  0  0  0  0  0  0
   -3.8940    5.4184    0.4556 H   0  0  0  0  0  0  0  0  0  0  0  0
   -2.2137    3.4712    0.9275 N   0  0  0  0  0  0  0  0  0  0  0  0
   -1.5102    2.2327    1.1338 C   0  0  2  0  0  0  0  0  0  0  0  0
   -1.3539    1.5497   -0.2184 C   0  0  0  0  0  0  0  0  0  0  0  0
   -2.0852    1.7861   -1.1778 O   0  0  0  0  0  0  0  0  0  0  0  0
   -2.2477    1.3342    2.1145 C   0  0  0  0  0  0  0  0  0  0  0  0
   -2.6724    3.9052    1.7265 H   0  0  0  0  0  0  0  0  0  0  0  0
   -0.5220    2.4922    1.5290 H   0  0  0  0  0  0  0  0  0  0  0  0
   -3.2400    1.0636    1.7358 H   0  0  0  0  0  0  0  0  0  0  0  0
   -1.6970    0.4046    2.2923 H   0  0  0  0  0  0  0  0  0  0  0  0
   -2.3854    1.8384    3.0772 H   0  0  0  0  0  0  0  0  0  0  0  0
   -0.3283    0.6116   -0.2182 N   0  0  0  0  0  0  0  0  0  0  0  0
    0.0090   -0.1762   -1.3759 C   0  0  2  0  0  0  0  0  0  0  0  0
    0.5631   -1.5085   -0.8869 C   0  0  0  0  0  0  0  0  0  0  0  0
    1.1331   -1.6401    0.1943 O   0  0  0  0  0  0  0  0  0  0  0  0
    1.0177    0.5338   -2.2750 C   0  0  0  0  0  0  0  0  0  0  0  0
    0.4013    1.7365   -2.9461 C   0  0  0  0  0  0  0  0  0  0  0  0
   -0.7876    1.8319   -3.2214 O   0  0  0  0  0  0  0  0  0  0  0  0
    1.3130    2.6993   -3.2295 O   0  0  0  0  0  0  0  0  0  0  0  0
    0.2381    0.4970    0.6194 H   0  0  0  0  0  0  0  0  0  0  0  0
   -0.9321   -0.3569   -1.9092 H   0  0  0  0  0  0  0  0  0  0  0  0
    1.8738    0.9023   -1.6958 H   0  0  0  0  0  0  0  0  0  0  0  0
    1.4407   -0.1331   -3.0361 H   0  0  0  0  0  0  0  0  0  0  0  0
    0.9511    3.4932   -3.6785 H   0  0  0  0  0  0  0  0  0  0  0  0
    0.3042   -2.5409   -1.7775 N   0  0  0  0  0  0  0  0  0  0  0  0
    0.7165   -3.9033   -1.5325 C   0  0  2  0  0  0  0  0  0  0  0  0
   -0.0844   -4.4315   -0.3497 C   0  0  0  0  0  0  0  0  0  0  0  0
   -0.6068   -3.6987    0.4876 O   0  0  0  0  0  0  0  0  0  0  0  0
    2.2100   -3.9888   -1.2592 C   0  0  0  0  0  0  0  0  0  0  0  0
   -0.1955   -2.3299   -2.6363 H   0  0  0  0  0  0  0  0  0  0  0  0
    0.4634   -4.4767   -2.4309 H   0  0  0  0  0  0  0  0  0  0  0  0
    2.4826   -3.4202   -0.3626 H   0  0  0  0  0  0  0  0  0  0  0  0
    2.5259   -5.0253   -1.1020 H   0  0  0  0  0  0  0  0  0  0  0  0
    2.7837   -3.5810   -2.0985 H   0  0  0  0  0  0  0  0  0  0  0  0
   -0.1109   -5.8187   -0.3151 N   0  0  0  0  0  0  0  0  0  0  0  0
   -0.7962   -6.5599    0.7177 C   0  0  0  0  0  0  0  0  0  0  0  0
    0.3335   -6.3457   -1.0612 H   0  0  0  0  0  0  0  0  0  0  0  0
   -0.0936   -6.7902    1.5322 H   0  0  0  0  0  0  0  0  0  0  0  0
   -1.6282   -5.9572    1.1108 H   0  0  0  0  0  0  0  0  0  0  0  0
   -1.1893   -7.4971    0.2969 H   0  0  0  0  0  0  0  0  0  0  0  0
  1  3  1  0  0  0  0
  1  7  1  0  0  0  0
  1  2  2  0  0  0  0
 31 32  1  0  0  0  0
 32 40  1  0  0  0  0
 32 33  2  0  0  0  0
  8  9  1  0  0  0  0
  9 17  1  0  0  0  0
  9 10  2  0  0  0  0
 18 19  1  0  0  0  0
 19 30  1  0  0  0  0
 19 20  2  0  0  0  0
 21 22  1  0  0  0  0
 22 23  2  0  0  0  0
 22 24  1  0  0  0  0
 31 34  1  0  0  0  0
  8 11  1  0  0  0  0
 40 41  1  0  0  0  0
 18 21  1  0  0  0  0
 30 31  1  0  0  0  0
  7  8  1  0  0  0  0
 17 18  1  0  0  0  0
  3  4  1  0  0  0  0
  3  5  1  0  0  0  0
  3  6  1  0  0  0  0
 34 37  1  0  0  0  0
 34 38  1  0  0  0  0
 34 39  1  0  0  0  0
 11 14  1  0  0  0  0
 11 15  1  0  0  0  0
 11 16  1  0  0  0  0
 41 43  1  0  0  0  0
 41 44  1  0  0  0  0
 41 45  1  0  0  0  0
 21 27  1  0  0  0  0
 21 28  1  0  0  0  0
 31 36  1  0  0  0  0
  8 13  1  0  0  0  0
 18 26  1  0  0  0  0
 40 42  1  0  0  0  0
  7 12  1  0  0  0  0
 30 35  1  0  0  0  0
 17 25  1  0  0  0  0
 24 29  1  0  0  0  0
M  END
$$$$

  -OEChem-05262214473D

 45 44  0     1  0  0  0  0  0999 V2000
   -2.2987    4.1032   -0.3022 C   0  0  0  0  0  0  0  0  0  0  0  0
   -1.8049    3.7117   -1.3532 O   0  0  0  0  0  0  0  0  0  0  0  0
   -3.0791    5.3755   -0.2846 C   0  0  0  0  0  0  0  0  0  0  0  0
   -2.4478    6.2532   -0.0717 H   0  0  0  0  0  0  0  0  0  0  0  0
   -3.5571    5.5891   -1.2541 H   0  0  0  0  0  0  0  0  0  0  0  0
   -3.8940    5.4184    0.4556 H   0  0  0  0  0  0  0  0  0  0  0  0
   -2.2137    3.4712    0.9275 N   0  0  0  0  0  0  0  0  0  0  0  0
   -1.5102    2.2327    1.1338 C   0  0  2  0  0  0  0  0  0  0  0  0
   -1.3539    1.5497   -0.2184 C   0  0  0  0  0  0  0  0  0  0  0  0
   -2.0852    1.7861   -1.1778 O   0  0  0  0  0  0  0  0  0  0  0  0
   -2.2477    1.3342    2.1145 C   0  0  0  0  0  0  0  0  0  0  0  0
   -2.6724    3.9052    1.7265 H   0  0  0  0  0  0  0  0  0  0  0  0
   -0.5220    2.4922    1.5290 H   0  0  0  0  0  0  0  0  0  0  0  0
   -3.2400    1.0636    1.7358 H   0  0  0  0  0  0  0  0  0  0  0  0
   -1.6970    0.4046    2.2923 H   0  0  0  0  0  0  0  0  0  0  0  0
   -2.3854    1.8384    3.0772 H   0  0  0  0  0  0  0  0  0  0  0  0
   -0.3283    0.6116   -0.2182 N   0  0  0  0  0  0  0  0  0  0  0  0
    0.0090   -0.1762   -1.3759 C   0  0  2  0  0  0  0  0  0  0  0  0
    0.5631   -1.5085   -0.8869 C   0  0  0  0  0  0  0  0  0  0  0  0
    0.8882   -1.7100    0.2814 O   0  0  0  0  0  0  0  0  0  0  0  0
    1.0177    0.5338   -2.2750 C   0  0  0  0  0  0  0  0  0  0  0  0
    0.4013    1.7365   -2.9461 C   0  0  0  0  0  0  0  0  0  0  0  0
   -0.7876    1.8319   -3.2214 O   0  0  0  0  0  0  0  0  0  0  0  0
    1.3130    2.6993   -3.2295 O   0  0  0  0  0  0  0  0  0  0  0  0
    0.2381    0.4970    0.6194 H   0  0  0  0  0  0  0  0  0  0  0  0
   -0.9321   -0.3569   -1.9092 H   0  0  0  0  0  0  0  0  0  0  0  0
    1.8738    0.9023   -1.6958 H   0  0  0  0  0  0  0  0  0  0  0  0
    1.4407   -0.1331   -3.0361 H   0  0  0  0  0  0  0  0  0  0  0  0
    0.9511    3.4932   -3.6785 H   0  0  0  0  0  0  0  0  0  0  0  0
    0.6068   -2.4590   -1.8972 N   0  0  0  0  0  0  0  0  0  0  0  0
    1.0803   -3.8061   -1.6800 C   0  0  2  0  0  0  0  0  0  0  0  0
    0.0897   -4.5106   -0.7625 C   0  0  0  0  0  0  0  0  0  0  0  0
   -0.6722   -3.9081   -0.0091 O   0  0  0  0  0  0  0  0  0  0  0  0
    2.4770   -3.8113   -1.0784 C   0  0  0  0  0  0  0  0  0  0  0  0
    0.2930   -2.1967   -2.8270 H   0  0  0  0  0  0  0  0  0  0  0  0
    1.0884   -4.3000   -2.6578 H   0  0  0  0  0  0  0  0  0  0  0  0
    2.4888   -3.3206   -0.0983 H   0  0  0  0  0  0  0  0  0  0  0  0
    2.8459   -4.8331   -0.9408 H   0  0  0  0  0  0  0  0  0  0  0  0
    3.1821   -3.2784   -1.7254 H   0  0  0  0  0  0  0  0  0  0  0  0
    0.1867   -5.8921   -0.8524 N   0  0  0  0  0  0  0  0  0  0  0  0
   -0.6385   -6.7840   -0.0716 C   0  0  0  0  0  0  0  0  0  0  0  0
    0.8333   -6.3054   -1.5178 H   0  0  0  0  0  0  0  0  0  0  0  0
   -0.1161   -7.0461    0.8603 H   0  0  0  0  0  0  0  0  0  0  0  0
   -1.5899   -6.2869    0.1688 H   0  0  0  0  0  0  0  0  0  0  0  0
   -0.8384   -7.6985   -0.6494 H   0  0  0  0  0  0  0  0  0  0  0  0
  1  3  1  0  0  0  0
  1  7  1  0  0  0  0
  1  2  2  0  0  0  0
 31 32  1  0  0  0  0
 32 40  1  0  0  0  0
 32 33  2  0  0  0  0
  8  9  1  0  0  0  0
  9 17  1  0  0  0  0
  9 10  2  0  0  0  0
 18 19  1  0  0  0  0
 19 30  1  0  0  0  0
 19 20  2  0  0  0  0
 21 22  1  0  0  0  0
 22 23  2  0  0  0  0
 22 24  1  0  0  0  0
 31 34  1  0  0  0  0
  8 11  1  0  0  0  0
 40 41  1  0  0  0  0
 18 21  1  0  0  0  0
 30 31  1  0  0  0  0
  7  8  1  0  0  0  0
 17 18  1  0  0  0  0
  3  4  1  0  0  0  0
  3  5  1  0  0  0  0
  3  6  1  0  0  0  0
 34 37  1  0  0  0  0
 34 38  1  0  0  0  0
 34 39  1  0  0  0  0
 11 14  1  0  0  0  0
 11 15  1  0  0  0  0
 11 16  1  0  0  0  0
 41 43  1  0  0  0  0
 41 44  1  0  0  0  0
 41 45  1  0  0  0  0
 21 27  1  0  0  0  0
 21 28  1  0  0  0  0
 31 36  1  0  0  0  0
  8 13  1  0  0  0  0
 18 26  1  0  0  0  0
 40 42  1  0  0  0  0
  7 12  1  0  0  0  0
 30 35  1  0  0  0  0
 17 25  1  0  0  0  0
 24 29  1  0  0  0  0
M  END
$$$$

  -OEChem-05262214473D

 45 44  0     1  0  0  0  0  0999 V2000
   -2.2987    4.1032   -0.3022 C   0  0  0  0  0  0  0  0  0  0  0  0
   -1.8049    3.7117   -1.3532 O   0  0  0  0  0  0  0  0  0  0  0  0
   -3.0791    5.3755   -0.2846 C   0  0  0  0  0  0  0  0  0  0  0  0
   -2.4478    6.2532   -0.0717 H   0  0  0  0  0  0  0  0  0  0  0  0
   -3.5571    5.5891   -1.2541 H   0  0  0  0  0  0  0  0  0  0  0  0
   -3.8940    5.4184    0.4556 H   0  0  0  0  0  0  0  0  0  0  0  0
   -2.2137    3.4712    0.9275 N   0  0  0  0  0  0  0  0  0  0  0  0
   -1.5102    2.2327    1.1338 C   0  0  2  0  0  0  0  0  0  0  0  0
   -1.3539    1.5497   -0.2184 C   0  0  0  0  0  0  0  0  0  0  0  0
   -2.0852    1.7861   -1.1778 O   0  0  0  0  0  0  0  0  0  0  0  0
   -2.2477    1.3342    2.1145 C   0  0  0  0  0  0  0  0  0  0  0  0
   -2.6724    3.9052    1.7265 H   0  0  0  0  0  0  0  0  0  0  0  0
   -0.5220    2.4922    1.5290 H   0  0  0  0  0  0  0  0  0  0  0  0
   -3.2400    1.0636    1.7358 H   0  0  0  0  0  0  0  0  0  0  0  0
   -1.6970    0.4046    2.2923 H   0  0  0  0  0  0  0  0  0  0  0  0
   -2.3854    1.8384    3.0772 H   0  0  0  0  0  0  0  0  0  0  0  0
   -0.3283    0.6116   -0.2182 N   0  0  0  0  0  0  0  0  0  0  0  0
    0.0090   -0.1762   -1.3759 C   0  0  2  0  0  0  0  0  0  0  0  0
    0.2016   -1.6166   -0.9186 C   0  0  0  0  0  0  0  0  0  0  0  0
    0.0371   -1.9773    0.2450 O   0  0  0  0  0  0  0  0  0  0  0  0
    1.2629    0.3436   -2.0741 C   0  0  0  0  0  0  0  0  0  0  0  0
    1.0106    1.6792   -2.7296 C   0  0  0  0  0  0  0  0  0  0  0  0
   -0.0799    2.0374   -3.1551 O   0  0  0  0  0  0  0  0  0  0  0  0
    2.1310    2.4383   -2.8136 O   0  0  0  0  0  0  0  0  0  0  0  0
    0.2381    0.4970    0.6194 H   0  0  0  0  0  0  0  0  0  0  0  0
   -0.8596   -0.1284   -2.0436 H   0  0  0  0  0  0  0  0  0  0  0  0
    2.0807    0.4951   -1.3584 H   0  0  0  0  0  0  0  0  0  0  0  0
    1.6490   -0.3624   -2.8193 H   0  0  0  0  0  0  0  0  0  0  0  0
    2.0088    3.3105   -3.2460 H   0  0  0  0  0  0  0  0  0  0  0  0
    0.5317   -2.4595   -1.9707 N   0  0  0  0  0  0  0  0  0  0  0  0
    0.7519   -3.8760   -1.7949 C   0  0  2  0  0  0  0  0  0  0  0  0
   -0.5772   -4.5149   -1.4144 C   0  0  0  0  0  0  0  0  0  0  0  0
   -1.5047   -3.8846   -0.9109 O   0  0  0  0  0  0  0  0  0  0  0  0
    1.8076   -4.1444   -0.7336 C   0  0  0  0  0  0  0  0  0  0  0  0
    0.6221   -2.0641   -2.9020 H   0  0  0  0  0  0  0  0  0  0  0  0
    1.0819   -4.2674   -2.7634 H   0  0  0  0  0  0  0  0  0  0  0  0
    1.4946   -3.7593    0.2437 H   0  0  0  0  0  0  0  0  0  0  0  0
    1.9939   -5.2176   -0.6218 H   0  0  0  0  0  0  0  0  0  0  0  0
    2.7544   -3.6592   -0.9943 H   0  0  0  0  0  0  0  0  0  0  0  0
   -0.5901   -5.8802   -1.6633 N   0  0  0  0  0  0  0  0  0  0  0  0
   -1.7336   -6.7143   -1.3756 C   0  0  0  0  0  0  0  0  0  0  0  0
    0.2166   -6.3162   -2.1002 H   0  0  0  0  0  0  0  0  0  0  0  0
   -1.6329   -7.1402   -0.3664 H   0  0  0  0  0  0  0  0  0  0  0  0
   -2.6510   -6.1096   -1.4284 H   0  0  0  0  0  0  0  0  0  0  0  0
   -1.7882   -7.5285   -2.1133 H   0  0  0  0  0  0  0  0  0  0  0  0
  1  3  1  0  0  0  0
  1  7  1  0  0  0  0
  1  2  2  0  0  0  0
 31 32  1  0  0  0  0
 32 40  1  0  0  0  0
 32 33  2  0  0  0  0
  8  9  1  0  0  0  0
  9 17  1  0  0  0  0
  9 10  2  0  0  0  0
 18 19  1  0  0  0  0
 19 30  1  0  0  0  0
 19 20  2  0  0  0  0
 21 22  1  0  0  0  0
 22 23  2  0  0  0  0
 22 24  1  0  0  0  0
 31 34  1  0  0  0  0
  8 11  1  0  0  0  0
 40 41  1  0  0  0  0
 18 21  1  0  0  0  0
 30 31  1  0  0  0  0
  7  8  1  0  0  0  0
 17 18  1  0  0  0  0
  3  4  1  0  0  0  0
  3  5  1  0  0  0  0
  3  6  1  0  0  0  0
 34 37  1  0  0  0  0
 34 38  1  0  0  0  0
 34 39  1  0  0  0  0
 11 14  1  0  0  0  0
 11 15  1  0  0  0  0
 11 16  1  0  0  0  0
 41 43  1  0  0  0  0
 41 44  1  0  0  0  0
 41 45  1  0  0  0  0
 21 27  1  0  0  0  0
 21 28  1  0  0  0  0
 31 36  1  0  0  0  0
  8 13  1  0  0  0  0
 18 26  1  0  0  0  0
 40 42  1  0  0  0  0
  7 12  1  0  0  0  0
 30 35  1  0  0  0  0
 17 25  1  0  0  0  0
 24 29  1  0  0  0  0
M  END
$$$$

  -OEChem-05262214473D

 45 44  0     1  0  0  0  0  0999 V2000
   -2.2987    4.1032   -0.3022 C   0  0  0  0  0  0  0  0  0  0  0  0
   -1.8049    3.7117   -1.3532 O   0  0  0  0  0  0  0  0  0  0  0  0
   -3.0791    5.3755   -0.2846 C   0  0  0  0  0  0  0  0  0  0  0  0
   -2.4478    6.2532   -0.0717 H   0  0  0  0  0  0  0  0  0  0  0  0
   -3.5571    5.5891   -1.2541 H   0  0  0  0  0  0  0  0  0  0  0  0
   -3.8940    5.4184    0.4556 H   0  0  0  0  0  0  0  0  0  0  0  0
   -2.2137    3.4712    0.9275 N   0  0  0  0  0  0  0  0  0  0  0  0
   -1.5102    2.2327    1.1338 C   0  0  2  0  0  0  0  0  0  0  0  0
   -1.3539    1.5497   -0.2184 C   0  0  0  0  0  0  0  0  0  0  0  0
   -2.0852    1.7861   -1.1778 O   0  0  0  0  0  0  0  0  0  0  0  0
   -2.2477    1.3342    2.1145 C   0  0  0  0  0  0  0  0  0  0  0  0
   -2.6724    3.9052    1.7265 H   0  0  0  0  0  0  0  0  0  0  0  0
   -0.5220    2.4922    1.5290 H   0  0  0  0  0  0  0  0  0  0  0  0
   -3.2400    1.0636    1.7358 H   0  0  0  0  0  0  0  0  0  0  0  0
   -1.6970    0.4046    2.2923 H   0  0  0  0  0  0  0  0  0  0  0  0
   -2.3854    1.8384    3.0772 H   0  0  0  0  0  0  0  0  0  0  0  0
   -0.3283    0.6116   -0.2182 N   0  0  0  0  0  0  0  0  0  0  0  0
    0.0090   -0.1762   -1.3759 C   0  0  2  0  0  0  0  0  0  0  0  0
    0.2016   -1.6166   -0.9186 C   0  0  0  0  0  0  0  0  0  0  0  0
   -0.2112   -2.0374    0.1602 O   0  0  0  0  0  0  0  0  0  0  0  0
    1.2629    0.3436   -2.0741 C   0  0  0  0  0  0  0  0  0  0  0  0
    1.0106    1.6792   -2.7296 C   0  0  0  0  0  0  0  0  0  0  0  0
   -0.0799    2.0374   -3.1551 O   0  0  0  0  0  0  0  0  0  0  0  0
    2.1310    2.4383   -2.8136 O   0  0  0  0  0  0  0  0  0  0  0  0
    0.2381    0.4970    0.6194 H   0  0  0  0  0  0  0  0  0  0  0  0
   -0.8596   -0.1284   -2.0436 H   0  0  0  0  0  0  0  0  0  0  0  0
    2.0807    0.4951   -1.3584 H   0  0  0  0  0  0  0  0  0  0  0  0
    1.6490   -0.3624   -2.8193 H   0  0  0  0  0  0  0  0  0  0  0  0
    2.0088    3.3105   -3.2460 H   0  0  0  0  0  0  0  0  0  0  0  0
    0.8456   -2.3875   -1.8763 N   0  0  0  0  0  0  0  0  0  0  0  0
    1.1315   -3.7902   -1.6844 C   0  0  2  0  0  0  0  0  0  0  0  0
   -0.1935   -4.5408   -1.6574 C   0  0  0  0  0  0  0  0  0  0  0  0
   -1.2639   -4.0023   -1.3832 O   0  0  0  0  0  0  0  0  0  0  0  0
    1.9153   -4.0249   -0.4026 C   0  0  0  0  0  0  0  0  0  0  0  0
    1.1273   -1.9475   -2.7474 H   0  0  0  0  0  0  0  0  0  0  0  0
    1.7182   -4.1148   -2.5507 H   0  0  0  0  0  0  0  0  0  0  0  0
    1.3435   -3.7057    0.4764 H   0  0  0  0  0  0  0  0  0  0  0  0
    2.1559   -5.0852   -0.2731 H   0  0  0  0  0  0  0  0  0  0  0  0
    2.8542   -3.4607   -0.4111 H   0  0  0  0  0  0  0  0  0  0  0  0
   -0.0338   -5.8915   -1.9333 N   0  0  0  0  0  0  0  0  0  0  0  0
   -1.1407   -6.8190   -1.9551 C   0  0  0  0  0  0  0  0  0  0  0  0
    0.8879   -6.2480   -2.1682 H   0  0  0  0  0  0  0  0  0  0  0  0
   -1.2542   -7.2787   -0.9622 H   0  0  0  0  0  0  0  0  0  0  0  0
   -2.0639   -6.2817   -2.2179 H   0  0  0  0  0  0  0  0  0  0  0  0
   -0.9474   -7.6030   -2.7020 H   0  0  0  0  0  0  0  0  0  0  0  0
  1  3  1  0  0  0  0
  1  7  1  0  0  0  0
  1  2  2  0  0  0  0
 31 32  1  0  0  0  0
 32 40  1  0  0  0  0
 32 33  2  0  0  0  0
  8  9  1  0  0  0  0
  9 17  1  0  0  0  0
  9 10  2  0  0  0  0
 18 19  1  0  0  0  0
 19 30  1  0  0  0  0
 19 20  2  0  0  0  0
 21 22  1  0  0  0  0
 22 23  2  0  0  0  0
 22 24  1  0  0  0  0
 31 34  1  0  0  0  0
  8 11  1  0  0  0  0
 40 41  1  0  0  0  0
 18 21  1  0  0  0  0
 30 31  1  0  0  0  0
  7  8  1  0  0  0  0
 17 18  1  0  0  0  0
  3  4  1  0  0  0  0
  3  5  1  0  0  0  0
  3  6  1  0  0  0  0
 34 37  1  0  0  0  0
 34 38  1  0  0  0  0
 34 39  1  0  0  0  0
 11 14  1  0  0  0  0
 11 15  1  0  0  0  0
 11 16  1  0  0  0  0
 41 43  1  0  0  0  0
 41 44  1  0  0  0  0
 41 45  1  0  0  0  0
 21 27  1  0  0  0  0
 21 28  1  0  0  0  0
 31 36  1  0  0  0  0
  8 13  1  0  0  0  0
 18 26  1  0  0  0  0
 40 42  1  0  0  0  0
  7 12  1  0  0  0  0
 30 35  1  0  0  0  0
 17 25  1  0  0  0  0
 24 29  1  0  0  0  0
M  END
$$$$

  -OEChem-05262214473D

 45 44  0     1  0  0  0  0  0999 V2000
   -2.2987    4.1032   -0.3022 C   0  0  0  0  0  0  0  0  0  0  0  0
   -1.8049    3.7117   -1.3532 O   0  0  0  0  0  0  0  0  0  0  0  0
   -3.0791    5.3755   -0.2846 C   0  0  0  0  0  0  0  0  0  0  0  0
   -2.4478    6.2532   -0.0717 H   0  0  0  0  0  0  0  0  0  0  0  0
   -3.5571    5.5891   -1.2541 H   0  0  0  0  0  0  0  0  0  0  0  0
   -3.8940    5.4184    0.4556 H   0  0  0  0  0  0  0  0  0  0  0  0
   -2.2137    3.4712    0.9275 N   0  0  0  0  0  0  0  0  0  0  0  0
   -1.5102    2.2327    1.1338 C   0  0  2  0  0  0  0  0  0  0  0  0
   -1.3539    1.5497   -0.2184 C   0  0  0  0  0  0  0  0  0  0  0  0
   -2.0852    1.7861   -1.1778 O   0  0  0  0  0  0  0  0  0  0  0  0
   -2.2477    1.3342    2.1145 C   0  0  0  0  0  0  0  0  0  0  0  0
   -2.6724    3.9052    1.7265 H   0  0  0  0  0  0  0  0  0  0  0  0
   -0.5220    2.4922    1.5290 H   0  0  0  0  0  0  0  0  0  0  0  0
   -3.2400    1.0636    1.7358 H   0  0  0  0  0  0  0  0  0  0  0  0
   -1.6970    0.4046    2.2923 H   0  0  0  0  0  0  0  0  0  0  0  0
   -2.3854    1.8384    3.0772 H   0  0  0  0  0  0  0  0  0  0  0  0
   -0.3283    0.6116   -0.2182 N   0  0  0  0  0  0  0  0  0  0  0  0
    0.0090   -0.1762   -1.3759 C   0  0  2  0  0  0  0  0  0  0  0  0
    0.2016   -1.6166   -0.9186 C   0  0  0  0  0  0  0  0  0  0  0  0
   -0.4255   -2.1120    0.0155 O   0  0  0  0  0  0  0  0  0  0  0  0
    1.2629    0.3436   -2.0741 C   0  0  0  0  0  0  0  0  0  0  0  0
    1.0106    1.6792   -2.7296 C   0  0  0  0  0  0  0  0  0  0  0  0
   -0.0799    2.0374   -3.1551 O   0  0  0  0  0  0  0  0  0  0  0  0
    2.1310    2.4383   -2.8136 O   0  0  0  0  0  0  0  0  0  0  0  0
    0.2381    0.4970    0.6194 H   0  0  0  0  0  0  0  0  0  0  0  0
   -0.8596   -0.1284   -2.0436 H   0  0  0  0  0  0  0  0  0  0  0  0
    2.0807    0.4951   -1.3584 H   0  0  0  0  0  0  0  0  0  0  0  0
    1.6490   -0.3624   -2.8193 H   0  0  0  0  0  0  0  0  0  0  0  0
    2.0088    3.3105   -3.2460 H   0  0  0  0  0  0  0  0  0  0  0  0
    1.1202   -2.2968   -1.7059 N   0  0  0  0  0  0  0  0  0  0  0  0
    1.4644   -3.6814   -1.4821 C   0  0  2  0  0  0  0  0  0  0  0  0
    0.2387   -4.5280   -1.7991 C   0  0  0  0  0  0  0  0  0  0  0  0
   -0.9067   -4.0819   -1.7843 O   0  0  0  0  0  0  0  0  0  0  0  0
    1.9291   -3.9119   -0.0525 C   0  0  0  0  0  0  0  0  0  0  0  0
    1.5685   -1.8006   -2.4706 H   0  0  0  0  0  0  0  0  0  0  0  0
    2.2688   -3.9249   -2.1846 H   0  0  0  0  0  0  0  0  0  0  0  0
    1.1364   -3.6732    0.6659 H   0  0  0  0  0  0  0  0  0  0  0  0
    2.2168   -4.9562    0.1077 H   0  0  0  0  0  0  0  0  0  0  0  0
    2.7925   -3.2803    0.1832 H   0  0  0  0  0  0  0  0  0  0  0  0
    0.5706   -5.8504   -2.0583 N   0  0  0  0  0  0  0  0  0  0  0  0
   -0.4181   -6.8550   -2.3731 C   0  0  0  0  0  0  0  0  0  0  0  0
    1.5477   -6.1278   -2.0674 H   0  0  0  0  0  0  0  0  0  0  0  0
   -0.7319   -7.3635   -1.4495 H   0  0  0  0  0  0  0  0  0  0  0  0
   -1.2903   -6.3765   -2.8425 H   0  0  0  0  0  0  0  0  0  0  0  0
    0.0146   -7.5903   -3.0674 H   0  0  0  0  0  0  0  0  0  0  0  0
  1  3  1  0  0  0  0
  1  7  1  0  0  0  0
  1  2  2  0  0  0  0
 31 32  1  0  0  0  0
 32 40  1  0  0  0  0
 32 33  2  0  0  0  0
  8  9  1  0  0  0  0
  9 17  1  0  0  0  0
  9 10  2  0  0  0  0
 18 19  1  0  0  0  0
 19 30  1  0  0  0  0
 19 20  2  0  0  0  0
 21 22  1  0  0  0  0
 22 23  2  0  0  0  0
 22 24  1  0  0  0  0
 31 34  1  0  0  0  0
  8 11  1  0  0  0  0
 40 41  1  0  0  0  0
 18 21  1  0  0  0  0
 30 31  1  0  0  0  0
  7  8  1  0  0  0  0
 17 18  1  0  0  0  0
  3  4  1  0  0  0  0
  3  5  1  0  0  0  0
  3  6  1  0  0  0  0
 34 37  1  0  0  0  0
 34 38  1  0  0  0  0
 34 39  1  0  0  0  0
 11 14  1  0  0  0  0
 11 15  1  0  0  0  0
 11 16  1  0  0  0  0
 41 43  1  0  0  0  0
 41 44  1  0  0  0  0
 41 45  1  0  0  0  0
 21 27  1  0  0  0  0
 21 28  1  0  0  0  0
 31 36  1  0  0  0  0
  8 13  1  0  0  0  0
 18 26  1  0  0  0  0
 40 42  1  0  0  0  0
  7 12  1  0  0  0  0
 30 35  1  0  0  0  0
 17 25  1  0  0  0  0
 24 29  1  0  0  0  0
M  END
$$$$

  -OEChem-05262214473D

 45 44  0     1  0  0  0  0  0999 V2000
   -2.2987    4.1032   -0.3022 C   0  0  0  0  0  0  0  0  0  0  0  0
   -1.8049    3.7117   -1.3532 O   0  0  0  0  0  0  0  0  0  0  0  0
   -3.0791    5.3755   -0.2846 C   0  0  0  0  0  0  0  0  0  0  0  0
   -2.4478    6.2532   -0.0717 H   0  0  0  0  0  0  0  0  0  0  0  0
   -3.5571    5.5891   -1.2541 H   0  0  0  0  0  0  0  0  0  0  0  0
   -3.8940    5.4184    0.4556 H   0  0  0  0  0  0  0  0  0  0  0  0
   -2.2137    3.4712    0.9275 N   0  0  0  0  0  0  0  0  0  0  0  0
   -1.5102    2.2327    1.1338 C   0  0  2  0  0  0  0  0  0  0  0  0
   -1.3539    1.5497   -0.2184 C   0  0  0  0  0  0  0  0  0  0  0  0
   -2.0852    1.7861   -1.1778 O   0  0  0  0  0  0  0  0  0  0  0  0
   -2.2477    1.3342    2.1145 C   0  0  0  0  0  0  0  0  0  0  0  0
   -2.6724    3.9052    1.7265 H   0  0  0  0  0  0  0  0  0  0  0  0
   -0.5220    2.4922    1.5290 H   0  0  0  0  0  0  0  0  0  0  0  0
   -3.2400    1.0636    1.7358 H   0  0  0  0  0  0  0  0  0  0  0  0
   -1.6970    0.4046    2.2923 H   0  0  0  0  0  0  0  0  0  0  0  0
   -2.3854    1.8384    3.0772 H   0  0  0  0  0  0  0  0  0  0  0  0
   -0.3283    0.6116   -0.2182 N   0  0  0  0  0  0  0  0  0  0  0  0
    0.0090   -0.1762   -1.3759 C   0  0  2  0  0  0  0  0  0  0  0  0
    0.2016   -1.6166   -0.9186 C   0  0  0  0  0  0  0  0  0  0  0  0
   -0.5914   -2.1960   -0.1792 O   0  0  0  0  0  0  0  0  0  0  0  0
    1.2629    0.3436   -2.0741 C   0  0  0  0  0  0  0  0  0  0  0  0
    1.0106    1.6792   -2.7296 C   0  0  0  0  0  0  0  0  0  0  0  0
   -0.0799    2.0374   -3.1551 O   0  0  0  0  0  0  0  0  0  0  0  0
    2.1310    2.4383   -2.8136 O   0  0  0  0  0  0  0  0  0  0  0  0
    0.2381    0.4970    0.6194 H   0  0  0  0  0  0  0  0  0  0  0  0
   -0.8596   -0.1284   -2.0436 H   0  0  0  0  0  0  0  0  0  0  0  0
    2.0807    0.4951   -1.3584 H   0  0  0  0  0  0  0  0  0  0  0  0
    1.6490   -0.3624   -2.8193 H   0  0  0  0  0  0  0  0  0  0  0  0
    2.0088    3.3105   -3.2460 H   0  0  0  0  0  0  0  0  0  0  0  0
    1.3366   -2.1933   -1.4713 N   0  0  0  0  0  0  0  0  0  0  0  0
    1.7280   -3.5571   -1.2015 C   0  0  2  0  0  0  0  0  0  0  0  0
    0.6898   -4.4774   -1.8298 C   0  0  0  0  0  0  0  0  0  0  0  0
   -0.4573   -4.1178   -2.0870 O   0  0  0  0  0  0  0  0  0  0  0  0
    1.8480   -3.8132    0.2927 C   0  0  0  0  0  0  0  0  0  0  0  0
    1.9155   -1.6336   -2.0904 H   0  0  0  0  0  0  0  0  0  0  0  0
    2.6964   -3.7108   -1.6901 H   0  0  0  0  0  0  0  0  0  0  0  0
    0.8875   -3.6641    0.7993 H   0  0  0  0  0  0  0  0  0  0  0  0
    2.1725   -4.8393    0.4946 H   0  0  0  0  0  0  0  0  0  0  0  0
    2.5734   -3.1303    0.7481 H   0  0  0  0  0  0  0  0  0  0  0  0
    1.1817   -5.7596   -2.0298 N   0  0  0  0  0  0  0  0  0  0  0  0
    0.3849   -6.8201   -2.6012 C   0  0  0  0  0  0  0  0  0  0  0  0
    2.1510   -5.9637   -1.8047 H   0  0  0  0  0  0  0  0  0  0  0  0
   -0.1016   -7.3889   -1.7952 H   0  0  0  0  0  0  0  0  0  0  0  0
   -0.3829   -6.3876   -3.2596 H   0  0  0  0  0  0  0  0  0  0  0  0
    1.0323   -7.4914   -3.1845 H   0  0  0  0  0  0  0  0  0  0  0  0
  1  3  1  0  0  0  0
  1  7  1  0  0  0  0
  1  2  2  0  0  0  0
 31 32  1  0  0  0  0
 32 40  1  0  0  0  0
 32 33  2  0  0  0  0
  8  9  1  0  0  0  0
  9 17  1  0  0  0  0
  9 10  2  0  0  0  0
 18 19  1  0  0  0  0
 19 30  1  0  0  0  0
 19 20  2  0  0  0  0
 21 22  1  0  0  0  0
 22 23  2  0  0  0  0
 22 24  1  0  0  0  0
 31 34  1  0  0  0  0
  8 11  1  0  0  0  0
 40 41  1  0  0  0  0
 18 21  1  0  0  0  0
 30 31  1  0  0  0  0
  7  8  1  0  0  0  0
 17 18  1  0  0  0  0
  3  4  1  0  0  0  0
  3  5  1  0  0  0  0
  3  6  1  0  0  0  0
 34 37  1  0  0  0  0
 34 38  1  0  0  0  0
 34 39  1  0  0  0  0
 11 14  1  0  0  0  0
 11 15  1  0  0  0  0
 11 16  1  0  0  0  0
 41 43  1  0  0  0  0
 41 44  1  0  0  0  0
 41 45  1  0  0  0  0
 21 27  1  0  0  0  0
 21 28  1  0  0  0  0
 31 36  1  0  0  0  0
  8 13  1  0  0  0  0
 18 26  1  0  0  0  0
 40 42  1  0  0  0  0
  7 12  1  0  0  0  0
 30 35  1  0  0  0  0
 17 25  1  0  0  0  0
 24 29  1  0  0  0  0
M  END
$$$$

  -OEChem-05262214473D

 45 44  0     1  0  0  0  0  0999 V2000
   -2.2987    4.1032   -0.3022 C   0  0  0  0  0  0  0  0  0  0  0  0
   -1.8049    3.7117   -1.3532 O   0  0  0  0  0  0  0  0  0  0  0  0
   -3.0791    5.3755   -0.2846 C   0  0  0  0  0  0  0  0  0  0  0  0
   -2.4478    6.2532   -0.0717 H   0  0  0  0  0  0  0  0  0  0  0  0
   -3.5571    5.5891   -1.2541 H   0  0  0  0  0  0  0  0  0  0  0  0
   -3.8940    5.4184    0.4556 H   0  0  0  0  0  0  0  0  0  0  0  0
   -2.2137    3.4712    0.9275 N   0  0  0  0  0  0  0  0  0  0  0  0
   -1.5102    2.2327    1.1338 C   0  0  2  0  0  0  0  0  0  0  0  0
   -1.3539    1.5497   -0.2184 C   0  0  0  0  0  0  0  0  0  0  0  0
   -2.0852    1.7861   -1.1778 O   0  0  0  0  0  0  0  0  0  0  0  0
   -2.2477    1.3342    2.1145 C   0  0  0  0  0  0  0  0  0  0  0  0
   -2.6724    3.9052    1.7265 H   0  0  0  0  0  0  0  0  0  0  0  0
   -0.5220    2.4922    1.5290 H   0  0  0  0  0  0  0  0  0  0  0  0
   -3.2400    1.0636    1.7358 H   0  0  0  0  0  0  0  0  0  0  0  0
   -1.6970    0.4046    2.2923 H   0  0  0  0  0  0  0  0  0  0  0  0
   -2.3854    1.8384    3.0772 H   0  0  0  0  0  0  0  0  0  0  0  0
   -0.3283    0.6116   -0.2182 N   0  0  0  0  0  0  0  0  0  0  0  0
    0.0090   -0.1762   -1.3759 C   0  0  2  0  0  0  0  0  0  0  0  0
    0.2016   -1.6166   -0.9186 C   0  0  0  0  0  0  0  0  0  0  0  0
   -0.6974   -2.2836   -0.4106 O   0  0  0  0  0  0  0  0  0  0  0  0
    1.2629    0.3436   -2.0741 C   0  0  0  0  0  0  0  0  0  0  0  0
    1.0106    1.6792   -2.7296 C   0  0  0  0  0  0  0  0  0  0  0  0
   -0.0799    2.0374   -3.1551 O   0  0  0  0  0  0  0  0  0  0  0  0
    2.1310    2.4383   -2.8136 O   0  0  0  0  0  0  0  0  0  0  0  0
    0.2381    0.4970    0.6194 H   0  0  0  0  0  0  0  0  0  0  0  0
   -0.8596   -0.1284   -2.0436 H   0  0  0  0  0  0  0  0  0  0  0  0
    2.0807    0.4951   -1.3584 H   0  0  0  0  0  0  0  0  0  0  0  0
    1.6490   -0.3624   -2.8193 H   0  0  0  0  0  0  0  0  0  0  0  0
    2.0088    3.3105   -3.2460 H   0  0  0  0  0  0  0  0  0  0  0  0
    1.4802   -2.0843   -1.1882 N   0  0  0  0  0  0  0  0  0  0  0  0
    1.9043   -3.4258   -0.8620 C   0  0  2  0  0  0  0  0  0  0  0  0
    1.1291   -4.3925   -1.7474 C   0  0  0  0  0  0  0  0  0  0  0  0
    0.0537   -4.1078   -2.2705 O   0  0  0  0  0  0  0  0  0  0  0  0
    1.6776   -3.7354    0.6095 C   0  0  0  0  0  0  0  0  0  0  0  0
    2.1446   -1.4577   -1.6329 H   0  0  0  0  0  0  0  0  0  0  0  0
    2.9717   -3.4869   -1.1007 H   0  0  0  0  0  0  0  0  0  0  0  0
    0.6137   -3.6791    0.8676 H   0  0  0  0  0  0  0  0  0  0  0  0
    2.0258   -4.7425    0.8613 H   0  0  0  0  0  0  0  0  0  0  0  0
    2.2119   -3.0209    1.2450 H   0  0  0  0  0  0  0  0  0  0  0  0
    1.7580   -5.6254   -1.8497 N   0  0  0  0  0  0  0  0  0  0  0  0
    1.2137   -6.7164   -2.6239 C   0  0  0  0  0  0  0  0  0  0  0  0
    2.6567   -5.7669   -1.3979 H   0  0  0  0  0  0  0  0  0  0  0  0
    0.5939   -7.3532   -1.9757 H   0  0  0  0  0  0  0  0  0  0  0  0
    0.5966   -6.3141   -3.4408 H   0  0  0  0  0  0  0  0  0  0  0  0
    2.0363   -7.3130   -3.0454 H   0  0  0  0  0  0  0  0  0  0  0  0
  1  3  1  0  0  0  0
  1  7  1  0  0  0  0
  1  2  2  0  0  0  0
 31 32  1  0  0  0  0
 32 40  1  0  0  0  0
 32 33  2  0  0  0  0
  8  9  1  0  0  0  0
  9 17  1  0  0  0  0
  9 10  2  0  0  0  0
 18 19  1  0  0  0  0
 19 30  1  0  0  0  0
 19 20  2  0  0  0  0
 21 22  1  0  0  0  0
 22 23  2  0  0  0  0
 22 24  1  0  0  0  0
 31 34  1  0  0  0  0
  8 11  1  0  0  0  0
 40 41  1  0  0  0  0
 18 21  1  0  0  0  0
 30 31  1  0  0  0  0
  7  8  1  0  0  0  0
 17 18  1  0  0  0  0
  3  4  1  0  0  0  0
  3  5  1  0  0  0  0
  3  6  1  0  0  0  0
 34 37  1  0  0  0  0
 34 38  1  0  0  0  0
 34 39  1  0  0  0  0
 11 14  1  0  0  0  0
 11 15  1  0  0  0  0
 11 16  1  0  0  0  0
 41 43  1  0  0  0  0
 41 44  1  0  0  0  0
 41 45  1  0  0  0  0
 21 27  1  0  0  0  0
 21 28  1  0  0  0  0
 31 36  1  0  0  0  0
  8 13  1  0  0  0  0
 18 26  1  0  0  0  0
 40 42  1  0  0  0  0
  7 12  1  0  0  0  0
 30 35  1  0  0  0  0
 17 25  1  0  0  0  0
 24 29  1  0  0  0  0
M  END
$$$$

  -OEChem-05262214473D

 45 44  0     1  0  0  0  0  0999 V2000
   -2.2987    4.1032   -0.3022 C   0  0  0  0  0  0  0  0  0  0  0  0
   -1.8049    3.7117   -1.3532 O   0  0  0  0  0  0  0  0  0  0  0  0
   -3.0791    5.3755   -0.2846 C   0  0  0  0  0  0  0  0  0  0  0  0
   -2.4478    6.2532   -0.0717 H   0  0  0  0  0  0  0  0  0  0  0  0
   -3.5571    5.5891   -1.2541 H   0  0  0  0  0  0  0  0  0  0  0  0
   -3.8940    5.4184    0.4556 H   0  0  0  0  0  0  0  0  0  0  0  0
   -2.2137    3.4712    0.9275 N   0  0  0  0  0  0  0  0  0  0  0  0
   -1.5102    2.2327    1.1338 C   0  0  2  0  0  0  0  0  0  0  0  0
   -1.3539    1.5497   -0.2184 C   0  0  0  0  0  0  0  0  0  0  0  0
   -2.0852    1.7861   -1.1778 O   0  0  0  0  0  0  0  0  0  0  0  0
   -2.2477    1.3342    2.1145 C   0  0  0  0  0  0  0  0  0  0  0  0
   -2.6724    3.9052    1.7265 H   0  0  0  0  0  0  0  0  0  0  0  0
   -0.5220    2.4922    1.5290 H   0  0  0  0  0  0  0  0  0  0  0  0
   -3.2400    1.0636    1.7358 H   0  0  0  0  0  0  0  0  0  0  0  0
   -1.6970    0.4046    2.2923 H   0  0  0  0  0  0  0  0  0  0  0  0
   -2.3854    1.8384    3.0772 H   0  0  0  0  0  0  0  0  0  0  0  0
   -0.3283    0.6116   -0.2182 N   0  0  0  0  0  0  0  0  0  0  0  0
    0.0090   -0.1762   -1.3759 C   0  0  2  0  0  0  0  0  0  0  0  0
    0.2016   -1.6166   -0.9186 C   0  0  0  0  0  0  0  0  0  0  0  0
   -0.7364   -2.3689   -0.6629 O   0  0  0  0  0  0  0  0  0  0  0  0
    1.2629    0.3436   -2.0741 C   0  0  0  0  0  0  0  0  0  0  0  0
    1.0106    1.6792   -2.7296 C   0  0  0  0  0  0  0  0  0  0  0  0
   -0.0799    2.0374   -3.1551 O   0  0  0  0  0  0  0  0  0  0  0  0
    2.1310    2.4383   -2.8136 O   0  0  0  0  0  0  0  0  0  0  0  0
    0.2381    0.4970    0.6194 H   0  0  0  0  0  0  0  0  0  0  0  0
   -0.8596   -0.1284   -2.0436 H   0  0  0  0  0  0  0  0  0  0  0  0
    2.0807    0.4951   -1.3584 H   0  0  0  0  0  0  0  0  0  0  0  0
    1.6490   -0.3624   -2.8193 H   0  0  0  0  0  0  0  0  0  0  0  0
    2.0088    3.3105   -3.2460 H   0  0  0  0  0  0  0  0  0  0  0  0
    1.5412   -1.9770   -0.8761 N   0  0  0  0  0  0  0  0  0  0  0  0
    1.9814   -3.2963   -0.4866 C   0  0  2  0  0  0  0  0  0  0  0  0
    1.5266   -4.2790   -1.5576 C   0  0  0  0  0  0  0  0  0  0  0  0
    0.5914   -4.0523   -2.3224 O   0  0  0  0  0  0  0  0  0  0  0  0
    1.4293   -3.6839    0.8764 C   0  0  0  0  0  0  0  0  0  0  0  0
    2.2403   -1.2849   -1.1291 H   0  0  0  0  0  0  0  0  0  0  0  0
    3.0761   -3.2685   -0.4568 H   0  0  0  0  0  0  0  0  0  0  0  0
    0.3337   -3.7170    0.8660 H   0  0  0  0  0  0  0  0  0  0  0  0
    1.7869   -4.6724    1.1828 H   0  0  0  0  0  0  0  0  0  0  0  0
    1.7327   -2.9596    1.6400 H   0  0  0  0  0  0  0  0  0  0  0  0
    2.2602   -5.4569   -1.5304 N   0  0  0  0  0  0  0  0  0  0  0  0
    2.0118   -6.5512   -2.4397 C   0  0  0  0  0  0  0  0  0  0  0  0
    3.0303   -5.5509   -0.8748 H   0  0  0  0  0  0  0  0  0  0  0  0
    1.3070   -7.2588   -1.9787 H   0  0  0  0  0  0  0  0  0  0  0  0
    1.5813   -6.1612   -3.3738 H   0  0  0  0  0  0  0  0  0  0  0  0
    2.9581   -7.0672   -2.6594 H   0  0  0  0  0  0  0  0  0  0  0  0
  1  3  1  0  0  0  0
  1  7  1  0  0  0  0
  1  2  2  0  0  0  0
 31 32  1  0  0  0  0
 32 40  1  0  0  0  0
 32 33  2  0  0  0  0
  8  9  1  0  0  0  0
  9 17  1  0  0  0  0
  9 10  2  0  0  0  0
 18 19  1  0  0  0  0
 19 30  1  0  0  0  0
 19 20  2  0  0  0  0
 21 22  1  0  0  0  0
 22 23  2  0  0  0  0
 22 24  1  0  0  0  0
 31 34  1  0  0  0  0
  8 11  1  0  0  0  0
 40 41  1  0  0  0  0
 18 21  1  0  0  0  0
 30 31  1  0  0  0  0
  7  8  1  0  0  0  0
 17 18  1  0  0  0  0
  3  4  1  0  0  0  0
  3  5  1  0  0  0  0
  3  6  1  0  0  0  0
 34 37  1  0  0  0  0
 34 38  1  0  0  0  0
 34 39  1  0  0  0  0
 11 14  1  0  0  0  0
 11 15  1  0  0  0  0
 11 16  1  0  0  0  0
 41 43  1  0  0  0  0
 41 44  1  0  0  0  0
 41 45  1  0  0  0  0
 21 27  1  0  0  0  0
 21 28  1  0  0  0  0
 31 36  1  0  0  0  0
  8 13  1  0  0  0  0
 18 26  1  0  0  0  0
 40 42  1  0  0  0  0
  7 12  1  0  0  0  0
 30 35  1  0  0  0  0
 17 25  1  0  0  0  0
 24 29  1  0  0  0  0
M  END
$$$$

  -OEChem-05262214473D

 45 44  0     1  0  0  0  0  0999 V2000
   -2.2987    4.1032   -0.3022 C   0  0  0  0  0  0  0  0  0  0  0  0
   -1.8049    3.7117   -1.3532 O   0  0  0  0  0  0  0  0  0  0  0  0
   -3.0791    5.3755   -0.2846 C   0  0  0  0  0  0  0  0  0  0  0  0
   -2.4478    6.2532   -0.0717 H   0  0  0  0  0  0  0  0  0  0  0  0
   -3.5571    5.5891   -1.2541 H   0  0  0  0  0  0  0  0  0  0  0  0
   -3.8940    5.4184    0.4556 H   0  0  0  0  0  0  0  0  0  0  0  0
   -2.2137    3.4712    0.9275 N   0  0  0  0  0  0  0  0  0  0  0  0
   -1.5102    2.2327    1.1338 C   0  0  2  0  0  0  0  0  0  0  0  0
   -1.3539    1.5497   -0.2184 C   0  0  0  0  0  0  0  0  0  0  0  0
   -2.0852    1.7861   -1.1778 O   0  0  0  0  0  0  0  0  0  0  0  0
   -2.2477    1.3342    2.1145 C   0  0  0  0  0  0  0  0  0  0  0  0
   -2.6724    3.9052    1.7265 H   0  0  0  0  0  0  0  0  0  0  0  0
   -0.5220    2.4922    1.5290 H   0  0  0  0  0  0  0  0  0  0  0  0
   -3.2400    1.0636    1.7358 H   0  0  0  0  0  0  0  0  0  0  0  0
   -1.6970    0.4046    2.2923 H   0  0  0  0  0  0  0  0  0  0  0  0
   -2.3854    1.8384    3.0772 H   0  0  0  0  0  0  0  0  0  0  0  0
   -0.3283    0.6116   -0.2182 N   0  0  0  0  0  0  0  0  0  0  0  0
    0.0090   -0.1762   -1.3759 C   0  0  2  0  0  0  0  0  0  0  0  0
    0.2016   -1.6166   -0.9186 C   0  0  0  0  0  0  0  0  0  0  0  0
   -0.7057   -2.4461   -0.9189 O   0  0  0  0  0  0  0  0  0  0  0  0
    1.2629    0.3436   -2.0741 C   0  0  0  0  0  0  0  0  0  0  0  0
    1.0106    1.6792   -2.7296 C   0  0  0  0  0  0  0  0  0  0  0  0
   -0.0799    2.0374   -3.1551 O   0  0  0  0  0  0  0  0  0  0  0  0
    2.1310    2.4383   -2.8136 O   0  0  0  0  0  0  0  0  0  0  0  0
    0.2381    0.4970    0.6194 H   0  0  0  0  0  0  0  0  0  0  0  0
   -0.8596   -0.1284   -2.0436 H   0  0  0  0  0  0  0  0  0  0  0  0
    2.0807    0.4951   -1.3584 H   0  0  0  0  0  0  0  0  0  0  0  0
    1.6490   -0.3624   -2.8193 H   0  0  0  0  0  0  0  0  0  0  0  0
    2.0088    3.3105   -3.2460 H   0  0  0  0  0  0  0  0  0  0  0  0
    1.5154   -1.8789   -0.5562 N   0  0  0  0  0  0  0  0  0  0  0  0
    1.9538   -3.1776   -0.1009 C   0  0  2  0  0  0  0  0  0  0  0  0
    1.8554   -4.1448   -1.2732 C   0  0  0  0  0  0  0  0  0  0  0  0
    1.1191   -3.9553   -2.2392 O   0  0  0  0  0  0  0  0  0  0  0  0
    1.1202   -3.6621    1.0751 C   0  0  0  0  0  0  0  0  0  0  0  0
    2.1961   -1.1272   -0.6134 H   0  0  0  0  0  0  0  0  0  0  0  0
    3.0023   -3.0705    0.1980 H   0  0  0  0  0  0  0  0  0  0  0  0
    0.0666   -3.7753    0.7947 H   0  0  0  0  0  0  0  0  0  0  0  0
    1.4721   -4.6338    1.4372 H   0  0  0  0  0  0  0  0  0  0  0  0
    1.1683   -2.9505    1.9064 H   0  0  0  0  0  0  0  0  0  0  0  0
    2.6541   -5.2655   -1.0936 N   0  0  0  0  0  0  0  0  0  0  0  0
    2.7248   -6.3357   -2.0609 C   0  0  0  0  0  0  0  0  0  0  0  0
    3.2464   -5.3303   -0.2710 H   0  0  0  0  0  0  0  0  0  0  0  0
    1.9892   -7.1121   -1.8040 H   0  0  0  0  0  0  0  0  0  0  0  0
    2.5042   -5.9391   -3.0630 H   0  0  0  0  0  0  0  0  0  0  0  0
    3.7350   -6.7708   -2.0530 H   0  0  0  0  0  0  0  0  0  0  0  0
  1  3  1  0  0  0  0
  1  7  1  0  0  0  0
  1  2  2  0  0  0  0
 31 32  1  0  0  0  0
 32 40  1  0  0  0  0
 32 33  2  0  0  0  0
  8  9  1  0  0  0  0
  9 17  1  0  0  0  0
  9 10  2  0  0  0  0
 18 19  1  0  0  0  0
 19 30  1  0  0  0  0
 19 20  2  0  0  0  0
 21 22  1  0  0  0  0
 22 23  2  0  0  0  0
 22 24  1  0  0  0  0
 31 34  1  0  0  0  0
  8 11  1  0  0  0  0
 40 41  1  0  0  0  0
 18 21  1  0  0  0  0
 30 31  1  0  0  0  0
  7  8  1  0  0  0  0
 17 18  1  0  0  0  0
  3  4  1  0  0  0  0
  3  5  1  0  0  0  0
  3  6  1  0  0  0  0
 34 37  1  0  0  0  0
 34 38  1  0  0  0  0
 34 39  1  0  0  0  0
 11 14  1  0  0  0  0
 11 15  1  0  0  0  0
 11 16  1  0  0  0  0
 41 43  1  0  0  0  0
 41 44  1  0  0  0  0
 41 45  1  0  0  0  0
 21 27  1  0  0  0  0
 21 28  1  0  0  0  0
 31 36  1  0  0  0  0
  8 13  1  0  0  0  0
 18 26  1  0  0  0  0
 40 42  1  0  0  0  0
  7 12  1  0  0  0  0
 30 35  1  0  0  0  0
 17 25  1  0  0  0  0
 24 29  1  0  0  0  0
M  END
$$$$

  -OEChem-05262214473D

 45 44  0     1  0  0  0  0  0999 V2000
   -2.2987    4.1032   -0.3022 C   0  0  0  0  0  0  0  0  0  0  0  0
   -1.8049    3.7117   -1.3532 O   0  0  0  0  0  0  0  0  0  0  0  0
   -3.0791    5.3755   -0.2846 C   0  0  0  0  0  0  0  0  0  0  0  0
   -2.4478    6.2532   -0.0717 H   0  0  0  0  0  0  0  0  0  0  0  0
   -3.5571    5.5891   -1.2541 H   0  0  0  0  0  0  0  0  0  0  0  0
   -3.8940    5.4184    0.4556 H   0  0  0  0  0  0  0  0  0  0  0  0
   -2.2137    3.4712    0.9275 N   0  0  0  0  0  0  0  0  0  0  0  0
   -1.5102    2.2327    1.1338 C   0  0  2  0  0  0  0  0  0  0  0  0
   -1.3539    1.5497   -0.2184 C   0  0  0  0  0  0  0  0  0  0  0  0
   -2.0852    1.7861   -1.1778 O   0  0  0  0  0  0  0  0  0  0  0  0
   -2.2477    1.3342    2.1145 C   0  0  0  0  0  0  0  0  0  0  0  0
   -2.6724    3.9052    1.7265 H   0  0  0  0  0  0  0  0  0  0  0  0
   -0.5220    2.4922    1.5290 H   0  0  0  0  0  0  0  0  0  0  0  0
   -3.2400    1.0636    1.7358 H   0  0  0  0  0  0  0  0  0  0  0  0
   -1.6970    0.4046    2.2923 H   0  0  0  0  0  0  0  0  0  0  0  0
   -2.3854    1.8384    3.0772 H   0  0  0  0  0  0  0  0  0  0  0  0
   -0.3283    0.6116   -0.2182 N   0  0  0  0  0  0  0  0  0  0  0  0
    0.0090   -0.1762   -1.3759 C   0  0  2  0  0  0  0  0  0  0  0  0
    0.2016   -1.6166   -0.9186 C   0  0  0  0  0  0  0  0  0  0  0  0
   -0.6074   -2.5098   -1.1612 O   0  0  0  0  0  0  0  0  0  0  0  0
    1.2629    0.3436   -2.0741 C   0  0  0  0  0  0  0  0  0  0  0  0
    1.0106    1.6792   -2.7296 C   0  0  0  0  0  0  0  0  0  0  0  0
   -0.0799    2.0374   -3.1551 O   0  0  0  0  0  0  0  0  0  0  0  0
    2.1310    2.4383   -2.8136 O   0  0  0  0  0  0  0  0  0  0  0  0
    0.2381    0.4970    0.6194 H   0  0  0  0  0  0  0  0  0  0  0  0
   -0.8596   -0.1284   -2.0436 H   0  0  0  0  0  0  0  0  0  0  0  0
    2.0807    0.4951   -1.3584 H   0  0  0  0  0  0  0  0  0  0  0  0
    1.6490   -0.3624   -2.8193 H   0  0  0  0  0  0  0  0  0  0  0  0
    2.0088    3.3105   -3.2460 H   0  0  0  0  0  0  0  0  0  0  0  0
    1.4046   -1.7966   -0.2503 N   0  0  0  0  0  0  0  0  0  0  0  0
    1.8237   -3.0776    0.2688 C   0  0  2  0  0  0  0  0  0  0  0  0
    2.0929   -3.9989   -0.9137 C   0  0  0  0  0  0  0  0  0  0  0  0
    1.6010   -3.8234   -2.0264 O   0  0  0  0  0  0  0  0  0  0  0  0
    0.7713   -3.6717    1.1921 C   0  0  0  0  0  0  0  0  0  0  0  0
    2.0149   -0.9951   -0.1209 H   0  0  0  0  0  0  0  0  0  0  0  0
    2.7555   -2.9065    0.8188 H   0  0  0  0  0  0  0  0  0  0  0  0
   -0.1695   -3.8501    0.6586 H   0  0  0  0  0  0  0  0  0  0  0  0
    1.1027   -4.6292    1.6072 H   0  0  0  0  0  0  0  0  0  0  0  0
    0.5573   -2.9943    2.0259 H   0  0  0  0  0  0  0  0  0  0  0  0
    2.9127   -5.0644   -0.5690 N   0  0  0  0  0  0  0  0  0  0  0  0
    3.3040   -6.0845   -1.5136 C   0  0  0  0  0  0  0  0  0  0  0  0
    3.2903   -5.1203    0.3723 H   0  0  0  0  0  0  0  0  0  0  0  0
    2.5941   -6.9232   -1.4635 H   0  0  0  0  0  0  0  0  0  0  0  0
    3.3024   -5.6631   -2.5297 H   0  0  0  0  0  0  0  0  0  0  0  0
    4.3140   -6.4440   -1.2674 H   0  0  0  0  0  0  0  0  0  0  0  0
  1  3  1  0  0  0  0
  1  7  1  0  0  0  0
  1  2  2  0  0  0  0
 31 32  1  0  0  0  0
 32 40  1  0  0  0  0
 32 33  2  0  0  0  0
  8  9  1  0  0  0  0
  9 17  1  0  0  0  0
  9 10  2  0  0  0  0
 18 19  1  0  0  0  0
 19 30  1  0  0  0  0
 19 20  2  0  0  0  0
 21 22  1  0  0  0  0
 22 23  2  0  0  0  0
 22 24  1  0  0  0  0
 31 34  1  0  0  0  0
  8 11  1  0  0  0  0
 40 41  1  0  0  0  0
 18 21  1  0  0  0  0
 30 31  1  0  0  0  0
  7  8  1  0  0  0  0
 17 18  1  0  0  0  0
  3  4  1  0  0  0  0
  3  5  1  0  0  0  0
  3  6  1  0  0  0  0
 34 37  1  0  0  0  0
 34 38  1  0  0  0  0
 34 39  1  0  0  0  0
 11 14  1  0  0  0  0
 11 15  1  0  0  0  0
 11 16  1  0  0  0  0
 41 43  1  0  0  0  0
 41 44  1  0  0  0  0
 41 45  1  0  0  0  0
 21 27  1  0  0  0  0
 21 28  1  0  0  0  0
 31 36  1  0  0  0  0
  8 13  1  0  0  0  0
 18 26  1  0  0  0  0
 40 42  1  0  0  0  0
  7 12  1  0  0  0  0
 30 35  1  0  0  0  0
 17 25  1  0  0  0  0
 24 29  1  0  0  0  0
M  END
$$$$

  -OEChem-05262214473D

 45 44  0     1  0  0  0  0  0999 V2000
   -2.2987    4.1032   -0.3022 C   0  0  0  0  0  0  0  0  0  0  0  0
   -1.8049    3.7117   -1.3532 O   0  0  0  0  0  0  0  0  0  0  0  0
   -3.0791    5.3755   -0.2846 C   0  0  0  0  0  0  0  0  0  0  0  0
   -2.4478    6.2532   -0.0717 H   0  0  0  0  0  0  0  0  0  0  0  0
   -3.5571    5.5891   -1.2541 H   0  0  0  0  0  0  0  0  0  0  0  0
   -3.8940    5.4184    0.4556 H   0  0  0  0  0  0  0  0  0  0  0  0
   -2.2137    3.4712    0.9275 N   0  0  0  0  0  0  0  0  0  0  0  0
   -1.5102    2.2327    1.1338 C   0  0  2  0  0  0  0  0  0  0  0  0
   -1.3539    1.5497   -0.2184 C   0  0  0  0  0  0  0  0  0  0  0  0
   -2.0852    1.7861   -1.1778 O   0  0  0  0  0  0  0  0  0  0  0  0
   -2.2477    1.3342    2.1145 C   0  0  0  0  0  0  0  0  0  0  0  0
   -2.6724    3.9052    1.7265 H   0  0  0  0  0  0  0  0  0  0  0  0
   -0.5220    2.4922    1.5290 H   0  0  0  0  0  0  0  0  0  0  0  0
   -3.2400    1.0636    1.7358 H   0  0  0  0  0  0  0  0  0  0  0  0
   -1.6970    0.4046    2.2923 H   0  0  0  0  0  0  0  0  0  0  0  0
   -2.3854    1.8384    3.0772 H   0  0  0  0  0  0  0  0  0  0  0  0
   -0.3283    0.6116   -0.2182 N   0  0  0  0  0  0  0  0  0  0  0  0
    0.0090   -0.1762   -1.3759 C   0  0  2  0  0  0  0  0  0  0  0  0
    0.2016   -1.6166   -0.9186 C   0  0  0  0  0  0  0  0  0  0  0  0
   -0.4482   -2.5559   -1.3733 O   0  0  0  0  0  0  0  0  0  0  0  0
    1.2629    0.3436   -2.0741 C   0  0  0  0  0  0  0  0  0  0  0  0
    1.0106    1.6792   -2.7296 C   0  0  0  0  0  0  0  0  0  0  0  0
   -0.0799    2.0374   -3.1551 O   0  0  0  0  0  0  0  0  0  0  0  0
    2.1310    2.4383   -2.8136 O   0  0  0  0  0  0  0  0  0  0  0  0
    0.2381    0.4970    0.6194 H   0  0  0  0  0  0  0  0  0  0  0  0
   -0.8596   -0.1284   -2.0436 H   0  0  0  0  0  0  0  0  0  0  0  0
    2.0807    0.4951   -1.3584 H   0  0  0  0  0  0  0  0  0  0  0  0
    1.6490   -0.3624   -2.8193 H   0  0  0  0  0  0  0  0  0  0  0  0
    2.0088    3.3105   -3.2460 H   0  0  0  0  0  0  0  0  0  0  0  0
    1.2162   -1.7358    0.0208 N   0  0  0  0  0  0  0  0  0  0  0  0
    1.5997   -3.0033    0.5973 C   0  0  2  0  0  0  0  0  0  0  0  0
    2.2231   -3.8513   -0.5035 C   0  0  0  0  0  0  0  0  0  0  0  0
    2.0042   -3.6654   -1.6987 O   0  0  0  0  0  0  0  0  0  0  0  0
    0.4065   -3.7118    1.2194 C   0  0  0  0  0  0  0  0  0  0  0  0
    1.7091   -0.8977    0.3147 H   0  0  0  0  0  0  0  0  0  0  0  0
    2.3524   -2.7875    1.3634 H   0  0  0  0  0  0  0  0  0  0  0  0
   -0.3584   -3.9362    0.4670 H   0  0  0  0  0  0  0  0  0  0  0  0
    0.7039   -4.6591    1.6811 H   0  0  0  0  0  0  0  0  0  0  0  0
   -0.0587   -3.0880    1.9903 H   0  0  0  0  0  0  0  0  0  0  0  0
    3.0186   -4.8672    0.0076 N   0  0  0  0  0  0  0  0  0  0  0  0
    3.7101   -5.8147   -0.8350 C   0  0  0  0  0  0  0  0  0  0  0  0
    3.1589   -4.9350    1.0114 H   0  0  0  0  0  0  0  0  0  0  0  0
    3.0803   -6.7048   -0.9804 H   0  0  0  0  0  0  0  0  0  0  0  0
    3.9214   -5.3519   -1.8103 H   0  0  0  0  0  0  0  0  0  0  0  0
    4.6557   -6.1091   -0.3563 H   0  0  0  0  0  0  0  0  0  0  0  0
  1  3  1  0  0  0  0
  1  7  1  0  0  0  0
  1  2  2  0  0  0  0
 31 32  1  0  0  0  0
 32 40  1  0  0  0  0
 32 33  2  0  0  0  0
  8  9  1  0  0  0  0
  9 17  1  0  0  0  0
  9 10  2  0  0  0  0
 18 19  1  0  0  0  0
 19 30  1  0  0  0  0
 19 20  2  0  0  0  0
 21 22  1  0  0  0  0
 22 23  2  0  0  0  0
 22 24  1  0  0  0  0
 31 34  1  0  0  0  0
  8 11  1  0  0  0  0
 40 41  1  0  0  0  0
 18 21  1  0  0  0  0
 30 31  1  0  0  0  0
  7  8  1  0  0  0  0
 17 18  1  0  0  0  0
  3  4  1  0  0  0  0
  3  5  1  0  0  0  0
  3  6  1  0  0  0  0
 34 37  1  0  0  0  0
 34 38  1  0  0  0  0
 34 39  1  0  0  0  0
 11 14  1  0  0  0  0
 11 15  1  0  0  0  0
 11 16  1  0  0  0  0
 41 43  1  0  0  0  0
 41 44  1  0  0  0  0
 41 45  1  0  0  0  0
 21 27  1  0  0  0  0
 21 28  1  0  0  0  0
 31 36  1  0  0  0  0
  8 13  1  0  0  0  0
 18 26  1  0  0  0  0
 40 42  1  0  0  0  0
  7 12  1  0  0  0  0
 30 35  1  0  0  0  0
 17 25  1  0  0  0  0
 24 29  1  0  0  0  0
M  END
$$$$

  -OEChem-05262214473D

 45 44  0     1  0  0  0  0  0999 V2000
   -2.2987    4.1032   -0.3022 C   0  0  0  0  0  0  0  0  0  0  0  0
   -1.8049    3.7117   -1.3532 O   0  0  0  0  0  0  0  0  0  0  0  0
   -3.0791    5.3755   -0.2846 C   0  0  0  0  0  0  0  0  0  0  0  0
   -2.4478    6.2532   -0.0717 H   0  0  0  0  0  0  0  0  0  0  0  0
   -3.5571    5.5891   -1.2541 H   0  0  0  0  0  0  0  0  0  0  0  0
   -3.8940    5.4184    0.4556 H   0  0  0  0  0  0  0  0  0  0  0  0
   -2.2137    3.4712    0.9275 N   0  0  0  0  0  0  0  0  0  0  0  0
   -1.5102    2.2327    1.1338 C   0  0  2  0  0  0  0  0  0  0  0  0
   -1.3539    1.5497   -0.2184 C   0  0  0  0  0  0  0  0  0  0  0  0
   -2.0852    1.7861   -1.1778 O   0  0  0  0  0  0  0  0  0  0  0  0
   -2.2477    1.3342    2.1145 C   0  0  0  0  0  0  0  0  0  0  0  0
   -2.6724    3.9052    1.7265 H   0  0  0  0  0  0  0  0  0  0  0  0
   -0.5220    2.4922    1.5290 H   0  0  0  0  0  0  0  0  0  0  0  0
   -3.2400    1.0636    1.7358 H   0  0  0  0  0  0  0  0  0  0  0  0
   -1.6970    0.4046    2.2923 H   0  0  0  0  0  0  0  0  0  0  0  0
   -2.3854    1.8384    3.0772 H   0  0  0  0  0  0  0  0  0  0  0  0
   -0.3283    0.6116   -0.2182 N   0  0  0  0  0  0  0  0  0  0  0  0
    0.0090   -0.1762   -1.3759 C   0  0  2  0  0  0  0  0  0  0  0  0
    0.2016   -1.6166   -0.9186 C   0  0  0  0  0  0  0  0  0  0  0  0
   -0.2390   -2.5810   -1.5407 O   0  0  0  0  0  0  0  0  0  0  0  0
    1.2629    0.3436   -2.0741 C   0  0  0  0  0  0  0  0  0  0  0  0
    1.0106    1.6792   -2.7296 C   0  0  0  0  0  0  0  0  0  0  0  0
   -0.0799    2.0374   -3.1551 O   0  0  0  0  0  0  0  0  0  0  0  0
    2.1310    2.4383   -2.8136 O   0  0  0  0  0  0  0  0  0  0  0  0
    0.2381    0.4970    0.6194 H   0  0  0  0  0  0  0  0  0  0  0  0
   -0.8596   -0.1284   -2.0436 H   0  0  0  0  0  0  0  0  0  0  0  0
    2.0807    0.4951   -1.3584 H   0  0  0  0  0  0  0  0  0  0  0  0
    1.6490   -0.3624   -2.8193 H   0  0  0  0  0  0  0  0  0  0  0  0
    2.0088    3.3105   -3.2460 H   0  0  0  0  0  0  0  0  0  0  0  0
    0.9633   -1.7005    0.2385 N   0  0  0  0  0  0  0  0  0  0  0  0
    1.2971   -2.9596    0.8623 C   0  0  2  0  0  0  0  0  0  0  0  0
    2.2369   -3.7120   -0.0706 C   0  0  0  0  0  0  0  0  0  0  0  0
    2.3011   -3.4923   -1.2783 O   0  0  0  0  0  0  0  0  0  0  0  0
    0.0504   -3.7798    1.1552 C   0  0  0  0  0  0  0  0  0  0  0  0
    1.2996   -0.8416    0.6639 H   0  0  0  0  0  0  0  0  0  0  0  0
    1.8205   -2.7217    1.7948 H   0  0  0  0  0  0  0  0  0  0  0  0
   -0.4872   -4.0278    0.2328 H   0  0  0  0  0  0  0  0  0  0  0  0
    0.3030   -4.7213    1.6539 H   0  0  0  0  0  0  0  0  0  0  0  0
   -0.6378   -3.2251    1.8021 H   0  0  0  0  0  0  0  0  0  0  0  0
    2.9644   -4.6874    0.5970 N   0  0  0  0  0  0  0  0  0  0  0  0
    3.9153   -5.5449   -0.0713 C   0  0  0  0  0  0  0  0  0  0  0  0
    2.8613   -4.7871    1.6025 H   0  0  0  0  0  0  0  0  0  0  0  0
    3.4148   -6.4719   -0.3876 H   0  0  0  0  0  0  0  0  0  0  0  0
    4.3190   -5.0268   -0.9537 H   0  0  0  0  0  0  0  0  0  0  0  0
    4.7367   -5.7888    0.6185 H   0  0  0  0  0  0  0  0  0  0  0  0
  1  3  1  0  0  0  0
  1  7  1  0  0  0  0
  1  2  2  0  0  0  0
 31 32  1  0  0  0  0
 32 40  1  0  0  0  0
 32 33  2  0  0  0  0
  8  9  1  0  0  0  0
  9 17  1  0  0  0  0
  9 10  2  0  0  0  0
 18 19  1  0  0  0  0
 19 30  1  0  0  0  0
 19 20  2  0  0  0  0
 21 22  1  0  0  0  0
 22 23  2  0  0  0  0
 22 24  1  0  0  0  0
 31 34  1  0  0  0  0
  8 11  1  0  0  0  0
 40 41  1  0  0  0  0
 18 21  1  0  0  0  0
 30 31  1  0  0  0  0
  7  8  1  0  0  0  0
 17 18  1  0  0  0  0
  3  4  1  0  0  0  0
  3  5  1  0  0  0  0
  3  6  1  0  0  0  0
 34 37  1  0  0  0  0
 34 38  1  0  0  0  0
 34 39  1  0  0  0  0
 11 14  1  0  0  0  0
 11 15  1  0  0  0  0
 11 16  1  0  0  0  0
 41 43  1  0  0  0  0
 41 44  1  0  0  0  0
 41 45  1  0  0  0  0
 21 27  1  0  0  0  0
 21 28  1  0  0  0  0
 31 36  1  0  0  0  0
  8 13  1  0  0  0  0
 18 26  1  0  0  0  0
 40 42  1  0  0  0  0
  7 12  1  0  0  0  0
 30 35  1  0  0  0  0
 17 25  1  0  0  0  0
 24 29  1  0  0  0  0
M  END
$$$$

  -OEChem-05262214473D

 45 44  0     1  0  0  0  0  0999 V2000
   -2.2987    4.1032   -0.3022 C   0  0  0  0  0  0  0  0  0  0  0  0
   -1.8049    3.7117   -1.3532 O   0  0  0  0  0  0  0  0  0  0  0  0
   -3.0791    5.3755   -0.2846 C   0  0  0  0  0  0  0  0  0  0  0  0
   -2.4478    6.2532   -0.0717 H   0  0  0  0  0  0  0  0  0  0  0  0
   -3.5571    5.5891   -1.2541 H   0  0  0  0  0  0  0  0  0  0  0  0
   -3.8940    5.4184    0.4556 H   0  0  0  0  0  0  0  0  0  0  0  0
   -2.2137    3.4712    0.9275 N   0  0  0  0  0  0  0  0  0  0  0  0
   -1.5102    2.2327    1.1338 C   0  0  2  0  0  0  0  0  0  0  0  0
   -1.3539    1.5497   -0.2184 C   0  0  0  0  0  0  0  0  0  0  0  0
   -2.0852    1.7861   -1.1778 O   0  0  0  0  0  0  0  0  0  0  0  0
   -2.2477    1.3342    2.1145 C   0  0  0  0  0  0  0  0  0  0  0  0
   -2.6724    3.9052    1.7265 H   0  0  0  0  0  0  0  0  0  0  0  0
   -0.5220    2.4922    1.5290 H   0  0  0  0  0  0  0  0  0  0  0  0
   -3.2400    1.0636    1.7358 H   0  0  0  0  0  0  0  0  0  0  0  0
   -1.6970    0.4046    2.2923 H   0  0  0  0  0  0  0  0  0  0  0  0
   -2.3854    1.8384    3.0772 H   0  0  0  0  0  0  0  0  0  0  0  0
   -0.3283    0.6116   -0.2182 N   0  0  0  0  0  0  0  0  0  0  0  0
    0.0090   -0.1762   -1.3759 C   0  0  2  0  0  0  0  0  0  0  0  0
    0.2016   -1.6166   -0.9186 C   0  0  0  0  0  0  0  0  0  0  0  0
    0.0061   -2.5836   -1.6521 O   0  0  0  0  0  0  0  0  0  0  0  0
    1.2629    0.3436   -2.0741 C   0  0  0  0  0  0  0  0  0  0  0  0
    1.0106    1.6792   -2.7296 C   0  0  0  0  0  0  0  0  0  0  0  0
   -0.0799    2.0374   -3.1551 O   0  0  0  0  0  0  0  0  0  0  0  0
    2.1310    2.4383   -2.8136 O   0  0  0  0  0  0  0  0  0  0  0  0
    0.2381    0.4970    0.6194 H   0  0  0  0  0  0  0  0  0  0  0  0
   -0.8596   -0.1284   -2.0436 H   0  0  0  0  0  0  0  0  0  0  0  0
    2.0807    0.4951   -1.3584 H   0  0  0  0  0  0  0  0  0  0  0  0
    1.6490   -0.3624   -2.8193 H   0  0  0  0  0  0  0  0  0  0  0  0
    2.0088    3.3105   -3.2460 H   0  0  0  0  0  0  0  0  0  0  0  0
    0.6630   -1.6932    0.3881 N   0  0  0  0  0  0  0  0  0  0  0  0
    0.9367   -2.9496    1.0456 C   0  0  2  0  0  0  0  0  0  0  0  0
    2.1336   -3.5906    0.3555 C   0  0  0  0  0  0  0  0  0  0  0  0
    2.4716   -3.3157   -0.7939 O   0  0  0  0  0  0  0  0  0  0  0  0
   -0.2725   -3.8710    1.0038 C   0  0  0  0  0  0  0  0  0  0  0  0
    0.8142   -0.8307    0.9028 H   0  0  0  0  0  0  0  0  0  0  0  0
    1.1960   -2.7136    2.0834 H   0  0  0  0  0  0  0  0  0  0  0  0
   -0.5473   -4.1186   -0.0280 H   0  0  0  0  0  0  0  0  0  0  0  0
   -0.0728   -4.8117    1.5275 H   0  0  0  0  0  0  0  0  0  0  0  0
   -1.1404   -3.3965    1.4742 H   0  0  0  0  0  0  0  0  0  0  0  0
    2.7539   -4.5372    1.1588 N   0  0  0  0  0  0  0  0  0  0  0  0
    3.9057   -5.2932    0.7255 C   0  0  0  0  0  0  0  0  0  0  0  0
    2.4176   -4.6868    2.1055 H   0  0  0  0  0  0  0  0  0  0  0  0
    3.5747   -6.2404    0.2744 H   0  0  0  0  0  0  0  0  0  0  0  0
    4.4683   -4.7100   -0.0183 H   0  0  0  0  0  0  0  0  0  0  0  0
    4.5516   -5.5051    1.5903 H   0  0  0  0  0  0  0  0  0  0  0  0
  1  3  1  0  0  0  0
  1  7  1  0  0  0  0
  1  2  2  0  0  0  0
 31 32  1  0  0  0  0
 32 40  1  0  0  0  0
 32 33  2  0  0  0  0
  8  9  1  0  0  0  0
  9 17  1  0  0  0  0
  9 10  2  0  0  0  0
 18 19  1  0  0  0  0
 19 30  1  0  0  0  0
 19 20  2  0  0  0  0
 21 22  1  0  0  0  0
 22 23  2  0  0  0  0
 22 24  1  0  0  0  0
 31 34  1  0  0  0  0
  8 11  1  0  0  0  0
 40 41  1  0  0  0  0
 18 21  1  0  0  0  0
 30 31  1  0  0  0  0
  7  8  1  0  0  0  0
 17 18  1  0  0  0  0
  3  4  1  0  0  0  0
  3  5  1  0  0  0  0
  3  6  1  0  0  0  0
 34 37  1  0  0  0  0
 34 38  1  0  0  0  0
 34 39  1  0  0  0  0
 11 14  1  0  0  0  0
 11 15  1  0  0  0  0
 11 16  1  0  0  0  0
 41 43  1  0  0  0  0
 41 44  1  0  0  0  0
 41 45  1  0  0  0  0
 21 27  1  0  0  0  0
 21 28  1  0  0  0  0
 31 36  1  0  0  0  0
  8 13  1  0  0  0  0
 18 26  1  0  0  0  0
 40 42  1  0  0  0  0
  7 12  1  0  0  0  0
 30 35  1  0  0  0  0
 17 25  1  0  0  0  0
 24 29  1  0  0  0  0
M  END
$$$$

  -OEChem-05262214473D

 45 44  0     1  0  0  0  0  0999 V2000
   -2.2987    4.1032   -0.3022 C   0  0  0  0  0  0  0  0  0  0  0  0
   -1.8049    3.7117   -1.3532 O   0  0  0  0  0  0  0  0  0  0  0  0
   -3.0791    5.3755   -0.2846 C   0  0  0  0  0  0  0  0  0  0  0  0
   -2.4478    6.2532   -0.0717 H   0  0  0  0  0  0  0  0  0  0  0  0
   -3.5571    5.5891   -1.2541 H   0  0  0  0  0  0  0  0  0  0  0  0
   -3.8940    5.4184    0.4556 H   0  0  0  0  0  0  0  0  0  0  0  0
   -2.2137    3.4712    0.9275 N   0  0  0  0  0  0  0  0  0  0  0  0
   -1.5102    2.2327    1.1338 C   0  0  2  0  0  0  0  0  0  0  0  0
   -1.3539    1.5497   -0.2184 C   0  0  0  0  0  0  0  0  0  0  0  0
   -2.0852    1.7861   -1.1778 O   0  0  0  0  0  0  0  0  0  0  0  0
   -2.2477    1.3342    2.1145 C   0  0  0  0  0  0  0  0  0  0  0  0
   -2.6724    3.9052    1.7265 H   0  0  0  0  0  0  0  0  0  0  0  0
   -0.5220    2.4922    1.5290 H   0  0  0  0  0  0  0  0  0  0  0  0
   -3.2400    1.0636    1.7358 H   0  0  0  0  0  0  0  0  0  0  0  0
   -1.6970    0.4046    2.2923 H   0  0  0  0  0  0  0  0  0  0  0  0
   -2.3854    1.8384    3.0772 H   0  0  0  0  0  0  0  0  0  0  0  0
   -0.3283    0.6116   -0.2182 N   0  0  0  0  0  0  0  0  0  0  0  0
    0.0090   -0.1762   -1.3759 C   0  0  2  0  0  0  0  0  0  0  0  0
    0.2016   -1.6166   -0.9186 C   0  0  0  0  0  0  0  0  0  0  0  0
    0.2702   -2.5634   -1.6997 O   0  0  0  0  0  0  0  0  0  0  0  0
    1.2629    0.3436   -2.0741 C   0  0  0  0  0  0  0  0  0  0  0  0
    1.0106    1.6792   -2.7296 C   0  0  0  0  0  0  0  0  0  0  0  0
   -0.0799    2.0374   -3.1551 O   0  0  0  0  0  0  0  0  0  0  0  0
    2.1310    2.4383   -2.8136 O   0  0  0  0  0  0  0  0  0  0  0  0
    0.2381    0.4970    0.6194 H   0  0  0  0  0  0  0  0  0  0  0  0
   -0.8596   -0.1284   -2.0436 H   0  0  0  0  0  0  0  0  0  0  0  0
    2.0807    0.4951   -1.3584 H   0  0  0  0  0  0  0  0  0  0  0  0
    1.6490   -0.3624   -2.8193 H   0  0  0  0  0  0  0  0  0  0  0  0
    2.0088    3.3105   -3.2460 H   0  0  0  0  0  0  0  0  0  0  0  0
    0.3357   -1.7143    0.4593 N   0  0  0  0  0  0  0  0  0  0  0  0
    0.5429   -2.9740    1.1348 C   0  0  2  0  0  0  0  0  0  0  0  0
    1.9200   -3.4953    0.7458 C   0  0  0  0  0  0  0  0  0  0  0  0
    2.5040   -3.1478   -0.2786 O   0  0  0  0  0  0  0  0  0  0  0  0
   -0.5402   -3.9792    0.7756 C   0  0  0  0  0  0  0  0  0  0  0  0
    0.2860   -0.8656    1.0152 H   0  0  0  0  0  0  0  0  0  0  0  0
    0.5216   -2.7637    2.2097 H   0  0  0  0  0  0  0  0  0  0  0  0
   -0.5344   -4.2024   -0.2975 H   0  0  0  0  0  0  0  0  0  0  0  0
   -0.3978   -4.9241    1.3105 H   0  0  0  0  0  0  0  0  0  0  0  0
   -1.5324   -3.5903    1.0288 H   0  0  0  0  0  0  0  0  0  0  0  0
    2.4014   -4.4269    1.6549 N   0  0  0  0  0  0  0  0  0  0  0  0
    3.6818   -5.0770    1.5009 C   0  0  0  0  0  0  0  0  0  0  0  0
    1.8581   -4.6408    2.4861 H   0  0  0  0  0  0  0  0  0  0  0  0
    3.5492   -6.0260    0.9606 H   0  0  0  0  0  0  0  0  0  0  0  0
    4.3590   -4.4229    0.9321 H   0  0  0  0  0  0  0  0  0  0  0  0
    4.1129   -5.2772    2.4929 H   0  0  0  0  0  0  0  0  0  0  0  0
  1  3  1  0  0  0  0
  1  7  1  0  0  0  0
  1  2  2  0  0  0  0
 31 32  1  0  0  0  0
 32 40  1  0  0  0  0
 32 33  2  0  0  0  0
  8  9  1  0  0  0  0
  9 17  1  0  0  0  0
  9 10  2  0  0  0  0
 18 19  1  0  0  0  0
 19 30  1  0  0  0  0
 19 20  2  0  0  0  0
 21 22  1  0  0  0  0
 22 23  2  0  0  0  0
 22 24  1  0  0  0  0
 31 34  1  0  0  0  0
  8 11  1  0  0  0  0
 40 41  1  0  0  0  0
 18 21  1  0  0  0  0
 30 31  1  0  0  0  0
  7  8  1  0  0  0  0
 17 18  1  0  0  0  0
  3  4  1  0  0  0  0
  3  5  1  0  0  0  0
  3  6  1  0  0  0  0
 34 37  1  0  0  0  0
 34 38  1  0  0  0  0
 34 39  1  0  0  0  0
 11 14  1  0  0  0  0
 11 15  1  0  0  0  0
 11 16  1  0  0  0  0
 41 43  1  0  0  0  0
 41 44  1  0  0  0  0
 41 45  1  0  0  0  0
 21 27  1  0  0  0  0
 21 28  1  0  0  0  0
 31 36  1  0  0  0  0
  8 13  1  0  0  0  0
 18 26  1  0  0  0  0
 40 42  1  0  0  0  0
  7 12  1  0  0  0  0
 30 35  1  0  0  0  0
 17 25  1  0  0  0  0
 24 29  1  0  0  0  0
M  END
$$$$

  -OEChem-05262214473D

 45 44  0     1  0  0  0  0  0999 V2000
   -2.2987    4.1032   -0.3022 C   0  0  0  0  0  0  0  0  0  0  0  0
   -1.8049    3.7117   -1.3532 O   0  0  0  0  0  0  0  0  0  0  0  0
   -3.0791    5.3755   -0.2846 C   0  0  0  0  0  0  0  0  0  0  0  0
   -2.4478    6.2532   -0.0717 H   0  0  0  0  0  0  0  0  0  0  0  0
   -3.5571    5.5891   -1.2541 H   0  0  0  0  0  0  0  0  0  0  0  0
   -3.8940    5.4184    0.4556 H   0  0  0  0  0  0  0  0  0  0  0  0
   -2.2137    3.4712    0.9275 N   0  0  0  0  0  0  0  0  0  0  0  0
   -1.5102    2.2327    1.1338 C   0  0  2  0  0  0  0  0  0  0  0  0
   -1.3539    1.5497   -0.2184 C   0  0  0  0  0  0  0  0  0  0  0  0
   -2.0852    1.7861   -1.1778 O   0  0  0  0  0  0  0  0  0  0  0  0
   -2.2477    1.3342    2.1145 C   0  0  0  0  0  0  0  0  0  0  0  0
   -2.6724    3.9052    1.7265 H   0  0  0  0  0  0  0  0  0  0  0  0
   -0.5220    2.4922    1.5290 H   0  0  0  0  0  0  0  0  0  0  0  0
   -3.2400    1.0636    1.7358 H   0  0  0  0  0  0  0  0  0  0  0  0
   -1.6970    0.4046    2.2923 H   0  0  0  0  0  0  0  0  0  0  0  0
   -2.3854    1.8384    3.0772 H   0  0  0  0  0  0  0  0  0  0  0  0
   -0.3283    0.6116   -0.2182 N   0  0  0  0  0  0  0  0  0  0  0  0
    0.0090   -0.1762   -1.3759 C   0  0  2  0  0  0  0  0  0  0  0  0
    0.2016   -1.6166   -0.9186 C   0  0  0  0  0  0  0  0  0  0  0  0
    0.5354   -2.5218   -1.6805 O   0  0  0  0  0  0  0  0  0  0  0  0
    1.2629    0.3436   -2.0741 C   0  0  0  0  0  0  0  0  0  0  0  0
    1.0106    1.6792   -2.7296 C   0  0  0  0  0  0  0  0  0  0  0  0
   -0.0799    2.0374   -3.1551 O   0  0  0  0  0  0  0  0  0  0  0  0
    2.1310    2.4383   -2.8136 O   0  0  0  0  0  0  0  0  0  0  0  0
    0.2381    0.4970    0.6194 H   0  0  0  0  0  0  0  0  0  0  0  0
   -0.8596   -0.1284   -2.0436 H   0  0  0  0  0  0  0  0  0  0  0  0
    2.0807    0.4951   -1.3584 H   0  0  0  0  0  0  0  0  0  0  0  0
    1.6490   -0.3624   -2.8193 H   0  0  0  0  0  0  0  0  0  0  0  0
    2.0088    3.3105   -3.2460 H   0  0  0  0  0  0  0  0  0  0  0  0
    0.0038   -1.7625    0.4473 N   0  0  0  0  0  0  0  0  0  0  0  0
    0.1426   -3.0310    1.1238 C   0  0  2  0  0  0  0  0  0  0  0  0
    1.6108   -3.4326    1.0736 C   0  0  0  0  0  0  0  0  0  0  0  0
    2.3962   -2.9999    0.2327 O   0  0  0  0  0  0  0  0  0  0  0  0
   -0.7346   -4.0971    0.4861 C   0  0  0  0  0  0  0  0  0  0  0  0
   -0.2489   -0.9441    0.9933 H   0  0  0  0  0  0  0  0  0  0  0  0
   -0.1568   -2.8686    2.1650 H   0  0  0  0  0  0  0  0  0  0  0  0
   -0.4495   -4.2736   -0.5574 H   0  0  0  0  0  0  0  0  0  0  0  0
   -0.6499   -5.0507    1.0177 H   0  0  0  0  0  0  0  0  0  0  0  0
   -1.7869   -3.7933    0.4964 H   0  0  0  0  0  0  0  0  0  0  0  0
    1.9309   -4.3639    2.0515 N   0  0  0  0  0  0  0  0  0  0  0  0
    3.2591   -4.9109    2.2023 C   0  0  0  0  0  0  0  0  0  0  0  0
    1.2211   -4.6523    2.7183 H   0  0  0  0  0  0  0  0  0  0  0  0
    3.3400   -5.8433    1.6242 H   0  0  0  0  0  0  0  0  0  0  0  0
    3.9985   -4.1852    1.8327 H   0  0  0  0  0  0  0  0  0  0  0  0
    3.4506   -5.1207    3.2649 H   0  0  0  0  0  0  0  0  0  0  0  0
  1  3  1  0  0  0  0
  1  7  1  0  0  0  0
  1  2  2  0  0  0  0
 31 32  1  0  0  0  0
 32 40  1  0  0  0  0
 32 33  2  0  0  0  0
  8  9  1  0  0  0  0
  9 17  1  0  0  0  0
  9 10  2  0  0  0  0
 18 19  1  0  0  0  0
 19 30  1  0  0  0  0
 19 20  2  0  0  0  0
 21 22  1  0  0  0  0
 22 23  2  0  0  0  0
 22 24  1  0  0  0  0
 31 34  1  0  0  0  0
  8 11  1  0  0  0  0
 40 41  1  0  0  0  0
 18 21  1  0  0  0  0
 30 31  1  0  0  0  0
  7  8  1  0  0  0  0
 17 18  1  0  0  0  0
  3  4  1  0  0  0  0
  3  5  1  0  0  0  0
  3  6  1  0  0  0  0
 34 37  1  0  0  0  0
 34 38  1  0  0  0  0
 34 39  1  0  0  0  0
 11 14  1  0  0  0  0
 11 15  1  0  0  0  0
 11 16  1  0  0  0  0
 41 43  1  0  0  0  0
 41 44  1  0  0  0  0
 41 45  1  0  0  0  0
 21 27  1  0  0  0  0
 21 28  1  0  0  0  0
 31 36  1  0  0  0  0
  8 13  1  0  0  0  0
 18 26  1  0  0  0  0
 40 42  1  0  0  0  0
  7 12  1  0  0  0  0
 30 35  1  0  0  0  0
 17 25  1  0  0  0  0
 24 29  1  0  0  0  0
M  END
$$$$

  -OEChem-05262214473D

 45 44  0     1  0  0  0  0  0999 V2000
   -2.2987    4.1032   -0.3022 C   0  0  0  0  0  0  0  0  0  0  0  0
   -1.8049    3.7117   -1.3532 O   0  0  0  0  0  0  0  0  0  0  0  0
   -3.0791    5.3755   -0.2846 C   0  0  0  0  0  0  0  0  0  0  0  0
   -2.4478    6.2532   -0.0717 H   0  0  0  0  0  0  0  0  0  0  0  0
   -3.5571    5.5891   -1.2541 H   0  0  0  0  0  0  0  0  0  0  0  0
   -3.8940    5.4184    0.4556 H   0  0  0  0  0  0  0  0  0  0  0  0
   -2.2137    3.4712    0.9275 N   0  0  0  0  0  0  0  0  0  0  0  0
   -1.5102    2.2327    1.1338 C   0  0  2  0  0  0  0  0  0  0  0  0
   -1.3539    1.5497   -0.2184 C   0  0  0  0  0  0  0  0  0  0  0  0
   -2.0852    1.7861   -1.1778 O   0  0  0  0  0  0  0  0  0  0  0  0
   -2.2477    1.3342    2.1145 C   0  0  0  0  0  0  0  0  0  0  0  0
   -2.6724    3.9052    1.7265 H   0  0  0  0  0  0  0  0  0  0  0  0
   -0.5220    2.4922    1.5290 H   0  0  0  0  0  0  0  0  0  0  0  0
   -3.2400    1.0636    1.7358 H   0  0  0  0  0  0  0  0  0  0  0  0
   -1.6970    0.4046    2.2923 H   0  0  0  0  0  0  0  0  0  0  0  0
   -2.3854    1.8384    3.0772 H   0  0  0  0  0  0  0  0  0  0  0  0
   -0.3283    0.6116   -0.2182 N   0  0  0  0  0  0  0  0  0  0  0  0
    0.0090   -0.1762   -1.3759 C   0  0  2  0  0  0  0  0  0  0  0  0
    0.2016   -1.6166   -0.9186 C   0  0  0  0  0  0  0  0  0  0  0  0
    0.7837   -2.4617   -1.5956 O   0  0  0  0  0  0  0  0  0  0  0  0
    1.2629    0.3436   -2.0741 C   0  0  0  0  0  0  0  0  0  0  0  0
    1.0106    1.6792   -2.7296 C   0  0  0  0  0  0  0  0  0  0  0  0
   -0.0799    2.0374   -3.1551 O   0  0  0  0  0  0  0  0  0  0  0  0
    2.1310    2.4383   -2.8136 O   0  0  0  0  0  0  0  0  0  0  0  0
    0.2381    0.4970    0.6194 H   0  0  0  0  0  0  0  0  0  0  0  0
   -0.8596   -0.1284   -2.0436 H   0  0  0  0  0  0  0  0  0  0  0  0
    2.0807    0.4951   -1.3584 H   0  0  0  0  0  0  0  0  0  0  0  0
    1.6490   -0.3624   -2.8193 H   0  0  0  0  0  0  0  0  0  0  0  0
    2.0088    3.3105   -3.2460 H   0  0  0  0  0  0  0  0  0  0  0  0
   -0.3102   -1.8345    0.3529 N   0  0  0  0  0  0  0  0  0  0  0  0
   -0.2370   -3.1168    1.0133 C   0  0  2  0  0  0  0  0  0  0  0  0
    1.2271   -3.4067    1.3166 C   0  0  0  0  0  0  0  0  0  0  0  0
    2.1555   -2.8822    0.7050 O   0  0  0  0  0  0  0  0  0  0  0  0
   -0.8424   -4.2166    0.1551 C   0  0  0  0  0  0  0  0  0  0  0  0
   -0.7542   -1.0608    0.8387 H   0  0  0  0  0  0  0  0  0  0  0  0
   -0.7930   -3.0212    1.9523 H   0  0  0  0  0  0  0  0  0  0  0  0
   -0.2984   -4.3272   -0.7901 H   0  0  0  0  0  0  0  0  0  0  0  0
   -0.8119   -5.1831    0.6690 H   0  0  0  0  0  0  0  0  0  0  0  0
   -1.8867   -3.9918   -0.0869 H   0  0  0  0  0  0  0  0  0  0  0  0
    1.3746   -4.3526    2.3215 N   0  0  0  0  0  0  0  0  0  0  0  0
    2.6662   -4.8063    2.7817 C   0  0  0  0  0  0  0  0  0  0  0  0
    0.5498   -4.7204    2.7864 H   0  0  0  0  0  0  0  0  0  0  0  0
    2.9613   -5.7048    2.2200 H   0  0  0  0  0  0  0  0  0  0  0  0
    3.4115   -4.0131    2.6222 H   0  0  0  0  0  0  0  0  0  0  0  0
    2.6098   -5.0463    3.8537 H   0  0  0  0  0  0  0  0  0  0  0  0
  1  3  1  0  0  0  0
  1  7  1  0  0  0  0
  1  2  2  0  0  0  0
 31 32  1  0  0  0  0
 32 40  1  0  0  0  0
 32 33  2  0  0  0  0
  8  9  1  0  0  0  0
  9 17  1  0  0  0  0
  9 10  2  0  0  0  0
 18 19  1  0  0  0  0
 19 30  1  0  0  0  0
 19 20  2  0  0  0  0
 21 22  1  0  0  0  0
 22 23  2  0  0  0  0
 22 24  1  0  0  0  0
 31 34  1  0  0  0  0
  8 11  1  0  0  0  0
 40 41  1  0  0  0  0
 18 21  1  0  0  0  0
 30 31  1  0  0  0  0
  7  8  1  0  0  0  0
 17 18  1  0  0  0  0
  3  4  1  0  0  0  0
  3  5  1  0  0  0  0
  3  6  1  0  0  0  0
 34 37  1  0  0  0  0
 34 38  1  0  0  0  0
 34 39  1  0  0  0  0
 11 14  1  0  0  0  0
 11 15  1  0  0  0  0
 11 16  1  0  0  0  0
 41 43  1  0  0  0  0
 41 44  1  0  0  0  0
 41 45  1  0  0  0  0
 21 27  1  0  0  0  0
 21 28  1  0  0  0  0
 31 36  1  0  0  0  0
  8 13  1  0  0  0  0
 18 26  1  0  0  0  0
 40 42  1  0  0  0  0
  7 12  1  0  0  0  0
 30 35  1  0  0  0  0
 17 25  1  0  0  0  0
 24 29  1  0  0  0  0
M  END
$$$$

  -OEChem-05262214473D

 45 44  0     1  0  0  0  0  0999 V2000
   -2.2987    4.1032   -0.3022 C   0  0  0  0  0  0  0  0  0  0  0  0
   -1.8049    3.7117   -1.3532 O   0  0  0  0  0  0  0  0  0  0  0  0
   -3.0791    5.3755   -0.2846 C   0  0  0  0  0  0  0  0  0  0  0  0
   -2.4478    6.2532   -0.0717 H   0  0  0  0  0  0  0  0  0  0  0  0
   -3.5571    5.5891   -1.2541 H   0  0  0  0  0  0  0  0  0  0  0  0
   -3.8940    5.4184    0.4556 H   0  0  0  0  0  0  0  0  0  0  0  0
   -2.2137    3.4712    0.9275 N   0  0  0  0  0  0  0  0  0  0  0  0
   -1.5102    2.2327    1.1338 C   0  0  2  0  0  0  0  0  0  0  0  0
   -1.3539    1.5497   -0.2184 C   0  0  0  0  0  0  0  0  0  0  0  0
   -2.0852    1.7861   -1.1778 O   0  0  0  0  0  0  0  0  0  0  0  0
   -2.2477    1.3342    2.1145 C   0  0  0  0  0  0  0  0  0  0  0  0
   -2.6724    3.9052    1.7265 H   0  0  0  0  0  0  0  0  0  0  0  0
   -0.5220    2.4922    1.5290 H   0  0  0  0  0  0  0  0  0  0  0  0
   -3.2400    1.0636    1.7358 H   0  0  0  0  0  0  0  0  0  0  0  0
   -1.6970    0.4046    2.2923 H   0  0  0  0  0  0  0  0  0  0  0  0
   -2.3854    1.8384    3.0772 H   0  0  0  0  0  0  0  0  0  0  0  0
   -0.3283    0.6116   -0.2182 N   0  0  0  0  0  0  0  0  0  0  0  0
    0.0090   -0.1762   -1.3759 C   0  0  2  0  0  0  0  0  0  0  0  0
    0.2016   -1.6166   -0.9186 C   0  0  0  0  0  0  0  0  0  0  0  0
    0.9980   -2.3871   -1.4509 O   0  0  0  0  0  0  0  0  0  0  0  0
    1.2629    0.3436   -2.0741 C   0  0  0  0  0  0  0  0  0  0  0  0
    1.0106    1.6792   -2.7296 C   0  0  0  0  0  0  0  0  0  0  0  0
   -0.0799    2.0374   -3.1551 O   0  0  0  0  0  0  0  0  0  0  0  0
    2.1310    2.4383   -2.8136 O   0  0  0  0  0  0  0  0  0  0  0  0
    0.2381    0.4970    0.6194 H   0  0  0  0  0  0  0  0  0  0  0  0
   -0.8596   -0.1284   -2.0436 H   0  0  0  0  0  0  0  0  0  0  0  0
    2.0807    0.4951   -1.3584 H   0  0  0  0  0  0  0  0  0  0  0  0
    1.6490   -0.3624   -2.8193 H   0  0  0  0  0  0  0  0  0  0  0  0
    2.0088    3.3105   -3.2460 H   0  0  0  0  0  0  0  0  0  0  0  0
   -0.5847   -1.9253    0.1825 N   0  0  0  0  0  0  0  0  0  0  0  0
   -0.5699   -3.2256    0.8110 C   0  0  2  0  0  0  0  0  0  0  0  0
    0.7950   -3.4195    1.4583 C   0  0  0  0  0  0  0  0  0  0  0  0
    1.7982   -2.8026    1.1061 O   0  0  0  0  0  0  0  0  0  0  0  0
   -0.8562   -4.3296   -0.1950 C   0  0  0  0  0  0  0  0  0  0  0  0
   -1.1953   -1.2076    0.5619 H   0  0  0  0  0  0  0  0  0  0  0  0
   -1.3437   -3.2110    1.5862 H   0  0  0  0  0  0  0  0  0  0  0  0
   -0.0913   -4.3597   -0.9796 H   0  0  0  0  0  0  0  0  0  0  0  0
   -0.8728   -5.3121    0.2882 H   0  0  0  0  0  0  0  0  0  0  0  0
   -1.8250   -4.1722   -0.6812 H   0  0  0  0  0  0  0  0  0  0  0  0
    0.7702   -4.3937    2.4465 N   0  0  0  0  0  0  0  0  0  0  0  0
    1.9436   -4.7702    3.1997 C   0  0  0  0  0  0  0  0  0  0  0  0
   -0.1100   -4.8407    2.6856 H   0  0  0  0  0  0  0  0  0  0  0  0
    2.4390   -5.6200    2.7073 H   0  0  0  0  0  0  0  0  0  0  0  0
    2.6379   -3.9183    3.2468 H   0  0  0  0  0  0  0  0  0  0  0  0
    1.6478   -5.0589    4.2191 H   0  0  0  0  0  0  0  0  0  0  0  0
  1  3  1  0  0  0  0
  1  7  1  0  0  0  0
  1  2  2  0  0  0  0
 31 32  1  0  0  0  0
 32 40  1  0  0  0  0
 32 33  2  0  0  0  0
  8  9  1  0  0  0  0
  9 17  1  0  0  0  0
  9 10  2  0  0  0  0
 18 19  1  0  0  0  0
 19 30  1  0  0  0  0
 19 20  2  0  0  0  0
 21 22  1  0  0  0  0
 22 23  2  0  0  0  0
 22 24  1  0  0  0  0
 31 34  1  0  0  0  0
  8 11  1  0  0  0  0
 40 41  1  0  0  0  0
 18 21  1  0  0  0  0
 30 31  1  0  0  0  0
  7  8  1  0  0  0  0
 17 18  1  0  0  0  0
  3  4  1  0  0  0  0
  3  5  1  0  0  0  0
  3  6  1  0  0  0  0
 34 37  1  0  0  0  0
 34 38  1  0  0  0  0
 34 39  1  0  0  0  0
 11 14  1  0  0  0  0
 11 15  1  0  0  0  0
 11 16  1  0  0  0  0
 41 43  1  0  0  0  0
 41 44  1  0  0  0  0
 41 45  1  0  0  0  0
 21 27  1  0  0  0  0
 21 28  1  0  0  0  0
 31 36  1  0  0  0  0
  8 13  1  0  0  0  0
 18 26  1  0  0  0  0
 40 42  1  0  0  0  0
  7 12  1  0  0  0  0
 30 35  1  0  0  0  0
 17 25  1  0  0  0  0
 24 29  1  0  0  0  0
M  END
$$$$

  -OEChem-05262214473D

 45 44  0     1  0  0  0  0  0999 V2000
   -2.2987    4.1032   -0.3022 C   0  0  0  0  0  0  0  0  0  0  0  0
   -1.8049    3.7117   -1.3532 O   0  0  0  0  0  0  0  0  0  0  0  0
   -3.0791    5.3755   -0.2846 C   0  0  0  0  0  0  0  0  0  0  0  0
   -2.4478    6.2532   -0.0717 H   0  0  0  0  0  0  0  0  0  0  0  0
   -3.5571    5.5891   -1.2541 H   0  0  0  0  0  0  0  0  0  0  0  0
   -3.8940    5.4184    0.4556 H   0  0  0  0  0  0  0  0  0  0  0  0
   -2.2137    3.4712    0.9275 N   0  0  0  0  0  0  0  0  0  0  0  0
   -1.5102    2.2327    1.1338 C   0  0  2  0  0  0  0  0  0  0  0  0
   -1.3539    1.5497   -0.2184 C   0  0  0  0  0  0  0  0  0  0  0  0
   -2.0852    1.7861   -1.1778 O   0  0  0  0  0  0  0  0  0  0  0  0
   -2.2477    1.3342    2.1145 C   0  0  0  0  0  0  0  0  0  0  0  0
   -2.6724    3.9052    1.7265 H   0  0  0  0  0  0  0  0  0  0  0  0
   -0.5220    2.4922    1.5290 H   0  0  0  0  0  0  0  0  0  0  0  0
   -3.2400    1.0636    1.7358 H   0  0  0  0  0  0  0  0  0  0  0  0
   -1.6970    0.4046    2.2923 H   0  0  0  0  0  0  0  0  0  0  0  0
   -2.3854    1.8384    3.0772 H   0  0  0  0  0  0  0  0  0  0  0  0
   -0.3283    0.6116   -0.2182 N   0  0  0  0  0  0  0  0  0  0  0  0
    0.0090   -0.1762   -1.3759 C   0  0  2  0  0  0  0  0  0  0  0  0
    0.2016   -1.6166   -0.9186 C   0  0  0  0  0  0  0  0  0  0  0  0
    1.1639   -2.3031   -1.2562 O   0  0  0  0  0  0  0  0  0  0  0  0
    1.2629    0.3436   -2.0741 C   0  0  0  0  0  0  0  0  0  0  0  0
    1.0106    1.6792   -2.7296 C   0  0  0  0  0  0  0  0  0  0  0  0
   -0.0799    2.0374   -3.1551 O   0  0  0  0  0  0  0  0  0  0  0  0
    2.1310    2.4383   -2.8136 O   0  0  0  0  0  0  0  0  0  0  0  0
    0.2381    0.4970    0.6194 H   0  0  0  0  0  0  0  0  0  0  0  0
   -0.8596   -0.1284   -2.0436 H   0  0  0  0  0  0  0  0  0  0  0  0
    2.0807    0.4951   -1.3584 H   0  0  0  0  0  0  0  0  0  0  0  0
    1.6490   -0.3624   -2.8193 H   0  0  0  0  0  0  0  0  0  0  0  0
    2.0088    3.3105   -3.2460 H   0  0  0  0  0  0  0  0  0  0  0  0
   -0.8012   -2.0287   -0.0521 N   0  0  0  0  0  0  0  0  0  0  0  0
   -0.8335   -3.3499    0.5305 C   0  0  2  0  0  0  0  0  0  0  0  0
    0.3439   -3.4701    1.4890 C   0  0  0  0  0  0  0  0  0  0  0  0
    1.3488   -2.7667    1.4087 O   0  0  0  0  0  0  0  0  0  0  0  0
   -0.7751   -4.4283   -0.5402 C   0  0  0  0  0  0  0  0  0  0  0  0
   -1.5423   -1.3747    0.1817 H   0  0  0  0  0  0  0  0  0  0  0  0
   -1.7712   -3.4252    1.0917 H   0  0  0  0  0  0  0  0  0  0  0  0
    0.1576   -4.3688   -1.1130 H   0  0  0  0  0  0  0  0  0  0  0  0
   -0.8285   -5.4290   -0.0987 H   0  0  0  0  0  0  0  0  0  0  0  0
   -1.6059   -4.3222   -1.2460 H   0  0  0  0  0  0  0  0  0  0  0  0
    0.1590   -4.4845    2.4180 N   0  0  0  0  0  0  0  0  0  0  0  0
    1.1405   -4.8052    3.4279 C   0  0  0  0  0  0  0  0  0  0  0  0
   -0.7133   -5.0047    2.4228 H   0  0  0  0  0  0  0  0  0  0  0  0
    1.8087   -5.5945    3.0530 H   0  0  0  0  0  0  0  0  0  0  0  0
    1.7304   -3.9072    3.6639 H   0  0  0  0  0  0  0  0  0  0  0  0
    0.6301   -5.1578    4.3362 H   0  0  0  0  0  0  0  0  0  0  0  0
  1  3  1  0  0  0  0
  1  7  1  0  0  0  0
  1  2  2  0  0  0  0
 31 32  1  0  0  0  0
 32 40  1  0  0  0  0
 32 33  2  0  0  0  0
  8  9  1  0  0  0  0
  9 17  1  0  0  0  0
  9 10  2  0  0  0  0
 18 19  1  0  0  0  0
 19 30  1  0  0  0  0
 19 20  2  0  0  0  0
 21 22  1  0  0  0  0
 22 23  2  0  0  0  0
 22 24  1  0  0  0  0
 31 34  1  0  0  0  0
  8 11  1  0  0  0  0
 40 41  1  0  0  0  0
 18 21  1  0  0  0  0
 30 31  1  0  0  0  0
  7  8  1  0  0  0  0
 17 18  1  0  0  0  0
  3  4  1  0  0  0  0
  3  5  1  0  0  0  0
  3  6  1  0  0  0  0
 34 37  1  0  0  0  0
 34 38  1  0  0  0  0
 34 39  1  0  0  0  0
 11 14  1  0  0  0  0
 11 15  1  0  0  0  0
 11 16  1  0  0  0  0
 41 43  1  0  0  0  0
 41 44  1  0  0  0  0
 41 45  1  0  0  0  0
 21 27  1  0  0  0  0
 21 28  1  0  0  0  0
 31 36  1  0  0  0  0
  8 13  1  0  0  0  0
 18 26  1  0  0  0  0
 40 42  1  0  0  0  0
  7 12  1  0  0  0  0
 30 35  1  0  0  0  0
 17 25  1  0  0  0  0
 24 29  1  0  0  0  0
M  END
$$$$

  -OEChem-05262214473D

 45 44  0     1  0  0  0  0  0999 V2000
   -2.2987    4.1032   -0.3022 C   0  0  0  0  0  0  0  0  0  0  0  0
   -1.8049    3.7117   -1.3532 O   0  0  0  0  0  0  0  0  0  0  0  0
   -3.0791    5.3755   -0.2846 C   0  0  0  0  0  0  0  0  0  0  0  0
   -2.4478    6.2532   -0.0717 H   0  0  0  0  0  0  0  0  0  0  0  0
   -3.5571    5.5891   -1.2541 H   0  0  0  0  0  0  0  0  0  0  0  0
   -3.8940    5.4184    0.4556 H   0  0  0  0  0  0  0  0  0  0  0  0
   -2.2137    3.4712    0.9275 N   0  0  0  0  0  0  0  0  0  0  0  0
   -1.5102    2.2327    1.1338 C   0  0  2  0  0  0  0  0  0  0  0  0
   -1.3539    1.5497   -0.2184 C   0  0  0  0  0  0  0  0  0  0  0  0
   -2.0852    1.7861   -1.1778 O   0  0  0  0  0  0  0  0  0  0  0  0
   -2.2477    1.3342    2.1145 C   0  0  0  0  0  0  0  0  0  0  0  0
   -2.6724    3.9052    1.7265 H   0  0  0  0  0  0  0  0  0  0  0  0
   -0.5220    2.4922    1.5290 H   0  0  0  0  0  0  0  0  0  0  0  0
   -3.2400    1.0636    1.7358 H   0  0  0  0  0  0  0  0  0  0  0  0
   -1.6970    0.4046    2.2923 H   0  0  0  0  0  0  0  0  0  0  0  0
   -2.3854    1.8384    3.0772 H   0  0  0  0  0  0  0  0  0  0  0  0
   -0.3283    0.6116   -0.2182 N   0  0  0  0  0  0  0  0  0  0  0  0
    0.0090   -0.1762   -1.3759 C   0  0  2  0  0  0  0  0  0  0  0  0
    0.2016   -1.6166   -0.9186 C   0  0  0  0  0  0  0  0  0  0  0  0
    1.2699   -2.2155   -1.0249 O   0  0  0  0  0  0  0  0  0  0  0  0
    1.2629    0.3436   -2.0741 C   0  0  0  0  0  0  0  0  0  0  0  0
    1.0106    1.6792   -2.7296 C   0  0  0  0  0  0  0  0  0  0  0  0
   -0.0799    2.0374   -3.1551 O   0  0  0  0  0  0  0  0  0  0  0  0
    2.1310    2.4383   -2.8136 O   0  0  0  0  0  0  0  0  0  0  0  0
    0.2381    0.4970    0.6194 H   0  0  0  0  0  0  0  0  0  0  0  0
   -0.8596   -0.1284   -2.0436 H   0  0  0  0  0  0  0  0  0  0  0  0
    2.0807    0.4951   -1.3584 H   0  0  0  0  0  0  0  0  0  0  0  0
    1.6490   -0.3624   -2.8193 H   0  0  0  0  0  0  0  0  0  0  0  0
    2.0088    3.3105   -3.2460 H   0  0  0  0  0  0  0  0  0  0  0  0
   -0.9448   -2.1378   -0.3352 N   0  0  0  0  0  0  0  0  0  0  0  0
   -1.0098   -3.4812    0.1909 C   0  0  2  0  0  0  0  0  0  0  0  0
   -0.0954   -3.5550    1.4066 C   0  0  0  0  0  0  0  0  0  0  0  0
    0.8378   -2.7767    1.5923 O   0  0  0  0  0  0  0  0  0  0  0  0
   -0.6046   -4.5061   -0.8570 C   0  0  0  0  0  0  0  0  0  0  0  0
   -1.7715   -1.5506   -0.2758 H   0  0  0  0  0  0  0  0  0  0  0  0
   -2.0466   -3.6491    0.5023 H   0  0  0  0  0  0  0  0  0  0  0  0
    0.4314   -4.3538   -1.1813 H   0  0  0  0  0  0  0  0  0  0  0  0
   -0.6818   -5.5258   -0.4654 H   0  0  0  0  0  0  0  0  0  0  0  0
   -1.2445   -4.4316   -1.7429 H   0  0  0  0  0  0  0  0  0  0  0  0
   -0.4173   -4.6187    2.2380 N   0  0  0  0  0  0  0  0  0  0  0  0
    0.3117   -4.9088    3.4506 C   0  0  0  0  0  0  0  0  0  0  0  0
   -1.2190   -5.2015    2.0160 H   0  0  0  0  0  0  0  0  0  0  0  0
    1.1132   -5.6302    3.2335 H   0  0  0  0  0  0  0  0  0  0  0  0
    0.7509   -3.9807    3.8451 H   0  0  0  0  0  0  0  0  0  0  0  0
   -0.3739   -5.3363    4.1970 H   0  0  0  0  0  0  0  0  0  0  0  0
  1  3  1  0  0  0  0
  1  7  1  0  0  0  0
  1  2  2  0  0  0  0
 31 32  1  0  0  0  0
 32 40  1  0  0  0  0
 32 33  2  0  0  0  0
  8  9  1  0  0  0  0
  9 17  1  0  0  0  0
  9 10  2  0  0  0  0
 18 19  1  0  0  0  0
 19 30  1  0  0  0  0
 19 20  2  0  0  0  0
 21 22  1  0  0  0  0
 22 23  2  0  0  0  0
 22 24  1  0  0  0  0
 31 34  1  0  0  0  0
  8 11  1  0  0  0  0
 40 41  1  0  0  0  0
 18 21  1  0  0  0  0
 30 31  1  0  0  0  0
  7  8  1  0  0  0  0
 17 18  1  0  0  0  0
  3  4  1  0  0  0  0
  3  5  1  0  0  0  0
  3  6  1  0  0  0  0
 34 37  1  0  0  0  0
 34 38  1  0  0  0  0
 34 39  1  0  0  0  0
 11 14  1  0  0  0  0
 11 15  1  0  0  0  0
 11 16  1  0  0  0  0
 41 43  1  0  0  0  0
 41 44  1  0  0  0  0
 41 45  1  0  0  0  0
 21 27  1  0  0  0  0
 21 28  1  0  0  0  0
 31 36  1  0  0  0  0
  8 13  1  0  0  0  0
 18 26  1  0  0  0  0
 40 42  1  0  0  0  0
  7 12  1  0  0  0  0
 30 35  1  0  0  0  0
 17 25  1  0  0  0  0
 24 29  1  0  0  0  0
M  END
$$$$

  -OEChem-05262214473D

 45 44  0     1  0  0  0  0  0999 V2000
   -2.2987    4.1032   -0.3022 C   0  0  0  0  0  0  0  0  0  0  0  0
   -1.8049    3.7117   -1.3532 O   0  0  0  0  0  0  0  0  0  0  0  0
   -3.0791    5.3755   -0.2846 C   0  0  0  0  0  0  0  0  0  0  0  0
   -2.4478    6.2532   -0.0717 H   0  0  0  0  0  0  0  0  0  0  0  0
   -3.5571    5.5891   -1.2541 H   0  0  0  0  0  0  0  0  0  0  0  0
   -3.8940    5.4184    0.4556 H   0  0  0  0  0  0  0  0  0  0  0  0
   -2.2137    3.4712    0.9275 N   0  0  0  0  0  0  0  0  0  0  0  0
   -1.5102    2.2327    1.1338 C   0  0  2  0  0  0  0  0  0  0  0  0
   -1.3539    1.5497   -0.2184 C   0  0  0  0  0  0  0  0  0  0  0  0
   -2.0852    1.7861   -1.1778 O   0  0  0  0  0  0  0  0  0  0  0  0
   -2.2477    1.3342    2.1145 C   0  0  0  0  0  0  0  0  0  0  0  0
   -2.6724    3.9052    1.7265 H   0  0  0  0  0  0  0  0  0  0  0  0
   -0.5220    2.4922    1.5290 H   0  0  0  0  0  0  0  0  0  0  0  0
   -3.2400    1.0636    1.7358 H   0  0  0  0  0  0  0  0  0  0  0  0
   -1.6970    0.4046    2.2923 H   0  0  0  0  0  0  0  0  0  0  0  0
   -2.3854    1.8384    3.0772 H   0  0  0  0  0  0  0  0  0  0  0  0
   -0.3283    0.6116   -0.2182 N   0  0  0  0  0  0  0  0  0  0  0  0
    0.0090   -0.1762   -1.3759 C   0  0  2  0  0  0  0  0  0  0  0  0
    0.2016   -1.6166   -0.9186 C   0  0  0  0  0  0  0  0  0  0  0  0
    1.3089   -2.1302   -0.7726 O   0  0  0  0  0  0  0  0  0  0  0  0
    1.2629    0.3436   -2.0741 C   0  0  0  0  0  0  0  0  0  0  0  0
    1.0106    1.6792   -2.7296 C   0  0  0  0  0  0  0  0  0  0  0  0
   -0.0799    2.0374   -3.1551 O   0  0  0  0  0  0  0  0  0  0  0  0
    2.1310    2.4383   -2.8136 O   0  0  0  0  0  0  0  0  0  0  0  0
    0.2381    0.4970    0.6194 H   0  0  0  0  0  0  0  0  0  0  0  0
   -0.8596   -0.1284   -2.0436 H   0  0  0  0  0  0  0  0  0  0  0  0
    2.0807    0.4951   -1.3584 H   0  0  0  0  0  0  0  0  0  0  0  0
    1.6490   -0.3624   -2.8193 H   0  0  0  0  0  0  0  0  0  0  0  0
    2.0088    3.3105   -3.2460 H   0  0  0  0  0  0  0  0  0  0  0  0
   -1.0057   -2.2450   -0.6473 N   0  0  0  0  0  0  0  0  0  0  0  0
   -1.0868   -3.6107   -0.1845 C   0  0  2  0  0  0  0  0  0  0  0  0
   -0.4930   -3.6684    1.2168 C   0  0  0  0  0  0  0  0  0  0  0  0
    0.3001   -2.8322    1.6442 O   0  0  0  0  0  0  0  0  0  0  0  0
   -0.3563   -4.5576   -1.1239 C   0  0  0  0  0  0  0  0  0  0  0  0
   -1.8672   -1.7233   -0.7796 H   0  0  0  0  0  0  0  0  0  0  0  0
   -2.1509   -3.8675   -0.1417 H   0  0  0  0  0  0  0  0  0  0  0  0
    0.7113   -4.3159   -1.1797 H   0  0  0  0  0  0  0  0  0  0  0  0
   -0.4429   -5.5959   -0.7870 H   0  0  0  0  0  0  0  0  0  0  0  0
   -0.7652   -4.4929   -2.1380 H   0  0  0  0  0  0  0  0  0  0  0  0
   -0.9194   -4.7872    1.9186 N   0  0  0  0  0  0  0  0  0  0  0  0
   -0.4864   -5.0740    3.2663 C   0  0  0  0  0  0  0  0  0  0  0  0
   -1.5927   -5.4175    1.4929 H   0  0  0  0  0  0  0  0  0  0  0  0
    0.4001   -5.7246    3.2365 H   0  0  0  0  0  0  0  0  0  0  0  0
   -0.2338   -4.1336    3.7781 H   0  0  0  0  0  0  0  0  0  0  0  0
   -1.2957   -5.5821    3.8111 H   0  0  0  0  0  0  0  0  0  0  0  0
  1  3  1  0  0  0  0
  1  7  1  0  0  0  0
  1  2  2  0  0  0  0
 31 32  1  0  0  0  0
 32 40  1  0  0  0  0
 32 33  2  0  0  0  0
  8  9  1  0  0  0  0
  9 17  1  0  0  0  0
  9 10  2  0  0  0  0
 18 19  1  0  0  0  0
 19 30  1  0  0  0  0
 19 20  2  0  0  0  0
 21 22  1  0  0  0  0
 22 23  2  0  0  0  0
 22 24  1  0  0  0  0
 31 34  1  0  0  0  0
  8 11  1  0  0  0  0
 40 41  1  0  0  0  0
 18 21  1  0  0  0  0
 30 31  1  0  0  0  0
  7  8  1  0  0  0  0
 17 18  1  0  0  0  0
  3  4  1  0  0  0  0
  3  5  1  0  0  0  0
  3  6  1  0  0  0  0
 34 37  1  0  0  0  0
 34 38  1  0  0  0  0
 34 39  1  0  0  0  0
 11 14  1  0  0  0  0
 11 15  1  0  0  0  0
 11 16  1  0  0  0  0
 41 43  1  0  0  0  0
 41 44  1  0  0  0  0
 41 45  1  0  0  0  0
 21 27  1  0  0  0  0
 21 28  1  0  0  0  0
 31 36  1  0  0  0  0
  8 13  1  0  0  0  0
 18 26  1  0  0  0  0
 40 42  1  0  0  0  0
  7 12  1  0  0  0  0
 30 35  1  0  0  0  0
 17 25  1  0  0  0  0
 24 29  1  0  0  0  0
M  END
$$$$

  -OEChem-05262214473D

 45 44  0     1  0  0  0  0  0999 V2000
   -2.2987    4.1032   -0.3022 C   0  0  0  0  0  0  0  0  0  0  0  0
   -1.8049    3.7117   -1.3532 O   0  0  0  0  0  0  0  0  0  0  0  0
   -3.0791    5.3755   -0.2846 C   0  0  0  0  0  0  0  0  0  0  0  0
   -2.4478    6.2532   -0.0717 H   0  0  0  0  0  0  0  0  0  0  0  0
   -3.5571    5.5891   -1.2541 H   0  0  0  0  0  0  0  0  0  0  0  0
   -3.8940    5.4184    0.4556 H   0  0  0  0  0  0  0  0  0  0  0  0
   -2.2137    3.4712    0.9275 N   0  0  0  0  0  0  0  0  0  0  0  0
   -1.5102    2.2327    1.1338 C   0  0  2  0  0  0  0  0  0  0  0  0
   -1.3539    1.5497   -0.2184 C   0  0  0  0  0  0  0  0  0  0  0  0
   -2.0852    1.7861   -1.1778 O   0  0  0  0  0  0  0  0  0  0  0  0
   -2.2477    1.3342    2.1145 C   0  0  0  0  0  0  0  0  0  0  0  0
   -2.6724    3.9052    1.7265 H   0  0  0  0  0  0  0  0  0  0  0  0
   -0.5220    2.4922    1.5290 H   0  0  0  0  0  0  0  0  0  0  0  0
   -3.2400    1.0636    1.7358 H   0  0  0  0  0  0  0  0  0  0  0  0
   -1.6970    0.4046    2.2923 H   0  0  0  0  0  0  0  0  0  0  0  0
   -2.3854    1.8384    3.0772 H   0  0  0  0  0  0  0  0  0  0  0  0
   -0.3283    0.6116   -0.2182 N   0  0  0  0  0  0  0  0  0  0  0  0
    0.0090   -0.1762   -1.3759 C   0  0  2  0  0  0  0  0  0  0  0  0
    0.2016   -1.6166   -0.9186 C   0  0  0  0  0  0  0  0  0  0  0  0
    1.2782   -2.0530   -0.5166 O   0  0  0  0  0  0  0  0  0  0  0  0
    1.2629    0.3436   -2.0741 C   0  0  0  0  0  0  0  0  0  0  0  0
    1.0106    1.6792   -2.7296 C   0  0  0  0  0  0  0  0  0  0  0  0
   -0.0799    2.0374   -3.1551 O   0  0  0  0  0  0  0  0  0  0  0  0
    2.1310    2.4383   -2.8136 O   0  0  0  0  0  0  0  0  0  0  0  0
    0.2381    0.4970    0.6194 H   0  0  0  0  0  0  0  0  0  0  0  0
   -0.8596   -0.1284   -2.0436 H   0  0  0  0  0  0  0  0  0  0  0  0
    2.0807    0.4951   -1.3584 H   0  0  0  0  0  0  0  0  0  0  0  0
    1.6490   -0.3624   -2.8193 H   0  0  0  0  0  0  0  0  0  0  0  0
    2.0088    3.3105   -3.2460 H   0  0  0  0  0  0  0  0  0  0  0  0
   -0.9799   -2.3431   -0.9672 N   0  0  0  0  0  0  0  0  0  0  0  0
   -1.0593   -3.7295   -0.5702 C   0  0  2  0  0  0  0  0  0  0  0  0
   -0.8217   -3.8027    0.9324 C   0  0  0  0  0  0  0  0  0  0  0  0
   -0.2276   -2.9292    1.5609 O   0  0  0  0  0  0  0  0  0  0  0  0
   -0.0472   -4.5793   -1.3226 C   0  0  0  0  0  0  0  0  0  0  0  0
   -1.8229   -1.8811   -1.2953 H   0  0  0  0  0  0  0  0  0  0  0  0
   -2.0772   -4.0654   -0.7964 H   0  0  0  0  0  0  0  0  0  0  0  0
    0.9785   -4.2575   -1.1084 H   0  0  0  0  0  0  0  0  0  0  0  0
   -0.1281   -5.6345   -1.0413 H   0  0  0  0  0  0  0  0  0  0  0  0
   -0.2008   -4.5020   -2.4043 H   0  0  0  0  0  0  0  0  0  0  0  0
   -1.3133   -4.9786    1.4818 N   0  0  0  0  0  0  0  0  0  0  0  0
   -1.1993   -5.2896    2.8876 C   0  0  0  0  0  0  0  0  0  0  0  0
   -1.8088   -5.6381    0.8891 H   0  0  0  0  0  0  0  0  0  0  0  0
   -0.2821   -5.8713    3.0618 H   0  0  0  0  0  0  0  0  0  0  0  0
   -1.1567   -4.3557    3.4673 H   0  0  0  0  0  0  0  0  0  0  0  0
   -2.0726   -5.8784    3.2047 H   0  0  0  0  0  0  0  0  0  0  0  0
  1  3  1  0  0  0  0
  1  7  1  0  0  0  0
  1  2  2  0  0  0  0
 31 32  1  0  0  0  0
 32 40  1  0  0  0  0
 32 33  2  0  0  0  0
  8  9  1  0  0  0  0
  9 17  1  0  0  0  0
  9 10  2  0  0  0  0
 18 19  1  0  0  0  0
 19 30  1  0  0  0  0
 19 20  2  0  0  0  0
 21 22  1  0  0  0  0
 22 23  2  0  0  0  0
 22 24  1  0  0  0  0
 31 34  1  0  0  0  0
  8 11  1  0  0  0  0
 40 41  1  0  0  0  0
 18 21  1  0  0  0  0
 30 31  1  0  0  0  0
  7  8  1  0  0  0  0
 17 18  1  0  0  0  0
  3  4  1  0  0  0  0
  3  5  1  0  0  0  0
  3  6  1  0  0  0  0
 34 37  1  0  0  0  0
 34 38  1  0  0  0  0
 34 39  1  0  0  0  0
 11 14  1  0  0  0  0
 11 15  1  0  0  0  0
 11 16  1  0  0  0  0
 41 43  1  0  0  0  0
 41 44  1  0  0  0  0
 41 45  1  0  0  0  0
 21 27  1  0  0  0  0
 21 28  1  0  0  0  0
 31 36  1  0  0  0  0
  8 13  1  0  0  0  0
 18 26  1  0  0  0  0
 40 42  1  0  0  0  0
  7 12  1  0  0  0  0
 30 35  1  0  0  0  0
 17 25  1  0  0  0  0
 24 29  1  0  0  0  0
M  END
$$$$

  -OEChem-05262214473D

 45 44  0     1  0  0  0  0  0999 V2000
   -2.2987    4.1032   -0.3022 C   0  0  0  0  0  0  0  0  0  0  0  0
   -1.8049    3.7117   -1.3532 O   0  0  0  0  0  0  0  0  0  0  0  0
   -3.0791    5.3755   -0.2846 C   0  0  0  0  0  0  0  0  0  0  0  0
   -2.4478    6.2532   -0.0717 H   0  0  0  0  0  0  0  0  0  0  0  0
   -3.5571    5.5891   -1.2541 H   0  0  0  0  0  0  0  0  0  0  0  0
   -3.8940    5.4184    0.4556 H   0  0  0  0  0  0  0  0  0  0  0  0
   -2.2137    3.4712    0.9275 N   0  0  0  0  0  0  0  0  0  0  0  0
   -1.5102    2.2327    1.1338 C   0  0  2  0  0  0  0  0  0  0  0  0
   -1.3539    1.5497   -0.2184 C   0  0  0  0  0  0  0  0  0  0  0  0
   -2.0852    1.7861   -1.1778 O   0  0  0  0  0  0  0  0  0  0  0  0
   -2.2477    1.3342    2.1145 C   0  0  0  0  0  0  0  0  0  0  0  0
   -2.6724    3.9052    1.7265 H   0  0  0  0  0  0  0  0  0  0  0  0
   -0.5220    2.4922    1.5290 H   0  0  0  0  0  0  0  0  0  0  0  0
   -3.2400    1.0636    1.7358 H   0  0  0  0  0  0  0  0  0  0  0  0
   -1.6970    0.4046    2.2923 H   0  0  0  0  0  0  0  0  0  0  0  0
   -2.3854    1.8384    3.0772 H   0  0  0  0  0  0  0  0  0  0  0  0
   -0.3283    0.6116   -0.2182 N   0  0  0  0  0  0  0  0  0  0  0  0
    0.0090   -0.1762   -1.3759 C   0  0  2  0  0  0  0  0  0  0  0  0
    0.2016   -1.6166   -0.9186 C   0  0  0  0  0  0  0  0  0  0  0  0
    1.1800   -1.9893   -0.2742 O   0  0  0  0  0  0  0  0  0  0  0  0
    1.2629    0.3436   -2.0741 C   0  0  0  0  0  0  0  0  0  0  0  0
    1.0106    1.6792   -2.7296 C   0  0  0  0  0  0  0  0  0  0  0  0
   -0.0799    2.0374   -3.1551 O   0  0  0  0  0  0  0  0  0  0  0  0
    2.1310    2.4383   -2.8136 O   0  0  0  0  0  0  0  0  0  0  0  0
    0.2381    0.4970    0.6194 H   0  0  0  0  0  0  0  0  0  0  0  0
   -0.8596   -0.1284   -2.0436 H   0  0  0  0  0  0  0  0  0  0  0  0
    2.0807    0.4951   -1.3584 H   0  0  0  0  0  0  0  0  0  0  0  0
    1.6490   -0.3624   -2.8193 H   0  0  0  0  0  0  0  0  0  0  0  0
    2.0088    3.3105   -3.2460 H   0  0  0  0  0  0  0  0  0  0  0  0
   -0.8691   -2.4254   -1.2731 N   0  0  0  0  0  0  0  0  0  0  0  0
   -0.9291   -3.8294   -0.9399 C   0  0  2  0  0  0  0  0  0  0  0  0
   -1.0593   -3.9486    0.5728 C   0  0  0  0  0  0  0  0  0  0  0  0
   -0.7095   -3.0611    1.3482 O   0  0  0  0  0  0  0  0  0  0  0  0
    0.3016   -4.5698   -1.4396 C   0  0  0  0  0  0  0  0  0  0  0  0
   -1.6418   -2.0132   -1.7878 H   0  0  0  0  0  0  0  0  0  0  0  0
   -1.8303   -4.2295   -1.4172 H   0  0  0  0  0  0  0  0  0  0  0  0
    1.2145   -4.1828   -0.9723 H   0  0  0  0  0  0  0  0  0  0  0  0
    0.2413   -5.6391   -1.2113 H   0  0  0  0  0  0  0  0  0  0  0  0
    0.4102   -4.4582   -2.5238 H   0  0  0  0  0  0  0  0  0  0  0  0
   -1.5719   -5.1797    0.9572 N   0  0  0  0  0  0  0  0  0  0  0  0
   -1.7786   -5.5408    2.3403 C   0  0  0  0  0  0  0  0  0  0  0  0
   -1.8527   -5.8482    0.2458 H   0  0  0  0  0  0  0  0  0  0  0  0
   -0.8870   -6.0603    2.7213 H   0  0  0  0  0  0  0  0  0  0  0  0
   -1.9548   -4.6317    2.9340 H   0  0  0  0  0  0  0  0  0  0  0  0
   -2.6516   -6.2052    2.4191 H   0  0  0  0  0  0  0  0  0  0  0  0
  1  3  1  0  0  0  0
  1  7  1  0  0  0  0
  1  2  2  0  0  0  0
 31 32  1  0  0  0  0
 32 40  1  0  0  0  0
 32 33  2  0  0  0  0
  8  9  1  0  0  0  0
  9 17  1  0  0  0  0
  9 10  2  0  0  0  0
 18 19  1  0  0  0  0
 19 30  1  0  0  0  0
 19 20  2  0  0  0  0
 21 22  1  0  0  0  0
 22 23  2  0  0  0  0
 22 24  1  0  0  0  0
 31 34  1  0  0  0  0
  8 11  1  0  0  0  0
 40 41  1  0  0  0  0
 18 21  1  0  0  0  0
 30 31  1  0  0  0  0
  7  8  1  0  0  0  0
 17 18  1  0  0  0  0
  3  4  1  0  0  0  0
  3  5  1  0  0  0  0
  3  6  1  0  0  0  0
 34 37  1  0  0  0  0
 34 38  1  0  0  0  0
 34 39  1  0  0  0  0
 11 14  1  0  0  0  0
 11 15  1  0  0  0  0
 11 16  1  0  0  0  0
 41 43  1  0  0  0  0
 41 44  1  0  0  0  0
 41 45  1  0  0  0  0
 21 27  1  0  0  0  0
 21 28  1  0  0  0  0
 31 36  1  0  0  0  0
  8 13  1  0  0  0  0
 18 26  1  0  0  0  0
 40 42  1  0  0  0  0
  7 12  1  0  0  0  0
 30 35  1  0  0  0  0
 17 25  1  0  0  0  0
 24 29  1  0  0  0  0
M  END
$$$$

  -OEChem-05262214473D

 45 44  0     1  0  0  0  0  0999 V2000
   -2.2987    4.1032   -0.3022 C   0  0  0  0  0  0  0  0  0  0  0  0
   -1.8049    3.7117   -1.3532 O   0  0  0  0  0  0  0  0  0  0  0  0
   -3.0791    5.3755   -0.2846 C   0  0  0  0  0  0  0  0  0  0  0  0
   -2.4478    6.2532   -0.0717 H   0  0  0  0  0  0  0  0  0  0  0  0
   -3.5571    5.5891   -1.2541 H   0  0  0  0  0  0  0  0  0  0  0  0
   -3.8940    5.4184    0.4556 H   0  0  0  0  0  0  0  0  0  0  0  0
   -2.2137    3.4712    0.9275 N   0  0  0  0  0  0  0  0  0  0  0  0
   -1.5102    2.2327    1.1338 C   0  0  2  0  0  0  0  0  0  0  0  0
   -1.3539    1.5497   -0.2184 C   0  0  0  0  0  0  0  0  0  0  0  0
   -2.0852    1.7861   -1.1778 O   0  0  0  0  0  0  0  0  0  0  0  0
   -2.2477    1.3342    2.1145 C   0  0  0  0  0  0  0  0  0  0  0  0
   -2.6724    3.9052    1.7265 H   0  0  0  0  0  0  0  0  0  0  0  0
   -0.5220    2.4922    1.5290 H   0  0  0  0  0  0  0  0  0  0  0  0
   -3.2400    1.0636    1.7358 H   0  0  0  0  0  0  0  0  0  0  0  0
   -1.6970    0.4046    2.2923 H   0  0  0  0  0  0  0  0  0  0  0  0
   -2.3854    1.8384    3.0772 H   0  0  0  0  0  0  0  0  0  0  0  0
   -0.3283    0.6116   -0.2182 N   0  0  0  0  0  0  0  0  0  0  0  0
    0.0090   -0.1762   -1.3759 C   0  0  2  0  0  0  0  0  0  0  0  0
    0.2016   -1.6166   -0.9186 C   0  0  0  0  0  0  0  0  0  0  0  0
    1.0208   -1.9432   -0.0621 O   0  0  0  0  0  0  0  0  0  0  0  0
    1.2629    0.3436   -2.0741 C   0  0  0  0  0  0  0  0  0  0  0  0
    1.0106    1.6792   -2.7296 C   0  0  0  0  0  0  0  0  0  0  0  0
   -0.0799    2.0374   -3.1551 O   0  0  0  0  0  0  0  0  0  0  0  0
    2.1310    2.4383   -2.8136 O   0  0  0  0  0  0  0  0  0  0  0  0
    0.2381    0.4970    0.6194 H   0  0  0  0  0  0  0  0  0  0  0  0
   -0.8596   -0.1284   -2.0436 H   0  0  0  0  0  0  0  0  0  0  0  0
    2.0807    0.4951   -1.3584 H   0  0  0  0  0  0  0  0  0  0  0  0
    1.6490   -0.3624   -2.8193 H   0  0  0  0  0  0  0  0  0  0  0  0
    2.0088    3.3105   -3.2460 H   0  0  0  0  0  0  0  0  0  0  0  0
   -0.6808   -2.4862   -1.5442 N   0  0  0  0  0  0  0  0  0  0  0  0
   -0.7051   -3.9037   -1.2684 C   0  0  2  0  0  0  0  0  0  0  0  0
   -1.1894   -4.0962    0.1627 C   0  0  0  0  0  0  0  0  0  0  0  0
   -1.1126   -3.2191    1.0205 O   0  0  0  0  0  0  0  0  0  0  0  0
    0.6665   -4.5297   -1.4669 C   0  0  0  0  0  0  0  0  0  0  0  0
   -1.3360   -2.1106   -2.2234 H   0  0  0  0  0  0  0  0  0  0  0  0
   -1.4272   -4.3485   -1.9618 H   0  0  0  0  0  0  0  0  0  0  0  0
    1.4034   -4.0967   -0.7807 H   0  0  0  0  0  0  0  0  0  0  0  0
    0.6401   -5.6092   -1.2852 H   0  0  0  0  0  0  0  0  0  0  0  0
    1.0262   -4.3645   -2.4882 H   0  0  0  0  0  0  0  0  0  0  0  0
   -1.6778   -5.3769    0.3806 N   0  0  0  0  0  0  0  0  0  0  0  0
   -2.1846   -5.8105    1.6616 C   0  0  0  0  0  0  0  0  0  0  0  0
   -1.7213   -6.0335   -0.3932 H   0  0  0  0  0  0  0  0  0  0  0  0
   -1.3732   -6.2787    2.2382 H   0  0  0  0  0  0  0  0  0  0  0  0
   -2.5738   -4.9429    2.2146 H   0  0  0  0  0  0  0  0  0  0  0  0
   -2.9933   -6.5402    1.5079 H   0  0  0  0  0  0  0  0  0  0  0  0
  1  3  1  0  0  0  0
  1  7  1  0  0  0  0
  1  2  2  0  0  0  0
 31 32  1  0  0  0  0
 32 40  1  0  0  0  0
 32 33  2  0  0  0  0
  8  9  1  0  0  0  0
  9 17  1  0  0  0  0
  9 10  2  0  0  0  0
 18 19  1  0  0  0  0
 19 30  1  0  0  0  0
 19 20  2  0  0  0  0
 21 22  1  0  0  0  0
 22 23  2  0  0  0  0
 22 24  1  0  0  0  0
 31 34  1  0  0  0  0
  8 11  1  0  0  0  0
 40 41  1  0  0  0  0
 18 21  1  0  0  0  0
 30 31  1  0  0  0  0
  7  8  1  0  0  0  0
 17 18  1  0  0  0  0
  3  4  1  0  0  0  0
  3  5  1  0  0  0  0
  3  6  1  0  0  0  0
 34 37  1  0  0  0  0
 34 38  1  0  0  0  0
 34 39  1  0  0  0  0
 11 14  1  0  0  0  0
 11 15  1  0  0  0  0
 11 16  1  0  0  0  0
 41 43  1  0  0  0  0
 41 44  1  0  0  0  0
 41 45  1  0  0  0  0
 21 27  1  0  0  0  0
 21 28  1  0  0  0  0
 31 36  1  0  0  0  0
  8 13  1  0  0  0  0
 18 26  1  0  0  0  0
 40 42  1  0  0  0  0
  7 12  1  0  0  0  0
 30 35  1  0  0  0  0
 17 25  1  0  0  0  0
 24 29  1  0  0  0  0
M  END
$$$$

  -OEChem-05262214473D

 45 44  0     1  0  0  0  0  0999 V2000
   -2.2987    4.1032   -0.3022 C   0  0  0  0  0  0  0  0  0  0  0  0
   -1.8049    3.7117   -1.3532 O   0  0  0  0  0  0  0  0  0  0  0  0
   -3.0791    5.3755   -0.2846 C   0  0  0  0  0  0  0  0  0  0  0  0
   -2.4478    6.2532   -0.0717 H   0  0  0  0  0  0  0  0  0  0  0  0
   -3.5571    5.5891   -1.2541 H   0  0  0  0  0  0  0  0  0  0  0  0
   -3.8940    5.4184    0.4556 H   0  0  0  0  0  0  0  0  0  0  0  0
   -2.2137    3.4712    0.9275 N   0  0  0  0  0  0  0  0  0  0  0  0
   -1.5102    2.2327    1.1338 C   0  0  2  0  0  0  0  0  0  0  0  0
   -1.3539    1.5497   -0.2184 C   0  0  0  0  0  0  0  0  0  0  0  0
   -2.0852    1.7861   -1.1778 O   0  0  0  0  0  0  0  0  0  0  0  0
   -2.2477    1.3342    2.1145 C   0  0  0  0  0  0  0  0  0  0  0  0
   -2.6724    3.9052    1.7265 H   0  0  0  0  0  0  0  0  0  0  0  0
   -0.5220    2.4922    1.5290 H   0  0  0  0  0  0  0  0  0  0  0  0
   -3.2400    1.0636    1.7358 H   0  0  0  0  0  0  0  0  0  0  0  0
   -1.6970    0.4046    2.2923 H   0  0  0  0  0  0  0  0  0  0  0  0
   -2.3854    1.8384    3.0772 H   0  0  0  0  0  0  0  0  0  0  0  0
   -0.3283    0.6116   -0.2182 N   0  0  0  0  0  0  0  0  0  0  0  0
    0.0090   -0.1762   -1.3759 C   0  0  2  0  0  0  0  0  0  0  0  0
    0.2016   -1.6166   -0.9186 C   0  0  0  0  0  0  0  0  0  0  0  0
    0.8115   -1.9181    0.1053 O   0  0  0  0  0  0  0  0  0  0  0  0
    1.2629    0.3436   -2.0741 C   0  0  0  0  0  0  0  0  0  0  0  0
    1.0106    1.6792   -2.7296 C   0  0  0  0  0  0  0  0  0  0  0  0
   -0.0799    2.0374   -3.1551 O   0  0  0  0  0  0  0  0  0  0  0  0
    2.1310    2.4383   -2.8136 O   0  0  0  0  0  0  0  0  0  0  0  0
    0.2381    0.4970    0.6194 H   0  0  0  0  0  0  0  0  0  0  0  0
   -0.8596   -0.1284   -2.0436 H   0  0  0  0  0  0  0  0  0  0  0  0
    2.0807    0.4951   -1.3584 H   0  0  0  0  0  0  0  0  0  0  0  0
    1.6490   -0.3624   -2.8193 H   0  0  0  0  0  0  0  0  0  0  0  0
    2.0088    3.3105   -3.2460 H   0  0  0  0  0  0  0  0  0  0  0  0
   -0.4278   -2.5215   -1.7619 N   0  0  0  0  0  0  0  0  0  0  0  0
   -0.4026   -3.9474   -1.5334 C   0  0  2  0  0  0  0  0  0  0  0  0
   -1.2033   -4.2355   -0.2702 C   0  0  0  0  0  0  0  0  0  0  0  0
   -1.4096   -3.3922    0.6001 O   0  0  0  0  0  0  0  0  0  0  0  0
    1.0225   -4.4617   -1.4027 C   0  0  0  0  0  0  0  0  0  0  0  0
   -0.9264   -2.1666   -2.5726 H   0  0  0  0  0  0  0  0  0  0  0  0
   -0.8953   -4.4143   -2.3932 H   0  0  0  0  0  0  0  0  0  0  0  0
    1.5323   -4.0051   -0.5465 H   0  0  0  0  0  0  0  0  0  0  0  0
    1.0410   -5.5470   -1.2580 H   0  0  0  0  0  0  0  0  0  0  0  0
    1.6053   -4.2274   -2.3001 H   0  0  0  0  0  0  0  0  0  0  0  0
   -1.6236   -5.5567   -0.2087 N   0  0  0  0  0  0  0  0  0  0  0  0
   -2.3898   -6.0804    0.8979 C   0  0  0  0  0  0  0  0  0  0  0  0
   -1.4236   -6.1813   -0.9844 H   0  0  0  0  0  0  0  0  0  0  0  0
   -1.7077   -6.5116    1.6454 H   0  0  0  0  0  0  0  0  0  0  0  0
   -2.9715   -5.2680    1.3580 H   0  0  0  0  0  0  0  0  0  0  0  0
   -3.0743   -6.8604    0.5332 H   0  0  0  0  0  0  0  0  0  0  0  0
  1  3  1  0  0  0  0
  1  7  1  0  0  0  0
  1  2  2  0  0  0  0
 31 32  1  0  0  0  0
 32 40  1  0  0  0  0
 32 33  2  0  0  0  0
  8  9  1  0  0  0  0
  9 17  1  0  0  0  0
  9 10  2  0  0  0  0
 18 19  1  0  0  0  0
 19 30  1  0  0  0  0
 19 20  2  0  0  0  0
 21 22  1  0  0  0  0
 22 23  2  0  0  0  0
 22 24  1  0  0  0  0
 31 34  1  0  0  0  0
  8 11  1  0  0  0  0
 40 41  1  0  0  0  0
 18 21  1  0  0  0  0
 30 31  1  0  0  0  0
  7  8  1  0  0  0  0
 17 18  1  0  0  0  0
  3  4  1  0  0  0  0
  3  5  1  0  0  0  0
  3  6  1  0  0  0  0
 34 37  1  0  0  0  0
 34 38  1  0  0  0  0
 34 39  1  0  0  0  0
 11 14  1  0  0  0  0
 11 15  1  0  0  0  0
 11 16  1  0  0  0  0
 41 43  1  0  0  0  0
 41 44  1  0  0  0  0
 41 45  1  0  0  0  0
 21 27  1  0  0  0  0
 21 28  1  0  0  0  0
 31 36  1  0  0  0  0
  8 13  1  0  0  0  0
 18 26  1  0  0  0  0
 40 42  1  0  0  0  0
  7 12  1  0  0  0  0
 30 35  1  0  0  0  0
 17 25  1  0  0  0  0
 24 29  1  0  0  0  0
M  END
$$$$

  -OEChem-05262214473D

 45 44  0     1  0  0  0  0  0999 V2000
   -2.2987    4.1032   -0.3022 C   0  0  0  0  0  0  0  0  0  0  0  0
   -1.8049    3.7117   -1.3532 O   0  0  0  0  0  0  0  0  0  0  0  0
   -3.0791    5.3755   -0.2846 C   0  0  0  0  0  0  0  0  0  0  0  0
   -2.4478    6.2532   -0.0717 H   0  0  0  0  0  0  0  0  0  0  0  0
   -3.5571    5.5891   -1.2541 H   0  0  0  0  0  0  0  0  0  0  0  0
   -3.8940    5.4184    0.4556 H   0  0  0  0  0  0  0  0  0  0  0  0
   -2.2137    3.4712    0.9275 N   0  0  0  0  0  0  0  0  0  0  0  0
   -1.5102    2.2327    1.1338 C   0  0  2  0  0  0  0  0  0  0  0  0
   -1.3539    1.5497   -0.2184 C   0  0  0  0  0  0  0  0  0  0  0  0
   -2.0852    1.7861   -1.1778 O   0  0  0  0  0  0  0  0  0  0  0  0
   -2.2477    1.3342    2.1145 C   0  0  0  0  0  0  0  0  0  0  0  0
   -2.6724    3.9052    1.7265 H   0  0  0  0  0  0  0  0  0  0  0  0
   -0.5220    2.4922    1.5290 H   0  0  0  0  0  0  0  0  0  0  0  0
   -3.2400    1.0636    1.7358 H   0  0  0  0  0  0  0  0  0  0  0  0
   -1.6970    0.4046    2.2923 H   0  0  0  0  0  0  0  0  0  0  0  0
   -2.3854    1.8384    3.0772 H   0  0  0  0  0  0  0  0  0  0  0  0
   -0.3283    0.6116   -0.2182 N   0  0  0  0  0  0  0  0  0  0  0  0
    0.0090   -0.1762   -1.3759 C   0  0  2  0  0  0  0  0  0  0  0  0
    0.2016   -1.6166   -0.9186 C   0  0  0  0  0  0  0  0  0  0  0  0
    0.5665   -1.9155    0.2166 O   0  0  0  0  0  0  0  0  0  0  0  0
    1.2629    0.3436   -2.0741 C   0  0  0  0  0  0  0  0  0  0  0  0
    1.0106    1.6792   -2.7296 C   0  0  0  0  0  0  0  0  0  0  0  0
   -0.0799    2.0374   -3.1551 O   0  0  0  0  0  0  0  0  0  0  0  0
    2.1310    2.4383   -2.8136 O   0  0  0  0  0  0  0  0  0  0  0  0
    0.2381    0.4970    0.6194 H   0  0  0  0  0  0  0  0  0  0  0  0
   -0.8596   -0.1284   -2.0436 H   0  0  0  0  0  0  0  0  0  0  0  0
    2.0807    0.4951   -1.3584 H   0  0  0  0  0  0  0  0  0  0  0  0
    1.6490   -0.3624   -2.8193 H   0  0  0  0  0  0  0  0  0  0  0  0
    2.0088    3.3105   -3.2460 H   0  0  0  0  0  0  0  0  0  0  0  0
   -0.1275   -2.5288   -1.9115 N   0  0  0  0  0  0  0  0  0  0  0  0
   -0.0422   -3.9574   -1.7167 C   0  0  2  0  0  0  0  0  0  0  0  0
   -1.0999   -4.3569   -0.6963 C   0  0  0  0  0  0  0  0  0  0  0  0
   -1.5801   -3.5688    0.1157 O   0  0  0  0  0  0  0  0  0  0  0  0
    1.3454   -4.3705   -1.2513 C   0  0  0  0  0  0  0  0  0  0  0  0
   -0.4410   -2.1776   -2.8115 H   0  0  0  0  0  0  0  0  0  0  0  0
   -0.2709   -4.4224   -2.6818 H   0  0  0  0  0  0  0  0  0  0  0  0
    1.5924   -3.9143   -0.2857 H   0  0  0  0  0  0  0  0  0  0  0  0
    1.4168   -5.4566   -1.1316 H   0  0  0  0  0  0  0  0  0  0  0  0
    2.1079   -4.0561   -1.9721 H   0  0  0  0  0  0  0  0  0  0  0  0
   -1.4131   -5.7069   -0.7706 N   0  0  0  0  0  0  0  0  0  0  0  0
   -2.3802   -6.3320    0.1012 C   0  0  0  0  0  0  0  0  0  0  0  0
   -0.9799   -6.2816   -1.4874 H   0  0  0  0  0  0  0  0  0  0  0  0
   -1.8676   -6.7431    0.9834 H   0  0  0  0  0  0  0  0  0  0  0  0
   -3.1208   -5.5848    0.4226 H   0  0  0  0  0  0  0  0  0  0  0  0
   -2.8892   -7.1441   -0.4386 H   0  0  0  0  0  0  0  0  0  0  0  0
  1  3  1  0  0  0  0
  1  7  1  0  0  0  0
  1  2  2  0  0  0  0
 31 32  1  0  0  0  0
 32 40  1  0  0  0  0
 32 33  2  0  0  0  0
  8  9  1  0  0  0  0
  9 17  1  0  0  0  0
  9 10  2  0  0  0  0
 18 19  1  0  0  0  0
 19 30  1  0  0  0  0
 19 20  2  0  0  0  0
 21 22  1  0  0  0  0
 22 23  2  0  0  0  0
 22 24  1  0  0  0  0
 31 34  1  0  0  0  0
  8 11  1  0  0  0  0
 40 41  1  0  0  0  0
 18 21  1  0  0  0  0
 30 31  1  0  0  0  0
  7  8  1  0  0  0  0
 17 18  1  0  0  0  0
  3  4  1  0  0  0  0
  3  5  1  0  0  0  0
  3  6  1  0  0  0  0
 34 37  1  0  0  0  0
 34 38  1  0  0  0  0
 34 39  1  0  0  0  0
 11 14  1  0  0  0  0
 11 15  1  0  0  0  0
 11 16  1  0  0  0  0
 41 43  1  0  0  0  0
 41 44  1  0  0  0  0
 41 45  1  0  0  0  0
 21 27  1  0  0  0  0
 21 28  1  0  0  0  0
 31 36  1  0  0  0  0
  8 13  1  0  0  0  0
 18 26  1  0  0  0  0
 40 42  1  0  0  0  0
  7 12  1  0  0  0  0
 30 35  1  0  0  0  0
 17 25  1  0  0  0  0
 24 29  1  0  0  0  0
M  END
$$$$

  -OEChem-05262214473D

 45 44  0     1  0  0  0  0  0999 V2000
   -2.2987    4.1032   -0.3022 C   0  0  0  0  0  0  0  0  0  0  0  0
   -1.8049    3.7117   -1.3532 O   0  0  0  0  0  0  0  0  0  0  0  0
   -3.0791    5.3755   -0.2846 C   0  0  0  0  0  0  0  0  0  0  0  0
   -2.4478    6.2532   -0.0717 H   0  0  0  0  0  0  0  0  0  0  0  0
   -3.5571    5.5891   -1.2541 H   0  0  0  0  0  0  0  0  0  0  0  0
   -3.8940    5.4184    0.4556 H   0  0  0  0  0  0  0  0  0  0  0  0
   -2.2137    3.4712    0.9275 N   0  0  0  0  0  0  0  0  0  0  0  0
   -1.5102    2.2327    1.1338 C   0  0  2  0  0  0  0  0  0  0  0  0
   -1.3539    1.5497   -0.2184 C   0  0  0  0  0  0  0  0  0  0  0  0
   -2.0852    1.7861   -1.1778 O   0  0  0  0  0  0  0  0  0  0  0  0
   -2.2477    1.3342    2.1145 C   0  0  0  0  0  0  0  0  0  0  0  0
   -2.6724    3.9052    1.7265 H   0  0  0  0  0  0  0  0  0  0  0  0
   -0.5220    2.4922    1.5290 H   0  0  0  0  0  0  0  0  0  0  0  0
   -3.2400    1.0636    1.7358 H   0  0  0  0  0  0  0  0  0  0  0  0
   -1.6970    0.4046    2.2923 H   0  0  0  0  0  0  0  0  0  0  0  0
   -2.3854    1.8384    3.0772 H   0  0  0  0  0  0  0  0  0  0  0  0
   -0.3283    0.6116   -0.2182 N   0  0  0  0  0  0  0  0  0  0  0  0
    0.0090   -0.1762   -1.3759 C   0  0  2  0  0  0  0  0  0  0  0  0
    0.2016   -1.6166   -0.9186 C   0  0  0  0  0  0  0  0  0  0  0  0
    0.3023   -1.9357    0.2643 O   0  0  0  0  0  0  0  0  0  0  0  0
    1.2629    0.3436   -2.0741 C   0  0  0  0  0  0  0  0  0  0  0  0
    1.0106    1.6792   -2.7296 C   0  0  0  0  0  0  0  0  0  0  0  0
   -0.0799    2.0374   -3.1551 O   0  0  0  0  0  0  0  0  0  0  0  0
    2.1310    2.4383   -2.8136 O   0  0  0  0  0  0  0  0  0  0  0  0
    0.2381    0.4970    0.6194 H   0  0  0  0  0  0  0  0  0  0  0  0
   -0.8596   -0.1284   -2.0436 H   0  0  0  0  0  0  0  0  0  0  0  0
    2.0807    0.4951   -1.3584 H   0  0  0  0  0  0  0  0  0  0  0  0
    1.6490   -0.3624   -2.8193 H   0  0  0  0  0  0  0  0  0  0  0  0
    2.0088    3.3105   -3.2460 H   0  0  0  0  0  0  0  0  0  0  0  0
    0.1998   -2.5077   -1.9827 N   0  0  0  0  0  0  0  0  0  0  0  0
    0.3516   -3.9330   -1.8059 C   0  0  2  0  0  0  0  0  0  0  0  0
   -0.8864   -4.4522   -1.0866 C   0  0  0  0  0  0  0  0  0  0  0  0
   -1.6125   -3.7367   -0.3997 O   0  0  0  0  0  0  0  0  0  0  0  0
    1.6132   -4.2623   -1.0231 C   0  0  0  0  0  0  0  0  0  0  0  0
    0.0871   -2.1426   -2.9239 H   0  0  0  0  0  0  0  0  0  0  0  0
    0.4035   -4.3723   -2.8081 H   0  0  0  0  0  0  0  0  0  0  0  0
    1.5795   -3.8305   -0.0162 H   0  0  0  0  0  0  0  0  0  0  0  0
    1.7418   -5.3442   -0.9146 H   0  0  0  0  0  0  0  0  0  0  0  0
    2.4999   -3.8623   -1.5268 H   0  0  0  0  0  0  0  0  0  0  0  0
   -1.0606   -5.8173   -1.2667 N   0  0  0  0  0  0  0  0  0  0  0  0
   -2.1564   -6.5482   -0.6743 C   0  0  0  0  0  0  0  0  0  0  0  0
   -0.4205   -6.3276   -1.8680 H   0  0  0  0  0  0  0  0  0  0  0  0
   -1.8421   -6.9575    0.2972 H   0  0  0  0  0  0  0  0  0  0  0  0
   -3.0114   -5.8719   -0.5278 H   0  0  0  0  0  0  0  0  0  0  0  0
   -2.4505   -7.3720   -1.3412 H   0  0  0  0  0  0  0  0  0  0  0  0
  1  3  1  0  0  0  0
  1  7  1  0  0  0  0
  1  2  2  0  0  0  0
 31 32  1  0  0  0  0
 32 40  1  0  0  0  0
 32 33  2  0  0  0  0
  8  9  1  0  0  0  0
  9 17  1  0  0  0  0
  9 10  2  0  0  0  0
 18 19  1  0  0  0  0
 19 30  1  0  0  0  0
 19 20  2  0  0  0  0
 21 22  1  0  0  0  0
 22 23  2  0  0  0  0
 22 24  1  0  0  0  0
 31 34  1  0  0  0  0
  8 11  1  0  0  0  0
 40 41  1  0  0  0  0
 18 21  1  0  0  0  0
 30 31  1  0  0  0  0
  7  8  1  0  0  0  0
 17 18  1  0  0  0  0
  3  4  1  0  0  0  0
  3  5  1  0  0  0  0
  3  6  1  0  0  0  0
 34 37  1  0  0  0  0
 34 38  1  0  0  0  0
 34 39  1  0  0  0  0
 11 14  1  0  0  0  0
 11 15  1  0  0  0  0
 11 16  1  0  0  0  0
 41 43  1  0  0  0  0
 41 44  1  0  0  0  0
 41 45  1  0  0  0  0
 21 27  1  0  0  0  0
 21 28  1  0  0  0  0
 31 36  1  0  0  0  0
  8 13  1  0  0  0  0
 18 26  1  0  0  0  0
 40 42  1  0  0  0  0
  7 12  1  0  0  0  0
 30 35  1  0  0  0  0
 17 25  1  0  0  0  0
 24 29  1  0  0  0  0
M  END
$$$$

  -OEChem-05262214473D

 45 44  0     1  0  0  0  0  0999 V2000
   -2.2987    4.1032   -0.3022 C   0  0  0  0  0  0  0  0  0  0  0  0
   -1.8049    3.7117   -1.3532 O   0  0  0  0  0  0  0  0  0  0  0  0
   -3.0791    5.3755   -0.2846 C   0  0  0  0  0  0  0  0  0  0  0  0
   -2.4478    6.2532   -0.0717 H   0  0  0  0  0  0  0  0  0  0  0  0
   -3.5571    5.5891   -1.2541 H   0  0  0  0  0  0  0  0  0  0  0  0
   -3.8940    5.4184    0.4556 H   0  0  0  0  0  0  0  0  0  0  0  0
   -2.2137    3.4712    0.9275 N   0  0  0  0  0  0  0  0  0  0  0  0
   -1.5102    2.2327    1.1338 C   0  0  2  0  0  0  0  0  0  0  0  0
   -1.3539    1.5497   -0.2184 C   0  0  0  0  0  0  0  0  0  0  0  0
   -2.0852    1.7861   -1.1778 O   0  0  0  0  0  0  0  0  0  0  0  0
   -2.2477    1.3342    2.1145 C   0  0  0  0  0  0  0  0  0  0  0  0
   -2.6724    3.9052    1.7265 H   0  0  0  0  0  0  0  0  0  0  0  0
   -0.5220    2.4922    1.5290 H   0  0  0  0  0  0  0  0  0  0  0  0
   -3.2400    1.0636    1.7358 H   0  0  0  0  0  0  0  0  0  0  0  0
   -1.6970    0.4046    2.2923 H   0  0  0  0  0  0  0  0  0  0  0  0
   -2.3854    1.8384    3.0772 H   0  0  0  0  0  0  0  0  0  0  0  0
   -0.3283    0.6116   -0.2182 N   0  0  0  0  0  0  0  0  0  0  0  0
    0.0090   -0.1762   -1.3759 C   0  0  2  0  0  0  0  0  0  0  0  0
   -0.1656   -1.6440   -1.0070 C   0  0  0  0  0  0  0  0  0  0  0  0
   -0.5705   -2.0142    0.0931 O   0  0  0  0  0  0  0  0  0  0  0  0
    1.4317    0.0967   -1.8570 C   0  0  0  0  0  0  0  0  0  0  0  0
    1.5565    1.4839   -2.4376 C   0  0  0  0  0  0  0  0  0  0  0  0
    0.6371    2.0846   -2.9783 O   0  0  0  0  0  0  0  0  0  0  0  0
    2.8079    1.9908   -2.3118 O   0  0  0  0  0  0  0  0  0  0  0  0
    0.2381    0.4970    0.6194 H   0  0  0  0  0  0  0  0  0  0  0  0
   -0.7231    0.0854   -2.1493 H   0  0  0  0  0  0  0  0  0  0  0  0
    2.1481    0.0382   -1.0279 H   0  0  0  0  0  0  0  0  0  0  0  0
    1.7719   -0.6404   -2.5943 H   0  0  0  0  0  0  0  0  0  0  0  0
    2.9313    2.8878   -2.6896 H   0  0  0  0  0  0  0  0  0  0  0  0
    0.1379   -2.4888   -2.0654 N   0  0  0  0  0  0  0  0  0  0  0  0
    0.0365   -3.9263   -1.9690 C   0  0  2  0  0  0  0  0  0  0  0  0
   -1.4362   -4.2851   -1.8211 C   0  0  0  0  0  0  0  0  0  0  0  0
   -2.2800   -3.4958   -1.4014 O   0  0  0  0  0  0  0  0  0  0  0  0
    0.8465   -4.4609   -0.7982 C   0  0  0  0  0  0  0  0  0  0  0  0
    0.4437   -2.0796   -2.9434 H   0  0  0  0  0  0  0  0  0  0  0  0
    0.4195   -4.3342   -2.9108 H   0  0  0  0  0  0  0  0  0  0  0  0
    0.4774   -4.0631    0.1542 H   0  0  0  0  0  0  0  0  0  0  0  0
    0.7917   -5.5532   -0.7436 H   0  0  0  0  0  0  0  0  0  0  0  0
    1.9002   -4.1765   -0.8911 H   0  0  0  0  0  0  0  0  0  0  0  0
   -1.6900   -5.6036   -2.1719 N   0  0  0  0  0  0  0  0  0  0  0  0
   -3.0091   -6.1881   -2.1053 C   0  0  0  0  0  0  0  0  0  0  0  0
   -0.9334   -6.1806   -2.5275 H   0  0  0  0  0  0  0  0  0  0  0  0
   -3.1476   -6.6712   -1.1269 H   0  0  0  0  0  0  0  0  0  0  0  0
   -3.7659   -5.4006   -2.2357 H   0  0  0  0  0  0  0  0  0  0  0  0
   -3.1186   -6.9376   -2.9030 H   0  0  0  0  0  0  0  0  0  0  0  0
  1  3  1  0  0  0  0
  1  7  1  0  0  0  0
  1  2  2  0  0  0  0
 31 32  1  0  0  0  0
 32 40  1  0  0  0  0
 32 33  2  0  0  0  0
  8  9  1  0  0  0  0
  9 17  1  0  0  0  0
  9 10  2  0  0  0  0
 18 19  1  0  0  0  0
 19 30  1  0  0  0  0
 19 20  2  0  0  0  0
 21 22  1  0  0  0  0
 22 23  2  0  0  0  0
 22 24  1  0  0  0  0
 31 34  1  0  0  0  0
  8 11  1  0  0  0  0
 40 41  1  0  0  0  0
 18 21  1  0  0  0  0
 30 31  1  0  0  0  0
  7  8  1  0  0  0  0
 17 18  1  0  0  0  0
  3  4  1  0  0  0  0
  3  5  1  0  0  0  0
  3  6  1  0  0  0  0
 34 37  1  0  0  0  0
 34 38  1  0  0  0  0
 34 39  1  0  0  0  0
 11 14  1  0  0  0  0
 11 15  1  0  0  0  0
 11 16  1  0  0  0  0
 41 43  1  0  0  0  0
 41 44  1  0  0  0  0
 41 45  1  0  0  0  0
 21 27  1  0  0  0  0
 21 28  1  0  0  0  0
 31 36  1  0  0  0  0
  8 13  1  0  0  0  0
 18 26  1  0  0  0  0
 40 42  1  0  0  0  0
  7 12  1  0  0  0  0
 30 35  1  0  0  0  0
 17 25  1  0  0  0  0
 24 29  1  0  0  0  0
M  END
$$$$

  -OEChem-05262214473D

 45 44  0     1  0  0  0  0  0999 V2000
   -2.2987    4.1032   -0.3022 C   0  0  0  0  0  0  0  0  0  0  0  0
   -1.8049    3.7117   -1.3532 O   0  0  0  0  0  0  0  0  0  0  0  0
   -3.0791    5.3755   -0.2846 C   0  0  0  0  0  0  0  0  0  0  0  0
   -2.4478    6.2532   -0.0717 H   0  0  0  0  0  0  0  0  0  0  0  0
   -3.5571    5.5891   -1.2541 H   0  0  0  0  0  0  0  0  0  0  0  0
   -3.8940    5.4184    0.4556 H   0  0  0  0  0  0  0  0  0  0  0  0
   -2.2137    3.4712    0.9275 N   0  0  0  0  0  0  0  0  0  0  0  0
   -1.5102    2.2327    1.1338 C   0  0  2  0  0  0  0  0  0  0  0  0
   -1.3539    1.5497   -0.2184 C   0  0  0  0  0  0  0  0  0  0  0  0
   -2.0852    1.7861   -1.1778 O   0  0  0  0  0  0  0  0  0  0  0  0
   -2.2477    1.3342    2.1145 C   0  0  0  0  0  0  0  0  0  0  0  0
   -2.6724    3.9052    1.7265 H   0  0  0  0  0  0  0  0  0  0  0  0
   -0.5220    2.4922    1.5290 H   0  0  0  0  0  0  0  0  0  0  0  0
   -3.2400    1.0636    1.7358 H   0  0  0  0  0  0  0  0  0  0  0  0
   -1.6970    0.4046    2.2923 H   0  0  0  0  0  0  0  0  0  0  0  0
   -2.3854    1.8384    3.0772 H   0  0  0  0  0  0  0  0  0  0  0  0
   -0.3283    0.6116   -0.2182 N   0  0  0  0  0  0  0  0  0  0  0  0
    0.0090   -0.1762   -1.3759 C   0  0  2  0  0  0  0  0  0  0  0  0
   -0.1656   -1.6440   -1.0070 C   0  0  0  0  0  0  0  0  0  0  0  0
   -0.8104   -2.0163   -0.0288 O   0  0  0  0  0  0  0  0  0  0  0  0
    1.4317    0.0967   -1.8570 C   0  0  0  0  0  0  0  0  0  0  0  0
    1.5565    1.4839   -2.4376 C   0  0  0  0  0  0  0  0  0  0  0  0
    0.6371    2.0846   -2.9783 O   0  0  0  0  0  0  0  0  0  0  0  0
    2.8079    1.9908   -2.3118 O   0  0  0  0  0  0  0  0  0  0  0  0
    0.2381    0.4970    0.6194 H   0  0  0  0  0  0  0  0  0  0  0  0
   -0.7231    0.0854   -2.1493 H   0  0  0  0  0  0  0  0  0  0  0  0
    2.1481    0.0382   -1.0279 H   0  0  0  0  0  0  0  0  0  0  0  0
    1.7719   -0.6404   -2.5943 H   0  0  0  0  0  0  0  0  0  0  0  0
    2.9313    2.8878   -2.6896 H   0  0  0  0  0  0  0  0  0  0  0  0
    0.4424   -2.4896   -1.9243 N   0  0  0  0  0  0  0  0  0  0  0  0
    0.4050   -3.9282   -1.8021 C   0  0  2  0  0  0  0  0  0  0  0  0
   -1.0341   -4.3807   -2.0113 C   0  0  0  0  0  0  0  0  0  0  0  0
   -2.0011   -3.6402   -1.8444 O   0  0  0  0  0  0  0  0  0  0  0  0
    0.9261   -4.3822   -0.4475 C   0  0  0  0  0  0  0  0  0  0  0  0
    0.9336   -2.0801   -2.7135 H   0  0  0  0  0  0  0  0  0  0  0  0
    1.0349   -4.3301   -2.6032 H   0  0  0  0  0  0  0  0  0  0  0  0
    0.3076   -3.9893    0.3677 H   0  0  0  0  0  0  0  0  0  0  0  0
    0.9238   -5.4743   -0.3672 H   0  0  0  0  0  0  0  0  0  0  0  0
    1.9509   -4.0306   -0.2864 H   0  0  0  0  0  0  0  0  0  0  0  0
   -1.1139   -5.7205   -2.3643 N   0  0  0  0  0  0  0  0  0  0  0  0
   -2.3708   -6.3897   -2.6055 C   0  0  0  0  0  0  0  0  0  0  0  0
   -0.2597   -6.2535   -2.4988 H   0  0  0  0  0  0  0  0  0  0  0  0
   -2.7212   -6.8596   -1.6747 H   0  0  0  0  0  0  0  0  0  0  0  0
   -3.1160   -5.6572   -2.9494 H   0  0  0  0  0  0  0  0  0  0  0  0
   -2.2329   -7.1620   -3.3766 H   0  0  0  0  0  0  0  0  0  0  0  0
  1  3  1  0  0  0  0
  1  7  1  0  0  0  0
  1  2  2  0  0  0  0
 31 32  1  0  0  0  0
 32 40  1  0  0  0  0
 32 33  2  0  0  0  0
  8  9  1  0  0  0  0
  9 17  1  0  0  0  0
  9 10  2  0  0  0  0
 18 19  1  0  0  0  0
 19 30  1  0  0  0  0
 19 20  2  0  0  0  0
 21 22  1  0  0  0  0
 22 23  2  0  0  0  0
 22 24  1  0  0  0  0
 31 34  1  0  0  0  0
  8 11  1  0  0  0  0
 40 41  1  0  0  0  0
 18 21  1  0  0  0  0
 30 31  1  0  0  0  0
  7  8  1  0  0  0  0
 17 18  1  0  0  0  0
  3  4  1  0  0  0  0
  3  5  1  0  0  0  0
  3  6  1  0  0  0  0
 34 37  1  0  0  0  0
 34 38  1  0  0  0  0
 34 39  1  0  0  0  0
 11 14  1  0  0  0  0
 11 15  1  0  0  0  0
 11 16  1  0  0  0  0
 41 43  1  0  0  0  0
 41 44  1  0  0  0  0
 41 45  1  0  0  0  0
 21 27  1  0  0  0  0
 21 28  1  0  0  0  0
 31 36  1  0  0  0  0
  8 13  1  0  0  0  0
 18 26  1  0  0  0  0
 40 42  1  0  0  0  0
  7 12  1  0  0  0  0
 30 35  1  0  0  0  0
 17 25  1  0  0  0  0
 24 29  1  0  0  0  0
M  END
$$$$

  -OEChem-05262214473D

 45 44  0     1  0  0  0  0  0999 V2000
   -2.2987    4.1032   -0.3022 C   0  0  0  0  0  0  0  0  0  0  0  0
   -1.8049    3.7117   -1.3532 O   0  0  0  0  0  0  0  0  0  0  0  0
   -3.0791    5.3755   -0.2846 C   0  0  0  0  0  0  0  0  0  0  0  0
   -2.4478    6.2532   -0.0717 H   0  0  0  0  0  0  0  0  0  0  0  0
   -3.5571    5.5891   -1.2541 H   0  0  0  0  0  0  0  0  0  0  0  0
   -3.8940    5.4184    0.4556 H   0  0  0  0  0  0  0  0  0  0  0  0
   -2.2137    3.4712    0.9275 N   0  0  0  0  0  0  0  0  0  0  0  0
   -1.5102    2.2327    1.1338 C   0  0  2  0  0  0  0  0  0  0  0  0
   -1.3539    1.5497   -0.2184 C   0  0  0  0  0  0  0  0  0  0  0  0
   -2.0852    1.7861   -1.1778 O   0  0  0  0  0  0  0  0  0  0  0  0
   -2.2477    1.3342    2.1145 C   0  0  0  0  0  0  0  0  0  0  0  0
   -2.6724    3.9052    1.7265 H   0  0  0  0  0  0  0  0  0  0  0  0
   -0.5220    2.4922    1.5290 H   0  0  0  0  0  0  0  0  0  0  0  0
   -3.2400    1.0636    1.7358 H   0  0  0  0  0  0  0  0  0  0  0  0
   -1.6970    0.4046    2.2923 H   0  0  0  0  0  0  0  0  0  0  0  0
   -2.3854    1.8384    3.0772 H   0  0  0  0  0  0  0  0  0  0  0  0
   -0.3283    0.6116   -0.2182 N   0  0  0  0  0  0  0  0  0  0  0  0
    0.0090   -0.1762   -1.3759 C   0  0  2  0  0  0  0  0  0  0  0  0
   -0.1656   -1.6440   -1.0070 C   0  0  0  0  0  0  0  0  0  0  0  0
   -1.0117   -2.0370   -0.2064 O   0  0  0  0  0  0  0  0  0  0  0  0
    1.4317    0.0967   -1.8570 C   0  0  0  0  0  0  0  0  0  0  0  0
    1.5565    1.4839   -2.4376 C   0  0  0  0  0  0  0  0  0  0  0  0
    0.6371    2.0846   -2.9783 O   0  0  0  0  0  0  0  0  0  0  0  0
    2.8079    1.9908   -2.3118 O   0  0  0  0  0  0  0  0  0  0  0  0
    0.2381    0.4970    0.6194 H   0  0  0  0  0  0  0  0  0  0  0  0
   -0.7231    0.0854   -2.1493 H   0  0  0  0  0  0  0  0  0  0  0  0
    2.1481    0.0382   -1.0279 H   0  0  0  0  0  0  0  0  0  0  0  0
    1.7719   -0.6404   -2.5943 H   0  0  0  0  0  0  0  0  0  0  0  0
    2.9313    2.8878   -2.6896 H   0  0  0  0  0  0  0  0  0  0  0  0
    0.7014   -2.4671   -1.7121 N   0  0  0  0  0  0  0  0  0  0  0  0
    0.7194   -3.9020   -1.5490 C   0  0  2  0  0  0  0  0  0  0  0  0
   -0.5923   -4.4535   -2.0919 C   0  0  0  0  0  0  0  0  0  0  0  0
   -1.6122   -3.7755   -2.1984 O   0  0  0  0  0  0  0  0  0  0  0  0
    0.9107   -4.2909   -0.0913 C   0  0  0  0  0  0  0  0  0  0  0  0
    1.3494   -2.0431   -2.3694 H   0  0  0  0  0  0  0  0  0  0  0  0
    1.5523   -4.2785   -2.1528 H   0  0  0  0  0  0  0  0  0  0  0  0
    0.0858   -3.9223    0.5293 H   0  0  0  0  0  0  0  0  0  0  0  0
    0.9527   -5.3787    0.0269 H   0  0  0  0  0  0  0  0  0  0  0  0
    1.8400   -3.8685    0.3060 H   0  0  0  0  0  0  0  0  0  0  0  0
   -0.5021   -5.8030   -2.4030 N   0  0  0  0  0  0  0  0  0  0  0  0
   -1.6170   -6.5593   -2.9236 C   0  0  0  0  0  0  0  0  0  0  0  0
    0.3884   -6.2809   -2.3010 H   0  0  0  0  0  0  0  0  0  0  0  0
   -2.1609   -7.0312   -2.0920 H   0  0  0  0  0  0  0  0  0  0  0  0
   -2.2942   -5.8856   -3.4691 H   0  0  0  0  0  0  0  0  0  0  0  0
   -1.2452   -7.3373   -3.6066 H   0  0  0  0  0  0  0  0  0  0  0  0
  1  3  1  0  0  0  0
  1  7  1  0  0  0  0
  1  2  2  0  0  0  0
 31 32  1  0  0  0  0
 32 40  1  0  0  0  0
 32 33  2  0  0  0  0
  8  9  1  0  0  0  0
  9 17  1  0  0  0  0
  9 10  2  0  0  0  0
 18 19  1  0  0  0  0
 19 30  1  0  0  0  0
 19 20  2  0  0  0  0
 21 22  1  0  0  0  0
 22 23  2  0  0  0  0
 22 24  1  0  0  0  0
 31 34  1  0  0  0  0
  8 11  1  0  0  0  0
 40 41  1  0  0  0  0
 18 21  1  0  0  0  0
 30 31  1  0  0  0  0
  7  8  1  0  0  0  0
 17 18  1  0  0  0  0
  3  4  1  0  0  0  0
  3  5  1  0  0  0  0
  3  6  1  0  0  0  0
 34 37  1  0  0  0  0
 34 38  1  0  0  0  0
 34 39  1  0  0  0  0
 11 14  1  0  0  0  0
 11 15  1  0  0  0  0
 11 16  1  0  0  0  0
 41 43  1  0  0  0  0
 41 44  1  0  0  0  0
 41 45  1  0  0  0  0
 21 27  1  0  0  0  0
 21 28  1  0  0  0  0
 31 36  1  0  0  0  0
  8 13  1  0  0  0  0
 18 26  1  0  0  0  0
 40 42  1  0  0  0  0
  7 12  1  0  0  0  0
 30 35  1  0  0  0  0
 17 25  1  0  0  0  0
 24 29  1  0  0  0  0
M  END
$$$$

  -OEChem-05262214473D

 45 44  0     1  0  0  0  0  0999 V2000
   -2.2987    4.1032   -0.3022 C   0  0  0  0  0  0  0  0  0  0  0  0
   -1.8049    3.7117   -1.3532 O   0  0  0  0  0  0  0  0  0  0  0  0
   -3.0791    5.3755   -0.2846 C   0  0  0  0  0  0  0  0  0  0  0  0
   -2.4478    6.2532   -0.0717 H   0  0  0  0  0  0  0  0  0  0  0  0
   -3.5571    5.5891   -1.2541 H   0  0  0  0  0  0  0  0  0  0  0  0
   -3.8940    5.4184    0.4556 H   0  0  0  0  0  0  0  0  0  0  0  0
   -2.2137    3.4712    0.9275 N   0  0  0  0  0  0  0  0  0  0  0  0
   -1.5102    2.2327    1.1338 C   0  0  2  0  0  0  0  0  0  0  0  0
   -1.3539    1.5497   -0.2184 C   0  0  0  0  0  0  0  0  0  0  0  0
   -2.0852    1.7861   -1.1778 O   0  0  0  0  0  0  0  0  0  0  0  0
   -2.2477    1.3342    2.1145 C   0  0  0  0  0  0  0  0  0  0  0  0
   -2.6724    3.9052    1.7265 H   0  0  0  0  0  0  0  0  0  0  0  0
   -0.5220    2.4922    1.5290 H   0  0  0  0  0  0  0  0  0  0  0  0
   -3.2400    1.0636    1.7358 H   0  0  0  0  0  0  0  0  0  0  0  0
   -1.6970    0.4046    2.2923 H   0  0  0  0  0  0  0  0  0  0  0  0
   -2.3854    1.8384    3.0772 H   0  0  0  0  0  0  0  0  0  0  0  0
   -0.3283    0.6116   -0.2182 N   0  0  0  0  0  0  0  0  0  0  0  0
    0.0090   -0.1762   -1.3759 C   0  0  2  0  0  0  0  0  0  0  0  0
   -0.1656   -1.6440   -1.0070 C   0  0  0  0  0  0  0  0  0  0  0  0
   -1.1605   -2.0748   -0.4274 O   0  0  0  0  0  0  0  0  0  0  0  0
    1.4317    0.0967   -1.8570 C   0  0  0  0  0  0  0  0  0  0  0  0
    1.5565    1.4839   -2.4376 C   0  0  0  0  0  0  0  0  0  0  0  0
    0.6371    2.0846   -2.9783 O   0  0  0  0  0  0  0  0  0  0  0  0
    2.8079    1.9908   -2.3118 O   0  0  0  0  0  0  0  0  0  0  0  0
    0.2381    0.4970    0.6194 H   0  0  0  0  0  0  0  0  0  0  0  0
   -0.7231    0.0854   -2.1493 H   0  0  0  0  0  0  0  0  0  0  0  0
    2.1481    0.0382   -1.0279 H   0  0  0  0  0  0  0  0  0  0  0  0
    1.7719   -0.6404   -2.5943 H   0  0  0  0  0  0  0  0  0  0  0  0
    2.9313    2.8878   -2.6896 H   0  0  0  0  0  0  0  0  0  0  0  0
    0.8972   -2.4228   -1.4431 N   0  0  0  0  0  0  0  0  0  0  0  0
    0.9583   -3.8495   -1.2268 C   0  0  2  0  0  0  0  0  0  0  0  0
   -0.1409   -4.4985   -2.0574 C   0  0  0  0  0  0  0  0  0  0  0  0
   -1.1397   -3.8922   -2.4393 O   0  0  0  0  0  0  0  0  0  0  0  0
    0.8012   -4.1930    0.2462 C   0  0  0  0  0  0  0  0  0  0  0  0
    1.6630   -1.9711   -1.9343 H   0  0  0  0  0  0  0  0  0  0  0  0
    1.9365   -4.1828   -1.5902 H   0  0  0  0  0  0  0  0  0  0  0  0
   -0.1730   -3.8667    0.6282 H   0  0  0  0  0  0  0  0  0  0  0  0
    0.8763   -5.2728    0.4120 H   0  0  0  0  0  0  0  0  0  0  0  0
    1.5749   -3.7013    0.8458 H   0  0  0  0  0  0  0  0  0  0  0  0
    0.1036   -5.8455   -2.2854 N   0  0  0  0  0  0  0  0  0  0  0  0
   -0.7989   -6.6853   -3.0378 C   0  0  0  0  0  0  0  0  0  0  0  0
    0.9668   -6.2608   -1.9474 H   0  0  0  0  0  0  0  0  0  0  0  0
   -1.5049   -7.1741   -2.3502 H   0  0  0  0  0  0  0  0  0  0  0  0
   -1.3565   -6.0701   -3.7593 H   0  0  0  0  0  0  0  0  0  0  0  0
   -0.2228   -7.4515   -3.5773 H   0  0  0  0  0  0  0  0  0  0  0  0
  1  3  1  0  0  0  0
  1  7  1  0  0  0  0
  1  2  2  0  0  0  0
 31 32  1  0  0  0  0
 32 40  1  0  0  0  0
 32 33  2  0  0  0  0
  8  9  1  0  0  0  0
  9 17  1  0  0  0  0
  9 10  2  0  0  0  0
 18 19  1  0  0  0  0
 19 30  1  0  0  0  0
 19 20  2  0  0  0  0
 21 22  1  0  0  0  0
 22 23  2  0  0  0  0
 22 24  1  0  0  0  0
 31 34  1  0  0  0  0
  8 11  1  0  0  0  0
 40 41  1  0  0  0  0
 18 21  1  0  0  0  0
 30 31  1  0  0  0  0
  7  8  1  0  0  0  0
 17 18  1  0  0  0  0
  3  4  1  0  0  0  0
  3  5  1  0  0  0  0
  3  6  1  0  0  0  0
 34 37  1  0  0  0  0
 34 38  1  0  0  0  0
 34 39  1  0  0  0  0
 11 14  1  0  0  0  0
 11 15  1  0  0  0  0
 11 16  1  0  0  0  0
 41 43  1  0  0  0  0
 41 44  1  0  0  0  0
 41 45  1  0  0  0  0
 21 27  1  0  0  0  0
 21 28  1  0  0  0  0
 31 36  1  0  0  0  0
  8 13  1  0  0  0  0
 18 26  1  0  0  0  0
 40 42  1  0  0  0  0
  7 12  1  0  0  0  0
 30 35  1  0  0  0  0
 17 25  1  0  0  0  0
 24 29  1  0  0  0  0
M  END
$$$$

  -OEChem-05262214473D

 45 44  0     1  0  0  0  0  0999 V2000
   -2.2987    4.1032   -0.3022 C   0  0  0  0  0  0  0  0  0  0  0  0
   -1.8049    3.7117   -1.3532 O   0  0  0  0  0  0  0  0  0  0  0  0
   -3.0791    5.3755   -0.2846 C   0  0  0  0  0  0  0  0  0  0  0  0
   -2.4478    6.2532   -0.0717 H   0  0  0  0  0  0  0  0  0  0  0  0
   -3.5571    5.5891   -1.2541 H   0  0  0  0  0  0  0  0  0  0  0  0
   -3.8940    5.4184    0.4556 H   0  0  0  0  0  0  0  0  0  0  0  0
   -2.2137    3.4712    0.9275 N   0  0  0  0  0  0  0  0  0  0  0  0
   -1.5102    2.2327    1.1338 C   0  0  2  0  0  0  0  0  0  0  0  0
   -1.3539    1.5497   -0.2184 C   0  0  0  0  0  0  0  0  0  0  0  0
   -2.0852    1.7861   -1.1778 O   0  0  0  0  0  0  0  0  0  0  0  0
   -2.2477    1.3342    2.1145 C   0  0  0  0  0  0  0  0  0  0  0  0
   -2.6724    3.9052    1.7265 H   0  0  0  0  0  0  0  0  0  0  0  0
   -0.5220    2.4922    1.5290 H   0  0  0  0  0  0  0  0  0  0  0  0
   -3.2400    1.0636    1.7358 H   0  0  0  0  0  0  0  0  0  0  0  0
   -1.6970    0.4046    2.2923 H   0  0  0  0  0  0  0  0  0  0  0  0
   -2.3854    1.8384    3.0772 H   0  0  0  0  0  0  0  0  0  0  0  0
   -0.3283    0.6116   -0.2182 N   0  0  0  0  0  0  0  0  0  0  0  0
    0.0090   -0.1762   -1.3759 C   0  0  2  0  0  0  0  0  0  0  0  0
   -0.1656   -1.6440   -1.0070 C   0  0  0  0  0  0  0  0  0  0  0  0
   -1.2467   -2.1273   -0.6770 O   0  0  0  0  0  0  0  0  0  0  0  0
    1.4317    0.0967   -1.8570 C   0  0  0  0  0  0  0  0  0  0  0  0
    1.5565    1.4839   -2.4376 C   0  0  0  0  0  0  0  0  0  0  0  0
    0.6371    2.0846   -2.9783 O   0  0  0  0  0  0  0  0  0  0  0  0
    2.8079    1.9908   -2.3118 O   0  0  0  0  0  0  0  0  0  0  0  0
    0.2381    0.4970    0.6194 H   0  0  0  0  0  0  0  0  0  0  0  0
   -0.7231    0.0854   -2.1493 H   0  0  0  0  0  0  0  0  0  0  0  0
    2.1481    0.0382   -1.0279 H   0  0  0  0  0  0  0  0  0  0  0  0
    1.7719   -0.6404   -2.5943 H   0  0  0  0  0  0  0  0  0  0  0  0
    2.9313    2.8878   -2.6896 H   0  0  0  0  0  0  0  0  0  0  0  0
    1.0165   -2.3597   -1.1358 N   0  0  0  0  0  0  0  0  0  0  0  0
    1.1055   -3.7742   -0.8577 C   0  0  2  0  0  0  0  0  0  0  0  0
    0.2893   -4.5127   -1.9102 C   0  0  0  0  0  0  0  0  0  0  0  0
   -0.6160   -3.9826   -2.5508 O   0  0  0  0  0  0  0  0  0  0  0  0
    0.6052   -4.0954    0.5421 C   0  0  0  0  0  0  0  0  0  0  0  0
    1.8529   -1.8689   -1.4380 H   0  0  0  0  0  0  0  0  0  0  0  0
    2.1613   -4.0496   -0.9538 H   0  0  0  0  0  0  0  0  0  0  0  0
   -0.4511   -3.8262    0.6575 H   0  0  0  0  0  0  0  0  0  0  0  0
    0.6999   -5.1639    0.7618 H   0  0  0  0  0  0  0  0  0  0  0  0
    1.1738   -3.5404    1.2961 H   0  0  0  0  0  0  0  0  0  0  0  0
    0.6621   -5.8451   -2.0195 N   0  0  0  0  0  0  0  0  0  0  0  0
    0.0277   -6.7592   -2.9404 C   0  0  0  0  0  0  0  0  0  0  0  0
    1.4361   -6.1947   -1.4623 H   0  0  0  0  0  0  0  0  0  0  0  0
   -0.7979   -7.2787   -2.4319 H   0  0  0  0  0  0  0  0  0  0  0  0
   -0.3668   -6.1981   -3.8004 H   0  0  0  0  0  0  0  0  0  0  0  0
    0.7646   -7.4969   -3.2906 H   0  0  0  0  0  0  0  0  0  0  0  0
  1  3  1  0  0  0  0
  1  7  1  0  0  0  0
  1  2  2  0  0  0  0
 31 32  1  0  0  0  0
 32 40  1  0  0  0  0
 32 33  2  0  0  0  0
  8  9  1  0  0  0  0
  9 17  1  0  0  0  0
  9 10  2  0  0  0  0
 18 19  1  0  0  0  0
 19 30  1  0  0  0  0
 19 20  2  0  0  0  0
 21 22  1  0  0  0  0
 22 23  2  0  0  0  0
 22 24  1  0  0  0  0
 31 34  1  0  0  0  0
  8 11  1  0  0  0  0
 40 41  1  0  0  0  0
 18 21  1  0  0  0  0
 30 31  1  0  0  0  0
  7  8  1  0  0  0  0
 17 18  1  0  0  0  0
  3  4  1  0  0  0  0
  3  5  1  0  0  0  0
  3  6  1  0  0  0  0
 34 37  1  0  0  0  0
 34 38  1  0  0  0  0
 34 39  1  0  0  0  0
 11 14  1  0  0  0  0
 11 15  1  0  0  0  0
 11 16  1  0  0  0  0
 41 43  1  0  0  0  0
 41 44  1  0  0  0  0
 41 45  1  0  0  0  0
 21 27  1  0  0  0  0
 21 28  1  0  0  0  0
 31 36  1  0  0  0  0
  8 13  1  0  0  0  0
 18 26  1  0  0  0  0
 40 42  1  0  0  0  0
  7 12  1  0  0  0  0
 30 35  1  0  0  0  0
 17 25  1  0  0  0  0
 24 29  1  0  0  0  0
M  END
$$$$

  -OEChem-05262214473D

 45 44  0     1  0  0  0  0  0999 V2000
   -2.2987    4.1032   -0.3022 C   0  0  0  0  0  0  0  0  0  0  0  0
   -1.8049    3.7117   -1.3532 O   0  0  0  0  0  0  0  0  0  0  0  0
   -3.0791    5.3755   -0.2846 C   0  0  0  0  0  0  0  0  0  0  0  0
   -2.4478    6.2532   -0.0717 H   0  0  0  0  0  0  0  0  0  0  0  0
   -3.5571    5.5891   -1.2541 H   0  0  0  0  0  0  0  0  0  0  0  0
   -3.8940    5.4184    0.4556 H   0  0  0  0  0  0  0  0  0  0  0  0
   -2.2137    3.4712    0.9275 N   0  0  0  0  0  0  0  0  0  0  0  0
   -1.5102    2.2327    1.1338 C   0  0  2  0  0  0  0  0  0  0  0  0
   -1.3539    1.5497   -0.2184 C   0  0  0  0  0  0  0  0  0  0  0  0
   -2.0852    1.7861   -1.1778 O   0  0  0  0  0  0  0  0  0  0  0  0
   -2.2477    1.3342    2.1145 C   0  0  0  0  0  0  0  0  0  0  0  0
   -2.6724    3.9052    1.7265 H   0  0  0  0  0  0  0  0  0  0  0  0
   -0.5220    2.4922    1.5290 H   0  0  0  0  0  0  0  0  0  0  0  0
   -3.2400    1.0636    1.7358 H   0  0  0  0  0  0  0  0  0  0  0  0
   -1.6970    0.4046    2.2923 H   0  0  0  0  0  0  0  0  0  0  0  0
   -2.3854    1.8384    3.0772 H   0  0  0  0  0  0  0  0  0  0  0  0
   -0.3283    0.6116   -0.2182 N   0  0  0  0  0  0  0  0  0  0  0  0
    0.0090   -0.1762   -1.3759 C   0  0  2  0  0  0  0  0  0  0  0  0
   -0.1656   -1.6440   -1.0070 C   0  0  0  0  0  0  0  0  0  0  0  0
   -1.2645   -2.1907   -0.9379 O   0  0  0  0  0  0  0  0  0  0  0  0
    1.4317    0.0967   -1.8570 C   0  0  0  0  0  0  0  0  0  0  0  0
    1.5565    1.4839   -2.4376 C   0  0  0  0  0  0  0  0  0  0  0  0
    0.6371    2.0846   -2.9783 O   0  0  0  0  0  0  0  0  0  0  0  0
    2.8079    1.9908   -2.3118 O   0  0  0  0  0  0  0  0  0  0  0  0
    0.2381    0.4970    0.6194 H   0  0  0  0  0  0  0  0  0  0  0  0
   -0.7231    0.0854   -2.1493 H   0  0  0  0  0  0  0  0  0  0  0  0
    2.1481    0.0382   -1.0279 H   0  0  0  0  0  0  0  0  0  0  0  0
    1.7719   -0.6404   -2.5943 H   0  0  0  0  0  0  0  0  0  0  0  0
    2.9313    2.8878   -2.6896 H   0  0  0  0  0  0  0  0  0  0  0  0
    1.0512   -2.2822   -0.8111 N   0  0  0  0  0  0  0  0  0  0  0  0
    1.1508   -3.6813   -0.4666 C   0  0  2  0  0  0  0  0  0  0  0  0
    0.6691   -4.4951   -1.6604 C   0  0  0  0  0  0  0  0  0  0  0  0
   -0.0767   -4.0403   -2.5252 O   0  0  0  0  0  0  0  0  0  0  0  0
    0.3359   -4.0045    0.7761 C   0  0  0  0  0  0  0  0  0  0  0  0
    1.9062   -1.7436   -0.9143 H   0  0  0  0  0  0  0  0  0  0  0  0
    2.2115   -3.8880   -0.2870 H   0  0  0  0  0  0  0  0  0  0  0  0
   -0.7296   -3.8037    0.6152 H   0  0  0  0  0  0  0  0  0  0  0  0
    0.4354   -5.0594    1.0525 H   0  0  0  0  0  0  0  0  0  0  0  0
    0.6640   -3.3968    1.6263 H   0  0  0  0  0  0  0  0  0  0  0  0
    1.1352   -5.8019   -1.6234 N   0  0  0  0  0  0  0  0  0  0  0  0
    0.8064   -6.7758   -2.6380 C   0  0  0  0  0  0  0  0  0  0  0  0
    1.7643   -6.0871   -0.8787 H   0  0  0  0  0  0  0  0  0  0  0  0
   -0.0880   -7.3379   -2.3313 H   0  0  0  0  0  0  0  0  0  0  0  0
    0.6075   -6.2610   -3.5895 H   0  0  0  0  0  0  0  0  0  0  0  0
    1.6497   -7.4704   -2.7662 H   0  0  0  0  0  0  0  0  0  0  0  0
  1  3  1  0  0  0  0
  1  7  1  0  0  0  0
  1  2  2  0  0  0  0
 31 32  1  0  0  0  0
 32 40  1  0  0  0  0
 32 33  2  0  0  0  0
  8  9  1  0  0  0  0
  9 17  1  0  0  0  0
  9 10  2  0  0  0  0
 18 19  1  0  0  0  0
 19 30  1  0  0  0  0
 19 20  2  0  0  0  0
 21 22  1  0  0  0  0
 22 23  2  0  0  0  0
 22 24  1  0  0  0  0
 31 34  1  0  0  0  0
  8 11  1  0  0  0  0
 40 41  1  0  0  0  0
 18 21  1  0  0  0  0
 30 31  1  0  0  0  0
  7  8  1  0  0  0  0
 17 18  1  0  0  0  0
  3  4  1  0  0  0  0
  3  5  1  0  0  0  0
  3  6  1  0  0  0  0
 34 37  1  0  0  0  0
 34 38  1  0  0  0  0
 34 39  1  0  0  0  0
 11 14  1  0  0  0  0
 11 15  1  0  0  0  0
 11 16  1  0  0  0  0
 41 43  1  0  0  0  0
 41 44  1  0  0  0  0
 41 45  1  0  0  0  0
 21 27  1  0  0  0  0
 21 28  1  0  0  0  0
 31 36  1  0  0  0  0
  8 13  1  0  0  0  0
 18 26  1  0  0  0  0
 40 42  1  0  0  0  0
  7 12  1  0  0  0  0
 30 35  1  0  0  0  0
 17 25  1  0  0  0  0
 24 29  1  0  0  0  0
M  END
$$$$

  -OEChem-05262214473D

 45 44  0     1  0  0  0  0  0999 V2000
   -2.2987    4.1032   -0.3022 C   0  0  0  0  0  0  0  0  0  0  0  0
   -1.8049    3.7117   -1.3532 O   0  0  0  0  0  0  0  0  0  0  0  0
   -3.0791    5.3755   -0.2846 C   0  0  0  0  0  0  0  0  0  0  0  0
   -2.4478    6.2532   -0.0717 H   0  0  0  0  0  0  0  0  0  0  0  0
   -3.5571    5.5891   -1.2541 H   0  0  0  0  0  0  0  0  0  0  0  0
   -3.8940    5.4184    0.4556 H   0  0  0  0  0  0  0  0  0  0  0  0
   -2.2137    3.4712    0.9275 N   0  0  0  0  0  0  0  0  0  0  0  0
   -1.5102    2.2327    1.1338 C   0  0  2  0  0  0  0  0  0  0  0  0
   -1.3539    1.5497   -0.2184 C   0  0  0  0  0  0  0  0  0  0  0  0
   -2.0852    1.7861   -1.1778 O   0  0  0  0  0  0  0  0  0  0  0  0
   -2.2477    1.3342    2.1145 C   0  0  0  0  0  0  0  0  0  0  0  0
   -2.6724    3.9052    1.7265 H   0  0  0  0  0  0  0  0  0  0  0  0
   -0.5220    2.4922    1.5290 H   0  0  0  0  0  0  0  0  0  0  0  0
   -3.2400    1.0636    1.7358 H   0  0  0  0  0  0  0  0  0  0  0  0
   -1.6970    0.4046    2.2923 H   0  0  0  0  0  0  0  0  0  0  0  0
   -2.3854    1.8384    3.0772 H   0  0  0  0  0  0  0  0  0  0  0  0
   -0.3283    0.6116   -0.2182 N   0  0  0  0  0  0  0  0  0  0  0  0
    0.0090   -0.1762   -1.3759 C   0  0  2  0  0  0  0  0  0  0  0  0
   -0.1656   -1.6440   -1.0070 C   0  0  0  0  0  0  0  0  0  0  0  0
   -1.2126   -2.2609   -1.1926 O   0  0  0  0  0  0  0  0  0  0  0  0
    1.4317    0.0967   -1.8570 C   0  0  0  0  0  0  0  0  0  0  0  0
    1.5565    1.4839   -2.4376 C   0  0  0  0  0  0  0  0  0  0  0  0
    0.6371    2.0846   -2.9783 O   0  0  0  0  0  0  0  0  0  0  0  0
    2.8079    1.9908   -2.3118 O   0  0  0  0  0  0  0  0  0  0  0  0
    0.2381    0.4970    0.6194 H   0  0  0  0  0  0  0  0  0  0  0  0
   -0.7231    0.0854   -2.1493 H   0  0  0  0  0  0  0  0  0  0  0  0
    2.1481    0.0382   -1.0279 H   0  0  0  0  0  0  0  0  0  0  0  0
    1.7719   -0.6404   -2.5943 H   0  0  0  0  0  0  0  0  0  0  0  0
    2.9313    2.8878   -2.6896 H   0  0  0  0  0  0  0  0  0  0  0  0
    0.9988   -2.1956   -0.4912 N   0  0  0  0  0  0  0  0  0  0  0  0
    1.0913   -3.5771   -0.0803 C   0  0  2  0  0  0  0  0  0  0  0  0
    0.9725   -4.4469   -1.3248 C   0  0  0  0  0  0  0  0  0  0  0  0
    0.4415   -4.0615   -2.3643 O   0  0  0  0  0  0  0  0  0  0  0  0
    0.0118   -3.9267    0.9322 C   0  0  0  0  0  0  0  0  0  0  0  0
    1.8192   -1.6037   -0.3989 H   0  0  0  0  0  0  0  0  0  0  0  0
    2.0835   -3.7090    0.3648 H   0  0  0  0  0  0  0  0  0  0  0  0
   -0.9894   -3.8007    0.5043 H   0  0  0  0  0  0  0  0  0  0  0  0
    0.1009   -4.9664    1.2641 H   0  0  0  0  0  0  0  0  0  0  0  0
    0.0803   -3.2802    1.8138 H   0  0  0  0  0  0  0  0  0  0  0  0
    1.4906   -5.7187   -1.1241 N   0  0  0  0  0  0  0  0  0  0  0  0
    1.4843   -6.7341   -2.1512 C   0  0  0  0  0  0  0  0  0  0  0  0
    1.9290   -5.9452   -0.2363 H   0  0  0  0  0  0  0  0  0  0  0  0
    0.5763   -7.3476   -2.0554 H   0  0  0  0  0  0  0  0  0  0  0  0
    1.4999   -6.2545   -3.1410 H   0  0  0  0  0  0  0  0  0  0  0  0
    2.3722   -7.3738   -2.0397 H   0  0  0  0  0  0  0  0  0  0  0  0
  1  3  1  0  0  0  0
  1  7  1  0  0  0  0
  1  2  2  0  0  0  0
 31 32  1  0  0  0  0
 32 40  1  0  0  0  0
 32 33  2  0  0  0  0
  8  9  1  0  0  0  0
  9 17  1  0  0  0  0
  9 10  2  0  0  0  0
 18 19  1  0  0  0  0
 19 30  1  0  0  0  0
 19 20  2  0  0  0  0
 21 22  1  0  0  0  0
 22 23  2  0  0  0  0
 22 24  1  0  0  0  0
 31 34  1  0  0  0  0
  8 11  1  0  0  0  0
 40 41  1  0  0  0  0
 18 21  1  0  0  0  0
 30 31  1  0  0  0  0
  7  8  1  0  0  0  0
 17 18  1  0  0  0  0
  3  4  1  0  0  0  0
  3  5  1  0  0  0  0
  3  6  1  0  0  0  0
 34 37  1  0  0  0  0
 34 38  1  0  0  0  0
 34 39  1  0  0  0  0
 11 14  1  0  0  0  0
 11 15  1  0  0  0  0
 11 16  1  0  0  0  0
 41 43  1  0  0  0  0
 41 44  1  0  0  0  0
 41 45  1  0  0  0  0
 21 27  1  0  0  0  0
 21 28  1  0  0  0  0
 31 36  1  0  0  0  0
  8 13  1  0  0  0  0
 18 26  1  0  0  0  0
 40 42  1  0  0  0  0
  7 12  1  0  0  0  0
 30 35  1  0  0  0  0
 17 25  1  0  0  0  0
 24 29  1  0  0  0  0
M  END
$$$$

  -OEChem-05262214473D

 45 44  0     1  0  0  0  0  0999 V2000
   -2.2987    4.1032   -0.3022 C   0  0  0  0  0  0  0  0  0  0  0  0
   -1.8049    3.7117   -1.3532 O   0  0  0  0  0  0  0  0  0  0  0  0
   -3.0791    5.3755   -0.2846 C   0  0  0  0  0  0  0  0  0  0  0  0
   -2.4478    6.2532   -0.0717 H   0  0  0  0  0  0  0  0  0  0  0  0
   -3.5571    5.5891   -1.2541 H   0  0  0  0  0  0  0  0  0  0  0  0
   -3.8940    5.4184    0.4556 H   0  0  0  0  0  0  0  0  0  0  0  0
   -2.2137    3.4712    0.9275 N   0  0  0  0  0  0  0  0  0  0  0  0
   -1.5102    2.2327    1.1338 C   0  0  2  0  0  0  0  0  0  0  0  0
   -1.3539    1.5497   -0.2184 C   0  0  0  0  0  0  0  0  0  0  0  0
   -2.0852    1.7861   -1.1778 O   0  0  0  0  0  0  0  0  0  0  0  0
   -2.2477    1.3342    2.1145 C   0  0  0  0  0  0  0  0  0  0  0  0
   -2.6724    3.9052    1.7265 H   0  0  0  0  0  0  0  0  0  0  0  0
   -0.5220    2.4922    1.5290 H   0  0  0  0  0  0  0  0  0  0  0  0
   -3.2400    1.0636    1.7358 H   0  0  0  0  0  0  0  0  0  0  0  0
   -1.6970    0.4046    2.2923 H   0  0  0  0  0  0  0  0  0  0  0  0
   -2.3854    1.8384    3.0772 H   0  0  0  0  0  0  0  0  0  0  0  0
   -0.3283    0.6116   -0.2182 N   0  0  0  0  0  0  0  0  0  0  0  0
    0.0090   -0.1762   -1.3759 C   0  0  2  0  0  0  0  0  0  0  0  0
   -0.1656   -1.6440   -1.0070 C   0  0  0  0  0  0  0  0  0  0  0  0
   -1.0946   -2.3330   -1.4235 O   0  0  0  0  0  0  0  0  0  0  0  0
    1.4317    0.0967   -1.8570 C   0  0  0  0  0  0  0  0  0  0  0  0
    1.5565    1.4839   -2.4376 C   0  0  0  0  0  0  0  0  0  0  0  0
    0.6371    2.0846   -2.9783 O   0  0  0  0  0  0  0  0  0  0  0  0
    2.8079    1.9908   -2.3118 O   0  0  0  0  0  0  0  0  0  0  0  0
    0.2381    0.4970    0.6194 H   0  0  0  0  0  0  0  0  0  0  0  0
   -0.7231    0.0854   -2.1493 H   0  0  0  0  0  0  0  0  0  0  0  0
    2.1481    0.0382   -1.0279 H   0  0  0  0  0  0  0  0  0  0  0  0
    1.7719   -0.6404   -2.5943 H   0  0  0  0  0  0  0  0  0  0  0  0
    2.9313    2.8878   -2.6896 H   0  0  0  0  0  0  0  0  0  0  0  0
    0.8630   -2.1057   -0.1977 N   0  0  0  0  0  0  0  0  0  0  0  0
    0.9309   -3.4688    0.2749 C   0  0  2  0  0  0  0  0  0  0  0  0
    1.1789   -4.3713   -0.9265 C   0  0  0  0  0  0  0  0  0  0  0  0
    0.9033   -4.0447   -2.0791 O   0  0  0  0  0  0  0  0  0  0  0  0
   -0.3451   -3.8672    0.9999 C   0  0  0  0  0  0  0  0  0  0  0  0
    1.5978   -1.4588    0.0732 H   0  0  0  0  0  0  0  0  0  0  0  0
    1.7862   -3.5247    0.9572 H   0  0  0  0  0  0  0  0  0  0  0  0
   -1.2130   -3.8173    0.3323 H   0  0  0  0  0  0  0  0  0  0  0  0
   -0.2809   -4.8913    1.3824 H   0  0  0  0  0  0  0  0  0  0  0  0
   -0.5377   -3.1987    1.8459 H   0  0  0  0  0  0  0  0  0  0  0  0
    1.7043   -5.6012   -0.5557 N   0  0  0  0  0  0  0  0  0  0  0  0
    2.0150   -6.6369   -1.5132 C   0  0  0  0  0  0  0  0  0  0  0  0
    1.9190   -5.7788    0.4211 H   0  0  0  0  0  0  0  0  0  0  0  0
    1.1497   -7.3071   -1.6230 H   0  0  0  0  0  0  0  0  0  0  0  0
    2.2496   -6.1789   -2.4854 H   0  0  0  0  0  0  0  0  0  0  0  0
    2.8829   -7.2136   -1.1606 H   0  0  0  0  0  0  0  0  0  0  0  0
  1  3  1  0  0  0  0
  1  7  1  0  0  0  0
  1  2  2  0  0  0  0
 31 32  1  0  0  0  0
 32 40  1  0  0  0  0
 32 33  2  0  0  0  0
  8  9  1  0  0  0  0
  9 17  1  0  0  0  0
  9 10  2  0  0  0  0
 18 19  1  0  0  0  0
 19 30  1  0  0  0  0
 19 20  2  0  0  0  0
 21 22  1  0  0  0  0
 22 23  2  0  0  0  0
 22 24  1  0  0  0  0
 31 34  1  0  0  0  0
  8 11  1  0  0  0  0
 40 41  1  0  0  0  0
 18 21  1  0  0  0  0
 30 31  1  0  0  0  0
  7  8  1  0  0  0  0
 17 18  1  0  0  0  0
  3  4  1  0  0  0  0
  3  5  1  0  0  0  0
  3  6  1  0  0  0  0
 34 37  1  0  0  0  0
 34 38  1  0  0  0  0
 34 39  1  0  0  0  0
 11 14  1  0  0  0  0
 11 15  1  0  0  0  0
 11 16  1  0  0  0  0
 41 43  1  0  0  0  0
 41 44  1  0  0  0  0
 41 45  1  0  0  0  0
 21 27  1  0  0  0  0
 21 28  1  0  0  0  0
 31 36  1  0  0  0  0
  8 13  1  0  0  0  0
 18 26  1  0  0  0  0
 40 42  1  0  0  0  0
  7 12  1  0  0  0  0
 30 35  1  0  0  0  0
 17 25  1  0  0  0  0
 24 29  1  0  0  0  0
M  END
$$$$

  -OEChem-05262214473D

 45 44  0     1  0  0  0  0  0999 V2000
   -2.2987    4.1032   -0.3022 C   0  0  0  0  0  0  0  0  0  0  0  0
   -1.8049    3.7117   -1.3532 O   0  0  0  0  0  0  0  0  0  0  0  0
   -3.0791    5.3755   -0.2846 C   0  0  0  0  0  0  0  0  0  0  0  0
   -2.4478    6.2532   -0.0717 H   0  0  0  0  0  0  0  0  0  0  0  0
   -3.5571    5.5891   -1.2541 H   0  0  0  0  0  0  0  0  0  0  0  0
   -3.8940    5.4184    0.4556 H   0  0  0  0  0  0  0  0  0  0  0  0
   -2.2137    3.4712    0.9275 N   0  0  0  0  0  0  0  0  0  0  0  0
   -1.5102    2.2327    1.1338 C   0  0  2  0  0  0  0  0  0  0  0  0
   -1.3539    1.5497   -0.2184 C   0  0  0  0  0  0  0  0  0  0  0  0
   -2.0852    1.7861   -1.1778 O   0  0  0  0  0  0  0  0  0  0  0  0
   -2.2477    1.3342    2.1145 C   0  0  0  0  0  0  0  0  0  0  0  0
   -2.6724    3.9052    1.7265 H   0  0  0  0  0  0  0  0  0  0  0  0
   -0.5220    2.4922    1.5290 H   0  0  0  0  0  0  0  0  0  0  0  0
   -3.2400    1.0636    1.7358 H   0  0  0  0  0  0  0  0  0  0  0  0
   -1.6970    0.4046    2.2923 H   0  0  0  0  0  0  0  0  0  0  0  0
   -2.3854    1.8384    3.0772 H   0  0  0  0  0  0  0  0  0  0  0  0
   -0.3283    0.6116   -0.2182 N   0  0  0  0  0  0  0  0  0  0  0  0
    0.0090   -0.1762   -1.3759 C   0  0  2  0  0  0  0  0  0  0  0  0
   -0.1656   -1.6440   -1.0070 C   0  0  0  0  0  0  0  0  0  0  0  0
   -0.9185   -2.4021   -1.6150 O   0  0  0  0  0  0  0  0  0  0  0  0
    1.4317    0.0967   -1.8570 C   0  0  0  0  0  0  0  0  0  0  0  0
    1.5565    1.4839   -2.4376 C   0  0  0  0  0  0  0  0  0  0  0  0
    0.6371    2.0846   -2.9783 O   0  0  0  0  0  0  0  0  0  0  0  0
    2.8079    1.9908   -2.3118 O   0  0  0  0  0  0  0  0  0  0  0  0
    0.2381    0.4970    0.6194 H   0  0  0  0  0  0  0  0  0  0  0  0
   -0.7231    0.0854   -2.1493 H   0  0  0  0  0  0  0  0  0  0  0  0
    2.1481    0.0382   -1.0279 H   0  0  0  0  0  0  0  0  0  0  0  0
    1.7719   -0.6404   -2.5943 H   0  0  0  0  0  0  0  0  0  0  0  0
    2.9313    2.8878   -2.6896 H   0  0  0  0  0  0  0  0  0  0  0  0
    0.6531   -2.0187    0.0492 N   0  0  0  0  0  0  0  0  0  0  0  0
    0.6807   -3.3636    0.5748 C   0  0  2  0  0  0  0  0  0  0  0  0
    1.2742   -4.2736   -0.4925 C   0  0  0  0  0  0  0  0  0  0  0  0
    1.2771   -3.9911   -1.6889 O   0  0  0  0  0  0  0  0  0  0  0  0
   -0.7104   -3.8302    0.9746 C   0  0  0  0  0  0  0  0  0  0  0  0
    1.2573   -1.3186    0.4696 H   0  0  0  0  0  0  0  0  0  0  0  0
    1.3397   -3.3478    1.4497 H   0  0  0  0  0  0  0  0  0  0  0  0
   -1.3850   -3.8525    0.1109 H   0  0  0  0  0  0  0  0  0  0  0  0
   -0.6838   -4.8391    1.3993 H   0  0  0  0  0  0  0  0  0  0  0  0
   -1.1477   -3.1576    1.7205 H   0  0  0  0  0  0  0  0  0  0  0  0
    1.7616   -5.4575    0.0432 N   0  0  0  0  0  0  0  0  0  0  0  0
    2.3625   -6.4908   -0.7674 C   0  0  0  0  0  0  0  0  0  0  0  0
    1.7351   -5.5992    1.0486 H   0  0  0  0  0  0  0  0  0  0  0  0
    1.5933   -7.2192   -1.0635 H   0  0  0  0  0  0  0  0  0  0  0  0
    2.8056   -6.0394   -1.6674 H   0  0  0  0  0  0  0  0  0  0  0  0
    3.1469   -7.0008   -0.1889 H   0  0  0  0  0  0  0  0  0  0  0  0
  1  3  1  0  0  0  0
  1  7  1  0  0  0  0
  1  2  2  0  0  0  0
 31 32  1  0  0  0  0
 32 40  1  0  0  0  0
 32 33  2  0  0  0  0
  8  9  1  0  0  0  0
  9 17  1  0  0  0  0
  9 10  2  0  0  0  0
 18 19  1  0  0  0  0
 19 30  1  0  0  0  0
 19 20  2  0  0  0  0
 21 22  1  0  0  0  0
 22 23  2  0  0  0  0
 22 24  1  0  0  0  0
 31 34  1  0  0  0  0
  8 11  1  0  0  0  0
 40 41  1  0  0  0  0
 18 21  1  0  0  0  0
 30 31  1  0  0  0  0
  7  8  1  0  0  0  0
 17 18  1  0  0  0  0
  3  4  1  0  0  0  0
  3  5  1  0  0  0  0
  3  6  1  0  0  0  0
 34 37  1  0  0  0  0
 34 38  1  0  0  0  0
 34 39  1  0  0  0  0
 11 14  1  0  0  0  0
 11 15  1  0  0  0  0
 11 16  1  0  0  0  0
 41 43  1  0  0  0  0
 41 44  1  0  0  0  0
 41 45  1  0  0  0  0
 21 27  1  0  0  0  0
 21 28  1  0  0  0  0
 31 36  1  0  0  0  0
  8 13  1  0  0  0  0
 18 26  1  0  0  0  0
 40 42  1  0  0  0  0
  7 12  1  0  0  0  0
 30 35  1  0  0  0  0
 17 25  1  0  0  0  0
 24 29  1  0  0  0  0
M  END
$$$$

  -OEChem-05262214473D

 45 44  0     1  0  0  0  0  0999 V2000
   -2.2987    4.1032   -0.3022 C   0  0  0  0  0  0  0  0  0  0  0  0
   -1.8049    3.7117   -1.3532 O   0  0  0  0  0  0  0  0  0  0  0  0
   -3.0791    5.3755   -0.2846 C   0  0  0  0  0  0  0  0  0  0  0  0
   -2.4478    6.2532   -0.0717 H   0  0  0  0  0  0  0  0  0  0  0  0
   -3.5571    5.5891   -1.2541 H   0  0  0  0  0  0  0  0  0  0  0  0
   -3.8940    5.4184    0.4556 H   0  0  0  0  0  0  0  0  0  0  0  0
   -2.2137    3.4712    0.9275 N   0  0  0  0  0  0  0  0  0  0  0  0
   -1.5102    2.2327    1.1338 C   0  0  2  0  0  0  0  0  0  0  0  0
   -1.3539    1.5497   -0.2184 C   0  0  0  0  0  0  0  0  0  0  0  0
   -2.0852    1.7861   -1.1778 O   0  0  0  0  0  0  0  0  0  0  0  0
   -2.2477    1.3342    2.1145 C   0  0  0  0  0  0  0  0  0  0  0  0
   -2.6724    3.9052    1.7265 H   0  0  0  0  0  0  0  0  0  0  0  0
   -0.5220    2.4922    1.5290 H   0  0  0  0  0  0  0  0  0  0  0  0
   -3.2400    1.0636    1.7358 H   0  0  0  0  0  0  0  0  0  0  0  0
   -1.6970    0.4046    2.2923 H   0  0  0  0  0  0  0  0  0  0  0  0
   -2.3854    1.8384    3.0772 H   0  0  0  0  0  0  0  0  0  0  0  0
   -0.3283    0.6116   -0.2182 N   0  0  0  0  0  0  0  0  0  0  0  0
    0.0090   -0.1762   -1.3759 C   0  0  2  0  0  0  0  0  0  0  0  0
   -0.1656   -1.6440   -1.0070 C   0  0  0  0  0  0  0  0  0  0  0  0
   -0.6964   -2.4634   -1.7540 O   0  0  0  0  0  0  0  0  0  0  0  0
    1.4317    0.0967   -1.8570 C   0  0  0  0  0  0  0  0  0  0  0  0
    1.5565    1.4839   -2.4376 C   0  0  0  0  0  0  0  0  0  0  0  0
    0.6371    2.0846   -2.9783 O   0  0  0  0  0  0  0  0  0  0  0  0
    2.8079    1.9908   -2.3118 O   0  0  0  0  0  0  0  0  0  0  0  0
    0.2381    0.4970    0.6194 H   0  0  0  0  0  0  0  0  0  0  0  0
   -0.7231    0.0854   -2.1493 H   0  0  0  0  0  0  0  0  0  0  0  0
    2.1481    0.0382   -1.0279 H   0  0  0  0  0  0  0  0  0  0  0  0
    1.7719   -0.6404   -2.5943 H   0  0  0  0  0  0  0  0  0  0  0  0
    2.9313    2.8878   -2.6896 H   0  0  0  0  0  0  0  0  0  0  0  0
    0.3832   -1.9404    0.2328 N   0  0  0  0  0  0  0  0  0  0  0  0
    0.3576   -3.2689    0.7990 C   0  0  2  0  0  0  0  0  0  0  0  0
    1.2519   -4.1603   -0.0524 C   0  0  0  0  0  0  0  0  0  0  0  0
    1.5375   -3.9043   -1.2203 O   0  0  0  0  0  0  0  0  0  0  0  0
   -1.0593   -3.8180    0.8579 C   0  0  0  0  0  0  0  0  0  0  0  0
    0.8207   -1.1929    0.7635 H   0  0  0  0  0  0  0  0  0  0  0  0
    0.7745   -3.1903    1.8090 H   0  0  0  0  0  0  0  0  0  0  0  0
   -1.4937   -3.9038   -0.1448 H   0  0  0  0  0  0  0  0  0  0  0  0
   -1.0804   -4.8135    1.3135 H   0  0  0  0  0  0  0  0  0  0  0  0
   -1.7082   -3.1600    1.4459 H   0  0  0  0  0  0  0  0  0  0  0  0
    1.6585   -5.2974    0.6316 N   0  0  0  0  0  0  0  0  0  0  0  0
    2.5031   -6.3058    0.0352 C   0  0  0  0  0  0  0  0  0  0  0  0
    1.3896   -5.4187    1.6036 H   0  0  0  0  0  0  0  0  0  0  0  0
    1.8767   -7.0900   -0.4151 H   0  0  0  0  0  0  0  0  0  0  0  0
    3.1299   -5.8457   -0.7428 H   0  0  0  0  0  0  0  0  0  0  0  0
    3.1463   -6.7499    0.8092 H   0  0  0  0  0  0  0  0  0  0  0  0
  1  3  1  0  0  0  0
  1  7  1  0  0  0  0
  1  2  2  0  0  0  0
 31 32  1  0  0  0  0
 32 40  1  0  0  0  0
 32 33  2  0  0  0  0
  8  9  1  0  0  0  0
  9 17  1  0  0  0  0
  9 10  2  0  0  0  0
 18 19  1  0  0  0  0
 19 30  1  0  0  0  0
 19 20  2  0  0  0  0
 21 22  1  0  0  0  0
 22 23  2  0  0  0  0
 22 24  1  0  0  0  0
 31 34  1  0  0  0  0
  8 11  1  0  0  0  0
 40 41  1  0  0  0  0
 18 21  1  0  0  0  0
 30 31  1  0  0  0  0
  7  8  1  0  0  0  0
 17 18  1  0  0  0  0
  3  4  1  0  0  0  0
  3  5  1  0  0  0  0
  3  6  1  0  0  0  0
 34 37  1  0  0  0  0
 34 38  1  0  0  0  0
 34 39  1  0  0  0  0
 11 14  1  0  0  0  0
 11 15  1  0  0  0  0
 11 16  1  0  0  0  0
 41 43  1  0  0  0  0
 41 44  1  0  0  0  0
 41 45  1  0  0  0  0
 21 27  1  0  0  0  0
 21 28  1  0  0  0  0
 31 36  1  0  0  0  0
  8 13  1  0  0  0  0
 18 26  1  0  0  0  0
 40 42  1  0  0  0  0
  7 12  1  0  0  0  0
 30 35  1  0  0  0  0
 17 25  1  0  0  0  0
 24 29  1  0  0  0  0
M  END
$$$$

  -OEChem-05262214473D

 45 44  0     1  0  0  0  0  0999 V2000
   -2.2987    4.1032   -0.3022 C   0  0  0  0  0  0  0  0  0  0  0  0
   -1.8049    3.7117   -1.3532 O   0  0  0  0  0  0  0  0  0  0  0  0
   -3.0791    5.3755   -0.2846 C   0  0  0  0  0  0  0  0  0  0  0  0
   -2.4478    6.2532   -0.0717 H   0  0  0  0  0  0  0  0  0  0  0  0
   -3.5571    5.5891   -1.2541 H   0  0  0  0  0  0  0  0  0  0  0  0
   -3.8940    5.4184    0.4556 H   0  0  0  0  0  0  0  0  0  0  0  0
   -2.2137    3.4712    0.9275 N   0  0  0  0  0  0  0  0  0  0  0  0
   -1.5102    2.2327    1.1338 C   0  0  2  0  0  0  0  0  0  0  0  0
   -1.3539    1.5497   -0.2184 C   0  0  0  0  0  0  0  0  0  0  0  0
   -2.0852    1.7861   -1.1778 O   0  0  0  0  0  0  0  0  0  0  0  0
   -2.2477    1.3342    2.1145 C   0  0  0  0  0  0  0  0  0  0  0  0
   -2.6724    3.9052    1.7265 H   0  0  0  0  0  0  0  0  0  0  0  0
   -0.5220    2.4922    1.5290 H   0  0  0  0  0  0  0  0  0  0  0  0
   -3.2400    1.0636    1.7358 H   0  0  0  0  0  0  0  0  0  0  0  0
   -1.6970    0.4046    2.2923 H   0  0  0  0  0  0  0  0  0  0  0  0
   -2.3854    1.8384    3.0772 H   0  0  0  0  0  0  0  0  0  0  0  0
   -0.3283    0.6116   -0.2182 N   0  0  0  0  0  0  0  0  0  0  0  0
    0.0090   -0.1762   -1.3759 C   0  0  2  0  0  0  0  0  0  0  0  0
   -0.1656   -1.6440   -1.0070 C   0  0  0  0  0  0  0  0  0  0  0  0
   -0.4432   -2.5129   -1.8311 O   0  0  0  0  0  0  0  0  0  0  0  0
    1.4317    0.0967   -1.8570 C   0  0  0  0  0  0  0  0  0  0  0  0
    1.5565    1.4839   -2.4376 C   0  0  0  0  0  0  0  0  0  0  0  0
    0.6371    2.0846   -2.9783 O   0  0  0  0  0  0  0  0  0  0  0  0
    2.8079    1.9908   -2.3118 O   0  0  0  0  0  0  0  0  0  0  0  0
    0.2381    0.4970    0.6194 H   0  0  0  0  0  0  0  0  0  0  0  0
   -0.7231    0.0854   -2.1493 H   0  0  0  0  0  0  0  0  0  0  0  0
    2.1481    0.0382   -1.0279 H   0  0  0  0  0  0  0  0  0  0  0  0
    1.7719   -0.6404   -2.5943 H   0  0  0  0  0  0  0  0  0  0  0  0
    2.9313    2.8878   -2.6896 H   0  0  0  0  0  0  0  0  0  0  0  0
    0.0719   -1.8763    0.3405 N   0  0  0  0  0  0  0  0  0  0  0  0
   -0.0163   -3.1909    0.9322 C   0  0  2  0  0  0  0  0  0  0  0  0
    1.1136   -4.0393    0.3637 C   0  0  0  0  0  0  0  0  0  0  0  0
    1.6668   -3.7903   -0.7054 O   0  0  0  0  0  0  0  0  0  0  0  0
   -1.3680   -3.8315    0.6578 C   0  0  0  0  0  0  0  0  0  0  0  0
    0.3178   -1.0900    0.9347 H   0  0  0  0  0  0  0  0  0  0  0  0
    0.1292   -3.0629    2.0103 H   0  0  0  0  0  0  0  0  0  0  0  0
   -1.5317   -3.9678   -0.4174 H   0  0  0  0  0  0  0  0  0  0  0  0
   -1.4438   -4.8161    1.1311 H   0  0  0  0  0  0  0  0  0  0  0  0
   -2.1810   -3.2055    1.0411 H   0  0  0  0  0  0  0  0  0  0  0  0
    1.4023   -5.1317    1.1696 N   0  0  0  0  0  0  0  0  0  0  0  0
    2.4271   -6.0945    0.8400 C   0  0  0  0  0  0  0  0  0  0  0  0
    0.9062   -5.2494    2.0482 H   0  0  0  0  0  0  0  0  0  0  0  0
    1.9806   -6.9281    0.2781 H   0  0  0  0  0  0  0  0  0  0  0  0
    3.2005   -5.6107    0.2254 H   0  0  0  0  0  0  0  0  0  0  0  0
    2.8811   -6.4779    1.7657 H   0  0  0  0  0  0  0  0  0  0  0  0
  1  3  1  0  0  0  0
  1  7  1  0  0  0  0
  1  2  2  0  0  0  0
 31 32  1  0  0  0  0
 32 40  1  0  0  0  0
 32 33  2  0  0  0  0
  8  9  1  0  0  0  0
  9 17  1  0  0  0  0
  9 10  2  0  0  0  0
 18 19  1  0  0  0  0
 19 30  1  0  0  0  0
 19 20  2  0  0  0  0
 21 22  1  0  0  0  0
 22 23  2  0  0  0  0
 22 24  1  0  0  0  0
 31 34  1  0  0  0  0
  8 11  1  0  0  0  0
 40 41  1  0  0  0  0
 18 21  1  0  0  0  0
 30 31  1  0  0  0  0
  7  8  1  0  0  0  0
 17 18  1  0  0  0  0
  3  4  1  0  0  0  0
  3  5  1  0  0  0  0
  3  6  1  0  0  0  0
 34 37  1  0  0  0  0
 34 38  1  0  0  0  0
 34 39  1  0  0  0  0
 11 14  1  0  0  0  0
 11 15  1  0  0  0  0
 11 16  1  0  0  0  0
 41 43  1  0  0  0  0
 41 44  1  0  0  0  0
 41 45  1  0  0  0  0
 21 27  1  0  0  0  0
 21 28  1  0  0  0  0
 31 36  1  0  0  0  0
  8 13  1  0  0  0  0
 18 26  1  0  0  0  0
 40 42  1  0  0  0  0
  7 12  1  0  0  0  0
 30 35  1  0  0  0  0
 17 25  1  0  0  0  0
 24 29  1  0  0  0  0
M  END
$$$$

  -OEChem-05262214473D

 45 44  0     1  0  0  0  0  0999 V2000
   -2.2987    4.1032   -0.3022 C   0  0  0  0  0  0  0  0  0  0  0  0
   -1.8049    3.7117   -1.3532 O   0  0  0  0  0  0  0  0  0  0  0  0
   -3.0791    5.3755   -0.2846 C   0  0  0  0  0  0  0  0  0  0  0  0
   -2.4478    6.2532   -0.0717 H   0  0  0  0  0  0  0  0  0  0  0  0
   -3.5571    5.5891   -1.2541 H   0  0  0  0  0  0  0  0  0  0  0  0
   -3.8940    5.4184    0.4556 H   0  0  0  0  0  0  0  0  0  0  0  0
   -2.2137    3.4712    0.9275 N   0  0  0  0  0  0  0  0  0  0  0  0
   -1.5102    2.2327    1.1338 C   0  0  2  0  0  0  0  0  0  0  0  0
   -1.3539    1.5497   -0.2184 C   0  0  0  0  0  0  0  0  0  0  0  0
   -2.0852    1.7861   -1.1778 O   0  0  0  0  0  0  0  0  0  0  0  0
   -2.2477    1.3342    2.1145 C   0  0  0  0  0  0  0  0  0  0  0  0
   -2.6724    3.9052    1.7265 H   0  0  0  0  0  0  0  0  0  0  0  0
   -0.5220    2.4922    1.5290 H   0  0  0  0  0  0  0  0  0  0  0  0
   -3.2400    1.0636    1.7358 H   0  0  0  0  0  0  0  0  0  0  0  0
   -1.6970    0.4046    2.2923 H   0  0  0  0  0  0  0  0  0  0  0  0
   -2.3854    1.8384    3.0772 H   0  0  0  0  0  0  0  0  0  0  0  0
   -0.3283    0.6116   -0.2182 N   0  0  0  0  0  0  0  0  0  0  0  0
    0.0090   -0.1762   -1.3759 C   0  0  2  0  0  0  0  0  0  0  0  0
   -0.1656   -1.6440   -1.0070 C   0  0  0  0  0  0  0  0  0  0  0  0
   -0.1764   -2.5471   -1.8410 O   0  0  0  0  0  0  0  0  0  0  0  0
    1.4317    0.0967   -1.8570 C   0  0  0  0  0  0  0  0  0  0  0  0
    1.5565    1.4839   -2.4376 C   0  0  0  0  0  0  0  0  0  0  0  0
    0.6371    2.0846   -2.9783 O   0  0  0  0  0  0  0  0  0  0  0  0
    2.8079    1.9908   -2.3118 O   0  0  0  0  0  0  0  0  0  0  0  0
    0.2381    0.4970    0.6194 H   0  0  0  0  0  0  0  0  0  0  0  0
   -0.7231    0.0854   -2.1493 H   0  0  0  0  0  0  0  0  0  0  0  0
    2.1481    0.0382   -1.0279 H   0  0  0  0  0  0  0  0  0  0  0  0
    1.7719   -0.6404   -2.5943 H   0  0  0  0  0  0  0  0  0  0  0  0
    2.9313    2.8878   -2.6896 H   0  0  0  0  0  0  0  0  0  0  0  0
   -0.2597   -1.8307    0.3650 N   0  0  0  0  0  0  0  0  0  0  0  0
   -0.4156   -3.1351    0.9652 C   0  0  2  0  0  0  0  0  0  0  0  0
    0.8686   -3.9187    0.7276 C   0  0  0  0  0  0  0  0  0  0  0  0
    1.6561   -3.6568   -0.1792 O   0  0  0  0  0  0  0  0  0  0  0  0
   -1.6154   -3.8699    0.3880 C   0  0  0  0  0  0  0  0  0  0  0  0
   -0.2171   -1.0171    0.9716 H   0  0  0  0  0  0  0  0  0  0  0  0
   -0.5524   -2.9743    2.0401 H   0  0  0  0  0  0  0  0  0  0  0  0
   -1.4965   -4.0401   -0.6883 H   0  0  0  0  0  0  0  0  0  0  0  0
   -1.7491   -4.8468    0.8643 H   0  0  0  0  0  0  0  0  0  0  0  0
   -2.5339   -3.2911    0.5335 H   0  0  0  0  0  0  0  0  0  0  0  0
    1.0102   -4.9717    1.6205 N   0  0  0  0  0  0  0  0  0  0  0  0
    2.1398   -5.8713    1.5922 C   0  0  0  0  0  0  0  0  0  0  0  0
    0.3179   -5.1031    2.3520 H   0  0  0  0  0  0  0  0  0  0  0  0
    1.8981   -6.7447    0.9688 H   0  0  0  0  0  0  0  0  0  0  0  0
    3.0125   -5.3506    1.1712 H   0  0  0  0  0  0  0  0  0  0  0  0
    2.3694   -6.2035    2.6154 H   0  0  0  0  0  0  0  0  0  0  0  0
  1  3  1  0  0  0  0
  1  7  1  0  0  0  0
  1  2  2  0  0  0  0
 31 32  1  0  0  0  0
 32 40  1  0  0  0  0
 32 33  2  0  0  0  0
  8  9  1  0  0  0  0
  9 17  1  0  0  0  0
  9 10  2  0  0  0  0
 18 19  1  0  0  0  0
 19 30  1  0  0  0  0
 19 20  2  0  0  0  0
 21 22  1  0  0  0  0
 22 23  2  0  0  0  0
 22 24  1  0  0  0  0
 31 34  1  0  0  0  0
  8 11  1  0  0  0  0
 40 41  1  0  0  0  0
 18 21  1  0  0  0  0
 30 31  1  0  0  0  0
  7  8  1  0  0  0  0
 17 18  1  0  0  0  0
  3  4  1  0  0  0  0
  3  5  1  0  0  0  0
  3  6  1  0  0  0  0
 34 37  1  0  0  0  0
 34 38  1  0  0  0  0
 34 39  1  0  0  0  0
 11 14  1  0  0  0  0
 11 15  1  0  0  0  0
 11 16  1  0  0  0  0
 41 43  1  0  0  0  0
 41 44  1  0  0  0  0
 41 45  1  0  0  0  0
 21 27  1  0  0  0  0
 21 28  1  0  0  0  0
 31 36  1  0  0  0  0
  8 13  1  0  0  0  0
 18 26  1  0  0  0  0
 40 42  1  0  0  0  0
  7 12  1  0  0  0  0
 30 35  1  0  0  0  0
 17 25  1  0  0  0  0
 24 29  1  0  0  0  0
M  END
$$$$

  -OEChem-05262214473D

 45 44  0     1  0  0  0  0  0999 V2000
   -2.2987    4.1032   -0.3022 C   0  0  0  0  0  0  0  0  0  0  0  0
   -1.8049    3.7117   -1.3532 O   0  0  0  0  0  0  0  0  0  0  0  0
   -3.0791    5.3755   -0.2846 C   0  0  0  0  0  0  0  0  0  0  0  0
   -2.4478    6.2532   -0.0717 H   0  0  0  0  0  0  0  0  0  0  0  0
   -3.5571    5.5891   -1.2541 H   0  0  0  0  0  0  0  0  0  0  0  0
   -3.8940    5.4184    0.4556 H   0  0  0  0  0  0  0  0  0  0  0  0
   -2.2137    3.4712    0.9275 N   0  0  0  0  0  0  0  0  0  0  0  0
   -1.5102    2.2327    1.1338 C   0  0  2  0  0  0  0  0  0  0  0  0
   -1.3539    1.5497   -0.2184 C   0  0  0  0  0  0  0  0  0  0  0  0
   -2.0852    1.7861   -1.1778 O   0  0  0  0  0  0  0  0  0  0  0  0
   -2.2477    1.3342    2.1145 C   0  0  0  0  0  0  0  0  0  0  0  0
   -2.6724    3.9052    1.7265 H   0  0  0  0  0  0  0  0  0  0  0  0
   -0.5220    2.4922    1.5290 H   0  0  0  0  0  0  0  0  0  0  0  0
   -3.2400    1.0636    1.7358 H   0  0  0  0  0  0  0  0  0  0  0  0
   -1.6970    0.4046    2.2923 H   0  0  0  0  0  0  0  0  0  0  0  0
   -2.3854    1.8384    3.0772 H   0  0  0  0  0  0  0  0  0  0  0  0
   -0.3283    0.6116   -0.2182 N   0  0  0  0  0  0  0  0  0  0  0  0
    0.0090   -0.1762   -1.3759 C   0  0  2  0  0  0  0  0  0  0  0  0
   -0.1656   -1.6440   -1.0070 C   0  0  0  0  0  0  0  0  0  0  0  0
    0.0859   -2.5637   -1.7829 O   0  0  0  0  0  0  0  0  0  0  0  0
    1.4317    0.0967   -1.8570 C   0  0  0  0  0  0  0  0  0  0  0  0
    1.5565    1.4839   -2.4376 C   0  0  0  0  0  0  0  0  0  0  0  0
    0.6371    2.0846   -2.9783 O   0  0  0  0  0  0  0  0  0  0  0  0
    2.8079    1.9908   -2.3118 O   0  0  0  0  0  0  0  0  0  0  0  0
    0.2381    0.4970    0.6194 H   0  0  0  0  0  0  0  0  0  0  0  0
   -0.7231    0.0854   -2.1493 H   0  0  0  0  0  0  0  0  0  0  0  0
    2.1481    0.0382   -1.0279 H   0  0  0  0  0  0  0  0  0  0  0  0
    1.7719   -0.6404   -2.5943 H   0  0  0  0  0  0  0  0  0  0  0  0
    2.9313    2.8878   -2.6896 H   0  0  0  0  0  0  0  0  0  0  0  0
   -0.5889   -1.8067    0.3047 N   0  0  0  0  0  0  0  0  0  0  0  0
   -0.8130   -3.1053    0.8959 C   0  0  2  0  0  0  0  0  0  0  0  0
    0.5336   -3.8068    1.0144 C   0  0  0  0  0  0  0  0  0  0  0  0
    1.5062   -3.5129    0.3225 O   0  0  0  0  0  0  0  0  0  0  0  0
   -1.7847   -3.9305    0.0668 C   0  0  0  0  0  0  0  0  0  0  0  0
   -0.7476   -0.9791    0.8718 H   0  0  0  0  0  0  0  0  0  0  0  0
   -1.2237   -2.9306    1.8963 H   0  0  0  0  0  0  0  0  0  0  0  0
   -1.3903   -4.1157   -0.9390 H   0  0  0  0  0  0  0  0  0  0  0  0
   -1.9756   -4.9036    0.5313 H   0  0  0  0  0  0  0  0  0  0  0  0
   -2.7428   -3.4109   -0.0423 H   0  0  0  0  0  0  0  0  0  0  0  0
    0.5090   -4.8284    1.9534 N   0  0  0  0  0  0  0  0  0  0  0  0
    1.6607   -5.6514    2.2405 C   0  0  0  0  0  0  0  0  0  0  0  0
   -0.3354   -4.9896    2.4945 H   0  0  0  0  0  0  0  0  0  0  0  0
    1.6346   -6.5523    1.6099 H   0  0  0  0  0  0  0  0  0  0  0  0
    2.5788   -5.0832    2.0302 H   0  0  0  0  0  0  0  0  0  0  0  0
    1.6461   -5.9453    3.3004 H   0  0  0  0  0  0  0  0  0  0  0  0
  1  3  1  0  0  0  0
  1  7  1  0  0  0  0
  1  2  2  0  0  0  0
 31 32  1  0  0  0  0
 32 40  1  0  0  0  0
 32 33  2  0  0  0  0
  8  9  1  0  0  0  0
  9 17  1  0  0  0  0
  9 10  2  0  0  0  0
 18 19  1  0  0  0  0
 19 30  1  0  0  0  0
 19 20  2  0  0  0  0
 21 22  1  0  0  0  0
 22 23  2  0  0  0  0
 22 24  1  0  0  0  0
 31 34  1  0  0  0  0
  8 11  1  0  0  0  0
 40 41  1  0  0  0  0
 18 21  1  0  0  0  0
 30 31  1  0  0  0  0
  7  8  1  0  0  0  0
 17 18  1  0  0  0  0
  3  4  1  0  0  0  0
  3  5  1  0  0  0  0
  3  6  1  0  0  0  0
 34 37  1  0  0  0  0
 34 38  1  0  0  0  0
 34 39  1  0  0  0  0
 11 14  1  0  0  0  0
 11 15  1  0  0  0  0
 11 16  1  0  0  0  0
 41 43  1  0  0  0  0
 41 44  1  0  0  0  0
 41 45  1  0  0  0  0
 21 27  1  0  0  0  0
 21 28  1  0  0  0  0
 31 36  1  0  0  0  0
  8 13  1  0  0  0  0
 18 26  1  0  0  0  0
 40 42  1  0  0  0  0
  7 12  1  0  0  0  0
 30 35  1  0  0  0  0
 17 25  1  0  0  0  0
 24 29  1  0  0  0  0
M  END
$$$$

  -OEChem-05262214473D

 45 44  0     1  0  0  0  0  0999 V2000
   -2.2987    4.1032   -0.3022 C   0  0  0  0  0  0  0  0  0  0  0  0
   -1.8049    3.7117   -1.3532 O   0  0  0  0  0  0  0  0  0  0  0  0
   -3.0791    5.3755   -0.2846 C   0  0  0  0  0  0  0  0  0  0  0  0
   -2.4478    6.2532   -0.0717 H   0  0  0  0  0  0  0  0  0  0  0  0
   -3.5571    5.5891   -1.2541 H   0  0  0  0  0  0  0  0  0  0  0  0
   -3.8940    5.4184    0.4556 H   0  0  0  0  0  0  0  0  0  0  0  0
   -2.2137    3.4712    0.9275 N   0  0  0  0  0  0  0  0  0  0  0  0
   -1.5102    2.2327    1.1338 C   0  0  2  0  0  0  0  0  0  0  0  0
   -1.3539    1.5497   -0.2184 C   0  0  0  0  0  0  0  0  0  0  0  0
   -2.0852    1.7861   -1.1778 O   0  0  0  0  0  0  0  0  0  0  0  0
   -2.2477    1.3342    2.1145 C   0  0  0  0  0  0  0  0  0  0  0  0
   -2.6724    3.9052    1.7265 H   0  0  0  0  0  0  0  0  0  0  0  0
   -0.5220    2.4922    1.5290 H   0  0  0  0  0  0  0  0  0  0  0  0
   -3.2400    1.0636    1.7358 H   0  0  0  0  0  0  0  0  0  0  0  0
   -1.6970    0.4046    2.2923 H   0  0  0  0  0  0  0  0  0  0  0  0
   -2.3854    1.8384    3.0772 H   0  0  0  0  0  0  0  0  0  0  0  0
   -0.3283    0.6116   -0.2182 N   0  0  0  0  0  0  0  0  0  0  0  0
    0.0090   -0.1762   -1.3759 C   0  0  2  0  0  0  0  0  0  0  0  0
   -0.1656   -1.6440   -1.0070 C   0  0  0  0  0  0  0  0  0  0  0  0
    0.3258   -2.5616   -1.6610 O   0  0  0  0  0  0  0  0  0  0  0  0
    1.4317    0.0967   -1.8570 C   0  0  0  0  0  0  0  0  0  0  0  0
    1.5565    1.4839   -2.4376 C   0  0  0  0  0  0  0  0  0  0  0  0
    0.6371    2.0846   -2.9783 O   0  0  0  0  0  0  0  0  0  0  0  0
    2.8079    1.9908   -2.3118 O   0  0  0  0  0  0  0  0  0  0  0  0
    0.2381    0.4970    0.6194 H   0  0  0  0  0  0  0  0  0  0  0  0
   -0.7231    0.0854   -2.1493 H   0  0  0  0  0  0  0  0  0  0  0  0
    2.1481    0.0382   -1.0279 H   0  0  0  0  0  0  0  0  0  0  0  0
    1.7719   -0.6404   -2.5943 H   0  0  0  0  0  0  0  0  0  0  0  0
    2.9313    2.8878   -2.6896 H   0  0  0  0  0  0  0  0  0  0  0  0
   -0.8934   -1.8060    0.1636 N   0  0  0  0  0  0  0  0  0  0  0  0
   -1.1815   -3.1034    0.7290 C   0  0  2  0  0  0  0  0  0  0  0  0
    0.1315   -3.7111    1.2046 C   0  0  0  0  0  0  0  0  0  0  0  0
    1.2273   -3.3684    0.7655 O   0  0  0  0  0  0  0  0  0  0  0  0
   -1.8644   -4.0092   -0.2838 C   0  0  0  0  0  0  0  0  0  0  0  0
   -1.2375   -0.9786    0.6420 H   0  0  0  0  0  0  0  0  0  0  0  0
   -1.8391   -2.9347    1.5887 H   0  0  0  0  0  0  0  0  0  0  0  0
   -1.2206   -4.1896   -1.1524 H   0  0  0  0  0  0  0  0  0  0  0  0
   -2.1078   -4.9824    0.1549 H   0  0  0  0  0  0  0  0  0  0  0  0
   -2.7935   -3.5569   -0.6470 H   0  0  0  0  0  0  0  0  0  0  0  0
   -0.0671   -4.7116    2.1458 N   0  0  0  0  0  0  0  0  0  0  0  0
    1.0225   -5.4497    2.7407 C   0  0  0  0  0  0  0  0  0  0  0  0
   -1.0091   -4.9167    2.4658 H   0  0  0  0  0  0  0  0  0  0  0  0
    1.2082   -6.3639    2.1578 H   0  0  0  0  0  0  0  0  0  0  0  0
    1.9289   -4.8265    2.7439 H   0  0  0  0  0  0  0  0  0  0  0  0
    0.7604   -5.7209    3.7741 H   0  0  0  0  0  0  0  0  0  0  0  0
  1  3  1  0  0  0  0
  1  7  1  0  0  0  0
  1  2  2  0  0  0  0
 31 32  1  0  0  0  0
 32 40  1  0  0  0  0
 32 33  2  0  0  0  0
  8  9  1  0  0  0  0
  9 17  1  0  0  0  0
  9 10  2  0  0  0  0
 18 19  1  0  0  0  0
 19 30  1  0  0  0  0
 19 20  2  0  0  0  0
 21 22  1  0  0  0  0
 22 23  2  0  0  0  0
 22 24  1  0  0  0  0
 31 34  1  0  0  0  0
  8 11  1  0  0  0  0
 40 41  1  0  0  0  0
 18 21  1  0  0  0  0
 30 31  1  0  0  0  0
  7  8  1  0  0  0  0
 17 18  1  0  0  0  0
  3  4  1  0  0  0  0
  3  5  1  0  0  0  0
  3  6  1  0  0  0  0
 34 37  1  0  0  0  0
 34 38  1  0  0  0  0
 34 39  1  0  0  0  0
 11 14  1  0  0  0  0
 11 15  1  0  0  0  0
 11 16  1  0  0  0  0
 41 43  1  0  0  0  0
 41 44  1  0  0  0  0
 41 45  1  0  0  0  0
 21 27  1  0  0  0  0
 21 28  1  0  0  0  0
 31 36  1  0  0  0  0
  8 13  1  0  0  0  0
 18 26  1  0  0  0  0
 40 42  1  0  0  0  0
  7 12  1  0  0  0  0
 30 35  1  0  0  0  0
 17 25  1  0  0  0  0
 24 29  1  0  0  0  0
M  END
$$$$

  -OEChem-05262214473D

 45 44  0     1  0  0  0  0  0999 V2000
   -2.2987    4.1032   -0.3022 C   0  0  0  0  0  0  0  0  0  0  0  0
   -1.8049    3.7117   -1.3532 O   0  0  0  0  0  0  0  0  0  0  0  0
   -3.0791    5.3755   -0.2846 C   0  0  0  0  0  0  0  0  0  0  0  0
   -2.4478    6.2532   -0.0717 H   0  0  0  0  0  0  0  0  0  0  0  0
   -3.5571    5.5891   -1.2541 H   0  0  0  0  0  0  0  0  0  0  0  0
   -3.8940    5.4184    0.4556 H   0  0  0  0  0  0  0  0  0  0  0  0
   -2.2137    3.4712    0.9275 N   0  0  0  0  0  0  0  0  0  0  0  0
   -1.5102    2.2327    1.1338 C   0  0  2  0  0  0  0  0  0  0  0  0
   -1.3539    1.5497   -0.2184 C   0  0  0  0  0  0  0  0  0  0  0  0
   -2.0852    1.7861   -1.1778 O   0  0  0  0  0  0  0  0  0  0  0  0
   -2.2477    1.3342    2.1145 C   0  0  0  0  0  0  0  0  0  0  0  0
   -2.6724    3.9052    1.7265 H   0  0  0  0  0  0  0  0  0  0  0  0
   -0.5220    2.4922    1.5290 H   0  0  0  0  0  0  0  0  0  0  0  0
   -3.2400    1.0636    1.7358 H   0  0  0  0  0  0  0  0  0  0  0  0
   -1.6970    0.4046    2.2923 H   0  0  0  0  0  0  0  0  0  0  0  0
   -2.3854    1.8384    3.0772 H   0  0  0  0  0  0  0  0  0  0  0  0
   -0.3283    0.6116   -0.2182 N   0  0  0  0  0  0  0  0  0  0  0  0
    0.0090   -0.1762   -1.3759 C   0  0  2  0  0  0  0  0  0  0  0  0
   -0.1656   -1.6440   -1.0070 C   0  0  0  0  0  0  0  0  0  0  0  0
    0.5270   -2.5409   -1.4834 O   0  0  0  0  0  0  0  0  0  0  0  0
    1.4317    0.0967   -1.8570 C   0  0  0  0  0  0  0  0  0  0  0  0
    1.5565    1.4839   -2.4376 C   0  0  0  0  0  0  0  0  0  0  0  0
    0.6371    2.0846   -2.9783 O   0  0  0  0  0  0  0  0  0  0  0  0
    2.8079    1.9908   -2.3118 O   0  0  0  0  0  0  0  0  0  0  0  0
    0.2381    0.4970    0.6194 H   0  0  0  0  0  0  0  0  0  0  0  0
   -0.7231    0.0854   -2.1493 H   0  0  0  0  0  0  0  0  0  0  0  0
    2.1481    0.0382   -1.0279 H   0  0  0  0  0  0  0  0  0  0  0  0
    1.7719   -0.6404   -2.5943 H   0  0  0  0  0  0  0  0  0  0  0  0
    2.9313    2.8878   -2.6896 H   0  0  0  0  0  0  0  0  0  0  0  0
   -1.1524   -1.8285   -0.0487 N   0  0  0  0  0  0  0  0  0  0  0  0
   -1.4959   -3.1296    0.4759 C   0  0  2  0  0  0  0  0  0  0  0  0
   -0.3103   -3.6383    1.2852 C   0  0  0  0  0  0  0  0  0  0  0  0
    0.8384   -3.2331    1.1195 O   0  0  0  0  0  0  0  0  0  0  0  0
   -1.8489   -4.1005   -0.6401 C   0  0  0  0  0  0  0  0  0  0  0  0
   -1.6533   -1.0156    0.2978 H   0  0  0  0  0  0  0  0  0  0  0  0
   -2.3565   -2.9864    1.1383 H   0  0  0  0  0  0  0  0  0  0  0  0
   -0.9987   -4.2566   -1.3141 H   0  0  0  0  0  0  0  0  0  0  0  0
   -2.1366   -5.0781   -0.2392 H   0  0  0  0  0  0  0  0  0  0  0  0
   -2.6826   -3.7189   -1.2394 H   0  0  0  0  0  0  0  0  0  0  0  0
   -0.6789   -4.6291    2.1845 N   0  0  0  0  0  0  0  0  0  0  0  0
    0.2686   -5.2801    3.0588 C   0  0  0  0  0  0  0  0  0  0  0  0
   -1.6572   -4.8893    2.2680 H   0  0  0  0  0  0  0  0  0  0  0  0
    0.6479   -6.1923    2.5750 H   0  0  0  0  0  0  0  0  0  0  0  0
    1.1070   -4.5981    3.2635 H   0  0  0  0  0  0  0  0  0  0  0  0
   -0.2273   -5.5456    4.0041 H   0  0  0  0  0  0  0  0  0  0  0  0
  1  3  1  0  0  0  0
  1  7  1  0  0  0  0
  1  2  2  0  0  0  0
 31 32  1  0  0  0  0
 32 40  1  0  0  0  0
 32 33  2  0  0  0  0
  8  9  1  0  0  0  0
  9 17  1  0  0  0  0
  9 10  2  0  0  0  0
 18 19  1  0  0  0  0
 19 30  1  0  0  0  0
 19 20  2  0  0  0  0
 21 22  1  0  0  0  0
 22 23  2  0  0  0  0
 22 24  1  0  0  0  0
 31 34  1  0  0  0  0
  8 11  1  0  0  0  0
 40 41  1  0  0  0  0
 18 21  1  0  0  0  0
 30 31  1  0  0  0  0
  7  8  1  0  0  0  0
 17 18  1  0  0  0  0
  3  4  1  0  0  0  0
  3  5  1  0  0  0  0
  3  6  1  0  0  0  0
 34 37  1  0  0  0  0
 34 38  1  0  0  0  0
 34 39  1  0  0  0  0
 11 14  1  0  0  0  0
 11 15  1  0  0  0  0
 11 16  1  0  0  0  0
 41 43  1  0  0  0  0
 41 44  1  0  0  0  0
 41 45  1  0  0  0  0
 21 27  1  0  0  0  0
 21 28  1  0  0  0  0
 31 36  1  0  0  0  0
  8 13  1  0  0  0  0
 18 26  1  0  0  0  0
 40 42  1  0  0  0  0
  7 12  1  0  0  0  0
 30 35  1  0  0  0  0
 17 25  1  0  0  0  0
 24 29  1  0  0  0  0
M  END
$$$$

  -OEChem-05262214473D

 45 44  0     1  0  0  0  0  0999 V2000
   -2.2987    4.1032   -0.3022 C   0  0  0  0  0  0  0  0  0  0  0  0
   -1.8049    3.7117   -1.3532 O   0  0  0  0  0  0  0  0  0  0  0  0
   -3.0791    5.3755   -0.2846 C   0  0  0  0  0  0  0  0  0  0  0  0
   -2.4478    6.2532   -0.0717 H   0  0  0  0  0  0  0  0  0  0  0  0
   -3.5571    5.5891   -1.2541 H   0  0  0  0  0  0  0  0  0  0  0  0
   -3.8940    5.4184    0.4556 H   0  0  0  0  0  0  0  0  0  0  0  0
   -2.2137    3.4712    0.9275 N   0  0  0  0  0  0  0  0  0  0  0  0
   -1.5102    2.2327    1.1338 C   0  0  2  0  0  0  0  0  0  0  0  0
   -1.3539    1.5497   -0.2184 C   0  0  0  0  0  0  0  0  0  0  0  0
   -2.0852    1.7861   -1.1778 O   0  0  0  0  0  0  0  0  0  0  0  0
   -2.2477    1.3342    2.1145 C   0  0  0  0  0  0  0  0  0  0  0  0
   -2.6724    3.9052    1.7265 H   0  0  0  0  0  0  0  0  0  0  0  0
   -0.5220    2.4922    1.5290 H   0  0  0  0  0  0  0  0  0  0  0  0
   -3.2400    1.0636    1.7358 H   0  0  0  0  0  0  0  0  0  0  0  0
   -1.6970    0.4046    2.2923 H   0  0  0  0  0  0  0  0  0  0  0  0
   -2.3854    1.8384    3.0772 H   0  0  0  0  0  0  0  0  0  0  0  0
   -0.3283    0.6116   -0.2182 N   0  0  0  0  0  0  0  0  0  0  0  0
    0.0090   -0.1762   -1.3759 C   0  0  2  0  0  0  0  0  0  0  0  0
   -0.1656   -1.6440   -1.0070 C   0  0  0  0  0  0  0  0  0  0  0  0
    0.6758   -2.5031   -1.2623 O   0  0  0  0  0  0  0  0  0  0  0  0
    1.4317    0.0967   -1.8570 C   0  0  0  0  0  0  0  0  0  0  0  0
    1.5565    1.4839   -2.4376 C   0  0  0  0  0  0  0  0  0  0  0  0
    0.6371    2.0846   -2.9783 O   0  0  0  0  0  0  0  0  0  0  0  0
    2.8079    1.9908   -2.3118 O   0  0  0  0  0  0  0  0  0  0  0  0
    0.2381    0.4970    0.6194 H   0  0  0  0  0  0  0  0  0  0  0  0
   -0.7231    0.0854   -2.1493 H   0  0  0  0  0  0  0  0  0  0  0  0
    2.1481    0.0382   -1.0279 H   0  0  0  0  0  0  0  0  0  0  0  0
    1.7719   -0.6404   -2.5943 H   0  0  0  0  0  0  0  0  0  0  0  0
    2.9313    2.8878   -2.6896 H   0  0  0  0  0  0  0  0  0  0  0  0
   -1.3482   -1.8728   -0.3176 N   0  0  0  0  0  0  0  0  0  0  0  0
   -1.7348   -3.1821    0.1537 C   0  0  2  0  0  0  0  0  0  0  0  0
   -0.7617   -3.5933    1.2508 C   0  0  0  0  0  0  0  0  0  0  0  0
    0.3660   -3.1164    1.3604 O   0  0  0  0  0  0  0  0  0  0  0  0
   -1.7394   -4.1984   -0.9776 C   0  0  0  0  0  0  0  0  0  0  0  0
   -1.9669   -1.0876   -0.1373 H   0  0  0  0  0  0  0  0  0  0  0  0
   -2.7407   -3.0821    0.5757 H   0  0  0  0  0  0  0  0  0  0  0  0
   -0.7400   -4.3122   -1.4130 H   0  0  0  0  0  0  0  0  0  0  0  0
   -2.0602   -5.1839   -0.6243 H   0  0  0  0  0  0  0  0  0  0  0  0
   -2.4175   -3.8861   -1.7792 H   0  0  0  0  0  0  0  0  0  0  0  0
   -1.2846   -4.5866    2.0669 N   0  0  0  0  0  0  0  0  0  0  0  0
   -0.5495   -5.1541    3.1730 C   0  0  0  0  0  0  0  0  0  0  0  0
   -2.2356   -4.9093    1.9144 H   0  0  0  0  0  0  0  0  0  0  0  0
   -0.0081   -6.0494    2.8333 H   0  0  0  0  0  0  0  0  0  0  0  0
    0.1693   -4.4136    3.5538 H   0  0  0  0  0  0  0  0  0  0  0  0
   -1.2497   -5.4314    3.9747 H   0  0  0  0  0  0  0  0  0  0  0  0
  1  3  1  0  0  0  0
  1  7  1  0  0  0  0
  1  2  2  0  0  0  0
 31 32  1  0  0  0  0
 32 40  1  0  0  0  0
 32 33  2  0  0  0  0
  8  9  1  0  0  0  0
  9 17  1  0  0  0  0
  9 10  2  0  0  0  0
 18 19  1  0  0  0  0
 19 30  1  0  0  0  0
 19 20  2  0  0  0  0
 21 22  1  0  0  0  0
 22 23  2  0  0  0  0
 22 24  1  0  0  0  0
 31 34  1  0  0  0  0
  8 11  1  0  0  0  0
 40 41  1  0  0  0  0
 18 21  1  0  0  0  0
 30 31  1  0  0  0  0
  7  8  1  0  0  0  0
 17 18  1  0  0  0  0
  3  4  1  0  0  0  0
  3  5  1  0  0  0  0
  3  6  1  0  0  0  0
 34 37  1  0  0  0  0
 34 38  1  0  0  0  0
 34 39  1  0  0  0  0
 11 14  1  0  0  0  0
 11 15  1  0  0  0  0
 11 16  1  0  0  0  0
 41 43  1  0  0  0  0
 41 44  1  0  0  0  0
 41 45  1  0  0  0  0
 21 27  1  0  0  0  0
 21 28  1  0  0  0  0
 31 36  1  0  0  0  0
  8 13  1  0  0  0  0
 18 26  1  0  0  0  0
 40 42  1  0  0  0  0
  7 12  1  0  0  0  0
 30 35  1  0  0  0  0
 17 25  1  0  0  0  0
 24 29  1  0  0  0  0
M  END
$$$$

  -OEChem-05262214473D

 45 44  0     1  0  0  0  0  0999 V2000
   -2.2987    4.1032   -0.3022 C   0  0  0  0  0  0  0  0  0  0  0  0
   -1.8049    3.7117   -1.3532 O   0  0  0  0  0  0  0  0  0  0  0  0
   -3.0791    5.3755   -0.2846 C   0  0  0  0  0  0  0  0  0  0  0  0
   -2.4478    6.2532   -0.0717 H   0  0  0  0  0  0  0  0  0  0  0  0
   -3.5571    5.5891   -1.2541 H   0  0  0  0  0  0  0  0  0  0  0  0
   -3.8940    5.4184    0.4556 H   0  0  0  0  0  0  0  0  0  0  0  0
   -2.2137    3.4712    0.9275 N   0  0  0  0  0  0  0  0  0  0  0  0
   -1.5102    2.2327    1.1338 C   0  0  2  0  0  0  0  0  0  0  0  0
   -1.3539    1.5497   -0.2184 C   0  0  0  0  0  0  0  0  0  0  0  0
   -2.0852    1.7861   -1.1778 O   0  0  0  0  0  0  0  0  0  0  0  0
   -2.2477    1.3342    2.1145 C   0  0  0  0  0  0  0  0  0  0  0  0
   -2.6724    3.9052    1.7265 H   0  0  0  0  0  0  0  0  0  0  0  0
   -0.5220    2.4922    1.5290 H   0  0  0  0  0  0  0  0  0  0  0  0
   -3.2400    1.0636    1.7358 H   0  0  0  0  0  0  0  0  0  0  0  0
   -1.6970    0.4046    2.2923 H   0  0  0  0  0  0  0  0  0  0  0  0
   -2.3854    1.8384    3.0772 H   0  0  0  0  0  0  0  0  0  0  0  0
   -0.3283    0.6116   -0.2182 N   0  0  0  0  0  0  0  0  0  0  0  0
    0.0090   -0.1762   -1.3759 C   0  0  2  0  0  0  0  0  0  0  0  0
   -0.1656   -1.6440   -1.0070 C   0  0  0  0  0  0  0  0  0  0  0  0
    0.7621   -2.4506   -1.0128 O   0  0  0  0  0  0  0  0  0  0  0  0
    1.4317    0.0967   -1.8570 C   0  0  0  0  0  0  0  0  0  0  0  0
    1.5565    1.4839   -2.4376 C   0  0  0  0  0  0  0  0  0  0  0  0
    0.6371    2.0846   -2.9783 O   0  0  0  0  0  0  0  0  0  0  0  0
    2.8079    1.9908   -2.3118 O   0  0  0  0  0  0  0  0  0  0  0  0
    0.2381    0.4970    0.6194 H   0  0  0  0  0  0  0  0  0  0  0  0
   -0.7231    0.0854   -2.1493 H   0  0  0  0  0  0  0  0  0  0  0  0
    2.1481    0.0382   -1.0279 H   0  0  0  0  0  0  0  0  0  0  0  0
    1.7719   -0.6404   -2.5943 H   0  0  0  0  0  0  0  0  0  0  0  0
    2.9313    2.8878   -2.6896 H   0  0  0  0  0  0  0  0  0  0  0  0
   -1.4675   -1.9358   -0.6249 N   0  0  0  0  0  0  0  0  0  0  0  0
   -1.8819   -3.2574   -0.2155 C   0  0  2  0  0  0  0  0  0  0  0  0
   -1.1919   -3.5791    1.1036 C   0  0  0  0  0  0  0  0  0  0  0  0
   -0.1577   -3.0261    1.4719 O   0  0  0  0  0  0  0  0  0  0  0  0
   -1.5434   -4.2961   -1.2735 C   0  0  0  0  0  0  0  0  0  0  0  0
   -2.1568   -1.1898   -0.6336 H   0  0  0  0  0  0  0  0  0  0  0  0
   -2.9656   -3.2153   -0.0607 H   0  0  0  0  0  0  0  0  0  0  0  0
   -0.4618   -4.3526   -1.4423 H   0  0  0  0  0  0  0  0  0  0  0  0
   -1.8838   -5.2928   -0.9741 H   0  0  0  0  0  0  0  0  0  0  0  0
   -2.0164   -4.0470   -2.2295 H   0  0  0  0  0  0  0  0  0  0  0  0
   -1.8431   -4.5870    1.8010 N   0  0  0  0  0  0  0  0  0  0  0  0
   -1.3761   -5.0803    3.0756 C   0  0  0  0  0  0  0  0  0  0  0  0
   -2.7049   -4.9754    1.4293 H   0  0  0  0  0  0  0  0  0  0  0  0
   -0.7152   -5.9448    2.9149 H   0  0  0  0  0  0  0  0  0  0  0  0
   -0.8204   -4.2856    3.5949 H   0  0  0  0  0  0  0  0  0  0  0  0
   -2.2371   -5.3860    3.6881 H   0  0  0  0  0  0  0  0  0  0  0  0
  1  3  1  0  0  0  0
  1  7  1  0  0  0  0
  1  2  2  0  0  0  0
 31 32  1  0  0  0  0
 32 40  1  0  0  0  0
 32 33  2  0  0  0  0
  8  9  1  0  0  0  0
  9 17  1  0  0  0  0
  9 10  2  0  0  0  0
 18 19  1  0  0  0  0
 19 30  1  0  0  0  0
 19 20  2  0  0  0  0
 21 22  1  0  0  0  0
 22 23  2  0  0  0  0
 22 24  1  0  0  0  0
 31 34  1  0  0  0  0
  8 11  1  0  0  0  0
 40 41  1  0  0  0  0
 18 21  1  0  0  0  0
 30 31  1  0  0  0  0
  7  8  1  0  0  0  0
 17 18  1  0  0  0  0
  3  4  1  0  0  0  0
  3  5  1  0  0  0  0
  3  6  1  0  0  0  0
 34 37  1  0  0  0  0
 34 38  1  0  0  0  0
 34 39  1  0  0  0  0
 11 14  1  0  0  0  0
 11 15  1  0  0  0  0
 11 16  1  0  0  0  0
 41 43  1  0  0  0  0
 41 44  1  0  0  0  0
 41 45  1  0  0  0  0
 21 27  1  0  0  0  0
 21 28  1  0  0  0  0
 31 36  1  0  0  0  0
  8 13  1  0  0  0  0
 18 26  1  0  0  0  0
 40 42  1  0  0  0  0
  7 12  1  0  0  0  0
 30 35  1  0  0  0  0
 17 25  1  0  0  0  0
 24 29  1  0  0  0  0
M  END
$$$$

  -OEChem-05262214473D

 45 44  0     1  0  0  0  0  0999 V2000
   -2.2987    4.1032   -0.3022 C   0  0  0  0  0  0  0  0  0  0  0  0
   -1.8049    3.7117   -1.3532 O   0  0  0  0  0  0  0  0  0  0  0  0
   -3.0791    5.3755   -0.2846 C   0  0  0  0  0  0  0  0  0  0  0  0
   -2.4478    6.2532   -0.0717 H   0  0  0  0  0  0  0  0  0  0  0  0
   -3.5571    5.5891   -1.2541 H   0  0  0  0  0  0  0  0  0  0  0  0
   -3.8940    5.4184    0.4556 H   0  0  0  0  0  0  0  0  0  0  0  0
   -2.2137    3.4712    0.9275 N   0  0  0  0  0  0  0  0  0  0  0  0
   -1.5102    2.2327    1.1338 C   0  0  2  0  0  0  0  0  0  0  0  0
   -1.3539    1.5497   -0.2184 C   0  0  0  0  0  0  0  0  0  0  0  0
   -2.0852    1.7861   -1.1778 O   0  0  0  0  0  0  0  0  0  0  0  0
   -2.2477    1.3342    2.1145 C   0  0  0  0  0  0  0  0  0  0  0  0
   -2.6724    3.9052    1.7265 H   0  0  0  0  0  0  0  0  0  0  0  0
   -0.5220    2.4922    1.5290 H   0  0  0  0  0  0  0  0  0  0  0  0
   -3.2400    1.0636    1.7358 H   0  0  0  0  0  0  0  0  0  0  0  0
   -1.6970    0.4046    2.2923 H   0  0  0  0  0  0  0  0  0  0  0  0
   -2.3854    1.8384    3.0772 H   0  0  0  0  0  0  0  0  0  0  0  0
   -0.3283    0.6116   -0.2182 N   0  0  0  0  0  0  0  0  0  0  0  0
    0.0090   -0.1762   -1.3759 C   0  0  2  0  0  0  0  0  0  0  0  0
   -0.1656   -1.6440   -1.0070 C   0  0  0  0  0  0  0  0  0  0  0  0
    0.7799   -2.3872   -0.7519 O   0  0  0  0  0  0  0  0  0  0  0  0
    1.4317    0.0967   -1.8570 C   0  0  0  0  0  0  0  0  0  0  0  0
    1.5565    1.4839   -2.4376 C   0  0  0  0  0  0  0  0  0  0  0  0
    0.6371    2.0846   -2.9783 O   0  0  0  0  0  0  0  0  0  0  0  0
    2.8079    1.9908   -2.3118 O   0  0  0  0  0  0  0  0  0  0  0  0
    0.2381    0.4970    0.6194 H   0  0  0  0  0  0  0  0  0  0  0  0
   -0.7231    0.0854   -2.1493 H   0  0  0  0  0  0  0  0  0  0  0  0
    2.1481    0.0382   -1.0279 H   0  0  0  0  0  0  0  0  0  0  0  0
    1.7719   -0.6404   -2.5943 H   0  0  0  0  0  0  0  0  0  0  0  0
    2.9313    2.8878   -2.6896 H   0  0  0  0  0  0  0  0  0  0  0  0
   -1.5022   -2.0133   -0.9496 N   0  0  0  0  0  0  0  0  0  0  0  0
   -1.9273   -3.3503   -0.6065 C   0  0  2  0  0  0  0  0  0  0  0  0
   -1.5717   -3.5967    0.8537 C   0  0  0  0  0  0  0  0  0  0  0  0
   -0.6971   -2.9683    1.4464 O   0  0  0  0  0  0  0  0  0  0  0  0
   -1.2741   -4.3869   -1.5074 C   0  0  0  0  0  0  0  0  0  0  0  0
   -2.2101   -1.3151   -1.1573 H   0  0  0  0  0  0  0  0  0  0  0  0
   -3.0157   -3.3769   -0.7275 H   0  0  0  0  0  0  0  0  0  0  0  0
   -0.1834   -4.3752   -1.4000 H   0  0  0  0  0  0  0  0  0  0  0  0
   -1.6193   -5.3974   -1.2648 H   0  0  0  0  0  0  0  0  0  0  0  0
   -1.5066   -4.1906   -2.5597 H   0  0  0  0  0  0  0  0  0  0  0  0
   -2.3161   -4.6302    1.4049 N   0  0  0  0  0  0  0  0  0  0  0  0
   -2.1548   -5.0636    2.7732 C   0  0  0  0  0  0  0  0  0  0  0  0
   -3.0331   -5.0831    0.8457 H   0  0  0  0  0  0  0  0  0  0  0  0
   -1.4250   -5.8856    2.8143 H   0  0  0  0  0  0  0  0  0  0  0  0
   -1.7946   -4.2227    3.3840 H   0  0  0  0  0  0  0  0  0  0  0  0
   -3.1222   -5.4125    3.1636 H   0  0  0  0  0  0  0  0  0  0  0  0
  1  3  1  0  0  0  0
  1  7  1  0  0  0  0
  1  2  2  0  0  0  0
 31 32  1  0  0  0  0
 32 40  1  0  0  0  0
 32 33  2  0  0  0  0
  8  9  1  0  0  0  0
  9 17  1  0  0  0  0
  9 10  2  0  0  0  0
 18 19  1  0  0  0  0
 19 30  1  0  0  0  0
 19 20  2  0  0  0  0
 21 22  1  0  0  0  0
 22 23  2  0  0  0  0
 22 24  1  0  0  0  0
 31 34  1  0  0  0  0
  8 11  1  0  0  0  0
 40 41  1  0  0  0  0
 18 21  1  0  0  0  0
 30 31  1  0  0  0  0
  7  8  1  0  0  0  0
 17 18  1  0  0  0  0
  3  4  1  0  0  0  0
  3  5  1  0  0  0  0
  3  6  1  0  0  0  0
 34 37  1  0  0  0  0
 34 38  1  0  0  0  0
 34 39  1  0  0  0  0
 11 14  1  0  0  0  0
 11 15  1  0  0  0  0
 11 16  1  0  0  0  0
 41 43  1  0  0  0  0
 41 44  1  0  0  0  0
 41 45  1  0  0  0  0
 21 27  1  0  0  0  0
 21 28  1  0  0  0  0
 31 36  1  0  0  0  0
  8 13  1  0  0  0  0
 18 26  1  0  0  0  0
 40 42  1  0  0  0  0
  7 12  1  0  0  0  0
 30 35  1  0  0  0  0
 17 25  1  0  0  0  0
 24 29  1  0  0  0  0
M  END
$$$$

  -OEChem-05262214473D

 45 44  0     1  0  0  0  0  0999 V2000
   -2.2987    4.1032   -0.3022 C   0  0  0  0  0  0  0  0  0  0  0  0
   -1.8049    3.7117   -1.3532 O   0  0  0  0  0  0  0  0  0  0  0  0
   -3.0791    5.3755   -0.2846 C   0  0  0  0  0  0  0  0  0  0  0  0
   -2.4478    6.2532   -0.0717 H   0  0  0  0  0  0  0  0  0  0  0  0
   -3.5571    5.5891   -1.2541 H   0  0  0  0  0  0  0  0  0  0  0  0
   -3.8940    5.4184    0.4556 H   0  0  0  0  0  0  0  0  0  0  0  0
   -2.2137    3.4712    0.9275 N   0  0  0  0  0  0  0  0  0  0  0  0
   -1.5102    2.2327    1.1338 C   0  0  2  0  0  0  0  0  0  0  0  0
   -1.3539    1.5497   -0.2184 C   0  0  0  0  0  0  0  0  0  0  0  0
   -2.0852    1.7861   -1.1778 O   0  0  0  0  0  0  0  0  0  0  0  0
   -2.2477    1.3342    2.1145 C   0  0  0  0  0  0  0  0  0  0  0  0
   -2.6724    3.9052    1.7265 H   0  0  0  0  0  0  0  0  0  0  0  0
   -0.5220    2.4922    1.5290 H   0  0  0  0  0  0  0  0  0  0  0  0
   -3.2400    1.0636    1.7358 H   0  0  0  0  0  0  0  0  0  0  0  0
   -1.6970    0.4046    2.2923 H   0  0  0  0  0  0  0  0  0  0  0  0
   -2.3854    1.8384    3.0772 H   0  0  0  0  0  0  0  0  0  0  0  0
   -0.3283    0.6116   -0.2182 N   0  0  0  0  0  0  0  0  0  0  0  0
    0.0090   -0.1762   -1.3759 C   0  0  2  0  0  0  0  0  0  0  0  0
   -0.1656   -1.6440   -1.0070 C   0  0  0  0  0  0  0  0  0  0  0  0
    0.7280   -2.3170   -0.4972 O   0  0  0  0  0  0  0  0  0  0  0  0
    1.4317    0.0967   -1.8570 C   0  0  0  0  0  0  0  0  0  0  0  0
    1.5565    1.4839   -2.4376 C   0  0  0  0  0  0  0  0  0  0  0  0
    0.6371    2.0846   -2.9783 O   0  0  0  0  0  0  0  0  0  0  0  0
    2.8079    1.9908   -2.3118 O   0  0  0  0  0  0  0  0  0  0  0  0
    0.2381    0.4970    0.6194 H   0  0  0  0  0  0  0  0  0  0  0  0
   -0.7231    0.0854   -2.1493 H   0  0  0  0  0  0  0  0  0  0  0  0
    2.1481    0.0382   -1.0279 H   0  0  0  0  0  0  0  0  0  0  0  0
    1.7719   -0.6404   -2.5943 H   0  0  0  0  0  0  0  0  0  0  0  0
    2.9313    2.8878   -2.6896 H   0  0  0  0  0  0  0  0  0  0  0  0
   -1.4498   -2.1000   -1.2696 N   0  0  0  0  0  0  0  0  0  0  0  0
   -1.8678   -3.4545   -0.9928 C   0  0  2  0  0  0  0  0  0  0  0  0
   -1.8751   -3.6450    0.5182 C   0  0  0  0  0  0  0  0  0  0  0  0
   -1.2153   -2.9471    1.2854 O   0  0  0  0  0  0  0  0  0  0  0  0
   -0.9500   -4.4647   -1.6636 C   0  0  0  0  0  0  0  0  0  0  0  0
   -2.1231   -1.4550   -1.6727 H   0  0  0  0  0  0  0  0  0  0  0  0
   -2.8878   -3.5559   -1.3793 H   0  0  0  0  0  0  0  0  0  0  0  0
    0.0765   -4.3782   -1.2891 H   0  0  0  0  0  0  0  0  0  0  0  0
   -1.2848   -5.4903   -1.4764 H   0  0  0  0  0  0  0  0  0  0  0  0
   -0.9229   -4.3072   -2.7472 H   0  0  0  0  0  0  0  0  0  0  0  0
   -2.6716   -4.7134    0.9056 N   0  0  0  0  0  0  0  0  0  0  0  0
   -2.8327   -5.1053    2.2864 C   0  0  0  0  0  0  0  0  0  0  0  0
   -3.1978   -5.2249    0.2033 H   0  0  0  0  0  0  0  0  0  0  0  0
   -2.0893   -5.8759    2.5384 H   0  0  0  0  0  0  0  0  0  0  0  0
   -2.6870   -4.2293    2.9354 H   0  0  0  0  0  0  0  0  0  0  0  0
   -3.8447   -5.5091    2.4371 H   0  0  0  0  0  0  0  0  0  0  0  0
  1  3  1  0  0  0  0
  1  7  1  0  0  0  0
  1  2  2  0  0  0  0
 31 32  1  0  0  0  0
 32 40  1  0  0  0  0
 32 33  2  0  0  0  0
  8  9  1  0  0  0  0
  9 17  1  0  0  0  0
  9 10  2  0  0  0  0
 18 19  1  0  0  0  0
 19 30  1  0  0  0  0
 19 20  2  0  0  0  0
 21 22  1  0  0  0  0
 22 23  2  0  0  0  0
 22 24  1  0  0  0  0
 31 34  1  0  0  0  0
  8 11  1  0  0  0  0
 40 41  1  0  0  0  0
 18 21  1  0  0  0  0
 30 31  1  0  0  0  0
  7  8  1  0  0  0  0
 17 18  1  0  0  0  0
  3  4  1  0  0  0  0
  3  5  1  0  0  0  0
  3  6  1  0  0  0  0
 34 37  1  0  0  0  0
 34 38  1  0  0  0  0
 34 39  1  0  0  0  0
 11 14  1  0  0  0  0
 11 15  1  0  0  0  0
 11 16  1  0  0  0  0
 41 43  1  0  0  0  0
 41 44  1  0  0  0  0
 41 45  1  0  0  0  0
 21 27  1  0  0  0  0
 21 28  1  0  0  0  0
 31 36  1  0  0  0  0
  8 13  1  0  0  0  0
 18 26  1  0  0  0  0
 40 42  1  0  0  0  0
  7 12  1  0  0  0  0
 30 35  1  0  0  0  0
 17 25  1  0  0  0  0
 24 29  1  0  0  0  0
M  END
$$$$

  -OEChem-05262214473D

 45 44  0     1  0  0  0  0  0999 V2000
   -2.2987    4.1032   -0.3022 C   0  0  0  0  0  0  0  0  0  0  0  0
   -1.8049    3.7117   -1.3532 O   0  0  0  0  0  0  0  0  0  0  0  0
   -3.0791    5.3755   -0.2846 C   0  0  0  0  0  0  0  0  0  0  0  0
   -2.4478    6.2532   -0.0717 H   0  0  0  0  0  0  0  0  0  0  0  0
   -3.5571    5.5891   -1.2541 H   0  0  0  0  0  0  0  0  0  0  0  0
   -3.8940    5.4184    0.4556 H   0  0  0  0  0  0  0  0  0  0  0  0
   -2.2137    3.4712    0.9275 N   0  0  0  0  0  0  0  0  0  0  0  0
   -1.5102    2.2327    1.1338 C   0  0  2  0  0  0  0  0  0  0  0  0
   -1.3539    1.5497   -0.2184 C   0  0  0  0  0  0  0  0  0  0  0  0
   -2.0852    1.7861   -1.1778 O   0  0  0  0  0  0  0  0  0  0  0  0
   -2.2477    1.3342    2.1145 C   0  0  0  0  0  0  0  0  0  0  0  0
   -2.6724    3.9052    1.7265 H   0  0  0  0  0  0  0  0  0  0  0  0
   -0.5220    2.4922    1.5290 H   0  0  0  0  0  0  0  0  0  0  0  0
   -3.2400    1.0636    1.7358 H   0  0  0  0  0  0  0  0  0  0  0  0
   -1.6970    0.4046    2.2923 H   0  0  0  0  0  0  0  0  0  0  0  0
   -2.3854    1.8384    3.0772 H   0  0  0  0  0  0  0  0  0  0  0  0
   -0.3283    0.6116   -0.2182 N   0  0  0  0  0  0  0  0  0  0  0  0
    0.0090   -0.1762   -1.3759 C   0  0  2  0  0  0  0  0  0  0  0  0
   -0.1656   -1.6440   -1.0070 C   0  0  0  0  0  0  0  0  0  0  0  0
    0.6100   -2.2449   -0.2663 O   0  0  0  0  0  0  0  0  0  0  0  0
    1.4317    0.0967   -1.8570 C   0  0  0  0  0  0  0  0  0  0  0  0
    1.5565    1.4839   -2.4376 C   0  0  0  0  0  0  0  0  0  0  0  0
    0.6371    2.0846   -2.9783 O   0  0  0  0  0  0  0  0  0  0  0  0
    2.8079    1.9908   -2.3118 O   0  0  0  0  0  0  0  0  0  0  0  0
    0.2381    0.4970    0.6194 H   0  0  0  0  0  0  0  0  0  0  0  0
   -0.7231    0.0854   -2.1493 H   0  0  0  0  0  0  0  0  0  0  0  0
    2.1481    0.0382   -1.0279 H   0  0  0  0  0  0  0  0  0  0  0  0
    1.7719   -0.6404   -2.5943 H   0  0  0  0  0  0  0  0  0  0  0  0
    2.9313    2.8878   -2.6896 H   0  0  0  0  0  0  0  0  0  0  0  0
   -1.3141   -2.1899   -1.5630 N   0  0  0  0  0  0  0  0  0  0  0  0
   -1.7074   -3.5628   -1.3480 C   0  0  2  0  0  0  0  0  0  0  0  0
   -2.0815   -3.7205    0.1198 C   0  0  0  0  0  0  0  0  0  0  0  0
   -1.6770   -2.9639    1.0002 O   0  0  0  0  0  0  0  0  0  0  0  0
   -0.5931   -4.5242   -1.7313 C   0  0  0  0  0  0  0  0  0  0  0  0
   -1.9017   -1.5999   -2.1447 H   0  0  0  0  0  0  0  0  0  0  0  0
   -2.5904   -3.7402   -1.9717 H   0  0  0  0  0  0  0  0  0  0  0  0
    0.3000   -4.3615   -1.1171 H   0  0  0  0  0  0  0  0  0  0  0  0
   -0.9031   -5.5655   -1.5947 H   0  0  0  0  0  0  0  0  0  0  0  0
   -0.3049   -4.3888   -2.7794 H   0  0  0  0  0  0  0  0  0  0  0  0
   -2.8853   -4.8309    0.3372 N   0  0  0  0  0  0  0  0  0  0  0  0
   -3.3634   -5.2026    1.6484 C   0  0  0  0  0  0  0  0  0  0  0  0
   -3.1878   -5.3913   -0.4541 H   0  0  0  0  0  0  0  0  0  0  0  0
   -2.6627   -5.9164    2.1060 H   0  0  0  0  0  0  0  0  0  0  0  0
   -3.4367   -4.3049    2.2799 H   0  0  0  0  0  0  0  0  0  0  0  0
   -4.3554   -5.6693    1.5581 H   0  0  0  0  0  0  0  0  0  0  0  0
  1  3  1  0  0  0  0
  1  7  1  0  0  0  0
  1  2  2  0  0  0  0
 31 32  1  0  0  0  0
 32 40  1  0  0  0  0
 32 33  2  0  0  0  0
  8  9  1  0  0  0  0
  9 17  1  0  0  0  0
  9 10  2  0  0  0  0
 18 19  1  0  0  0  0
 19 30  1  0  0  0  0
 19 20  2  0  0  0  0
 21 22  1  0  0  0  0
 22 23  2  0  0  0  0
 22 24  1  0  0  0  0
 31 34  1  0  0  0  0
  8 11  1  0  0  0  0
 40 41  1  0  0  0  0
 18 21  1  0  0  0  0
 30 31  1  0  0  0  0
  7  8  1  0  0  0  0
 17 18  1  0  0  0  0
  3  4  1  0  0  0  0
  3  5  1  0  0  0  0
  3  6  1  0  0  0  0
 34 37  1  0  0  0  0
 34 38  1  0  0  0  0
 34 39  1  0  0  0  0
 11 14  1  0  0  0  0
 11 15  1  0  0  0  0
 11 16  1  0  0  0  0
 41 43  1  0  0  0  0
 41 44  1  0  0  0  0
 41 45  1  0  0  0  0
 21 27  1  0  0  0  0
 21 28  1  0  0  0  0
 31 36  1  0  0  0  0
  8 13  1  0  0  0  0
 18 26  1  0  0  0  0
 40 42  1  0  0  0  0
  7 12  1  0  0  0  0
 30 35  1  0  0  0  0
 17 25  1  0  0  0  0
 24 29  1  0  0  0  0
M  END
$$$$

  -OEChem-05262214473D

 45 44  0     1  0  0  0  0  0999 V2000
   -2.2987    4.1032   -0.3022 C   0  0  0  0  0  0  0  0  0  0  0  0
   -1.8049    3.7117   -1.3532 O   0  0  0  0  0  0  0  0  0  0  0  0
   -3.0791    5.3755   -0.2846 C   0  0  0  0  0  0  0  0  0  0  0  0
   -2.4478    6.2532   -0.0717 H   0  0  0  0  0  0  0  0  0  0  0  0
   -3.5571    5.5891   -1.2541 H   0  0  0  0  0  0  0  0  0  0  0  0
   -3.8940    5.4184    0.4556 H   0  0  0  0  0  0  0  0  0  0  0  0
   -2.2137    3.4712    0.9275 N   0  0  0  0  0  0  0  0  0  0  0  0
   -1.5102    2.2327    1.1338 C   0  0  2  0  0  0  0  0  0  0  0  0
   -1.3539    1.5497   -0.2184 C   0  0  0  0  0  0  0  0  0  0  0  0
   -2.0852    1.7861   -1.1778 O   0  0  0  0  0  0  0  0  0  0  0  0
   -2.2477    1.3342    2.1145 C   0  0  0  0  0  0  0  0  0  0  0  0
   -2.6724    3.9052    1.7265 H   0  0  0  0  0  0  0  0  0  0  0  0
   -0.5220    2.4922    1.5290 H   0  0  0  0  0  0  0  0  0  0  0  0
   -3.2400    1.0636    1.7358 H   0  0  0  0  0  0  0  0  0  0  0  0
   -1.6970    0.4046    2.2923 H   0  0  0  0  0  0  0  0  0  0  0  0
   -2.3854    1.8384    3.0772 H   0  0  0  0  0  0  0  0  0  0  0  0
   -0.3283    0.6116   -0.2182 N   0  0  0  0  0  0  0  0  0  0  0  0
    0.0090   -0.1762   -1.3759 C   0  0  2  0  0  0  0  0  0  0  0  0
   -0.1656   -1.6440   -1.0070 C   0  0  0  0  0  0  0  0  0  0  0  0
    0.4339   -2.1758   -0.0748 O   0  0  0  0  0  0  0  0  0  0  0  0
    1.4317    0.0967   -1.8570 C   0  0  0  0  0  0  0  0  0  0  0  0
    1.5565    1.4839   -2.4376 C   0  0  0  0  0  0  0  0  0  0  0  0
    0.6371    2.0846   -2.9783 O   0  0  0  0  0  0  0  0  0  0  0  0
    2.8079    1.9908   -2.3118 O   0  0  0  0  0  0  0  0  0  0  0  0
    0.2381    0.4970    0.6194 H   0  0  0  0  0  0  0  0  0  0  0  0
   -0.7231    0.0854   -2.1493 H   0  0  0  0  0  0  0  0  0  0  0  0
    2.1481    0.0382   -1.0279 H   0  0  0  0  0  0  0  0  0  0  0  0
    1.7719   -0.6404   -2.5943 H   0  0  0  0  0  0  0  0  0  0  0  0
    2.9313    2.8878   -2.6896 H   0  0  0  0  0  0  0  0  0  0  0  0
   -1.1041   -2.2769   -1.8100 N   0  0  0  0  0  0  0  0  0  0  0  0
   -1.4572   -3.6680   -1.6480 C   0  0  2  0  0  0  0  0  0  0  0  0
   -2.1768   -3.8182   -0.3142 C   0  0  0  0  0  0  0  0  0  0  0  0
   -2.0508   -3.0175    0.6100 O   0  0  0  0  0  0  0  0  0  0  0  0
   -0.2278   -4.5613   -1.7060 C   0  0  0  0  0  0  0  0  0  0  0  0
   -1.5612   -1.7401   -2.5412 H   0  0  0  0  0  0  0  0  0  0  0  0
   -2.1440   -3.9171   -2.4642 H   0  0  0  0  0  0  0  0  0  0  0  0
    0.4720   -4.3264   -0.8957 H   0  0  0  0  0  0  0  0  0  0  0  0
   -0.5001   -5.6176   -1.6116 H   0  0  0  0  0  0  0  0  0  0  0  0
    0.3051   -4.4298   -2.6539 H   0  0  0  0  0  0  0  0  0  0  0  0
   -2.9425   -4.9746   -0.2617 N   0  0  0  0  0  0  0  0  0  0  0  0
   -3.7109   -5.3486    0.9027 C   0  0  0  0  0  0  0  0  0  0  0  0
   -3.0038   -5.5709   -1.0816 H   0  0  0  0  0  0  0  0  0  0  0  0
   -3.1063   -6.0043    1.5465 H   0  0  0  0  0  0  0  0  0  0  0  0
   -3.9927   -4.4443    1.4619 H   0  0  0  0  0  0  0  0  0  0  0  0
   -4.6194   -5.8821    0.5864 H   0  0  0  0  0  0  0  0  0  0  0  0
  1  3  1  0  0  0  0
  1  7  1  0  0  0  0
  1  2  2  0  0  0  0
 31 32  1  0  0  0  0
 32 40  1  0  0  0  0
 32 33  2  0  0  0  0
  8  9  1  0  0  0  0
  9 17  1  0  0  0  0
  9 10  2  0  0  0  0
 18 19  1  0  0  0  0
 19 30  1  0  0  0  0
 19 20  2  0  0  0  0
 21 22  1  0  0  0  0
 22 23  2  0  0  0  0
 22 24  1  0  0  0  0
 31 34  1  0  0  0  0
  8 11  1  0  0  0  0
 40 41  1  0  0  0  0
 18 21  1  0  0  0  0
 30 31  1  0  0  0  0
  7  8  1  0  0  0  0
 17 18  1  0  0  0  0
  3  4  1  0  0  0  0
  3  5  1  0  0  0  0
  3  6  1  0  0  0  0
 34 37  1  0  0  0  0
 34 38  1  0  0  0  0
 34 39  1  0  0  0  0
 11 14  1  0  0  0  0
 11 15  1  0  0  0  0
 11 16  1  0  0  0  0
 41 43  1  0  0  0  0
 41 44  1  0  0  0  0
 41 45  1  0  0  0  0
 21 27  1  0  0  0  0
 21 28  1  0  0  0  0
 31 36  1  0  0  0  0
  8 13  1  0  0  0  0
 18 26  1  0  0  0  0
 40 42  1  0  0  0  0
  7 12  1  0  0  0  0
 30 35  1  0  0  0  0
 17 25  1  0  0  0  0
 24 29  1  0  0  0  0
M  END
$$$$

  -OEChem-05262214473D

 45 44  0     1  0  0  0  0  0999 V2000
   -2.2987    4.1032   -0.3022 C   0  0  0  0  0  0  0  0  0  0  0  0
   -1.8049    3.7117   -1.3532 O   0  0  0  0  0  0  0  0  0  0  0  0
   -3.0791    5.3755   -0.2846 C   0  0  0  0  0  0  0  0  0  0  0  0
   -2.4478    6.2532   -0.0717 H   0  0  0  0  0  0  0  0  0  0  0  0
   -3.5571    5.5891   -1.2541 H   0  0  0  0  0  0  0  0  0  0  0  0
   -3.8940    5.4184    0.4556 H   0  0  0  0  0  0  0  0  0  0  0  0
   -2.2137    3.4712    0.9275 N   0  0  0  0  0  0  0  0  0  0  0  0
   -1.5102    2.2327    1.1338 C   0  0  2  0  0  0  0  0  0  0  0  0
   -1.3539    1.5497   -0.2184 C   0  0  0  0  0  0  0  0  0  0  0  0
   -2.0852    1.7861   -1.1778 O   0  0  0  0  0  0  0  0  0  0  0  0
   -2.2477    1.3342    2.1145 C   0  0  0  0  0  0  0  0  0  0  0  0
   -2.6724    3.9052    1.7265 H   0  0  0  0  0  0  0  0  0  0  0  0
   -0.5220    2.4922    1.5290 H   0  0  0  0  0  0  0  0  0  0  0  0
   -3.2400    1.0636    1.7358 H   0  0  0  0  0  0  0  0  0  0  0  0
   -1.6970    0.4046    2.2923 H   0  0  0  0  0  0  0  0  0  0  0  0
   -2.3854    1.8384    3.0772 H   0  0  0  0  0  0  0  0  0  0  0  0
   -0.3283    0.6116   -0.2182 N   0  0  0  0  0  0  0  0  0  0  0  0
    0.0090   -0.1762   -1.3759 C   0  0  2  0  0  0  0  0  0  0  0  0
   -0.1656   -1.6440   -1.0070 C   0  0  0  0  0  0  0  0  0  0  0  0
    0.2117   -2.1145    0.0642 O   0  0  0  0  0  0  0  0  0  0  0  0
    1.4317    0.0967   -1.8570 C   0  0  0  0  0  0  0  0  0  0  0  0
    1.5565    1.4839   -2.4376 C   0  0  0  0  0  0  0  0  0  0  0  0
    0.6371    2.0846   -2.9783 O   0  0  0  0  0  0  0  0  0  0  0  0
    2.8079    1.9908   -2.3118 O   0  0  0  0  0  0  0  0  0  0  0  0
    0.2381    0.4970    0.6194 H   0  0  0  0  0  0  0  0  0  0  0  0
   -0.7231    0.0854   -2.1493 H   0  0  0  0  0  0  0  0  0  0  0  0
    2.1481    0.0382   -1.0279 H   0  0  0  0  0  0  0  0  0  0  0  0
    1.7719   -0.6404   -2.5943 H   0  0  0  0  0  0  0  0  0  0  0  0
    2.9313    2.8878   -2.6896 H   0  0  0  0  0  0  0  0  0  0  0  0
   -0.8343   -2.3551   -1.9935 N   0  0  0  0  0  0  0  0  0  0  0  0
   -1.1341   -3.7627   -1.8721 C   0  0  2  0  0  0  0  0  0  0  0  0
   -2.1545   -3.9315   -0.7542 C   0  0  0  0  0  0  0  0  0  0  0  0
   -2.3113   -3.1043    0.1414 O   0  0  0  0  0  0  0  0  0  0  0  0
    0.1211   -4.5734   -1.5893 C   0  0  0  0  0  0  0  0  0  0  0  0
   -1.1246   -1.8659   -2.8350 H   0  0  0  0  0  0  0  0  0  0  0  0
   -1.5788   -4.0746   -2.8235 H   0  0  0  0  0  0  0  0  0  0  0  0
    0.5807   -4.2750   -0.6400 H   0  0  0  0  0  0  0  0  0  0  0  0
   -0.1035   -5.6433   -1.5258 H   0  0  0  0  0  0  0  0  0  0  0  0
    0.8656   -4.4275   -2.3794 H   0  0  0  0  0  0  0  0  0  0  0  0
   -2.8395   -5.1347   -0.8501 N   0  0  0  0  0  0  0  0  0  0  0  0
   -3.8515   -5.5336    0.1000 C   0  0  0  0  0  0  0  0  0  0  0  0
   -2.6584   -5.7515   -1.6366 H   0  0  0  0  0  0  0  0  0  0  0  0
   -3.3897   -6.1335    0.8981 H   0  0  0  0  0  0  0  0  0  0  0  0
   -4.3170   -4.6381    0.5373 H   0  0  0  0  0  0  0  0  0  0  0  0
   -4.6188   -6.1330   -0.4117 H   0  0  0  0  0  0  0  0  0  0  0  0
  1  3  1  0  0  0  0
  1  7  1  0  0  0  0
  1  2  2  0  0  0  0
 31 32  1  0  0  0  0
 32 40  1  0  0  0  0
 32 33  2  0  0  0  0
  8  9  1  0  0  0  0
  9 17  1  0  0  0  0
  9 10  2  0  0  0  0
 18 19  1  0  0  0  0
 19 30  1  0  0  0  0
 19 20  2  0  0  0  0
 21 22  1  0  0  0  0
 22 23  2  0  0  0  0
 22 24  1  0  0  0  0
 31 34  1  0  0  0  0
  8 11  1  0  0  0  0
 40 41  1  0  0  0  0
 18 21  1  0  0  0  0
 30 31  1  0  0  0  0
  7  8  1  0  0  0  0
 17 18  1  0  0  0  0
  3  4  1  0  0  0  0
  3  5  1  0  0  0  0
  3  6  1  0  0  0  0
 34 37  1  0  0  0  0
 34 38  1  0  0  0  0
 34 39  1  0  0  0  0
 11 14  1  0  0  0  0
 11 15  1  0  0  0  0
 11 16  1  0  0  0  0
 41 43  1  0  0  0  0
 41 44  1  0  0  0  0
 41 45  1  0  0  0  0
 21 27  1  0  0  0  0
 21 28  1  0  0  0  0
 31 36  1  0  0  0  0
  8 13  1  0  0  0  0
 18 26  1  0  0  0  0
 40 42  1  0  0  0  0
  7 12  1  0  0  0  0
 30 35  1  0  0  0  0
 17 25  1  0  0  0  0
 24 29  1  0  0  0  0
M  END
$$$$

  -OEChem-05262214473D

 45 44  0     1  0  0  0  0  0999 V2000
   -2.2987    4.1032   -0.3022 C   0  0  0  0  0  0  0  0  0  0  0  0
   -1.8049    3.7117   -1.3532 O   0  0  0  0  0  0  0  0  0  0  0  0
   -3.0791    5.3755   -0.2846 C   0  0  0  0  0  0  0  0  0  0  0  0
   -2.4478    6.2532   -0.0717 H   0  0  0  0  0  0  0  0  0  0  0  0
   -3.5571    5.5891   -1.2541 H   0  0  0  0  0  0  0  0  0  0  0  0
   -3.8940    5.4184    0.4556 H   0  0  0  0  0  0  0  0  0  0  0  0
   -2.2137    3.4712    0.9275 N   0  0  0  0  0  0  0  0  0  0  0  0
   -1.5102    2.2327    1.1338 C   0  0  2  0  0  0  0  0  0  0  0  0
   -1.3539    1.5497   -0.2184 C   0  0  0  0  0  0  0  0  0  0  0  0
   -2.0852    1.7861   -1.1778 O   0  0  0  0  0  0  0  0  0  0  0  0
   -2.2477    1.3342    2.1145 C   0  0  0  0  0  0  0  0  0  0  0  0
   -2.6724    3.9052    1.7265 H   0  0  0  0  0  0  0  0  0  0  0  0
   -0.5220    2.4922    1.5290 H   0  0  0  0  0  0  0  0  0  0  0  0
   -3.2400    1.0636    1.7358 H   0  0  0  0  0  0  0  0  0  0  0  0
   -1.6970    0.4046    2.2923 H   0  0  0  0  0  0  0  0  0  0  0  0
   -2.3854    1.8384    3.0772 H   0  0  0  0  0  0  0  0  0  0  0  0
   -0.3283    0.6116   -0.2182 N   0  0  0  0  0  0  0  0  0  0  0  0
    0.0090   -0.1762   -1.3759 C   0  0  2  0  0  0  0  0  0  0  0  0
   -0.1656   -1.6440   -1.0070 C   0  0  0  0  0  0  0  0  0  0  0  0
   -0.0414   -2.0650    0.1413 O   0  0  0  0  0  0  0  0  0  0  0  0
    1.4317    0.0967   -1.8570 C   0  0  0  0  0  0  0  0  0  0  0  0
    1.5565    1.4839   -2.4376 C   0  0  0  0  0  0  0  0  0  0  0  0
    0.6371    2.0846   -2.9783 O   0  0  0  0  0  0  0  0  0  0  0  0
    2.8079    1.9908   -2.3118 O   0  0  0  0  0  0  0  0  0  0  0  0
    0.2381    0.4970    0.6194 H   0  0  0  0  0  0  0  0  0  0  0  0
   -0.7231    0.0854   -2.1493 H   0  0  0  0  0  0  0  0  0  0  0  0
    2.1481    0.0382   -1.0279 H   0  0  0  0  0  0  0  0  0  0  0  0
    1.7719   -0.6404   -2.5943 H   0  0  0  0  0  0  0  0  0  0  0  0
    2.9313    2.8878   -2.6896 H   0  0  0  0  0  0  0  0  0  0  0  0
   -0.5230   -2.4192   -2.1013 N   0  0  0  0  0  0  0  0  0  0  0  0
   -0.7602   -3.8407   -2.0053 C   0  0  2  0  0  0  0  0  0  0  0  0
   -2.0162   -4.0525   -1.1704 C   0  0  0  0  0  0  0  0  0  0  0  0
   -2.4405   -3.2183   -0.3735 O   0  0  0  0  0  0  0  0  0  0  0  0
    0.4298   -4.5599   -1.3892 C   0  0  0  0  0  0  0  0  0  0  0  0
   -0.6217   -1.9687   -3.0063 H   0  0  0  0  0  0  0  0  0  0  0  0
   -0.9334   -4.2020   -3.0248 H   0  0  0  0  0  0  0  0  0  0  0  0
    0.6188   -4.2110   -0.3674 H   0  0  0  0  0  0  0  0  0  0  0  0
    0.2599   -5.6406   -1.3434 H   0  0  0  0  0  0  0  0  0  0  0  0
    1.3384   -4.3820   -1.9745 H   0  0  0  0  0  0  0  0  0  0  0  0
   -2.5832   -5.3004   -1.3881 N   0  0  0  0  0  0  0  0  0  0  0  0
   -3.7755   -5.7450   -0.7048 C   0  0  0  0  0  0  0  0  0  0  0  0
   -2.1750   -5.9207   -2.0812 H   0  0  0  0  0  0  0  0  0  0  0  0
   -3.4937   -6.2954    0.2049 H   0  0  0  0  0  0  0  0  0  0  0  0
   -4.3876   -4.8730   -0.4309 H   0  0  0  0  0  0  0  0  0  0  0  0
   -4.3536   -6.4050   -1.3682 H   0  0  0  0  0  0  0  0  0  0  0  0
  1  3  1  0  0  0  0
  1  7  1  0  0  0  0
  1  2  2  0  0  0  0
 31 32  1  0  0  0  0
 32 40  1  0  0  0  0
 32 33  2  0  0  0  0
  8  9  1  0  0  0  0
  9 17  1  0  0  0  0
  9 10  2  0  0  0  0
 18 19  1  0  0  0  0
 19 30  1  0  0  0  0
 19 20  2  0  0  0  0
 21 22  1  0  0  0  0
 22 23  2  0  0  0  0
 22 24  1  0  0  0  0
 31 34  1  0  0  0  0
  8 11  1  0  0  0  0
 40 41  1  0  0  0  0
 18 21  1  0  0  0  0
 30 31  1  0  0  0  0
  7  8  1  0  0  0  0
 17 18  1  0  0  0  0
  3  4  1  0  0  0  0
  3  5  1  0  0  0  0
  3  6  1  0  0  0  0
 34 37  1  0  0  0  0
 34 38  1  0  0  0  0
 34 39  1  0  0  0  0
 11 14  1  0  0  0  0
 11 15  1  0  0  0  0
 11 16  1  0  0  0  0
 41 43  1  0  0  0  0
 41 44  1  0  0  0  0
 41 45  1  0  0  0  0
 21 27  1  0  0  0  0
 21 28  1  0  0  0  0
 31 36  1  0  0  0  0
  8 13  1  0  0  0  0
 18 26  1  0  0  0  0
 40 42  1  0  0  0  0
  7 12  1  0  0  0  0
 30 35  1  0  0  0  0
 17 25  1  0  0  0  0
 24 29  1  0  0  0  0
M  END
$$$$

  -OEChem-05262214473D

 45 44  0     1  0  0  0  0  0999 V2000
   -2.2987    4.1032   -0.3022 C   0  0  0  0  0  0  0  0  0  0  0  0
   -1.8049    3.7117   -1.3532 O   0  0  0  0  0  0  0  0  0  0  0  0
   -3.0791    5.3755   -0.2846 C   0  0  0  0  0  0  0  0  0  0  0  0
   -2.4478    6.2532   -0.0717 H   0  0  0  0  0  0  0  0  0  0  0  0
   -3.5571    5.5891   -1.2541 H   0  0  0  0  0  0  0  0  0  0  0  0
   -3.8940    5.4184    0.4556 H   0  0  0  0  0  0  0  0  0  0  0  0
   -2.2137    3.4712    0.9275 N   0  0  0  0  0  0  0  0  0  0  0  0
   -1.5102    2.2327    1.1338 C   0  0  2  0  0  0  0  0  0  0  0  0
   -1.3539    1.5497   -0.2184 C   0  0  0  0  0  0  0  0  0  0  0  0
   -2.0852    1.7861   -1.1778 O   0  0  0  0  0  0  0  0  0  0  0  0
   -2.2477    1.3342    2.1145 C   0  0  0  0  0  0  0  0  0  0  0  0
   -2.6724    3.9052    1.7265 H   0  0  0  0  0  0  0  0  0  0  0  0
   -0.5220    2.4922    1.5290 H   0  0  0  0  0  0  0  0  0  0  0  0
   -3.2400    1.0636    1.7358 H   0  0  0  0  0  0  0  0  0  0  0  0
   -1.6970    0.4046    2.2923 H   0  0  0  0  0  0  0  0  0  0  0  0
   -2.3854    1.8384    3.0772 H   0  0  0  0  0  0  0  0  0  0  0  0
   -0.3283    0.6116   -0.2182 N   0  0  0  0  0  0  0  0  0  0  0  0
    0.0090   -0.1762   -1.3759 C   0  0  2  0  0  0  0  0  0  0  0  0
   -0.1656   -1.6440   -1.0070 C   0  0  0  0  0  0  0  0  0  0  0  0
   -0.3082   -2.0308    0.1512 O   0  0  0  0  0  0  0  0  0  0  0  0
    1.4317    0.0967   -1.8570 C   0  0  0  0  0  0  0  0  0  0  0  0
    1.5565    1.4839   -2.4376 C   0  0  0  0  0  0  0  0  0  0  0  0
    0.6371    2.0846   -2.9783 O   0  0  0  0  0  0  0  0  0  0  0  0
    2.8079    1.9908   -2.3118 O   0  0  0  0  0  0  0  0  0  0  0  0
    0.2381    0.4970    0.6194 H   0  0  0  0  0  0  0  0  0  0  0  0
   -0.7231    0.0854   -2.1493 H   0  0  0  0  0  0  0  0  0  0  0  0
    2.1481    0.0382   -1.0279 H   0  0  0  0  0  0  0  0  0  0  0  0
    1.7719   -0.6404   -2.5943 H   0  0  0  0  0  0  0  0  0  0  0  0
    2.9313    2.8878   -2.6896 H   0  0  0  0  0  0  0  0  0  0  0  0
   -0.1914   -2.4648   -2.1258 N   0  0  0  0  0  0  0  0  0  0  0  0
   -0.3609   -3.8965   -2.0383 C   0  0  2  0  0  0  0  0  0  0  0  0
   -1.7712   -4.1731   -1.5343 C   0  0  0  0  0  0  0  0  0  0  0  0
   -2.4299   -3.3518   -0.8997 O   0  0  0  0  0  0  0  0  0  0  0  0
    0.6772   -4.5215   -1.1194 C   0  0  0  0  0  0  0  0  0  0  0  0
   -0.0868   -2.0416   -3.0432 H   0  0  0  0  0  0  0  0  0  0  0  0
   -0.2518   -4.2905   -3.0546 H   0  0  0  0  0  0  0  0  0  0  0  0
    0.5835   -4.1388   -0.0965 H   0  0  0  0  0  0  0  0  0  0  0  0
    0.5652   -5.6099   -1.0766 H   0  0  0  0  0  0  0  0  0  0  0  0
    1.6913   -4.2964   -1.4669 H   0  0  0  0  0  0  0  0  0  0  0  0
   -2.1911   -5.4604   -1.8390 N   0  0  0  0  0  0  0  0  0  0  0  0
   -3.4882   -5.9682   -1.4570 C   0  0  0  0  0  0  0  0  0  0  0  0
   -1.5866   -6.0671   -2.3850 H   0  0  0  0  0  0  0  0  0  0  0  0
   -3.4111   -6.4788   -0.4857 H   0  0  0  0  0  0  0  0  0  0  0  0
   -4.1996   -5.1331   -1.3767 H   0  0  0  0  0  0  0  0  0  0  0  0
   -3.8419   -6.6794   -2.2179 H   0  0  0  0  0  0  0  0  0  0  0  0
  1  3  1  0  0  0  0
  1  7  1  0  0  0  0
  1  2  2  0  0  0  0
 31 32  1  0  0  0  0
 32 40  1  0  0  0  0
 32 33  2  0  0  0  0
  8  9  1  0  0  0  0
  9 17  1  0  0  0  0
  9 10  2  0  0  0  0
 18 19  1  0  0  0  0
 19 30  1  0  0  0  0
 19 20  2  0  0  0  0
 21 22  1  0  0  0  0
 22 23  2  0  0  0  0
 22 24  1  0  0  0  0
 31 34  1  0  0  0  0
  8 11  1  0  0  0  0
 40 41  1  0  0  0  0
 18 21  1  0  0  0  0
 30 31  1  0  0  0  0
  7  8  1  0  0  0  0
 17 18  1  0  0  0  0
  3  4  1  0  0  0  0
  3  5  1  0  0  0  0
  3  6  1  0  0  0  0
 34 37  1  0  0  0  0
 34 38  1  0  0  0  0
 34 39  1  0  0  0  0
 11 14  1  0  0  0  0
 11 15  1  0  0  0  0
 11 16  1  0  0  0  0
 41 43  1  0  0  0  0
 41 44  1  0  0  0  0
 41 45  1  0  0  0  0
 21 27  1  0  0  0  0
 21 28  1  0  0  0  0
 31 36  1  0  0  0  0
  8 13  1  0  0  0  0
 18 26  1  0  0  0  0
 40 42  1  0  0  0  0
  7 12  1  0  0  0  0
 30 35  1  0  0  0  0
 17 25  1  0  0  0  0
 24 29  1  0  0  0  0
M  END
$$$$

  -OEChem-05262214473D

 45 44  0     1  0  0  0  0  0999 V2000
   -2.2987    4.1032   -0.3022 C   0  0  0  0  0  0  0  0  0  0  0  0
   -1.8049    3.7117   -1.3532 O   0  0  0  0  0  0  0  0  0  0  0  0
   -3.0791    5.3755   -0.2846 C   0  0  0  0  0  0  0  0  0  0  0  0
   -2.4478    6.2532   -0.0717 H   0  0  0  0  0  0  0  0  0  0  0  0
   -3.5571    5.5891   -1.2541 H   0  0  0  0  0  0  0  0  0  0  0  0
   -3.8940    5.4184    0.4556 H   0  0  0  0  0  0  0  0  0  0  0  0
   -2.2137    3.4712    0.9275 N   0  0  0  0  0  0  0  0  0  0  0  0
   -1.5102    2.2327    1.1338 C   0  0  2  0  0  0  0  0  0  0  0  0
   -1.3539    1.5497   -0.2184 C   0  0  0  0  0  0  0  0  0  0  0  0
   -2.0852    1.7861   -1.1778 O   0  0  0  0  0  0  0  0  0  0  0  0
   -2.2477    1.3342    2.1145 C   0  0  0  0  0  0  0  0  0  0  0  0
   -2.6724    3.9052    1.7265 H   0  0  0  0  0  0  0  0  0  0  0  0
   -0.5220    2.4922    1.5290 H   0  0  0  0  0  0  0  0  0  0  0  0
   -3.2400    1.0636    1.7358 H   0  0  0  0  0  0  0  0  0  0  0  0
   -1.6970    0.4046    2.2923 H   0  0  0  0  0  0  0  0  0  0  0  0
   -2.3854    1.8384    3.0772 H   0  0  0  0  0  0  0  0  0  0  0  0
   -0.3283    0.6116   -0.2182 N   0  0  0  0  0  0  0  0  0  0  0  0
    0.0090   -0.1762   -1.3759 C   0  0  2  0  0  0  0  0  0  0  0  0
   -0.5135   -1.5887   -1.1460 C   0  0  0  0  0  0  0  0  0  0  0  0
   -1.1435   -1.9142   -0.1418 O   0  0  0  0  0  0  0  0  0  0  0  0
    1.5126   -0.1900   -1.6382 C   0  0  0  0  0  0  0  0  0  0  0  0
    2.0019    1.1640   -2.0902 C   0  0  0  0  0  0  0  0  0  0  0  0
    1.3144    1.9703   -2.7032 O   0  0  0  0  0  0  0  0  0  0  0  0
    3.2976    1.3873   -1.7585 O   0  0  0  0  0  0  0  0  0  0  0  0
    0.2381    0.4970    0.6194 H   0  0  0  0  0  0  0  0  0  0  0  0
   -0.5318    0.2699   -2.2191 H   0  0  0  0  0  0  0  0  0  0  0  0
    2.0714   -0.4371   -0.7267 H   0  0  0  0  0  0  0  0  0  0  0  0
    1.8009   -0.9482   -2.3764 H   0  0  0  0  0  0  0  0  0  0  0  0
    3.6556    2.2539   -2.0472 H   0  0  0  0  0  0  0  0  0  0  0  0
   -0.2352   -2.4295   -2.2145 N   0  0  0  0  0  0  0  0  0  0  0  0
   -0.6403   -3.8156   -2.2416 C   0  0  2  0  0  0  0  0  0  0  0  0
   -2.1606   -3.8597   -2.3216 C   0  0  0  0  0  0  0  0  0  0  0  0
   -2.8785   -2.9292   -1.9614 O   0  0  0  0  0  0  0  0  0  0  0  0
   -0.1386   -4.5628   -1.0158 C   0  0  0  0  0  0  0  0  0  0  0  0
    0.2740   -2.0550   -3.0096 H   0  0  0  0  0  0  0  0  0  0  0  0
   -0.2134   -4.2521   -3.1511 H   0  0  0  0  0  0  0  0  0  0  0  0
   -0.5557   -4.1396   -0.0947 H   0  0  0  0  0  0  0  0  0  0  0  0
   -0.4221   -5.6198   -1.0519 H   0  0  0  0  0  0  0  0  0  0  0  0
    0.9529   -4.5048   -0.9437 H   0  0  0  0  0  0  0  0  0  0  0  0
   -2.6228   -5.0769   -2.8021 N   0  0  0  0  0  0  0  0  0  0  0  0
   -4.0283   -5.3703   -2.9588 C   0  0  0  0  0  0  0  0  0  0  0  0
   -1.9554   -5.7845   -3.0948 H   0  0  0  0  0  0  0  0  0  0  0  0
   -4.4056   -5.8571   -2.0474 H   0  0  0  0  0  0  0  0  0  0  0  0
   -4.5810   -4.4349   -3.1304 H   0  0  0  0  0  0  0  0  0  0  0  0
   -4.1689   -6.0422   -3.8183 H   0  0  0  0  0  0  0  0  0  0  0  0
  1  3  1  0  0  0  0
  1  7  1  0  0  0  0
  1  2  2  0  0  0  0
 31 32  1  0  0  0  0
 32 40  1  0  0  0  0
 32 33  2  0  0  0  0
  8  9  1  0  0  0  0
  9 17  1  0  0  0  0
  9 10  2  0  0  0  0
 18 19  1  0  0  0  0
 19 30  1  0  0  0  0
 19 20  2  0  0  0  0
 21 22  1  0  0  0  0
 22 23  2  0  0  0  0
 22 24  1  0  0  0  0
 31 34  1  0  0  0  0
  8 11  1  0  0  0  0
 40 41  1  0  0  0  0
 18 21  1  0  0  0  0
 30 31  1  0  0  0  0
  7  8  1  0  0  0  0
 17 18  1  0  0  0  0
  3  4  1  0  0  0  0
  3  5  1  0  0  0  0
  3  6  1  0  0  0  0
 34 37  1  0  0  0  0
 34 38  1  0  0  0  0
 34 39  1  0  0  0  0
 11 14  1  0  0  0  0
 11 15  1  0  0  0  0
 11 16  1  0  0  0  0
 41 43  1  0  0  0  0
 41 44  1  0  0  0  0
 41 45  1  0  0  0  0
 21 27  1  0  0  0  0
 21 28  1  0  0  0  0
 31 36  1  0  0  0  0
  8 13  1  0  0  0  0
 18 26  1  0  0  0  0
 40 42  1  0  0  0  0
  7 12  1  0  0  0  0
 30 35  1  0  0  0  0
 17 25  1  0  0  0  0
 24 29  1  0  0  0  0
M  END
$$$$

  -OEChem-05262214473D

 45 44  0     1  0  0  0  0  0999 V2000
   -2.2987    4.1032   -0.3022 C   0  0  0  0  0  0  0  0  0  0  0  0
   -1.8049    3.7117   -1.3532 O   0  0  0  0  0  0  0  0  0  0  0  0
   -3.0791    5.3755   -0.2846 C   0  0  0  0  0  0  0  0  0  0  0  0
   -2.4478    6.2532   -0.0717 H   0  0  0  0  0  0  0  0  0  0  0  0
   -3.5571    5.5891   -1.2541 H   0  0  0  0  0  0  0  0  0  0  0  0
   -3.8940    5.4184    0.4556 H   0  0  0  0  0  0  0  0  0  0  0  0
   -2.2137    3.4712    0.9275 N   0  0  0  0  0  0  0  0  0  0  0  0
   -1.5102    2.2327    1.1338 C   0  0  2  0  0  0  0  0  0  0  0  0
   -1.3539    1.5497   -0.2184 C   0  0  0  0  0  0  0  0  0  0  0  0
   -2.0852    1.7861   -1.1778 O   0  0  0  0  0  0  0  0  0  0  0  0
   -2.2477    1.3342    2.1145 C   0  0  0  0  0  0  0  0  0  0  0  0
   -2.6724    3.9052    1.7265 H   0  0  0  0  0  0  0  0  0  0  0  0
   -0.5220    2.4922    1.5290 H   0  0  0  0  0  0  0  0  0  0  0  0
   -3.2400    1.0636    1.7358 H   0  0  0  0  0  0  0  0  0  0  0  0
   -1.6970    0.4046    2.2923 H   0  0  0  0  0  0  0  0  0  0  0  0
   -2.3854    1.8384    3.0772 H   0  0  0  0  0  0  0  0  0  0  0  0
   -0.3283    0.6116   -0.2182 N   0  0  0  0  0  0  0  0  0  0  0  0
    0.0090   -0.1762   -1.3759 C   0  0  2  0  0  0  0  0  0  0  0  0
   -0.5135   -1.5887   -1.1460 C   0  0  0  0  0  0  0  0  0  0  0  0
   -1.3581   -1.8597   -0.2949 O   0  0  0  0  0  0  0  0  0  0  0  0
    1.5126   -0.1900   -1.6382 C   0  0  0  0  0  0  0  0  0  0  0  0
    2.0019    1.1640   -2.0902 C   0  0  0  0  0  0  0  0  0  0  0  0
    1.3144    1.9703   -2.7032 O   0  0  0  0  0  0  0  0  0  0  0  0
    3.2976    1.3873   -1.7585 O   0  0  0  0  0  0  0  0  0  0  0  0
    0.2381    0.4970    0.6194 H   0  0  0  0  0  0  0  0  0  0  0  0
   -0.5318    0.2699   -2.2191 H   0  0  0  0  0  0  0  0  0  0  0  0
    2.0714   -0.4371   -0.7267 H   0  0  0  0  0  0  0  0  0  0  0  0
    1.8009   -0.9482   -2.3764 H   0  0  0  0  0  0  0  0  0  0  0  0
    3.6556    2.2539   -2.0472 H   0  0  0  0  0  0  0  0  0  0  0  0
    0.0385   -2.5014   -2.0340 N   0  0  0  0  0  0  0  0  0  0  0  0
   -0.3088   -3.9033   -2.0271 C   0  0  2  0  0  0  0  0  0  0  0  0
   -1.7628   -4.0298   -2.4624 C   0  0  0  0  0  0  0  0  0  0  0  0
   -2.5725   -3.1092   -2.3722 O   0  0  0  0  0  0  0  0  0  0  0  0
   -0.0974   -4.5189   -0.6527 C   0  0  0  0  0  0  0  0  0  0  0  0
    0.7140   -2.1700   -2.7163 H   0  0  0  0  0  0  0  0  0  0  0  0
    0.3375   -4.3928   -2.7637 H   0  0  0  0  0  0  0  0  0  0  0  0
   -0.7366   -4.0412    0.0988 H   0  0  0  0  0  0  0  0  0  0  0  0
   -0.3339   -5.5881   -0.6562 H   0  0  0  0  0  0  0  0  0  0  0  0
    0.9422   -4.4007   -0.3284 H   0  0  0  0  0  0  0  0  0  0  0  0
   -2.0606   -5.3046   -2.9232 N   0  0  0  0  0  0  0  0  0  0  0  0
   -3.3776   -5.6798   -3.3820 C   0  0  0  0  0  0  0  0  0  0  0  0
   -1.3226   -6.0001   -2.9809 H   0  0  0  0  0  0  0  0  0  0  0  0
   -3.9502   -6.1065   -2.5453 H   0  0  0  0  0  0  0  0  0  0  0  0
   -3.8987   -4.7909   -3.7670 H   0  0  0  0  0  0  0  0  0  0  0  0
   -3.2873   -6.4278   -4.1835 H   0  0  0  0  0  0  0  0  0  0  0  0
  1  3  1  0  0  0  0
  1  7  1  0  0  0  0
  1  2  2  0  0  0  0
 31 32  1  0  0  0  0
 32 40  1  0  0  0  0
 32 33  2  0  0  0  0
  8  9  1  0  0  0  0
  9 17  1  0  0  0  0
  9 10  2  0  0  0  0
 18 19  1  0  0  0  0
 19 30  1  0  0  0  0
 19 20  2  0  0  0  0
 21 22  1  0  0  0  0
 22 23  2  0  0  0  0
 22 24  1  0  0  0  0
 31 34  1  0  0  0  0
  8 11  1  0  0  0  0
 40 41  1  0  0  0  0
 18 21  1  0  0  0  0
 30 31  1  0  0  0  0
  7  8  1  0  0  0  0
 17 18  1  0  0  0  0
  3  4  1  0  0  0  0
  3  5  1  0  0  0  0
  3  6  1  0  0  0  0
 34 37  1  0  0  0  0
 34 38  1  0  0  0  0
 34 39  1  0  0  0  0
 11 14  1  0  0  0  0
 11 15  1  0  0  0  0
 11 16  1  0  0  0  0
 41 43  1  0  0  0  0
 41 44  1  0  0  0  0
 41 45  1  0  0  0  0
 21 27  1  0  0  0  0
 21 28  1  0  0  0  0
 31 36  1  0  0  0  0
  8 13  1  0  0  0  0
 18 26  1  0  0  0  0
 40 42  1  0  0  0  0
  7 12  1  0  0  0  0
 30 35  1  0  0  0  0
 17 25  1  0  0  0  0
 24 29  1  0  0  0  0
M  END
$$$$

  -OEChem-05262214473D

 45 44  0     1  0  0  0  0  0999 V2000
   -2.2987    4.1032   -0.3022 C   0  0  0  0  0  0  0  0  0  0  0  0
   -1.8049    3.7117   -1.3532 O   0  0  0  0  0  0  0  0  0  0  0  0
   -3.0791    5.3755   -0.2846 C   0  0  0  0  0  0  0  0  0  0  0  0
   -2.4478    6.2532   -0.0717 H   0  0  0  0  0  0  0  0  0  0  0  0
   -3.5571    5.5891   -1.2541 H   0  0  0  0  0  0  0  0  0  0  0  0
   -3.8940    5.4184    0.4556 H   0  0  0  0  0  0  0  0  0  0  0  0
   -2.2137    3.4712    0.9275 N   0  0  0  0  0  0  0  0  0  0  0  0
   -1.5102    2.2327    1.1338 C   0  0  2  0  0  0  0  0  0  0  0  0
   -1.3539    1.5497   -0.2184 C   0  0  0  0  0  0  0  0  0  0  0  0
   -2.0852    1.7861   -1.1778 O   0  0  0  0  0  0  0  0  0  0  0  0
   -2.2477    1.3342    2.1145 C   0  0  0  0  0  0  0  0  0  0  0  0
   -2.6724    3.9052    1.7265 H   0  0  0  0  0  0  0  0  0  0  0  0
   -0.5220    2.4922    1.5290 H   0  0  0  0  0  0  0  0  0  0  0  0
   -3.2400    1.0636    1.7358 H   0  0  0  0  0  0  0  0  0  0  0  0
   -1.6970    0.4046    2.2923 H   0  0  0  0  0  0  0  0  0  0  0  0
   -2.3854    1.8384    3.0772 H   0  0  0  0  0  0  0  0  0  0  0  0
   -0.3283    0.6116   -0.2182 N   0  0  0  0  0  0  0  0  0  0  0  0
    0.0090   -0.1762   -1.3759 C   0  0  2  0  0  0  0  0  0  0  0  0
   -0.5135   -1.5887   -1.1460 C   0  0  0  0  0  0  0  0  0  0  0  0
   -1.5308   -1.8291   -0.4991 O   0  0  0  0  0  0  0  0  0  0  0  0
    1.5126   -0.1900   -1.6382 C   0  0  0  0  0  0  0  0  0  0  0  0
    2.0019    1.1640   -2.0902 C   0  0  0  0  0  0  0  0  0  0  0  0
    1.3144    1.9703   -2.7032 O   0  0  0  0  0  0  0  0  0  0  0  0
    3.2976    1.3873   -1.7585 O   0  0  0  0  0  0  0  0  0  0  0  0
    0.2381    0.4970    0.6194 H   0  0  0  0  0  0  0  0  0  0  0  0
   -0.5318    0.2699   -2.2191 H   0  0  0  0  0  0  0  0  0  0  0  0
    2.0714   -0.4371   -0.7267 H   0  0  0  0  0  0  0  0  0  0  0  0
    1.8009   -0.9482   -2.3764 H   0  0  0  0  0  0  0  0  0  0  0  0
    3.6556    2.2539   -2.0472 H   0  0  0  0  0  0  0  0  0  0  0  0
    0.2623   -2.5441   -1.7876 N   0  0  0  0  0  0  0  0  0  0  0  0
   -0.0367   -3.9560   -1.7325 C   0  0  2  0  0  0  0  0  0  0  0  0
   -1.3381   -4.1910   -2.4878 C   0  0  0  0  0  0  0  0  0  0  0  0
   -2.1712   -3.3077   -2.6796 O   0  0  0  0  0  0  0  0  0  0  0  0
   -0.1464   -4.4427   -0.2959 C   0  0  0  0  0  0  0  0  0  0  0  0
    1.0731   -2.2379   -2.3173 H   0  0  0  0  0  0  0  0  0  0  0  0
    0.7821   -4.4728   -2.2449 H   0  0  0  0  0  0  0  0  0  0  0  0
   -0.9615   -3.9361    0.2336 H   0  0  0  0  0  0  0  0  0  0  0  0
   -0.3448   -5.5189   -0.2556 H   0  0  0  0  0  0  0  0  0  0  0  0
    0.7801   -4.2459    0.2541 H   0  0  0  0  0  0  0  0  0  0  0  0
   -1.4796   -5.5133   -2.8850 N   0  0  0  0  0  0  0  0  0  0  0  0
   -2.6356   -5.9910   -3.6071 C   0  0  0  0  0  0  0  0  0  0  0  0
   -0.7302   -6.1735   -2.6999 H   0  0  0  0  0  0  0  0  0  0  0  0
   -3.3811   -6.3739   -2.8947 H   0  0  0  0  0  0  0  0  0  0  0  0
   -3.0730   -5.1646   -4.1866 H   0  0  0  0  0  0  0  0  0  0  0  0
   -2.3331   -6.7981   -4.2905 H   0  0  0  0  0  0  0  0  0  0  0  0
  1  3  1  0  0  0  0
  1  7  1  0  0  0  0
  1  2  2  0  0  0  0
 31 32  1  0  0  0  0
 32 40  1  0  0  0  0
 32 33  2  0  0  0  0
  8  9  1  0  0  0  0
  9 17  1  0  0  0  0
  9 10  2  0  0  0  0
 18 19  1  0  0  0  0
 19 30  1  0  0  0  0
 19 20  2  0  0  0  0
 21 22  1  0  0  0  0
 22 23  2  0  0  0  0
 22 24  1  0  0  0  0
 31 34  1  0  0  0  0
  8 11  1  0  0  0  0
 40 41  1  0  0  0  0
 18 21  1  0  0  0  0
 30 31  1  0  0  0  0
  7  8  1  0  0  0  0
 17 18  1  0  0  0  0
  3  4  1  0  0  0  0
  3  5  1  0  0  0  0
  3  6  1  0  0  0  0
 34 37  1  0  0  0  0
 34 38  1  0  0  0  0
 34 39  1  0  0  0  0
 11 14  1  0  0  0  0
 11 15  1  0  0  0  0
 11 16  1  0  0  0  0
 41 43  1  0  0  0  0
 41 44  1  0  0  0  0
 41 45  1  0  0  0  0
 21 27  1  0  0  0  0
 21 28  1  0  0  0  0
 31 36  1  0  0  0  0
  8 13  1  0  0  0  0
 18 26  1  0  0  0  0
 40 42  1  0  0  0  0
  7 12  1  0  0  0  0
 30 35  1  0  0  0  0
 17 25  1  0  0  0  0
 24 29  1  0  0  0  0
M  END
$$$$

  -OEChem-05262214473D

 45 44  0     1  0  0  0  0  0999 V2000
   -2.2987    4.1032   -0.3022 C   0  0  0  0  0  0  0  0  0  0  0  0
   -1.8049    3.7117   -1.3532 O   0  0  0  0  0  0  0  0  0  0  0  0
   -3.0791    5.3755   -0.2846 C   0  0  0  0  0  0  0  0  0  0  0  0
   -2.4478    6.2532   -0.0717 H   0  0  0  0  0  0  0  0  0  0  0  0
   -3.5571    5.5891   -1.2541 H   0  0  0  0  0  0  0  0  0  0  0  0
   -3.8940    5.4184    0.4556 H   0  0  0  0  0  0  0  0  0  0  0  0
   -2.2137    3.4712    0.9275 N   0  0  0  0  0  0  0  0  0  0  0  0
   -1.5102    2.2327    1.1338 C   0  0  2  0  0  0  0  0  0  0  0  0
   -1.3539    1.5497   -0.2184 C   0  0  0  0  0  0  0  0  0  0  0  0
   -2.0852    1.7861   -1.1778 O   0  0  0  0  0  0  0  0  0  0  0  0
   -2.2477    1.3342    2.1145 C   0  0  0  0  0  0  0  0  0  0  0  0
   -2.6724    3.9052    1.7265 H   0  0  0  0  0  0  0  0  0  0  0  0
   -0.5220    2.4922    1.5290 H   0  0  0  0  0  0  0  0  0  0  0  0
   -3.2400    1.0636    1.7358 H   0  0  0  0  0  0  0  0  0  0  0  0
   -1.6970    0.4046    2.2923 H   0  0  0  0  0  0  0  0  0  0  0  0
   -2.3854    1.8384    3.0772 H   0  0  0  0  0  0  0  0  0  0  0  0
   -0.3283    0.6116   -0.2182 N   0  0  0  0  0  0  0  0  0  0  0  0
    0.0090   -0.1762   -1.3759 C   0  0  2  0  0  0  0  0  0  0  0  0
   -0.5135   -1.5887   -1.1460 C   0  0  0  0  0  0  0  0  0  0  0  0
   -1.6498   -1.8244   -0.7404 O   0  0  0  0  0  0  0  0  0  0  0  0
    1.5126   -0.1900   -1.6382 C   0  0  0  0  0  0  0  0  0  0  0  0
    2.0019    1.1640   -2.0902 C   0  0  0  0  0  0  0  0  0  0  0  0
    1.3144    1.9703   -2.7032 O   0  0  0  0  0  0  0  0  0  0  0  0
    3.2976    1.3873   -1.7585 O   0  0  0  0  0  0  0  0  0  0  0  0
    0.2381    0.4970    0.6194 H   0  0  0  0  0  0  0  0  0  0  0  0
   -0.5318    0.2699   -2.2191 H   0  0  0  0  0  0  0  0  0  0  0  0
    2.0714   -0.4371   -0.7267 H   0  0  0  0  0  0  0  0  0  0  0  0
    1.8009   -0.9482   -2.3764 H   0  0  0  0  0  0  0  0  0  0  0  0
    3.6556    2.2539   -2.0472 H   0  0  0  0  0  0  0  0  0  0  0  0
    0.4210   -2.5547   -1.4921 N   0  0  0  0  0  0  0  0  0  0  0  0
    0.1576   -3.9702   -1.3780 C   0  0  2  0  0  0  0  0  0  0  0  0
   -0.9155   -4.3324   -2.3961 C   0  0  0  0  0  0  0  0  0  0  0  0
   -1.7022   -3.5110   -2.8626 O   0  0  0  0  0  0  0  0  0  0  0  0
   -0.2824   -4.3394    0.0302 C   0  0  0  0  0  0  0  0  0  0  0  0
    1.3269   -2.2540   -1.8397 H   0  0  0  0  0  0  0  0  0  0  0  0
    1.0902   -4.4867   -1.6299 H   0  0  0  0  0  0  0  0  0  0  0  0
   -1.2153   -3.8313    0.3005 H   0  0  0  0  0  0  0  0  0  0  0  0
   -0.4541   -5.4169    0.1225 H   0  0  0  0  0  0  0  0  0  0  0  0
    0.4778   -4.0511    0.7642 H   0  0  0  0  0  0  0  0  0  0  0  0
   -0.9194   -5.6887   -2.6901 N   0  0  0  0  0  0  0  0  0  0  0  0
   -1.8526   -6.2825   -3.6189 C   0  0  0  0  0  0  0  0  0  0  0  0
   -0.2186   -6.2929   -2.2710 H   0  0  0  0  0  0  0  0  0  0  0  0
   -2.7371   -6.6410   -3.0720 H   0  0  0  0  0  0  0  0  0  0  0  0
   -2.1601   -5.5306   -4.3606 H   0  0  0  0  0  0  0  0  0  0  0  0
   -1.3712   -7.1281   -4.1319 H   0  0  0  0  0  0  0  0  0  0  0  0
  1  3  1  0  0  0  0
  1  7  1  0  0  0  0
  1  2  2  0  0  0  0
 31 32  1  0  0  0  0
 32 40  1  0  0  0  0
 32 33  2  0  0  0  0
  8  9  1  0  0  0  0
  9 17  1  0  0  0  0
  9 10  2  0  0  0  0
 18 19  1  0  0  0  0
 19 30  1  0  0  0  0
 19 20  2  0  0  0  0
 21 22  1  0  0  0  0
 22 23  2  0  0  0  0
 22 24  1  0  0  0  0
 31 34  1  0  0  0  0
  8 11  1  0  0  0  0
 40 41  1  0  0  0  0
 18 21  1  0  0  0  0
 30 31  1  0  0  0  0
  7  8  1  0  0  0  0
 17 18  1  0  0  0  0
  3  4  1  0  0  0  0
  3  5  1  0  0  0  0
  3  6  1  0  0  0  0
 34 37  1  0  0  0  0
 34 38  1  0  0  0  0
 34 39  1  0  0  0  0
 11 14  1  0  0  0  0
 11 15  1  0  0  0  0
 11 16  1  0  0  0  0
 41 43  1  0  0  0  0
 41 44  1  0  0  0  0
 41 45  1  0  0  0  0
 21 27  1  0  0  0  0
 21 28  1  0  0  0  0
 31 36  1  0  0  0  0
  8 13  1  0  0  0  0
 18 26  1  0  0  0  0
 40 42  1  0  0  0  0
  7 12  1  0  0  0  0
 30 35  1  0  0  0  0
 17 25  1  0  0  0  0
 24 29  1  0  0  0  0
M  END
$$$$

  -OEChem-05262214473D

 45 44  0     1  0  0  0  0  0999 V2000
   -2.2987    4.1032   -0.3022 C   0  0  0  0  0  0  0  0  0  0  0  0
   -1.8049    3.7117   -1.3532 O   0  0  0  0  0  0  0  0  0  0  0  0
   -3.0791    5.3755   -0.2846 C   0  0  0  0  0  0  0  0  0  0  0  0
   -2.4478    6.2532   -0.0717 H   0  0  0  0  0  0  0  0  0  0  0  0
   -3.5571    5.5891   -1.2541 H   0  0  0  0  0  0  0  0  0  0  0  0
   -3.8940    5.4184    0.4556 H   0  0  0  0  0  0  0  0  0  0  0  0
   -2.2137    3.4712    0.9275 N   0  0  0  0  0  0  0  0  0  0  0  0
   -1.5102    2.2327    1.1338 C   0  0  2  0  0  0  0  0  0  0  0  0
   -1.3539    1.5497   -0.2184 C   0  0  0  0  0  0  0  0  0  0  0  0
   -2.0852    1.7861   -1.1778 O   0  0  0  0  0  0  0  0  0  0  0  0
   -2.2477    1.3342    2.1145 C   0  0  0  0  0  0  0  0  0  0  0  0
   -2.6724    3.9052    1.7265 H   0  0  0  0  0  0  0  0  0  0  0  0
   -0.5220    2.4922    1.5290 H   0  0  0  0  0  0  0  0  0  0  0  0
   -3.2400    1.0636    1.7358 H   0  0  0  0  0  0  0  0  0  0  0  0
   -1.6970    0.4046    2.2923 H   0  0  0  0  0  0  0  0  0  0  0  0
   -2.3854    1.8384    3.0772 H   0  0  0  0  0  0  0  0  0  0  0  0
   -0.3283    0.6116   -0.2182 N   0  0  0  0  0  0  0  0  0  0  0  0
    0.0090   -0.1762   -1.3759 C   0  0  2  0  0  0  0  0  0  0  0  0
   -0.5135   -1.5887   -1.1460 C   0  0  0  0  0  0  0  0  0  0  0  0
   -1.7070   -1.8459   -1.0026 O   0  0  0  0  0  0  0  0  0  0  0  0
    1.5126   -0.1900   -1.6382 C   0  0  0  0  0  0  0  0  0  0  0  0
    2.0019    1.1640   -2.0902 C   0  0  0  0  0  0  0  0  0  0  0  0
    1.3144    1.9703   -2.7032 O   0  0  0  0  0  0  0  0  0  0  0  0
    3.2976    1.3873   -1.7585 O   0  0  0  0  0  0  0  0  0  0  0  0
    0.2381    0.4970    0.6194 H   0  0  0  0  0  0  0  0  0  0  0  0
   -0.5318    0.2699   -2.2191 H   0  0  0  0  0  0  0  0  0  0  0  0
    2.0714   -0.4371   -0.7267 H   0  0  0  0  0  0  0  0  0  0  0  0
    1.8009   -0.9482   -2.3764 H   0  0  0  0  0  0  0  0  0  0  0  0
    3.6556    2.2539   -2.0472 H   0  0  0  0  0  0  0  0  0  0  0  0
    0.5038   -2.5325   -1.1676 N   0  0  0  0  0  0  0  0  0  0  0  0
    0.2607   -3.9448   -0.9876 C   0  0  2  0  0  0  0  0  0  0  0  0
   -0.5238   -4.4443   -2.1937 C   0  0  0  0  0  0  0  0  0  0  0  0
   -1.1972   -3.7053   -2.9088 O   0  0  0  0  0  0  0  0  0  0  0  0
   -0.4960   -4.2159    0.3033 C   0  0  0  0  0  0  0  0  0  0  0  0
    1.4580   -2.2173   -1.3160 H   0  0  0  0  0  0  0  0  0  0  0  0
    1.2407   -4.4335   -0.9608 H   0  0  0  0  0  0  0  0  0  0  0  0
   -1.4805   -3.7341    0.2949 H   0  0  0  0  0  0  0  0  0  0  0  0
   -0.6545   -5.2890    0.4524 H   0  0  0  0  0  0  0  0  0  0  0  0
    0.0558   -3.8294    1.1670 H   0  0  0  0  0  0  0  0  0  0  0  0
   -0.4182   -5.8191   -2.3519 N   0  0  0  0  0  0  0  0  0  0  0  0
   -1.0821   -6.5346   -3.4165 C   0  0  0  0  0  0  0  0  0  0  0  0
    0.1772   -6.3502   -1.7233 H   0  0  0  0  0  0  0  0  0  0  0  0
   -2.0621   -6.8896   -3.0650 H   0  0  0  0  0  0  0  0  0  0  0  0
   -1.2223   -5.8639   -4.2771 H   0  0  0  0  0  0  0  0  0  0  0  0
   -0.4673   -7.3952   -3.7187 H   0  0  0  0  0  0  0  0  0  0  0  0
  1  3  1  0  0  0  0
  1  7  1  0  0  0  0
  1  2  2  0  0  0  0
 31 32  1  0  0  0  0
 32 40  1  0  0  0  0
 32 33  2  0  0  0  0
  8  9  1  0  0  0  0
  9 17  1  0  0  0  0
  9 10  2  0  0  0  0
 18 19  1  0  0  0  0
 19 30  1  0  0  0  0
 19 20  2  0  0  0  0
 21 22  1  0  0  0  0
 22 23  2  0  0  0  0
 22 24  1  0  0  0  0
 31 34  1  0  0  0  0
  8 11  1  0  0  0  0
 40 41  1  0  0  0  0
 18 21  1  0  0  0  0
 30 31  1  0  0  0  0
  7  8  1  0  0  0  0
 17 18  1  0  0  0  0
  3  4  1  0  0  0  0
  3  5  1  0  0  0  0
  3  6  1  0  0  0  0
 34 37  1  0  0  0  0
 34 38  1  0  0  0  0
 34 39  1  0  0  0  0
 11 14  1  0  0  0  0
 11 15  1  0  0  0  0
 11 16  1  0  0  0  0
 41 43  1  0  0  0  0
 41 44  1  0  0  0  0
 41 45  1  0  0  0  0
 21 27  1  0  0  0  0
 21 28  1  0  0  0  0
 31 36  1  0  0  0  0
  8 13  1  0  0  0  0
 18 26  1  0  0  0  0
 40 42  1  0  0  0  0
  7 12  1  0  0  0  0
 30 35  1  0  0  0  0
 17 25  1  0  0  0  0
 24 29  1  0  0  0  0
M  END
$$$$

  -OEChem-05262214473D

 45 44  0     1  0  0  0  0  0999 V2000
   -2.2987    4.1032   -0.3022 C   0  0  0  0  0  0  0  0  0  0  0  0
   -1.8049    3.7117   -1.3532 O   0  0  0  0  0  0  0  0  0  0  0  0
   -3.0791    5.3755   -0.2846 C   0  0  0  0  0  0  0  0  0  0  0  0
   -2.4478    6.2532   -0.0717 H   0  0  0  0  0  0  0  0  0  0  0  0
   -3.5571    5.5891   -1.2541 H   0  0  0  0  0  0  0  0  0  0  0  0
   -3.8940    5.4184    0.4556 H   0  0  0  0  0  0  0  0  0  0  0  0
   -2.2137    3.4712    0.9275 N   0  0  0  0  0  0  0  0  0  0  0  0
   -1.5102    2.2327    1.1338 C   0  0  2  0  0  0  0  0  0  0  0  0
   -1.3539    1.5497   -0.2184 C   0  0  0  0  0  0  0  0  0  0  0  0
   -2.0852    1.7861   -1.1778 O   0  0  0  0  0  0  0  0  0  0  0  0
   -2.2477    1.3342    2.1145 C   0  0  0  0  0  0  0  0  0  0  0  0
   -2.6724    3.9052    1.7265 H   0  0  0  0  0  0  0  0  0  0  0  0
   -0.5220    2.4922    1.5290 H   0  0  0  0  0  0  0  0  0  0  0  0
   -3.2400    1.0636    1.7358 H   0  0  0  0  0  0  0  0  0  0  0  0
   -1.6970    0.4046    2.2923 H   0  0  0  0  0  0  0  0  0  0  0  0
   -2.3854    1.8384    3.0772 H   0  0  0  0  0  0  0  0  0  0  0  0
   -0.3283    0.6116   -0.2182 N   0  0  0  0  0  0  0  0  0  0  0  0
    0.0090   -0.1762   -1.3759 C   0  0  2  0  0  0  0  0  0  0  0  0
   -0.5135   -1.5887   -1.1460 C   0  0  0  0  0  0  0  0  0  0  0  0
   -1.6985   -1.8921   -1.2676 O   0  0  0  0  0  0  0  0  0  0  0  0
    1.5126   -0.1900   -1.6382 C   0  0  0  0  0  0  0  0  0  0  0  0
    2.0019    1.1640   -2.0902 C   0  0  0  0  0  0  0  0  0  0  0  0
    1.3144    1.9703   -2.7032 O   0  0  0  0  0  0  0  0  0  0  0  0
    3.2976    1.3873   -1.7585 O   0  0  0  0  0  0  0  0  0  0  0  0
    0.2381    0.4970    0.6194 H   0  0  0  0  0  0  0  0  0  0  0  0
   -0.5318    0.2699   -2.2191 H   0  0  0  0  0  0  0  0  0  0  0  0
    2.0714   -0.4371   -0.7267 H   0  0  0  0  0  0  0  0  0  0  0  0
    1.8009   -0.9482   -2.3764 H   0  0  0  0  0  0  0  0  0  0  0  0
    3.6556    2.2539   -2.0472 H   0  0  0  0  0  0  0  0  0  0  0  0
    0.5051   -2.4791   -0.8363 N   0  0  0  0  0  0  0  0  0  0  0  0
    0.2657   -3.8816   -0.5881 C   0  0  2  0  0  0  0  0  0  0  0  0
   -0.1896   -4.5192   -1.8941 C   0  0  0  0  0  0  0  0  0  0  0  0
   -0.6908   -3.8774   -2.8150 O   0  0  0  0  0  0  0  0  0  0  0  0
   -0.7727   -4.0807    0.5049 C   0  0  0  0  0  0  0  0  0  0  0  0
    1.4575   -2.1302   -0.7819 H   0  0  0  0  0  0  0  0  0  0  0  0
    1.2235   -4.3168   -0.2830 H   0  0  0  0  0  0  0  0  0  0  0  0
   -1.7392   -3.6510    0.2172 H   0  0  0  0  0  0  0  0  0  0  0  0
   -0.9322   -5.1441    0.7117 H   0  0  0  0  0  0  0  0  0  0  0  0
   -0.4572   -3.5960    1.4352 H   0  0  0  0  0  0  0  0  0  0  0  0
   -0.0102   -5.8954   -1.8934 N   0  0  0  0  0  0  0  0  0  0  0  0
   -0.3765   -6.7300   -3.0138 C   0  0  0  0  0  0  0  0  0  0  0  0
    0.4304   -6.3414   -1.0942 H   0  0  0  0  0  0  0  0  0  0  0  0
   -1.4020   -7.1027   -2.8742 H   0  0  0  0  0  0  0  0  0  0  0  0
   -0.3234   -6.1418   -3.9418 H   0  0  0  0  0  0  0  0  0  0  0  0
    0.3171   -7.5813   -3.0789 H   0  0  0  0  0  0  0  0  0  0  0  0
  1  3  1  0  0  0  0
  1  7  1  0  0  0  0
  1  2  2  0  0  0  0
 31 32  1  0  0  0  0
 32 40  1  0  0  0  0
 32 33  2  0  0  0  0
  8  9  1  0  0  0  0
  9 17  1  0  0  0  0
  9 10  2  0  0  0  0
 18 19  1  0  0  0  0
 19 30  1  0  0  0  0
 19 20  2  0  0  0  0
 21 22  1  0  0  0  0
 22 23  2  0  0  0  0
 22 24  1  0  0  0  0
 31 34  1  0  0  0  0
  8 11  1  0  0  0  0
 40 41  1  0  0  0  0
 18 21  1  0  0  0  0
 30 31  1  0  0  0  0
  7  8  1  0  0  0  0
 17 18  1  0  0  0  0
  3  4  1  0  0  0  0
  3  5  1  0  0  0  0
  3  6  1  0  0  0  0
 34 37  1  0  0  0  0
 34 38  1  0  0  0  0
 34 39  1  0  0  0  0
 11 14  1  0  0  0  0
 11 15  1  0  0  0  0
 11 16  1  0  0  0  0
 41 43  1  0  0  0  0
 41 44  1  0  0  0  0
 41 45  1  0  0  0  0
 21 27  1  0  0  0  0
 21 28  1  0  0  0  0
 31 36  1  0  0  0  0
  8 13  1  0  0  0  0
 18 26  1  0  0  0  0
 40 42  1  0  0  0  0
  7 12  1  0  0  0  0
 30 35  1  0  0  0  0
 17 25  1  0  0  0  0
 24 29  1  0  0  0  0
M  END
$$$$

  -OEChem-05262214473D

 45 44  0     1  0  0  0  0  0999 V2000
   -2.2987    4.1032   -0.3022 C   0  0  0  0  0  0  0  0  0  0  0  0
   -1.8049    3.7117   -1.3532 O   0  0  0  0  0  0  0  0  0  0  0  0
   -3.0791    5.3755   -0.2846 C   0  0  0  0  0  0  0  0  0  0  0  0
   -2.4478    6.2532   -0.0717 H   0  0  0  0  0  0  0  0  0  0  0  0
   -3.5571    5.5891   -1.2541 H   0  0  0  0  0  0  0  0  0  0  0  0
   -3.8940    5.4184    0.4556 H   0  0  0  0  0  0  0  0  0  0  0  0
   -2.2137    3.4712    0.9275 N   0  0  0  0  0  0  0  0  0  0  0  0
   -1.5102    2.2327    1.1338 C   0  0  2  0  0  0  0  0  0  0  0  0
   -1.3539    1.5497   -0.2184 C   0  0  0  0  0  0  0  0  0  0  0  0
   -2.0852    1.7861   -1.1778 O   0  0  0  0  0  0  0  0  0  0  0  0
   -2.2477    1.3342    2.1145 C   0  0  0  0  0  0  0  0  0  0  0  0
   -2.6724    3.9052    1.7265 H   0  0  0  0  0  0  0  0  0  0  0  0
   -0.5220    2.4922    1.5290 H   0  0  0  0  0  0  0  0  0  0  0  0
   -3.2400    1.0636    1.7358 H   0  0  0  0  0  0  0  0  0  0  0  0
   -1.6970    0.4046    2.2923 H   0  0  0  0  0  0  0  0  0  0  0  0
   -2.3854    1.8384    3.0772 H   0  0  0  0  0  0  0  0  0  0  0  0
   -0.3283    0.6116   -0.2182 N   0  0  0  0  0  0  0  0  0  0  0  0
    0.0090   -0.1762   -1.3759 C   0  0  2  0  0  0  0  0  0  0  0  0
   -0.5135   -1.5887   -1.1460 C   0  0  0  0  0  0  0  0  0  0  0  0
   -1.6249   -1.9600   -1.5174 O   0  0  0  0  0  0  0  0  0  0  0  0
    1.5126   -0.1900   -1.6382 C   0  0  0  0  0  0  0  0  0  0  0  0
    2.0019    1.1640   -2.0902 C   0  0  0  0  0  0  0  0  0  0  0  0
    1.3144    1.9703   -2.7032 O   0  0  0  0  0  0  0  0  0  0  0  0
    3.2976    1.3873   -1.7585 O   0  0  0  0  0  0  0  0  0  0  0  0
    0.2381    0.4970    0.6194 H   0  0  0  0  0  0  0  0  0  0  0  0
   -0.5318    0.2699   -2.2191 H   0  0  0  0  0  0  0  0  0  0  0  0
    2.0714   -0.4371   -0.7267 H   0  0  0  0  0  0  0  0  0  0  0  0
    1.8009   -0.9482   -2.3764 H   0  0  0  0  0  0  0  0  0  0  0  0
    3.6556    2.2539   -2.0472 H   0  0  0  0  0  0  0  0  0  0  0  0
    0.4248   -2.3980   -0.5207 N   0  0  0  0  0  0  0  0  0  0  0  0
    0.1721   -3.7849   -0.2067 C   0  0  2  0  0  0  0  0  0  0  0  0
    0.0642   -4.5519   -1.5180 C   0  0  0  0  0  0  0  0  0  0  0  0
   -0.2174   -4.0155   -2.5876 O   0  0  0  0  0  0  0  0  0  0  0  0
   -1.0937   -3.9430    0.6213 C   0  0  0  0  0  0  0  0  0  0  0  0
    1.3256   -1.9987   -0.2739 H   0  0  0  0  0  0  0  0  0  0  0  0
    1.0397   -4.1446    0.3572 H   0  0  0  0  0  0  0  0  0  0  0  0
   -1.9737   -3.5878    0.0728 H   0  0  0  0  0  0  0  0  0  0  0  0
   -1.2683   -4.9920    0.8827 H   0  0  0  0  0  0  0  0  0  0  0  0
   -1.0262   -3.3668    1.5504 H   0  0  0  0  0  0  0  0  0  0  0  0
    0.2769   -5.9125   -1.3458 N   0  0  0  0  0  0  0  0  0  0  0  0
    0.2159   -6.8555   -2.4381 C   0  0  0  0  0  0  0  0  0  0  0  0
    0.5236   -6.2673   -0.4266 H   0  0  0  0  0  0  0  0  0  0  0  0
   -0.8019   -7.2658   -2.5125 H   0  0  0  0  0  0  0  0  0  0  0  0
    0.4752   -6.3454   -3.3776 H   0  0  0  0  0  0  0  0  0  0  0  0
    0.9285   -7.6735   -2.2562 H   0  0  0  0  0  0  0  0  0  0  0  0
  1  3  1  0  0  0  0
  1  7  1  0  0  0  0
  1  2  2  0  0  0  0
 31 32  1  0  0  0  0
 32 40  1  0  0  0  0
 32 33  2  0  0  0  0
  8  9  1  0  0  0  0
  9 17  1  0  0  0  0
  9 10  2  0  0  0  0
 18 19  1  0  0  0  0
 19 30  1  0  0  0  0
 19 20  2  0  0  0  0
 21 22  1  0  0  0  0
 22 23  2  0  0  0  0
 22 24  1  0  0  0  0
 31 34  1  0  0  0  0
  8 11  1  0  0  0  0
 40 41  1  0  0  0  0
 18 21  1  0  0  0  0
 30 31  1  0  0  0  0
  7  8  1  0  0  0  0
 17 18  1  0  0  0  0
  3  4  1  0  0  0  0
  3  5  1  0  0  0  0
  3  6  1  0  0  0  0
 34 37  1  0  0  0  0
 34 38  1  0  0  0  0
 34 39  1  0  0  0  0
 11 14  1  0  0  0  0
 11 15  1  0  0  0  0
 11 16  1  0  0  0  0
 41 43  1  0  0  0  0
 41 44  1  0  0  0  0
 41 45  1  0  0  0  0
 21 27  1  0  0  0  0
 21 28  1  0  0  0  0
 31 36  1  0  0  0  0
  8 13  1  0  0  0  0
 18 26  1  0  0  0  0
 40 42  1  0  0  0  0
  7 12  1  0  0  0  0
 30 35  1  0  0  0  0
 17 25  1  0  0  0  0
 24 29  1  0  0  0  0
M  END
$$$$

  -OEChem-05262214473D

 45 44  0     1  0  0  0  0  0999 V2000
   -2.2987    4.1032   -0.3022 C   0  0  0  0  0  0  0  0  0  0  0  0
   -1.8049    3.7117   -1.3532 O   0  0  0  0  0  0  0  0  0  0  0  0
   -3.0791    5.3755   -0.2846 C   0  0  0  0  0  0  0  0  0  0  0  0
   -2.4478    6.2532   -0.0717 H   0  0  0  0  0  0  0  0  0  0  0  0
   -3.5571    5.5891   -1.2541 H   0  0  0  0  0  0  0  0  0  0  0  0
   -3.8940    5.4184    0.4556 H   0  0  0  0  0  0  0  0  0  0  0  0
   -2.2137    3.4712    0.9275 N   0  0  0  0  0  0  0  0  0  0  0  0
   -1.5102    2.2327    1.1338 C   0  0  2  0  0  0  0  0  0  0  0  0
   -1.3539    1.5497   -0.2184 C   0  0  0  0  0  0  0  0  0  0  0  0
   -2.0852    1.7861   -1.1778 O   0  0  0  0  0  0  0  0  0  0  0  0
   -2.2477    1.3342    2.1145 C   0  0  0  0  0  0  0  0  0  0  0  0
   -2.6724    3.9052    1.7265 H   0  0  0  0  0  0  0  0  0  0  0  0
   -0.5220    2.4922    1.5290 H   0  0  0  0  0  0  0  0  0  0  0  0
   -3.2400    1.0636    1.7358 H   0  0  0  0  0  0  0  0  0  0  0  0
   -1.6970    0.4046    2.2923 H   0  0  0  0  0  0  0  0  0  0  0  0
   -2.3854    1.8384    3.0772 H   0  0  0  0  0  0  0  0  0  0  0  0
   -0.3283    0.6116   -0.2182 N   0  0  0  0  0  0  0  0  0  0  0  0
    0.0090   -0.1762   -1.3759 C   0  0  2  0  0  0  0  0  0  0  0  0
   -0.5135   -1.5887   -1.1460 C   0  0  0  0  0  0  0  0  0  0  0  0
   -1.4912   -2.0449   -1.7351 O   0  0  0  0  0  0  0  0  0  0  0  0
    1.5126   -0.1900   -1.6382 C   0  0  0  0  0  0  0  0  0  0  0  0
    2.0019    1.1640   -2.0902 C   0  0  0  0  0  0  0  0  0  0  0  0
    1.3144    1.9703   -2.7032 O   0  0  0  0  0  0  0  0  0  0  0  0
    3.2976    1.3873   -1.7585 O   0  0  0  0  0  0  0  0  0  0  0  0
    0.2381    0.4970    0.6194 H   0  0  0  0  0  0  0  0  0  0  0  0
   -0.5318    0.2699   -2.2191 H   0  0  0  0  0  0  0  0  0  0  0  0
    2.0714   -0.4371   -0.7267 H   0  0  0  0  0  0  0  0  0  0  0  0
    1.8009   -0.9482   -2.3764 H   0  0  0  0  0  0  0  0  0  0  0  0
    3.6556    2.2539   -2.0472 H   0  0  0  0  0  0  0  0  0  0  0  0
    0.2682   -2.2948   -0.2423 N   0  0  0  0  0  0  0  0  0  0  0  0
   -0.0136   -3.6613    0.1308 C   0  0  2  0  0  0  0  0  0  0  0  0
    0.2204   -4.5401   -1.0909 C   0  0  0  0  0  0  0  0  0  0  0  0
    0.1907   -4.1102   -2.2421 O   0  0  0  0  0  0  0  0  0  0  0  0
   -1.4370   -3.8123    0.6445 C   0  0  0  0  0  0  0  0  0  0  0  0
    1.0710   -1.8317    0.1735 H   0  0  0  0  0  0  0  0  0  0  0  0
    0.7018   -3.9286    0.9161 H   0  0  0  0  0  0  0  0  0  0  0  0
   -2.1679   -3.5488   -0.1287 H   0  0  0  0  0  0  0  0  0  0  0  0
   -1.6400   -4.8429    0.9536 H   0  0  0  0  0  0  0  0  0  0  0  0
   -1.6124   -3.1574    1.5047 H   0  0  0  0  0  0  0  0  0  0  0  0
    0.4235   -5.8691   -0.7465 N   0  0  0  0  0  0  0  0  0  0  0  0
    0.6550   -6.9024   -1.7287 C   0  0  0  0  0  0  0  0  0  0  0  0
    0.4506   -6.1327    0.2341 H   0  0  0  0  0  0  0  0  0  0  0  0
   -0.3027   -7.3678   -2.0048 H   0  0  0  0  0  0  0  0  0  0  0  0
    1.1192   -6.4608   -2.6228 H   0  0  0  0  0  0  0  0  0  0  0  0
    1.3253   -7.6657   -1.3067 H   0  0  0  0  0  0  0  0  0  0  0  0
  1  3  1  0  0  0  0
  1  7  1  0  0  0  0
  1  2  2  0  0  0  0
 31 32  1  0  0  0  0
 32 40  1  0  0  0  0
 32 33  2  0  0  0  0
  8  9  1  0  0  0  0
  9 17  1  0  0  0  0
  9 10  2  0  0  0  0
 18 19  1  0  0  0  0
 19 30  1  0  0  0  0
 19 20  2  0  0  0  0
 21 22  1  0  0  0  0
 22 23  2  0  0  0  0
 22 24  1  0  0  0  0
 31 34  1  0  0  0  0
  8 11  1  0  0  0  0
 40 41  1  0  0  0  0
 18 21  1  0  0  0  0
 30 31  1  0  0  0  0
  7  8  1  0  0  0  0
 17 18  1  0  0  0  0
  3  4  1  0  0  0  0
  3  5  1  0  0  0  0
  3  6  1  0  0  0  0
 34 37  1  0  0  0  0
 34 38  1  0  0  0  0
 34 39  1  0  0  0  0
 11 14  1  0  0  0  0
 11 15  1  0  0  0  0
 11 16  1  0  0  0  0
 41 43  1  0  0  0  0
 41 44  1  0  0  0  0
 41 45  1  0  0  0  0
 21 27  1  0  0  0  0
 21 28  1  0  0  0  0
 31 36  1  0  0  0  0
  8 13  1  0  0  0  0
 18 26  1  0  0  0  0
 40 42  1  0  0  0  0
  7 12  1  0  0  0  0
 30 35  1  0  0  0  0
 17 25  1  0  0  0  0
 24 29  1  0  0  0  0
M  END
$$$$

  -OEChem-05262214473D

 45 44  0     1  0  0  0  0  0999 V2000
   -2.2987    4.1032   -0.3022 C   0  0  0  0  0  0  0  0  0  0  0  0
   -1.8049    3.7117   -1.3532 O   0  0  0  0  0  0  0  0  0  0  0  0
   -3.0791    5.3755   -0.2846 C   0  0  0  0  0  0  0  0  0  0  0  0
   -2.4478    6.2532   -0.0717 H   0  0  0  0  0  0  0  0  0  0  0  0
   -3.5571    5.5891   -1.2541 H   0  0  0  0  0  0  0  0  0  0  0  0
   -3.8940    5.4184    0.4556 H   0  0  0  0  0  0  0  0  0  0  0  0
   -2.2137    3.4712    0.9275 N   0  0  0  0  0  0  0  0  0  0  0  0
   -1.5102    2.2327    1.1338 C   0  0  2  0  0  0  0  0  0  0  0  0
   -1.3539    1.5497   -0.2184 C   0  0  0  0  0  0  0  0  0  0  0  0
   -2.0852    1.7861   -1.1778 O   0  0  0  0  0  0  0  0  0  0  0  0
   -2.2477    1.3342    2.1145 C   0  0  0  0  0  0  0  0  0  0  0  0
   -2.6724    3.9052    1.7265 H   0  0  0  0  0  0  0  0  0  0  0  0
   -0.5220    2.4922    1.5290 H   0  0  0  0  0  0  0  0  0  0  0  0
   -3.2400    1.0636    1.7358 H   0  0  0  0  0  0  0  0  0  0  0  0
   -1.6970    0.4046    2.2923 H   0  0  0  0  0  0  0  0  0  0  0  0
   -2.3854    1.8384    3.0772 H   0  0  0  0  0  0  0  0  0  0  0  0
   -0.3283    0.6116   -0.2182 N   0  0  0  0  0  0  0  0  0  0  0  0
    0.0090   -0.1762   -1.3759 C   0  0  2  0  0  0  0  0  0  0  0  0
   -0.5135   -1.5887   -1.1460 C   0  0  0  0  0  0  0  0  0  0  0  0
   -1.3066   -2.1410   -1.9057 O   0  0  0  0  0  0  0  0  0  0  0  0
    1.5126   -0.1900   -1.6382 C   0  0  0  0  0  0  0  0  0  0  0  0
    2.0019    1.1640   -2.0902 C   0  0  0  0  0  0  0  0  0  0  0  0
    1.3144    1.9703   -2.7032 O   0  0  0  0  0  0  0  0  0  0  0  0
    3.2976    1.3873   -1.7585 O   0  0  0  0  0  0  0  0  0  0  0  0
    0.2381    0.4970    0.6194 H   0  0  0  0  0  0  0  0  0  0  0  0
   -0.5318    0.2699   -2.2191 H   0  0  0  0  0  0  0  0  0  0  0  0
    2.0714   -0.4371   -0.7267 H   0  0  0  0  0  0  0  0  0  0  0  0
    1.8009   -0.9482   -2.3764 H   0  0  0  0  0  0  0  0  0  0  0  0
    3.6556    2.2539   -2.0472 H   0  0  0  0  0  0  0  0  0  0  0  0
    0.0462   -2.1765   -0.0202 N   0  0  0  0  0  0  0  0  0  0  0  0
   -0.2787   -3.5192    0.4012 C   0  0  2  0  0  0  0  0  0  0  0  0
    0.2683   -4.4847   -0.6418 C   0  0  0  0  0  0  0  0  0  0  0  0
    0.5056   -4.1551   -1.8020 O   0  0  0  0  0  0  0  0  0  0  0  0
   -1.7792   -3.6973    0.5728 C   0  0  0  0  0  0  0  0  0  0  0  0
    0.7113   -1.6407    0.5297 H   0  0  0  0  0  0  0  0  0  0  0  0
    0.2328   -3.6836    1.3558 H   0  0  0  0  0  0  0  0  0  0  0  0
   -2.3088   -3.5365   -0.3733 H   0  0  0  0  0  0  0  0  0  0  0  0
   -2.0218   -4.7072    0.9198 H   0  0  0  0  0  0  0  0  0  0  0  0
   -2.1758   -2.9820    1.3014 H   0  0  0  0  0  0  0  0  0  0  0  0
    0.4196   -5.7684   -0.1362 N   0  0  0  0  0  0  0  0  0  0  0  0
    0.9107   -6.8676   -0.9339 C   0  0  0  0  0  0  0  0  0  0  0  0
    0.2163   -5.9469    0.8428 H   0  0  0  0  0  0  0  0  0  0  0  0
    0.0617   -7.4018   -1.3854 H   0  0  0  0  0  0  0  0  0  0  0  0
    1.5646   -6.4801   -1.7291 H   0  0  0  0  0  0  0  0  0  0  0  0
    1.4803   -7.5584   -0.2949 H   0  0  0  0  0  0  0  0  0  0  0  0
  1  3  1  0  0  0  0
  1  7  1  0  0  0  0
  1  2  2  0  0  0  0
 31 32  1  0  0  0  0
 32 40  1  0  0  0  0
 32 33  2  0  0  0  0
  8  9  1  0  0  0  0
  9 17  1  0  0  0  0
  9 10  2  0  0  0  0
 18 19  1  0  0  0  0
 19 30  1  0  0  0  0
 19 20  2  0  0  0  0
 21 22  1  0  0  0  0
 22 23  2  0  0  0  0
 22 24  1  0  0  0  0
 31 34  1  0  0  0  0
  8 11  1  0  0  0  0
 40 41  1  0  0  0  0
 18 21  1  0  0  0  0
 30 31  1  0  0  0  0
  7  8  1  0  0  0  0
 17 18  1  0  0  0  0
  3  4  1  0  0  0  0
  3  5  1  0  0  0  0
  3  6  1  0  0  0  0
 34 37  1  0  0  0  0
 34 38  1  0  0  0  0
 34 39  1  0  0  0  0
 11 14  1  0  0  0  0
 11 15  1  0  0  0  0
 11 16  1  0  0  0  0
 41 43  1  0  0  0  0
 41 44  1  0  0  0  0
 41 45  1  0  0  0  0
 21 27  1  0  0  0  0
 21 28  1  0  0  0  0
 31 36  1  0  0  0  0
  8 13  1  0  0  0  0
 18 26  1  0  0  0  0
 40 42  1  0  0  0  0
  7 12  1  0  0  0  0
 30 35  1  0  0  0  0
 17 25  1  0  0  0  0
 24 29  1  0  0  0  0
M  END
$$$$

  -OEChem-05262214473D

 45 44  0     1  0  0  0  0  0999 V2000
   -2.2987    4.1032   -0.3022 C   0  0  0  0  0  0  0  0  0  0  0  0
   -1.8049    3.7117   -1.3532 O   0  0  0  0  0  0  0  0  0  0  0  0
   -3.0791    5.3755   -0.2846 C   0  0  0  0  0  0  0  0  0  0  0  0
   -2.4478    6.2532   -0.0717 H   0  0  0  0  0  0  0  0  0  0  0  0
   -3.5571    5.5891   -1.2541 H   0  0  0  0  0  0  0  0  0  0  0  0
   -3.8940    5.4184    0.4556 H   0  0  0  0  0  0  0  0  0  0  0  0
   -2.2137    3.4712    0.9275 N   0  0  0  0  0  0  0  0  0  0  0  0
   -1.5102    2.2327    1.1338 C   0  0  2  0  0  0  0  0  0  0  0  0
   -1.3539    1.5497   -0.2184 C   0  0  0  0  0  0  0  0  0  0  0  0
   -2.0852    1.7861   -1.1778 O   0  0  0  0  0  0  0  0  0  0  0  0
   -2.2477    1.3342    2.1145 C   0  0  0  0  0  0  0  0  0  0  0  0
   -2.6724    3.9052    1.7265 H   0  0  0  0  0  0  0  0  0  0  0  0
   -0.5220    2.4922    1.5290 H   0  0  0  0  0  0  0  0  0  0  0  0
   -3.2400    1.0636    1.7358 H   0  0  0  0  0  0  0  0  0  0  0  0
   -1.6970    0.4046    2.2923 H   0  0  0  0  0  0  0  0  0  0  0  0
   -2.3854    1.8384    3.0772 H   0  0  0  0  0  0  0  0  0  0  0  0
   -0.3283    0.6116   -0.2182 N   0  0  0  0  0  0  0  0  0  0  0  0
    0.0090   -0.1762   -1.3759 C   0  0  2  0  0  0  0  0  0  0  0  0
   -0.5135   -1.5887   -1.1460 C   0  0  0  0  0  0  0  0  0  0  0  0
   -1.0835   -2.2417   -2.0177 O   0  0  0  0  0  0  0  0  0  0  0  0
    1.5126   -0.1900   -1.6382 C   0  0  0  0  0  0  0  0  0  0  0  0
    2.0019    1.1640   -2.0902 C   0  0  0  0  0  0  0  0  0  0  0  0
    1.3144    1.9703   -2.7032 O   0  0  0  0  0  0  0  0  0  0  0  0
    3.2976    1.3873   -1.7585 O   0  0  0  0  0  0  0  0  0  0  0  0
    0.2381    0.4970    0.6194 H   0  0  0  0  0  0  0  0  0  0  0  0
   -0.5318    0.2699   -2.2191 H   0  0  0  0  0  0  0  0  0  0  0  0
    2.0714   -0.4371   -0.7267 H   0  0  0  0  0  0  0  0  0  0  0  0
    1.8009   -0.9482   -2.3764 H   0  0  0  0  0  0  0  0  0  0  0  0
    3.6556    2.2539   -2.0472 H   0  0  0  0  0  0  0  0  0  0  0  0
   -0.2262   -2.0512    0.1306 N   0  0  0  0  0  0  0  0  0  0  0  0
   -0.6053   -3.3683    0.5861 C   0  0  2  0  0  0  0  0  0  0  0  0
    0.2047   -4.3895   -0.2015 C   0  0  0  0  0  0  0  0  0  0  0  0
    0.7060   -4.1470   -1.2974 O   0  0  0  0  0  0  0  0  0  0  0  0
   -2.0971   -3.6060    0.4113 C   0  0  0  0  0  0  0  0  0  0  0  0
    0.2709   -1.4386    0.7705 H   0  0  0  0  0  0  0  0  0  0  0  0
   -0.3353   -3.4262    1.6462 H   0  0  0  0  0  0  0  0  0  0  0  0
   -2.3866   -3.5518   -0.6445 H   0  0  0  0  0  0  0  0  0  0  0  0
   -2.3877   -4.5940    0.7834 H   0  0  0  0  0  0  0  0  0  0  0  0
   -2.6781   -2.8527    0.9543 H   0  0  0  0  0  0  0  0  0  0  0  0
    0.2654   -5.6170    0.4433 N   0  0  0  0  0  0  0  0  0  0  0  0
    0.9656   -6.7535   -0.1080 C   0  0  0  0  0  0  0  0  0  0  0  0
   -0.1634   -5.7226    1.3580 H   0  0  0  0  0  0  0  0  0  0  0  0
    0.2663   -7.3654   -0.6968 H   0  0  0  0  0  0  0  0  0  0  0  0
    1.7811   -6.4020   -0.7572 H   0  0  0  0  0  0  0  0  0  0  0  0
    1.3832   -7.3589    0.7100 H   0  0  0  0  0  0  0  0  0  0  0  0
  1  3  1  0  0  0  0
  1  7  1  0  0  0  0
  1  2  2  0  0  0  0
 31 32  1  0  0  0  0
 32 40  1  0  0  0  0
 32 33  2  0  0  0  0
  8  9  1  0  0  0  0
  9 17  1  0  0  0  0
  9 10  2  0  0  0  0
 18 19  1  0  0  0  0
 19 30  1  0  0  0  0
 19 20  2  0  0  0  0
 21 22  1  0  0  0  0
 22 23  2  0  0  0  0
 22 24  1  0  0  0  0
 31 34  1  0  0  0  0
  8 11  1  0  0  0  0
 40 41  1  0  0  0  0
 18 21  1  0  0  0  0
 30 31  1  0  0  0  0
  7  8  1  0  0  0  0
 17 18  1  0  0  0  0
  3  4  1  0  0  0  0
  3  5  1  0  0  0  0
  3  6  1  0  0  0  0
 34 37  1  0  0  0  0
 34 38  1  0  0  0  0
 34 39  1  0  0  0  0
 11 14  1  0  0  0  0
 11 15  1  0  0  0  0
 11 16  1  0  0  0  0
 41 43  1  0  0  0  0
 41 44  1  0  0  0  0
 41 45  1  0  0  0  0
 21 27  1  0  0  0  0
 21 28  1  0  0  0  0
 31 36  1  0  0  0  0
  8 13  1  0  0  0  0
 18 26  1  0  0  0  0
 40 42  1  0  0  0  0
  7 12  1  0  0  0  0
 30 35  1  0  0  0  0
 17 25  1  0  0  0  0
 24 29  1  0  0  0  0
M  END
$$$$

  -OEChem-05262214473D

 45 44  0     1  0  0  0  0  0999 V2000
   -2.2987    4.1032   -0.3022 C   0  0  0  0  0  0  0  0  0  0  0  0
   -1.8049    3.7117   -1.3532 O   0  0  0  0  0  0  0  0  0  0  0  0
   -3.0791    5.3755   -0.2846 C   0  0  0  0  0  0  0  0  0  0  0  0
   -2.4478    6.2532   -0.0717 H   0  0  0  0  0  0  0  0  0  0  0  0
   -3.5571    5.5891   -1.2541 H   0  0  0  0  0  0  0  0  0  0  0  0
   -3.8940    5.4184    0.4556 H   0  0  0  0  0  0  0  0  0  0  0  0
   -2.2137    3.4712    0.9275 N   0  0  0  0  0  0  0  0  0  0  0  0
   -1.5102    2.2327    1.1338 C   0  0  2  0  0  0  0  0  0  0  0  0
   -1.3539    1.5497   -0.2184 C   0  0  0  0  0  0  0  0  0  0  0  0
   -2.0852    1.7861   -1.1778 O   0  0  0  0  0  0  0  0  0  0  0  0
   -2.2477    1.3342    2.1145 C   0  0  0  0  0  0  0  0  0  0  0  0
   -2.6724    3.9052    1.7265 H   0  0  0  0  0  0  0  0  0  0  0  0
   -0.5220    2.4922    1.5290 H   0  0  0  0  0  0  0  0  0  0  0  0
   -3.2400    1.0636    1.7358 H   0  0  0  0  0  0  0  0  0  0  0  0
   -1.6970    0.4046    2.2923 H   0  0  0  0  0  0  0  0  0  0  0  0
   -2.3854    1.8384    3.0772 H   0  0  0  0  0  0  0  0  0  0  0  0
   -0.3283    0.6116   -0.2182 N   0  0  0  0  0  0  0  0  0  0  0  0
    0.0090   -0.1762   -1.3759 C   0  0  2  0  0  0  0  0  0  0  0  0
   -0.5135   -1.5887   -1.1460 C   0  0  0  0  0  0  0  0  0  0  0  0
   -0.8372   -2.3403   -2.0633 O   0  0  0  0  0  0  0  0  0  0  0  0
    1.5126   -0.1900   -1.6382 C   0  0  0  0  0  0  0  0  0  0  0  0
    2.0019    1.1640   -2.0902 C   0  0  0  0  0  0  0  0  0  0  0  0
    1.3144    1.9703   -2.7032 O   0  0  0  0  0  0  0  0  0  0  0  0
    3.2976    1.3873   -1.7585 O   0  0  0  0  0  0  0  0  0  0  0  0
    0.2381    0.4970    0.6194 H   0  0  0  0  0  0  0  0  0  0  0  0
   -0.5318    0.2699   -2.2191 H   0  0  0  0  0  0  0  0  0  0  0  0
    2.0714   -0.4371   -0.7267 H   0  0  0  0  0  0  0  0  0  0  0  0
    1.8009   -0.9482   -2.3764 H   0  0  0  0  0  0  0  0  0  0  0  0
    3.6556    2.2539   -2.0472 H   0  0  0  0  0  0  0  0  0  0  0  0
   -0.5303   -1.9274    0.1998 N   0  0  0  0  0  0  0  0  0  0  0  0
   -0.9710   -3.2188    0.6730 C   0  0  2  0  0  0  0  0  0  0  0  0
    0.0338   -4.2610    0.2000 C   0  0  0  0  0  0  0  0  0  0  0  0
    0.7782   -4.0867   -0.7626 O   0  0  0  0  0  0  0  0  0  0  0  0
   -2.3690   -3.5446    0.1709 C   0  0  0  0  0  0  0  0  0  0  0  0
   -0.2202   -1.2392    0.8795 H   0  0  0  0  0  0  0  0  0  0  0  0
   -0.9637   -3.1740    1.7676 H   0  0  0  0  0  0  0  0  0  0  0  0
   -2.3961   -3.5938   -0.9238 H   0  0  0  0  0  0  0  0  0  0  0  0
   -2.7129   -4.5111    0.5538 H   0  0  0  0  0  0  0  0  0  0  0  0
   -3.0850   -2.7783    0.4870 H   0  0  0  0  0  0  0  0  0  0  0  0
   -0.0285   -5.4254    0.9527 N   0  0  0  0  0  0  0  0  0  0  0  0
    0.8160   -6.5678    0.6928 C   0  0  0  0  0  0  0  0  0  0  0  0
   -0.6626   -5.4751    1.7447 H   0  0  0  0  0  0  0  0  0  0  0  0
    0.2973   -7.2611    0.0143 H   0  0  0  0  0  0  0  0  0  0  0  0
    1.7540   -6.2318    0.2266 H   0  0  0  0  0  0  0  0  0  0  0  0
    1.0403   -7.0808    1.6397 H   0  0  0  0  0  0  0  0  0  0  0  0
  1  3  1  0  0  0  0
  1  7  1  0  0  0  0
  1  2  2  0  0  0  0
 31 32  1  0  0  0  0
 32 40  1  0  0  0  0
 32 33  2  0  0  0  0
  8  9  1  0  0  0  0
  9 17  1  0  0  0  0
  9 10  2  0  0  0  0
 18 19  1  0  0  0  0
 19 30  1  0  0  0  0
 19 20  2  0  0  0  0
 21 22  1  0  0  0  0
 22 23  2  0  0  0  0
 22 24  1  0  0  0  0
 31 34  1  0  0  0  0
  8 11  1  0  0  0  0
 40 41  1  0  0  0  0
 18 21  1  0  0  0  0
 30 31  1  0  0  0  0
  7  8  1  0  0  0  0
 17 18  1  0  0  0  0
  3  4  1  0  0  0  0
  3  5  1  0  0  0  0
  3  6  1  0  0  0  0
 34 37  1  0  0  0  0
 34 38  1  0  0  0  0
 34 39  1  0  0  0  0
 11 14  1  0  0  0  0
 11 15  1  0  0  0  0
 11 16  1  0  0  0  0
 41 43  1  0  0  0  0
 41 44  1  0  0  0  0
 41 45  1  0  0  0  0
 21 27  1  0  0  0  0
 21 28  1  0  0  0  0
 31 36  1  0  0  0  0
  8 13  1  0  0  0  0
 18 26  1  0  0  0  0
 40 42  1  0  0  0  0
  7 12  1  0  0  0  0
 30 35  1  0  0  0  0
 17 25  1  0  0  0  0
 24 29  1  0  0  0  0
M  END
$$$$

  -OEChem-05262214473D

 45 44  0     1  0  0  0  0  0999 V2000
   -2.2987    4.1032   -0.3022 C   0  0  0  0  0  0  0  0  0  0  0  0
   -1.8049    3.7117   -1.3532 O   0  0  0  0  0  0  0  0  0  0  0  0
   -3.0791    5.3755   -0.2846 C   0  0  0  0  0  0  0  0  0  0  0  0
   -2.4478    6.2532   -0.0717 H   0  0  0  0  0  0  0  0  0  0  0  0
   -3.5571    5.5891   -1.2541 H   0  0  0  0  0  0  0  0  0  0  0  0
   -3.8940    5.4184    0.4556 H   0  0  0  0  0  0  0  0  0  0  0  0
   -2.2137    3.4712    0.9275 N   0  0  0  0  0  0  0  0  0  0  0  0
   -1.5102    2.2327    1.1338 C   0  0  2  0  0  0  0  0  0  0  0  0
   -1.3539    1.5497   -0.2184 C   0  0  0  0  0  0  0  0  0  0  0  0
   -2.0852    1.7861   -1.1778 O   0  0  0  0  0  0  0  0  0  0  0  0
   -2.2477    1.3342    2.1145 C   0  0  0  0  0  0  0  0  0  0  0  0
   -2.6724    3.9052    1.7265 H   0  0  0  0  0  0  0  0  0  0  0  0
   -0.5220    2.4922    1.5290 H   0  0  0  0  0  0  0  0  0  0  0  0
   -3.2400    1.0636    1.7358 H   0  0  0  0  0  0  0  0  0  0  0  0
   -1.6970    0.4046    2.2923 H   0  0  0  0  0  0  0  0  0  0  0  0
   -2.3854    1.8384    3.0772 H   0  0  0  0  0  0  0  0  0  0  0  0
   -0.3283    0.6116   -0.2182 N   0  0  0  0  0  0  0  0  0  0  0  0
    0.0090   -0.1762   -1.3759 C   0  0  2  0  0  0  0  0  0  0  0  0
   -0.5135   -1.5887   -1.1460 C   0  0  0  0  0  0  0  0  0  0  0  0
   -0.5845   -2.4299   -2.0396 O   0  0  0  0  0  0  0  0  0  0  0  0
    1.5126   -0.1900   -1.6382 C   0  0  0  0  0  0  0  0  0  0  0  0
    2.0019    1.1640   -2.0902 C   0  0  0  0  0  0  0  0  0  0  0  0
    1.3144    1.9703   -2.7032 O   0  0  0  0  0  0  0  0  0  0  0  0
    3.2976    1.3873   -1.7585 O   0  0  0  0  0  0  0  0  0  0  0  0
    0.2381    0.4970    0.6194 H   0  0  0  0  0  0  0  0  0  0  0  0
   -0.5318    0.2699   -2.2191 H   0  0  0  0  0  0  0  0  0  0  0  0
    2.0714   -0.4371   -0.7267 H   0  0  0  0  0  0  0  0  0  0  0  0
    1.8009   -0.9482   -2.3764 H   0  0  0  0  0  0  0  0  0  0  0  0
    3.6556    2.2539   -2.0472 H   0  0  0  0  0  0  0  0  0  0  0  0
   -0.8456   -1.8136    0.1827 N   0  0  0  0  0  0  0  0  0  0  0  0
   -1.3510   -3.0811    0.6560 C   0  0  2  0  0  0  0  0  0  0  0  0
   -0.2326   -4.1078    0.5355 C   0  0  0  0  0  0  0  0  0  0  0  0
    0.7171   -3.9781   -0.2340 O   0  0  0  0  0  0  0  0  0  0  0  0
   -2.5764   -3.5172   -0.1320 C   0  0  0  0  0  0  0  0  0  0  0  0
   -0.7285   -1.0561    0.8492 H   0  0  0  0  0  0  0  0  0  0  0  0
   -1.6097   -2.9441    1.7116 H   0  0  0  0  0  0  0  0  0  0  0  0
   -2.3366   -3.6594   -1.1921 H   0  0  0  0  0  0  0  0  0  0  0  0
   -2.9752   -4.4641    0.2466 H   0  0  0  0  0  0  0  0  0  0  0  0
   -3.3689   -2.7637   -0.0687 H   0  0  0  0  0  0  0  0  0  0  0  0
   -0.4421   -5.2065    1.3572 N   0  0  0  0  0  0  0  0  0  0  0  0
    0.4721   -6.3232    1.4140 C   0  0  0  0  0  0  0  0  0  0  0  0
   -1.2471   -5.2211    1.9764 H   0  0  0  0  0  0  0  0  0  0  0  0
    0.1526   -7.0961    0.6994 H   0  0  0  0  0  0  0  0  0  0  0  0
    1.4850   -5.9812    1.1553 H   0  0  0  0  0  0  0  0  0  0  0  0
    0.4753   -6.7430    2.4307 H   0  0  0  0  0  0  0  0  0  0  0  0
  1  3  1  0  0  0  0
  1  7  1  0  0  0  0
  1  2  2  0  0  0  0
 31 32  1  0  0  0  0
 32 40  1  0  0  0  0
 32 33  2  0  0  0  0
  8  9  1  0  0  0  0
  9 17  1  0  0  0  0
  9 10  2  0  0  0  0
 18 19  1  0  0  0  0
 19 30  1  0  0  0  0
 19 20  2  0  0  0  0
 21 22  1  0  0  0  0
 22 23  2  0  0  0  0
 22 24  1  0  0  0  0
 31 34  1  0  0  0  0
  8 11  1  0  0  0  0
 40 41  1  0  0  0  0
 18 21  1  0  0  0  0
 30 31  1  0  0  0  0
  7  8  1  0  0  0  0
 17 18  1  0  0  0  0
  3  4  1  0  0  0  0
  3  5  1  0  0  0  0
  3  6  1  0  0  0  0
 34 37  1  0  0  0  0
 34 38  1  0  0  0  0
 34 39  1  0  0  0  0
 11 14  1  0  0  0  0
 11 15  1  0  0  0  0
 11 16  1  0  0  0  0
 41 43  1  0  0  0  0
 41 44  1  0  0  0  0
 41 45  1  0  0  0  0
 21 27  1  0  0  0  0
 21 28  1  0  0  0  0
 31 36  1  0  0  0  0
  8 13  1  0  0  0  0
 18 26  1  0  0  0  0
 40 42  1  0  0  0  0
  7 12  1  0  0  0  0
 30 35  1  0  0  0  0
 17 25  1  0  0  0  0
 24 29  1  0  0  0  0
M  END
$$$$

  -OEChem-05262214473D

 45 44  0     1  0  0  0  0  0999 V2000
   -2.2987    4.1032   -0.3022 C   0  0  0  0  0  0  0  0  0  0  0  0
   -1.8049    3.7117   -1.3532 O   0  0  0  0  0  0  0  0  0  0  0  0
   -3.0791    5.3755   -0.2846 C   0  0  0  0  0  0  0  0  0  0  0  0
   -2.4478    6.2532   -0.0717 H   0  0  0  0  0  0  0  0  0  0  0  0
   -3.5571    5.5891   -1.2541 H   0  0  0  0  0  0  0  0  0  0  0  0
   -3.8940    5.4184    0.4556 H   0  0  0  0  0  0  0  0  0  0  0  0
   -2.2137    3.4712    0.9275 N   0  0  0  0  0  0  0  0  0  0  0  0
   -1.5102    2.2327    1.1338 C   0  0  2  0  0  0  0  0  0  0  0  0
   -1.3539    1.5497   -0.2184 C   0  0  0  0  0  0  0  0  0  0  0  0
   -2.0852    1.7861   -1.1778 O   0  0  0  0  0  0  0  0  0  0  0  0
   -2.2477    1.3342    2.1145 C   0  0  0  0  0  0  0  0  0  0  0  0
   -2.6724    3.9052    1.7265 H   0  0  0  0  0  0  0  0  0  0  0  0
   -0.5220    2.4922    1.5290 H   0  0  0  0  0  0  0  0  0  0  0  0
   -3.2400    1.0636    1.7358 H   0  0  0  0  0  0  0  0  0  0  0  0
   -1.6970    0.4046    2.2923 H   0  0  0  0  0  0  0  0  0  0  0  0
   -2.3854    1.8384    3.0772 H   0  0  0  0  0  0  0  0  0  0  0  0
   -0.3283    0.6116   -0.2182 N   0  0  0  0  0  0  0  0  0  0  0  0
    0.0090   -0.1762   -1.3759 C   0  0  2  0  0  0  0  0  0  0  0  0
   -0.5135   -1.5887   -1.1460 C   0  0  0  0  0  0  0  0  0  0  0  0
   -0.3426   -2.5045   -1.9481 O   0  0  0  0  0  0  0  0  0  0  0  0
    1.5126   -0.1900   -1.6382 C   0  0  0  0  0  0  0  0  0  0  0  0
    2.0019    1.1640   -2.0902 C   0  0  0  0  0  0  0  0  0  0  0  0
    1.3144    1.9703   -2.7032 O   0  0  0  0  0  0  0  0  0  0  0  0
    3.2976    1.3873   -1.7585 O   0  0  0  0  0  0  0  0  0  0  0  0
    0.2381    0.4970    0.6194 H   0  0  0  0  0  0  0  0  0  0  0  0
   -0.5318    0.2699   -2.2191 H   0  0  0  0  0  0  0  0  0  0  0  0
    2.0714   -0.4371   -0.7267 H   0  0  0  0  0  0  0  0  0  0  0  0
    1.8009   -0.9482   -2.3764 H   0  0  0  0  0  0  0  0  0  0  0  0
    3.6556    2.2539   -2.0472 H   0  0  0  0  0  0  0  0  0  0  0  0
   -1.1504   -1.7175    0.0804 N   0  0  0  0  0  0  0  0  0  0  0  0
   -1.7192   -2.9644    0.5360 C   0  0  2  0  0  0  0  0  0  0  0  0
   -0.5764   -3.9405    0.7821 C   0  0  0  0  0  0  0  0  0  0  0  0
    0.5271   -3.8287    0.2522 O   0  0  0  0  0  0  0  0  0  0  0  0
   -2.7050   -3.5257   -0.4768 C   0  0  0  0  0  0  0  0  0  0  0  0
   -1.2193   -0.9018    0.6817 H   0  0  0  0  0  0  0  0  0  0  0  0
   -2.2292   -2.7523    1.4821 H   0  0  0  0  0  0  0  0  0  0  0  0
   -2.2122   -3.7444   -1.4311 H   0  0  0  0  0  0  0  0  0  0  0  0
   -3.1567   -4.4562   -0.1172 H   0  0  0  0  0  0  0  0  0  0  0  0
   -3.5103   -2.8101   -0.6748 H   0  0  0  0  0  0  0  0  0  0  0  0
   -0.9472   -4.9754    1.6292 N   0  0  0  0  0  0  0  0  0  0  0  0
   -0.0427   -6.0364    2.0063 C   0  0  0  0  0  0  0  0  0  0  0  0
   -1.8773   -4.9781    2.0374 H   0  0  0  0  0  0  0  0  0  0  0  0
   -0.1581   -6.8815    1.3117 H   0  0  0  0  0  0  0  0  0  0  0  0
    0.9926   -5.6672    1.9656 H   0  0  0  0  0  0  0  0  0  0  0  0
   -0.2736   -6.3686    3.0292 H   0  0  0  0  0  0  0  0  0  0  0  0
  1  3  1  0  0  0  0
  1  7  1  0  0  0  0
  1  2  2  0  0  0  0
 31 32  1  0  0  0  0
 32 40  1  0  0  0  0
 32 33  2  0  0  0  0
  8  9  1  0  0  0  0
  9 17  1  0  0  0  0
  9 10  2  0  0  0  0
 18 19  1  0  0  0  0
 19 30  1  0  0  0  0
 19 20  2  0  0  0  0
 21 22  1  0  0  0  0
 22 23  2  0  0  0  0
 22 24  1  0  0  0  0
 31 34  1  0  0  0  0
  8 11  1  0  0  0  0
 40 41  1  0  0  0  0
 18 21  1  0  0  0  0
 30 31  1  0  0  0  0
  7  8  1  0  0  0  0
 17 18  1  0  0  0  0
  3  4  1  0  0  0  0
  3  5  1  0  0  0  0
  3  6  1  0  0  0  0
 34 37  1  0  0  0  0
 34 38  1  0  0  0  0
 34 39  1  0  0  0  0
 11 14  1  0  0  0  0
 11 15  1  0  0  0  0
 11 16  1  0  0  0  0
 41 43  1  0  0  0  0
 41 44  1  0  0  0  0
 41 45  1  0  0  0  0
 21 27  1  0  0  0  0
 21 28  1  0  0  0  0
 31 36  1  0  0  0  0
  8 13  1  0  0  0  0
 18 26  1  0  0  0  0
 40 42  1  0  0  0  0
  7 12  1  0  0  0  0
 30 35  1  0  0  0  0
 17 25  1  0  0  0  0
 24 29  1  0  0  0  0
M  END
$$$$

  -OEChem-05262214473D

 45 44  0     1  0  0  0  0  0999 V2000
   -2.2987    4.1032   -0.3022 C   0  0  0  0  0  0  0  0  0  0  0  0
   -1.8049    3.7117   -1.3532 O   0  0  0  0  0  0  0  0  0  0  0  0
   -3.0791    5.3755   -0.2846 C   0  0  0  0  0  0  0  0  0  0  0  0
   -2.4478    6.2532   -0.0717 H   0  0  0  0  0  0  0  0  0  0  0  0
   -3.5571    5.5891   -1.2541 H   0  0  0  0  0  0  0  0  0  0  0  0
   -3.8940    5.4184    0.4556 H   0  0  0  0  0  0  0  0  0  0  0  0
   -2.2137    3.4712    0.9275 N   0  0  0  0  0  0  0  0  0  0  0  0
   -1.5102    2.2327    1.1338 C   0  0  2  0  0  0  0  0  0  0  0  0
   -1.3539    1.5497   -0.2184 C   0  0  0  0  0  0  0  0  0  0  0  0
   -2.0852    1.7861   -1.1778 O   0  0  0  0  0  0  0  0  0  0  0  0
   -2.2477    1.3342    2.1145 C   0  0  0  0  0  0  0  0  0  0  0  0
   -2.6724    3.9052    1.7265 H   0  0  0  0  0  0  0  0  0  0  0  0
   -0.5220    2.4922    1.5290 H   0  0  0  0  0  0  0  0  0  0  0  0
   -3.2400    1.0636    1.7358 H   0  0  0  0  0  0  0  0  0  0  0  0
   -1.6970    0.4046    2.2923 H   0  0  0  0  0  0  0  0  0  0  0  0
   -2.3854    1.8384    3.0772 H   0  0  0  0  0  0  0  0  0  0  0  0
   -0.3283    0.6116   -0.2182 N   0  0  0  0  0  0  0  0  0  0  0  0
    0.0090   -0.1762   -1.3759 C   0  0  2  0  0  0  0  0  0  0  0  0
   -0.5135   -1.5887   -1.1460 C   0  0  0  0  0  0  0  0  0  0  0  0
   -0.1280   -2.5589   -1.7950 O   0  0  0  0  0  0  0  0  0  0  0  0
    1.5126   -0.1900   -1.6382 C   0  0  0  0  0  0  0  0  0  0  0  0
    2.0019    1.1640   -2.0902 C   0  0  0  0  0  0  0  0  0  0  0  0
    1.3144    1.9703   -2.7032 O   0  0  0  0  0  0  0  0  0  0  0  0
    3.2976    1.3873   -1.7585 O   0  0  0  0  0  0  0  0  0  0  0  0
    0.2381    0.4970    0.6194 H   0  0  0  0  0  0  0  0  0  0  0  0
   -0.5318    0.2699   -2.2191 H   0  0  0  0  0  0  0  0  0  0  0  0
    2.0714   -0.4371   -0.7267 H   0  0  0  0  0  0  0  0  0  0  0  0
    1.8009   -0.9482   -2.3764 H   0  0  0  0  0  0  0  0  0  0  0  0
    3.6556    2.2539   -2.0472 H   0  0  0  0  0  0  0  0  0  0  0  0
   -1.4241   -1.6456   -0.1001 N   0  0  0  0  0  0  0  0  0  0  0  0
   -2.0507   -2.8767    0.3215 C   0  0  2  0  0  0  0  0  0  0  0  0
   -0.9742   -3.7705    0.9229 C   0  0  0  0  0  0  0  0  0  0  0  0
    0.2211   -3.6486    0.6630 O   0  0  0  0  0  0  0  0  0  0  0  0
   -2.7462   -3.5696   -0.8399 C   0  0  0  0  0  0  0  0  0  0  0  0
   -1.6593   -0.7867    0.3885 H   0  0  0  0  0  0  0  0  0  0  0  0
   -2.7801   -2.6116    1.0947 H   0  0  0  0  0  0  0  0  0  0  0  0
   -2.0314   -3.8428   -1.6247 H   0  0  0  0  0  0  0  0  0  0  0  0
   -3.2449   -4.4879   -0.5129 H   0  0  0  0  0  0  0  0  0  0  0  0
   -3.4996   -2.9142   -1.2901 H   0  0  0  0  0  0  0  0  0  0  0  0
   -1.5094   -4.7478    1.7502 N   0  0  0  0  0  0  0  0  0  0  0  0
   -0.6934   -5.7268    2.4295 C   0  0  0  0  0  0  0  0  0  0  0  0
   -2.5102   -4.7625    1.9236 H   0  0  0  0  0  0  0  0  0  0  0  0
   -0.6135   -6.6320    1.8096 H   0  0  0  0  0  0  0  0  0  0  0  0
    0.3103   -5.3111    2.6022 H   0  0  0  0  0  0  0  0  0  0  0  0
   -1.1552   -5.9830    3.3944 H   0  0  0  0  0  0  0  0  0  0  0  0
  1  3  1  0  0  0  0
  1  7  1  0  0  0  0
  1  2  2  0  0  0  0
 31 32  1  0  0  0  0
 32 40  1  0  0  0  0
 32 33  2  0  0  0  0
  8  9  1  0  0  0  0
  9 17  1  0  0  0  0
  9 10  2  0  0  0  0
 18 19  1  0  0  0  0
 19 30  1  0  0  0  0
 19 20  2  0  0  0  0
 21 22  1  0  0  0  0
 22 23  2  0  0  0  0
 22 24  1  0  0  0  0
 31 34  1  0  0  0  0
  8 11  1  0  0  0  0
 40 41  1  0  0  0  0
 18 21  1  0  0  0  0
 30 31  1  0  0  0  0
  7  8  1  0  0  0  0
 17 18  1  0  0  0  0
  3  4  1  0  0  0  0
  3  5  1  0  0  0  0
  3  6  1  0  0  0  0
 34 37  1  0  0  0  0
 34 38  1  0  0  0  0
 34 39  1  0  0  0  0
 11 14  1  0  0  0  0
 11 15  1  0  0  0  0
 11 16  1  0  0  0  0
 41 43  1  0  0  0  0
 41 44  1  0  0  0  0
 41 45  1  0  0  0  0
 21 27  1  0  0  0  0
 21 28  1  0  0  0  0
 31 36  1  0  0  0  0
  8 13  1  0  0  0  0
 18 26  1  0  0  0  0
 40 42  1  0  0  0  0
  7 12  1  0  0  0  0
 30 35  1  0  0  0  0
 17 25  1  0  0  0  0
 24 29  1  0  0  0  0
M  END
$$$$

  -OEChem-05262214473D

 45 44  0     1  0  0  0  0  0999 V2000
   -2.2987    4.1032   -0.3022 C   0  0  0  0  0  0  0  0  0  0  0  0
   -1.8049    3.7117   -1.3532 O   0  0  0  0  0  0  0  0  0  0  0  0
   -3.0791    5.3755   -0.2846 C   0  0  0  0  0  0  0  0  0  0  0  0
   -2.4478    6.2532   -0.0717 H   0  0  0  0  0  0  0  0  0  0  0  0
   -3.5571    5.5891   -1.2541 H   0  0  0  0  0  0  0  0  0  0  0  0
   -3.8940    5.4184    0.4556 H   0  0  0  0  0  0  0  0  0  0  0  0
   -2.2137    3.4712    0.9275 N   0  0  0  0  0  0  0  0  0  0  0  0
   -1.5102    2.2327    1.1338 C   0  0  2  0  0  0  0  0  0  0  0  0
   -1.3539    1.5497   -0.2184 C   0  0  0  0  0  0  0  0  0  0  0  0
   -2.0852    1.7861   -1.1778 O   0  0  0  0  0  0  0  0  0  0  0  0
   -2.2477    1.3342    2.1145 C   0  0  0  0  0  0  0  0  0  0  0  0
   -2.6724    3.9052    1.7265 H   0  0  0  0  0  0  0  0  0  0  0  0
   -0.5220    2.4922    1.5290 H   0  0  0  0  0  0  0  0  0  0  0  0
   -3.2400    1.0636    1.7358 H   0  0  0  0  0  0  0  0  0  0  0  0
   -1.6970    0.4046    2.2923 H   0  0  0  0  0  0  0  0  0  0  0  0
   -2.3854    1.8384    3.0772 H   0  0  0  0  0  0  0  0  0  0  0  0
   -0.3283    0.6116   -0.2182 N   0  0  0  0  0  0  0  0  0  0  0  0
    0.0090   -0.1762   -1.3759 C   0  0  2  0  0  0  0  0  0  0  0  0
   -0.5135   -1.5887   -1.1460 C   0  0  0  0  0  0  0  0  0  0  0  0
    0.0447   -2.5896   -1.5908 O   0  0  0  0  0  0  0  0  0  0  0  0
    1.5126   -0.1900   -1.6382 C   0  0  0  0  0  0  0  0  0  0  0  0
    2.0019    1.1640   -2.0902 C   0  0  0  0  0  0  0  0  0  0  0  0
    1.3144    1.9703   -2.7032 O   0  0  0  0  0  0  0  0  0  0  0  0
    3.2976    1.3873   -1.7585 O   0  0  0  0  0  0  0  0  0  0  0  0
    0.2381    0.4970    0.6194 H   0  0  0  0  0  0  0  0  0  0  0  0
   -0.5318    0.2699   -2.2191 H   0  0  0  0  0  0  0  0  0  0  0  0
    2.0714   -0.4371   -0.7267 H   0  0  0  0  0  0  0  0  0  0  0  0
    1.8009   -0.9482   -2.3764 H   0  0  0  0  0  0  0  0  0  0  0  0
    3.6556    2.2539   -2.0472 H   0  0  0  0  0  0  0  0  0  0  0  0
   -1.6479   -1.6029   -0.3466 N   0  0  0  0  0  0  0  0  0  0  0  0
   -2.3229   -2.8239    0.0269 C   0  0  2  0  0  0  0  0  0  0  0  0
   -1.3988   -3.6092    0.9483 C   0  0  0  0  0  0  0  0  0  0  0  0
   -0.1801   -3.4501    0.9704 O   0  0  0  0  0  0  0  0  0  0  0  0
   -2.6972   -3.6458   -1.1967 C   0  0  0  0  0  0  0  0  0  0  0  0
   -2.0184   -0.7189   -0.0105 H   0  0  0  0  0  0  0  0  0  0  0  0
   -3.2247   -2.5316    0.5759 H   0  0  0  0  0  0  0  0  0  0  0  0
   -1.8064   -3.9479   -1.7595 H   0  0  0  0  0  0  0  0  0  0  0  0
   -3.2340   -4.5572   -0.9134 H   0  0  0  0  0  0  0  0  0  0  0  0
   -3.3376   -3.0689   -1.8726 H   0  0  0  0  0  0  0  0  0  0  0  0
   -2.0904   -4.5391    1.7120 N   0  0  0  0  0  0  0  0  0  0  0  0
   -1.4354   -5.4157    2.6546 C   0  0  0  0  0  0  0  0  0  0  0  0
   -3.1026   -4.5891    1.6426 H   0  0  0  0  0  0  0  0  0  0  0  0
   -1.1826   -6.3646    2.1590 H   0  0  0  0  0  0  0  0  0  0  0  0
   -0.5154   -4.9374    3.0218 H   0  0  0  0  0  0  0  0  0  0  0  0
   -2.1094   -5.6126    3.5014 H   0  0  0  0  0  0  0  0  0  0  0  0
  1  3  1  0  0  0  0
  1  7  1  0  0  0  0
  1  2  2  0  0  0  0
 31 32  1  0  0  0  0
 32 40  1  0  0  0  0
 32 33  2  0  0  0  0
  8  9  1  0  0  0  0
  9 17  1  0  0  0  0
  9 10  2  0  0  0  0
 18 19  1  0  0  0  0
 19 30  1  0  0  0  0
 19 20  2  0  0  0  0
 21 22  1  0  0  0  0
 22 23  2  0  0  0  0
 22 24  1  0  0  0  0
 31 34  1  0  0  0  0
  8 11  1  0  0  0  0
 40 41  1  0  0  0  0
 18 21  1  0  0  0  0
 30 31  1  0  0  0  0
  7  8  1  0  0  0  0
 17 18  1  0  0  0  0
  3  4  1  0  0  0  0
  3  5  1  0  0  0  0
  3  6  1  0  0  0  0
 34 37  1  0  0  0  0
 34 38  1  0  0  0  0
 34 39  1  0  0  0  0
 11 14  1  0  0  0  0
 11 15  1  0  0  0  0
 11 16  1  0  0  0  0
 41 43  1  0  0  0  0
 41 44  1  0  0  0  0
 41 45  1  0  0  0  0
 21 27  1  0  0  0  0
 21 28  1  0  0  0  0
 31 36  1  0  0  0  0
  8 13  1  0  0  0  0
 18 26  1  0  0  0  0
 40 42  1  0  0  0  0
  7 12  1  0  0  0  0
 30 35  1  0  0  0  0
 17 25  1  0  0  0  0
 24 29  1  0  0  0  0
M  END
$$$$

  -OEChem-05262214473D

 45 44  0     1  0  0  0  0  0999 V2000
   -2.2987    4.1032   -0.3022 C   0  0  0  0  0  0  0  0  0  0  0  0
   -1.8049    3.7117   -1.3532 O   0  0  0  0  0  0  0  0  0  0  0  0
   -3.0791    5.3755   -0.2846 C   0  0  0  0  0  0  0  0  0  0  0  0
   -2.4478    6.2532   -0.0717 H   0  0  0  0  0  0  0  0  0  0  0  0
   -3.5571    5.5891   -1.2541 H   0  0  0  0  0  0  0  0  0  0  0  0
   -3.8940    5.4184    0.4556 H   0  0  0  0  0  0  0  0  0  0  0  0
   -2.2137    3.4712    0.9275 N   0  0  0  0  0  0  0  0  0  0  0  0
   -1.5102    2.2327    1.1338 C   0  0  2  0  0  0  0  0  0  0  0  0
   -1.3539    1.5497   -0.2184 C   0  0  0  0  0  0  0  0  0  0  0  0
   -2.0852    1.7861   -1.1778 O   0  0  0  0  0  0  0  0  0  0  0  0
   -2.2477    1.3342    2.1145 C   0  0  0  0  0  0  0  0  0  0  0  0
   -2.6724    3.9052    1.7265 H   0  0  0  0  0  0  0  0  0  0  0  0
   -0.5220    2.4922    1.5290 H   0  0  0  0  0  0  0  0  0  0  0  0
   -3.2400    1.0636    1.7358 H   0  0  0  0  0  0  0  0  0  0  0  0
   -1.6970    0.4046    2.2923 H   0  0  0  0  0  0  0  0  0  0  0  0
   -2.3854    1.8384    3.0772 H   0  0  0  0  0  0  0  0  0  0  0  0
   -0.3283    0.6116   -0.2182 N   0  0  0  0  0  0  0  0  0  0  0  0
    0.0090   -0.1762   -1.3759 C   0  0  2  0  0  0  0  0  0  0  0  0
   -0.5135   -1.5887   -1.1460 C   0  0  0  0  0  0  0  0  0  0  0  0
    0.1637   -2.5943   -1.3495 O   0  0  0  0  0  0  0  0  0  0  0  0
    1.5126   -0.1900   -1.6382 C   0  0  0  0  0  0  0  0  0  0  0  0
    2.0019    1.1640   -2.0902 C   0  0  0  0  0  0  0  0  0  0  0  0
    1.3144    1.9703   -2.7032 O   0  0  0  0  0  0  0  0  0  0  0  0
    3.2976    1.3873   -1.7585 O   0  0  0  0  0  0  0  0  0  0  0  0
    0.2381    0.4970    0.6194 H   0  0  0  0  0  0  0  0  0  0  0  0
   -0.5318    0.2699   -2.2191 H   0  0  0  0  0  0  0  0  0  0  0  0
    2.0714   -0.4371   -0.7267 H   0  0  0  0  0  0  0  0  0  0  0  0
    1.8009   -0.9482   -2.3764 H   0  0  0  0  0  0  0  0  0  0  0  0
    3.6556    2.2539   -2.0472 H   0  0  0  0  0  0  0  0  0  0  0  0
   -1.8066   -1.5923   -0.6421 N   0  0  0  0  0  0  0  0  0  0  0  0
   -2.5171   -2.8098   -0.3276 C   0  0  2  0  0  0  0  0  0  0  0  0
   -1.8214   -3.4678    0.8566 C   0  0  0  0  0  0  0  0  0  0  0  0
   -0.6492   -3.2468    1.1535 O   0  0  0  0  0  0  0  0  0  0  0  0
   -2.5612   -3.7492   -1.5227 C   0  0  0  0  0  0  0  0  0  0  0  0
   -2.2722   -0.7027   -0.4882 H   0  0  0  0  0  0  0  0  0  0  0  0
   -3.5328   -2.5177   -0.0391 H   0  0  0  0  0  0  0  0  0  0  0  0
   -1.5527   -4.0527   -1.8263 H   0  0  0  0  0  0  0  0  0  0  0  0
   -3.1247   -4.6592   -1.2916 H   0  0  0  0  0  0  0  0  0  0  0  0
   -3.0352   -3.2638   -2.3827 H   0  0  0  0  0  0  0  0  0  0  0  0
   -2.6506   -4.3636    1.5172 N   0  0  0  0  0  0  0  0  0  0  0  0
   -2.2184   -5.1242    2.6664 C   0  0  0  0  0  0  0  0  0  0  0  0
   -3.6141   -4.4697    1.2137 H   0  0  0  0  0  0  0  0  0  0  0  0
   -1.8266   -6.0975    2.3363 H   0  0  0  0  0  0  0  0  0  0  0  0
   -1.4283   -4.5714    3.1957 H   0  0  0  0  0  0  0  0  0  0  0  0
   -3.0712   -5.2827    3.3429 H   0  0  0  0  0  0  0  0  0  0  0  0
  1  3  1  0  0  0  0
  1  7  1  0  0  0  0
  1  2  2  0  0  0  0
 31 32  1  0  0  0  0
 32 40  1  0  0  0  0
 32 33  2  0  0  0  0
  8  9  1  0  0  0  0
  9 17  1  0  0  0  0
  9 10  2  0  0  0  0
 18 19  1  0  0  0  0
 19 30  1  0  0  0  0
 19 20  2  0  0  0  0
 21 22  1  0  0  0  0
 22 23  2  0  0  0  0
 22 24  1  0  0  0  0
 31 34  1  0  0  0  0
  8 11  1  0  0  0  0
 40 41  1  0  0  0  0
 18 21  1  0  0  0  0
 30 31  1  0  0  0  0
  7  8  1  0  0  0  0
 17 18  1  0  0  0  0
  3  4  1  0  0  0  0
  3  5  1  0  0  0  0
  3  6  1  0  0  0  0
 34 37  1  0  0  0  0
 34 38  1  0  0  0  0
 34 39  1  0  0  0  0
 11 14  1  0  0  0  0
 11 15  1  0  0  0  0
 11 16  1  0  0  0  0
 41 43  1  0  0  0  0
 41 44  1  0  0  0  0
 41 45  1  0  0  0  0
 21 27  1  0  0  0  0
 21 28  1  0  0  0  0
 31 36  1  0  0  0  0
  8 13  1  0  0  0  0
 18 26  1  0  0  0  0
 40 42  1  0  0  0  0
  7 12  1  0  0  0  0
 30 35  1  0  0  0  0
 17 25  1  0  0  0  0
 24 29  1  0  0  0  0
M  END
$$$$

  -OEChem-05262214473D

 45 44  0     1  0  0  0  0  0999 V2000
   -2.2987    4.1032   -0.3022 C   0  0  0  0  0  0  0  0  0  0  0  0
   -1.8049    3.7117   -1.3532 O   0  0  0  0  0  0  0  0  0  0  0  0
   -3.0791    5.3755   -0.2846 C   0  0  0  0  0  0  0  0  0  0  0  0
   -2.4478    6.2532   -0.0717 H   0  0  0  0  0  0  0  0  0  0  0  0
   -3.5571    5.5891   -1.2541 H   0  0  0  0  0  0  0  0  0  0  0  0
   -3.8940    5.4184    0.4556 H   0  0  0  0  0  0  0  0  0  0  0  0
   -2.2137    3.4712    0.9275 N   0  0  0  0  0  0  0  0  0  0  0  0
   -1.5102    2.2327    1.1338 C   0  0  2  0  0  0  0  0  0  0  0  0
   -1.3539    1.5497   -0.2184 C   0  0  0  0  0  0  0  0  0  0  0  0
   -2.0852    1.7861   -1.1778 O   0  0  0  0  0  0  0  0  0  0  0  0
   -2.2477    1.3342    2.1145 C   0  0  0  0  0  0  0  0  0  0  0  0
   -2.6724    3.9052    1.7265 H   0  0  0  0  0  0  0  0  0  0  0  0
   -0.5220    2.4922    1.5290 H   0  0  0  0  0  0  0  0  0  0  0  0
   -3.2400    1.0636    1.7358 H   0  0  0  0  0  0  0  0  0  0  0  0
   -1.6970    0.4046    2.2923 H   0  0  0  0  0  0  0  0  0  0  0  0
   -2.3854    1.8384    3.0772 H   0  0  0  0  0  0  0  0  0  0  0  0
   -0.3283    0.6116   -0.2182 N   0  0  0  0  0  0  0  0  0  0  0  0
    0.0090   -0.1762   -1.3759 C   0  0  2  0  0  0  0  0  0  0  0  0
   -0.5135   -1.5887   -1.1460 C   0  0  0  0  0  0  0  0  0  0  0  0
    0.2209   -2.5728   -1.0873 O   0  0  0  0  0  0  0  0  0  0  0  0
    1.5126   -0.1900   -1.6382 C   0  0  0  0  0  0  0  0  0  0  0  0
    2.0019    1.1640   -2.0902 C   0  0  0  0  0  0  0  0  0  0  0  0
    1.3144    1.9703   -2.7032 O   0  0  0  0  0  0  0  0  0  0  0  0
    3.2976    1.3873   -1.7585 O   0  0  0  0  0  0  0  0  0  0  0  0
    0.2381    0.4970    0.6194 H   0  0  0  0  0  0  0  0  0  0  0  0
   -0.5318    0.2699   -2.2191 H   0  0  0  0  0  0  0  0  0  0  0  0
    2.0714   -0.4371   -0.7267 H   0  0  0  0  0  0  0  0  0  0  0  0
    1.8009   -0.9482   -2.3764 H   0  0  0  0  0  0  0  0  0  0  0  0
    3.6556    2.2539   -2.0472 H   0  0  0  0  0  0  0  0  0  0  0  0
   -1.8894   -1.6145   -0.9665 N   0  0  0  0  0  0  0  0  0  0  0  0
   -2.6203   -2.8352   -0.7179 C   0  0  2  0  0  0  0  0  0  0  0  0
   -2.2132   -3.3559    0.6542 C   0  0  0  0  0  0  0  0  0  0  0  0
   -1.1542   -3.0525    1.1997 O   0  0  0  0  0  0  0  0  0  0  0  0
   -2.3476   -3.8726   -1.7959 C   0  0  0  0  0  0  0  0  0  0  0  0
   -2.4033   -0.7395   -1.0119 H   0  0  0  0  0  0  0  0  0  0  0  0
   -3.6833   -2.5709   -0.7082 H   0  0  0  0  0  0  0  0  0  0  0  0
   -1.2874   -4.1499   -1.8208 H   0  0  0  0  0  0  0  0  0  0  0  0
   -2.9243   -4.7870   -1.6215 H   0  0  0  0  0  0  0  0  0  0  0  0
   -2.6132   -3.4855   -2.7855 H   0  0  0  0  0  0  0  0  0  0  0  0
   -3.1518   -4.2332    1.1790 N   0  0  0  0  0  0  0  0  0  0  0  0
   -2.9889   -4.8721    2.4640 C   0  0  0  0  0  0  0  0  0  0  0  0
   -4.0100   -4.4124    0.6660 H   0  0  0  0  0  0  0  0  0  0  0  0
   -2.5016   -5.8490    2.3293 H   0  0  0  0  0  0  0  0  0  0  0  0
   -2.3661   -4.2381    3.1122 H   0  0  0  0  0  0  0  0  0  0  0  0
   -3.9751   -5.0156    2.9296 H   0  0  0  0  0  0  0  0  0  0  0  0
  1  3  1  0  0  0  0
  1  7  1  0  0  0  0
  1  2  2  0  0  0  0
 31 32  1  0  0  0  0
 32 40  1  0  0  0  0
 32 33  2  0  0  0  0
  8  9  1  0  0  0  0
  9 17  1  0  0  0  0
  9 10  2  0  0  0  0
 18 19  1  0  0  0  0
 19 30  1  0  0  0  0
 19 20  2  0  0  0  0
 21 22  1  0  0  0  0
 22 23  2  0  0  0  0
 22 24  1  0  0  0  0
 31 34  1  0  0  0  0
  8 11  1  0  0  0  0
 40 41  1  0  0  0  0
 18 21  1  0  0  0  0
 30 31  1  0  0  0  0
  7  8  1  0  0  0  0
 17 18  1  0  0  0  0
  3  4  1  0  0  0  0
  3  5  1  0  0  0  0
  3  6  1  0  0  0  0
 34 37  1  0  0  0  0
 34 38  1  0  0  0  0
 34 39  1  0  0  0  0
 11 14  1  0  0  0  0
 11 15  1  0  0  0  0
 11 16  1  0  0  0  0
 41 43  1  0  0  0  0
 41 44  1  0  0  0  0
 41 45  1  0  0  0  0
 21 27  1  0  0  0  0
 21 28  1  0  0  0  0
 31 36  1  0  0  0  0
  8 13  1  0  0  0  0
 18 26  1  0  0  0  0
 40 42  1  0  0  0  0
  7 12  1  0  0  0  0
 30 35  1  0  0  0  0
 17 25  1  0  0  0  0
 24 29  1  0  0  0  0
M  END
$$$$

  -OEChem-05262214473D

 45 44  0     1  0  0  0  0  0999 V2000
   -2.2987    4.1032   -0.3022 C   0  0  0  0  0  0  0  0  0  0  0  0
   -1.8049    3.7117   -1.3532 O   0  0  0  0  0  0  0  0  0  0  0  0
   -3.0791    5.3755   -0.2846 C   0  0  0  0  0  0  0  0  0  0  0  0
   -2.4478    6.2532   -0.0717 H   0  0  0  0  0  0  0  0  0  0  0  0
   -3.5571    5.5891   -1.2541 H   0  0  0  0  0  0  0  0  0  0  0  0
   -3.8940    5.4184    0.4556 H   0  0  0  0  0  0  0  0  0  0  0  0
   -2.2137    3.4712    0.9275 N   0  0  0  0  0  0  0  0  0  0  0  0
   -1.5102    2.2327    1.1338 C   0  0  2  0  0  0  0  0  0  0  0  0
   -1.3539    1.5497   -0.2184 C   0  0  0  0  0  0  0  0  0  0  0  0
   -2.0852    1.7861   -1.1778 O   0  0  0  0  0  0  0  0  0  0  0  0
   -2.2477    1.3342    2.1145 C   0  0  0  0  0  0  0  0  0  0  0  0
   -2.6724    3.9052    1.7265 H   0  0  0  0  0  0  0  0  0  0  0  0
   -0.5220    2.4922    1.5290 H   0  0  0  0  0  0  0  0  0  0  0  0
   -3.2400    1.0636    1.7358 H   0  0  0  0  0  0  0  0  0  0  0  0
   -1.6970    0.4046    2.2923 H   0  0  0  0  0  0  0  0  0  0  0  0
   -2.3854    1.8384    3.0772 H   0  0  0  0  0  0  0  0  0  0  0  0
   -0.3283    0.6116   -0.2182 N   0  0  0  0  0  0  0  0  0  0  0  0
    0.0090   -0.1762   -1.3759 C   0  0  2  0  0  0  0  0  0  0  0  0
   -0.5135   -1.5887   -1.1460 C   0  0  0  0  0  0  0  0  0  0  0  0
    0.2124   -2.5265   -0.8223 O   0  0  0  0  0  0  0  0  0  0  0  0
    1.5126   -0.1900   -1.6382 C   0  0  0  0  0  0  0  0  0  0  0  0
    2.0019    1.1640   -2.0902 C   0  0  0  0  0  0  0  0  0  0  0  0
    1.3144    1.9703   -2.7032 O   0  0  0  0  0  0  0  0  0  0  0  0
    3.2976    1.3873   -1.7585 O   0  0  0  0  0  0  0  0  0  0  0  0
    0.2381    0.4970    0.6194 H   0  0  0  0  0  0  0  0  0  0  0  0
   -0.5318    0.2699   -2.2191 H   0  0  0  0  0  0  0  0  0  0  0  0
    2.0714   -0.4371   -0.7267 H   0  0  0  0  0  0  0  0  0  0  0  0
    1.8009   -0.9482   -2.3764 H   0  0  0  0  0  0  0  0  0  0  0  0
    3.6556    2.2539   -2.0472 H   0  0  0  0  0  0  0  0  0  0  0  0
   -1.8907   -1.6679   -1.2978 N   0  0  0  0  0  0  0  0  0  0  0  0
   -2.6252   -2.8984   -1.1174 C   0  0  2  0  0  0  0  0  0  0  0  0
   -2.5473   -3.2810    0.3546 C   0  0  0  0  0  0  0  0  0  0  0  0
   -1.6606   -2.8805    1.1058 O   0  0  0  0  0  0  0  0  0  0  0  0
   -2.0709   -4.0078   -1.9975 C   0  0  0  0  0  0  0  0  0  0  0  0
   -2.4029   -0.8266   -1.5459 H   0  0  0  0  0  0  0  0  0  0  0  0
   -3.6661   -2.6876   -1.3860 H   0  0  0  0  0  0  0  0  0  0  0  0
   -1.0287   -4.2329   -1.7431 H   0  0  0  0  0  0  0  0  0  0  0  0
   -2.6466   -4.9319   -1.8808 H   0  0  0  0  0  0  0  0  0  0  0  0
   -2.1002   -3.7189   -3.0537 H   0  0  0  0  0  0  0  0  0  0  0  0
   -3.5598   -4.1569    0.7205 N   0  0  0  0  0  0  0  0  0  0  0  0
   -3.6945   -4.6766    2.0613 C   0  0  0  0  0  0  0  0  0  0  0  0
   -4.2631   -4.4212    0.0369 H   0  0  0  0  0  0  0  0  0  0  0  0
   -3.1616   -5.6359    2.1385 H   0  0  0  0  0  0  0  0  0  0  0  0
   -3.2650   -3.9602    2.7769 H   0  0  0  0  0  0  0  0  0  0  0  0
   -4.7595   -4.8295    2.2899 H   0  0  0  0  0  0  0  0  0  0  0  0
  1  3  1  0  0  0  0
  1  7  1  0  0  0  0
  1  2  2  0  0  0  0
 31 32  1  0  0  0  0
 32 40  1  0  0  0  0
 32 33  2  0  0  0  0
  8  9  1  0  0  0  0
  9 17  1  0  0  0  0
  9 10  2  0  0  0  0
 18 19  1  0  0  0  0
 19 30  1  0  0  0  0
 19 20  2  0  0  0  0
 21 22  1  0  0  0  0
 22 23  2  0  0  0  0
 22 24  1  0  0  0  0
 31 34  1  0  0  0  0
  8 11  1  0  0  0  0
 40 41  1  0  0  0  0
 18 21  1  0  0  0  0
 30 31  1  0  0  0  0
  7  8  1  0  0  0  0
 17 18  1  0  0  0  0
  3  4  1  0  0  0  0
  3  5  1  0  0  0  0
  3  6  1  0  0  0  0
 34 37  1  0  0  0  0
 34 38  1  0  0  0  0
 34 39  1  0  0  0  0
 11 14  1  0  0  0  0
 11 15  1  0  0  0  0
 11 16  1  0  0  0  0
 41 43  1  0  0  0  0
 41 44  1  0  0  0  0
 41 45  1  0  0  0  0
 21 27  1  0  0  0  0
 21 28  1  0  0  0  0
 31 36  1  0  0  0  0
  8 13  1  0  0  0  0
 18 26  1  0  0  0  0
 40 42  1  0  0  0  0
  7 12  1  0  0  0  0
 30 35  1  0  0  0  0
 17 25  1  0  0  0  0
 24 29  1  0  0  0  0
M  END
$$$$

  -OEChem-05262214473D

 45 44  0     1  0  0  0  0  0999 V2000
   -2.2987    4.1032   -0.3022 C   0  0  0  0  0  0  0  0  0  0  0  0
   -1.8049    3.7117   -1.3532 O   0  0  0  0  0  0  0  0  0  0  0  0
   -3.0791    5.3755   -0.2846 C   0  0  0  0  0  0  0  0  0  0  0  0
   -2.4478    6.2532   -0.0717 H   0  0  0  0  0  0  0  0  0  0  0  0
   -3.5571    5.5891   -1.2541 H   0  0  0  0  0  0  0  0  0  0  0  0
   -3.8940    5.4184    0.4556 H   0  0  0  0  0  0  0  0  0  0  0  0
   -2.2137    3.4712    0.9275 N   0  0  0  0  0  0  0  0  0  0  0  0
   -1.5102    2.2327    1.1338 C   0  0  2  0  0  0  0  0  0  0  0  0
   -1.3539    1.5497   -0.2184 C   0  0  0  0  0  0  0  0  0  0  0  0
   -2.0852    1.7861   -1.1778 O   0  0  0  0  0  0  0  0  0  0  0  0
   -2.2477    1.3342    2.1145 C   0  0  0  0  0  0  0  0  0  0  0  0
   -2.6724    3.9052    1.7265 H   0  0  0  0  0  0  0  0  0  0  0  0
   -0.5220    2.4922    1.5290 H   0  0  0  0  0  0  0  0  0  0  0  0
   -3.2400    1.0636    1.7358 H   0  0  0  0  0  0  0  0  0  0  0  0
   -1.6970    0.4046    2.2923 H   0  0  0  0  0  0  0  0  0  0  0  0
   -2.3854    1.8384    3.0772 H   0  0  0  0  0  0  0  0  0  0  0  0
   -0.3283    0.6116   -0.2182 N   0  0  0  0  0  0  0  0  0  0  0  0
    0.0090   -0.1762   -1.3759 C   0  0  2  0  0  0  0  0  0  0  0  0
   -0.5135   -1.5887   -1.1460 C   0  0  0  0  0  0  0  0  0  0  0  0
    0.1388   -2.4587   -0.5724 O   0  0  0  0  0  0  0  0  0  0  0  0
    1.5126   -0.1900   -1.6382 C   0  0  0  0  0  0  0  0  0  0  0  0
    2.0019    1.1640   -2.0902 C   0  0  0  0  0  0  0  0  0  0  0  0
    1.3144    1.9703   -2.7032 O   0  0  0  0  0  0  0  0  0  0  0  0
    3.2976    1.3873   -1.7585 O   0  0  0  0  0  0  0  0  0  0  0  0
    0.2381    0.4970    0.6194 H   0  0  0  0  0  0  0  0  0  0  0  0
   -0.5318    0.2699   -2.2191 H   0  0  0  0  0  0  0  0  0  0  0  0
    2.0714   -0.4371   -0.7267 H   0  0  0  0  0  0  0  0  0  0  0  0
    1.8009   -0.9482   -2.3764 H   0  0  0  0  0  0  0  0  0  0  0  0
    3.6556    2.2539   -2.0472 H   0  0  0  0  0  0  0  0  0  0  0  0
   -1.8104   -1.7490   -1.6134 N   0  0  0  0  0  0  0  0  0  0  0  0
   -2.5317   -2.9951   -1.4989 C   0  0  2  0  0  0  0  0  0  0  0  0
   -2.8012   -3.2484   -0.0215 C   0  0  0  0  0  0  0  0  0  0  0  0
   -2.1340   -2.7424    0.8784 O   0  0  0  0  0  0  0  0  0  0  0  0
   -1.7499   -4.1455   -2.1139 C   0  0  0  0  0  0  0  0  0  0  0  0
   -2.2709   -0.9581   -2.0540 H   0  0  0  0  0  0  0  0  0  0  0  0
   -3.4823   -2.8598   -2.0262 H   0  0  0  0  0  0  0  0  0  0  0  0
   -0.7943   -4.2961   -1.5986 H   0  0  0  0  0  0  0  0  0  0  0  0
   -2.3105   -5.0841   -2.0517 H   0  0  0  0  0  0  0  0  0  0  0  0
   -1.5312   -3.9481   -3.1689 H   0  0  0  0  0  0  0  0  0  0  0  0
   -3.8469   -4.1398    0.1729 N   0  0  0  0  0  0  0  0  0  0  0  0
   -4.2869   -4.5512    1.4856 C   0  0  0  0  0  0  0  0  0  0  0  0
   -4.3564   -4.4953   -0.6308 H   0  0  0  0  0  0  0  0  0  0  0  0
   -3.7617   -5.4728    1.7768 H   0  0  0  0  0  0  0  0  0  0  0  0
   -4.0636   -3.7566    2.2127 H   0  0  0  0  0  0  0  0  0  0  0  0
   -5.3709   -4.7373    1.4672 H   0  0  0  0  0  0  0  0  0  0  0  0
  1  3  1  0  0  0  0
  1  7  1  0  0  0  0
  1  2  2  0  0  0  0
 31 32  1  0  0  0  0
 32 40  1  0  0  0  0
 32 33  2  0  0  0  0
  8  9  1  0  0  0  0
  9 17  1  0  0  0  0
  9 10  2  0  0  0  0
 18 19  1  0  0  0  0
 19 30  1  0  0  0  0
 19 20  2  0  0  0  0
 21 22  1  0  0  0  0
 22 23  2  0  0  0  0
 22 24  1  0  0  0  0
 31 34  1  0  0  0  0
  8 11  1  0  0  0  0
 40 41  1  0  0  0  0
 18 21  1  0  0  0  0
 30 31  1  0  0  0  0
  7  8  1  0  0  0  0
 17 18  1  0  0  0  0
  3  4  1  0  0  0  0
  3  5  1  0  0  0  0
  3  6  1  0  0  0  0
 34 37  1  0  0  0  0
 34 38  1  0  0  0  0
 34 39  1  0  0  0  0
 11 14  1  0  0  0  0
 11 15  1  0  0  0  0
 11 16  1  0  0  0  0
 41 43  1  0  0  0  0
 41 44  1  0  0  0  0
 41 45  1  0  0  0  0
 21 27  1  0  0  0  0
 21 28  1  0  0  0  0
 31 36  1  0  0  0  0
  8 13  1  0  0  0  0
 18 26  1  0  0  0  0
 40 42  1  0  0  0  0
  7 12  1  0  0  0  0
 30 35  1  0  0  0  0
 17 25  1  0  0  0  0
 24 29  1  0  0  0  0
M  END
$$$$

  -OEChem-05262214473D

 45 44  0     1  0  0  0  0  0999 V2000
   -2.2987    4.1032   -0.3022 C   0  0  0  0  0  0  0  0  0  0  0  0
   -1.8049    3.7117   -1.3532 O   0  0  0  0  0  0  0  0  0  0  0  0
   -3.0791    5.3755   -0.2846 C   0  0  0  0  0  0  0  0  0  0  0  0
   -2.4478    6.2532   -0.0717 H   0  0  0  0  0  0  0  0  0  0  0  0
   -3.5571    5.5891   -1.2541 H   0  0  0  0  0  0  0  0  0  0  0  0
   -3.8940    5.4184    0.4556 H   0  0  0  0  0  0  0  0  0  0  0  0
   -2.2137    3.4712    0.9275 N   0  0  0  0  0  0  0  0  0  0  0  0
   -1.5102    2.2327    1.1338 C   0  0  2  0  0  0  0  0  0  0  0  0
   -1.3539    1.5497   -0.2184 C   0  0  0  0  0  0  0  0  0  0  0  0
   -2.0852    1.7861   -1.1778 O   0  0  0  0  0  0  0  0  0  0  0  0
   -2.2477    1.3342    2.1145 C   0  0  0  0  0  0  0  0  0  0  0  0
   -2.6724    3.9052    1.7265 H   0  0  0  0  0  0  0  0  0  0  0  0
   -0.5220    2.4922    1.5290 H   0  0  0  0  0  0  0  0  0  0  0  0
   -3.2400    1.0636    1.7358 H   0  0  0  0  0  0  0  0  0  0  0  0
   -1.6970    0.4046    2.2923 H   0  0  0  0  0  0  0  0  0  0  0  0
   -2.3854    1.8384    3.0772 H   0  0  0  0  0  0  0  0  0  0  0  0
   -0.3283    0.6116   -0.2182 N   0  0  0  0  0  0  0  0  0  0  0  0
    0.0090   -0.1762   -1.3759 C   0  0  2  0  0  0  0  0  0  0  0  0
   -0.5135   -1.5887   -1.1460 C   0  0  0  0  0  0  0  0  0  0  0  0
    0.0051   -2.3738   -0.3548 O   0  0  0  0  0  0  0  0  0  0  0  0
    1.5126   -0.1900   -1.6382 C   0  0  0  0  0  0  0  0  0  0  0  0
    2.0019    1.1640   -2.0902 C   0  0  0  0  0  0  0  0  0  0  0  0
    1.3144    1.9703   -2.7032 O   0  0  0  0  0  0  0  0  0  0  0  0
    3.2976    1.3873   -1.7585 O   0  0  0  0  0  0  0  0  0  0  0  0
    0.2381    0.4970    0.6194 H   0  0  0  0  0  0  0  0  0  0  0  0
   -0.5318    0.2699   -2.2191 H   0  0  0  0  0  0  0  0  0  0  0  0
    2.0714   -0.4371   -0.7267 H   0  0  0  0  0  0  0  0  0  0  0  0
    1.8009   -0.9482   -2.3764 H   0  0  0  0  0  0  0  0  0  0  0  0
    3.6556    2.2539   -2.0472 H   0  0  0  0  0  0  0  0  0  0  0  0
   -1.6538   -1.8522   -1.8918 N   0  0  0  0  0  0  0  0  0  0  0  0
   -2.3460   -3.1187   -1.8363 C   0  0  2  0  0  0  0  0  0  0  0  0
   -2.9573   -3.2601   -0.4486 C   0  0  0  0  0  0  0  0  0  0  0  0
   -2.5420   -2.6477    0.5329 O   0  0  0  0  0  0  0  0  0  0  0  0
   -1.4066   -4.2762   -2.1370 C   0  0  0  0  0  0  0  0  0  0  0  0
   -2.0164   -1.1250   -2.5013 H   0  0  0  0  0  0  0  0  0  0  0  0
   -3.1444   -3.0758   -2.5852 H   0  0  0  0  0  0  0  0  0  0  0  0
   -0.6000   -4.3352   -1.3972 H   0  0  0  0  0  0  0  0  0  0  0  0
   -1.9388   -5.2331   -2.1227 H   0  0  0  0  0  0  0  0  0  0  0  0
   -0.9450   -4.1575   -3.1232 H   0  0  0  0  0  0  0  0  0  0  0  0
   -3.9935   -4.1832   -0.4265 N   0  0  0  0  0  0  0  0  0  0  0  0
   -4.7260   -4.5042    0.7762 C   0  0  0  0  0  0  0  0  0  0  0  0
   -4.2834   -4.6299   -1.2914 H   0  0  0  0  0  0  0  0  0  0  0  0
   -4.2610   -5.3707    1.2691 H   0  0  0  0  0  0  0  0  0  0  0  0
   -4.7076   -3.6412    1.4580 H   0  0  0  0  0  0  0  0  0  0  0  0
   -5.7677   -4.7451    0.5176 H   0  0  0  0  0  0  0  0  0  0  0  0
  1  3  1  0  0  0  0
  1  7  1  0  0  0  0
  1  2  2  0  0  0  0
 31 32  1  0  0  0  0
 32 40  1  0  0  0  0
 32 33  2  0  0  0  0
  8  9  1  0  0  0  0
  9 17  1  0  0  0  0
  9 10  2  0  0  0  0
 18 19  1  0  0  0  0
 19 30  1  0  0  0  0
 19 20  2  0  0  0  0
 21 22  1  0  0  0  0
 22 23  2  0  0  0  0
 22 24  1  0  0  0  0
 31 34  1  0  0  0  0
  8 11  1  0  0  0  0
 40 41  1  0  0  0  0
 18 21  1  0  0  0  0
 30 31  1  0  0  0  0
  7  8  1  0  0  0  0
 17 18  1  0  0  0  0
  3  4  1  0  0  0  0
  3  5  1  0  0  0  0
  3  6  1  0  0  0  0
 34 37  1  0  0  0  0
 34 38  1  0  0  0  0
 34 39  1  0  0  0  0
 11 14  1  0  0  0  0
 11 15  1  0  0  0  0
 11 16  1  0  0  0  0
 41 43  1  0  0  0  0
 41 44  1  0  0  0  0
 41 45  1  0  0  0  0
 21 27  1  0  0  0  0
 21 28  1  0  0  0  0
 31 36  1  0  0  0  0
  8 13  1  0  0  0  0
 18 26  1  0  0  0  0
 40 42  1  0  0  0  0
  7 12  1  0  0  0  0
 30 35  1  0  0  0  0
 17 25  1  0  0  0  0
 24 29  1  0  0  0  0
M  END
$$$$

  -OEChem-05262214473D

 45 44  0     1  0  0  0  0  0999 V2000
   -2.2987    4.1032   -0.3022 C   0  0  0  0  0  0  0  0  0  0  0  0
   -1.8049    3.7117   -1.3532 O   0  0  0  0  0  0  0  0  0  0  0  0
   -3.0791    5.3755   -0.2846 C   0  0  0  0  0  0  0  0  0  0  0  0
   -2.4478    6.2532   -0.0717 H   0  0  0  0  0  0  0  0  0  0  0  0
   -3.5571    5.5891   -1.2541 H   0  0  0  0  0  0  0  0  0  0  0  0
   -3.8940    5.4184    0.4556 H   0  0  0  0  0  0  0  0  0  0  0  0
   -2.2137    3.4712    0.9275 N   0  0  0  0  0  0  0  0  0  0  0  0
   -1.5102    2.2327    1.1338 C   0  0  2  0  0  0  0  0  0  0  0  0
   -1.3539    1.5497   -0.2184 C   0  0  0  0  0  0  0  0  0  0  0  0
   -2.0852    1.7861   -1.1778 O   0  0  0  0  0  0  0  0  0  0  0  0
   -2.2477    1.3342    2.1145 C   0  0  0  0  0  0  0  0  0  0  0  0
   -2.6724    3.9052    1.7265 H   0  0  0  0  0  0  0  0  0  0  0  0
   -0.5220    2.4922    1.5290 H   0  0  0  0  0  0  0  0  0  0  0  0
   -3.2400    1.0636    1.7358 H   0  0  0  0  0  0  0  0  0  0  0  0
   -1.6970    0.4046    2.2923 H   0  0  0  0  0  0  0  0  0  0  0  0
   -2.3854    1.8384    3.0772 H   0  0  0  0  0  0  0  0  0  0  0  0
   -0.3283    0.6116   -0.2182 N   0  0  0  0  0  0  0  0  0  0  0  0
    0.0090   -0.1762   -1.3759 C   0  0  2  0  0  0  0  0  0  0  0  0
   -0.5135   -1.5887   -1.1460 C   0  0  0  0  0  0  0  0  0  0  0  0
   -0.1795   -2.2777   -0.1842 O   0  0  0  0  0  0  0  0  0  0  0  0
    1.5126   -0.1900   -1.6382 C   0  0  0  0  0  0  0  0  0  0  0  0
    2.0019    1.1640   -2.0902 C   0  0  0  0  0  0  0  0  0  0  0  0
    1.3144    1.9703   -2.7032 O   0  0  0  0  0  0  0  0  0  0  0  0
    3.2976    1.3873   -1.7585 O   0  0  0  0  0  0  0  0  0  0  0  0
    0.2381    0.4970    0.6194 H   0  0  0  0  0  0  0  0  0  0  0  0
   -0.5318    0.2699   -2.2191 H   0  0  0  0  0  0  0  0  0  0  0  0
    2.0714   -0.4371   -0.7267 H   0  0  0  0  0  0  0  0  0  0  0  0
    1.8009   -0.9482   -2.3764 H   0  0  0  0  0  0  0  0  0  0  0  0
    3.6556    2.2539   -2.0472 H   0  0  0  0  0  0  0  0  0  0  0  0
   -1.4318   -1.9705   -2.1139 N   0  0  0  0  0  0  0  0  0  0  0  0
   -2.0808   -3.2608   -2.1067 C   0  0  2  0  0  0  0  0  0  0  0  0
   -3.0053   -3.3155   -0.8977 C   0  0  0  0  0  0  0  0  0  0  0  0
   -2.8570   -2.6028    0.0929 O   0  0  0  0  0  0  0  0  0  0  0  0
   -1.0644   -4.3912   -2.0654 C   0  0  0  0  0  0  0  0  0  0  0  0
   -1.6566   -1.3161   -2.8575 H   0  0  0  0  0  0  0  0  0  0  0  0
   -2.6754   -3.3208   -3.0248 H   0  0  0  0  0  0  0  0  0  0  0  0
   -0.4591   -4.3475   -1.1526 H   0  0  0  0  0  0  0  0  0  0  0  0
   -1.5570   -5.3688   -2.0888 H   0  0  0  0  0  0  0  0  0  0  0  0
   -0.3816   -4.3328   -2.9199 H   0  0  0  0  0  0  0  0  0  0  0  0
   -3.9896   -4.2840   -1.0367 N   0  0  0  0  0  0  0  0  0  0  0  0
   -4.9817   -4.5390   -0.0185 C   0  0  0  0  0  0  0  0  0  0  0  0
   -4.0490   -4.8156   -1.9001 H   0  0  0  0  0  0  0  0  0  0  0  0
   -4.6253   -5.3368    0.6497 H   0  0  0  0  0  0  0  0  0  0  0  0
   -5.1530   -3.6219    0.5642 H   0  0  0  0  0  0  0  0  0  0  0  0
   -5.9228   -4.8524   -0.4941 H   0  0  0  0  0  0  0  0  0  0  0  0
  1  3  1  0  0  0  0
  1  7  1  0  0  0  0
  1  2  2  0  0  0  0
 31 32  1  0  0  0  0
 32 40  1  0  0  0  0
 32 33  2  0  0  0  0
  8  9  1  0  0  0  0
  9 17  1  0  0  0  0
  9 10  2  0  0  0  0
 18 19  1  0  0  0  0
 19 30  1  0  0  0  0
 19 20  2  0  0  0  0
 21 22  1  0  0  0  0
 22 23  2  0  0  0  0
 22 24  1  0  0  0  0
 31 34  1  0  0  0  0
  8 11  1  0  0  0  0
 40 41  1  0  0  0  0
 18 21  1  0  0  0  0
 30 31  1  0  0  0  0
  7  8  1  0  0  0  0
 17 18  1  0  0  0  0
  3  4  1  0  0  0  0
  3  5  1  0  0  0  0
  3  6  1  0  0  0  0
 34 37  1  0  0  0  0
 34 38  1  0  0  0  0
 34 39  1  0  0  0  0
 11 14  1  0  0  0  0
 11 15  1  0  0  0  0
 11 16  1  0  0  0  0
 41 43  1  0  0  0  0
 41 44  1  0  0  0  0
 41 45  1  0  0  0  0
 21 27  1  0  0  0  0
 21 28  1  0  0  0  0
 31 36  1  0  0  0  0
  8 13  1  0  0  0  0
 18 26  1  0  0  0  0
 40 42  1  0  0  0  0
  7 12  1  0  0  0  0
 30 35  1  0  0  0  0
 17 25  1  0  0  0  0
 24 29  1  0  0  0  0
M  END
$$$$

  -OEChem-05262214473D

 45 44  0     1  0  0  0  0  0999 V2000
   -2.2987    4.1032   -0.3022 C   0  0  0  0  0  0  0  0  0  0  0  0
   -1.8049    3.7117   -1.3532 O   0  0  0  0  0  0  0  0  0  0  0  0
   -3.0791    5.3755   -0.2846 C   0  0  0  0  0  0  0  0  0  0  0  0
   -2.4478    6.2532   -0.0717 H   0  0  0  0  0  0  0  0  0  0  0  0
   -3.5571    5.5891   -1.2541 H   0  0  0  0  0  0  0  0  0  0  0  0
   -3.8940    5.4184    0.4556 H   0  0  0  0  0  0  0  0  0  0  0  0
   -2.2137    3.4712    0.9275 N   0  0  0  0  0  0  0  0  0  0  0  0
   -1.5102    2.2327    1.1338 C   0  0  2  0  0  0  0  0  0  0  0  0
   -1.3539    1.5497   -0.2184 C   0  0  0  0  0  0  0  0  0  0  0  0
   -2.0852    1.7861   -1.1778 O   0  0  0  0  0  0  0  0  0  0  0  0
   -2.2477    1.3342    2.1145 C   0  0  0  0  0  0  0  0  0  0  0  0
   -2.6724    3.9052    1.7265 H   0  0  0  0  0  0  0  0  0  0  0  0
   -0.5220    2.4922    1.5290 H   0  0  0  0  0  0  0  0  0  0  0  0
   -3.2400    1.0636    1.7358 H   0  0  0  0  0  0  0  0  0  0  0  0
   -1.6970    0.4046    2.2923 H   0  0  0  0  0  0  0  0  0  0  0  0
   -2.3854    1.8384    3.0772 H   0  0  0  0  0  0  0  0  0  0  0  0
   -0.3283    0.6116   -0.2182 N   0  0  0  0  0  0  0  0  0  0  0  0
    0.0090   -0.1762   -1.3759 C   0  0  2  0  0  0  0  0  0  0  0  0
   -0.5135   -1.5887   -1.1460 C   0  0  0  0  0  0  0  0  0  0  0  0
   -0.4026   -2.1769   -0.0722 O   0  0  0  0  0  0  0  0  0  0  0  0
    1.5126   -0.1900   -1.6382 C   0  0  0  0  0  0  0  0  0  0  0  0
    2.0019    1.1640   -2.0902 C   0  0  0  0  0  0  0  0  0  0  0  0
    1.3144    1.9703   -2.7032 O   0  0  0  0  0  0  0  0  0  0  0  0
    3.2976    1.3873   -1.7585 O   0  0  0  0  0  0  0  0  0  0  0  0
    0.2381    0.4970    0.6194 H   0  0  0  0  0  0  0  0  0  0  0  0
   -0.5318    0.2699   -2.2191 H   0  0  0  0  0  0  0  0  0  0  0  0
    2.0714   -0.4371   -0.7267 H   0  0  0  0  0  0  0  0  0  0  0  0
    1.8009   -0.9482   -2.3764 H   0  0  0  0  0  0  0  0  0  0  0  0
    3.6556    2.2539   -2.0472 H   0  0  0  0  0  0  0  0  0  0  0  0
   -1.1595   -2.0958   -2.2648 N   0  0  0  0  0  0  0  0  0  0  0  0
   -1.7542   -3.4117   -2.2917 C   0  0  2  0  0  0  0  0  0  0  0  0
   -2.9416   -3.4107   -1.3380 C   0  0  0  0  0  0  0  0  0  0  0  0
   -3.0574   -2.6108   -0.4118 O   0  0  0  0  0  0  0  0  0  0  0  0
   -0.7465   -4.4825   -1.9039 C   0  0  0  0  0  0  0  0  0  0  0  0
   -1.2162   -1.5182   -3.0984 H   0  0  0  0  0  0  0  0  0  0  0  0
   -2.1073   -3.5782   -3.3152 H   0  0  0  0  0  0  0  0  0  0  0  0
   -0.3813   -4.3321   -0.8814 H   0  0  0  0  0  0  0  0  0  0  0  0
   -1.1911   -5.4820   -1.9524 H   0  0  0  0  0  0  0  0  0  0  0  0
    0.1207   -4.4621   -2.5728 H   0  0  0  0  0  0  0  0  0  0  0  0
   -3.8354   -4.4353   -1.6162 N   0  0  0  0  0  0  0  0  0  0  0  0
   -5.0366   -4.6531   -0.8445 C   0  0  0  0  0  0  0  0  0  0  0  0
   -3.6693   -5.0400   -2.4154 H   0  0  0  0  0  0  0  0  0  0  0  0
   -4.8300   -5.3732   -0.0389 H   0  0  0  0  0  0  0  0  0  0  0  0
   -5.3695   -3.7000   -0.4077 H   0  0  0  0  0  0  0  0  0  0  0  0
   -5.8256   -5.0519   -1.4991 H   0  0  0  0  0  0  0  0  0  0  0  0
  1  3  1  0  0  0  0
  1  7  1  0  0  0  0
  1  2  2  0  0  0  0
 31 32  1  0  0  0  0
 32 40  1  0  0  0  0
 32 33  2  0  0  0  0
  8  9  1  0  0  0  0
  9 17  1  0  0  0  0
  9 10  2  0  0  0  0
 18 19  1  0  0  0  0
 19 30  1  0  0  0  0
 19 20  2  0  0  0  0
 21 22  1  0  0  0  0
 22 23  2  0  0  0  0
 22 24  1  0  0  0  0
 31 34  1  0  0  0  0
  8 11  1  0  0  0  0
 40 41  1  0  0  0  0
 18 21  1  0  0  0  0
 30 31  1  0  0  0  0
  7  8  1  0  0  0  0
 17 18  1  0  0  0  0
  3  4  1  0  0  0  0
  3  5  1  0  0  0  0
  3  6  1  0  0  0  0
 34 37  1  0  0  0  0
 34 38  1  0  0  0  0
 34 39  1  0  0  0  0
 11 14  1  0  0  0  0
 11 15  1  0  0  0  0
 11 16  1  0  0  0  0
 41 43  1  0  0  0  0
 41 44  1  0  0  0  0
 41 45  1  0  0  0  0
 21 27  1  0  0  0  0
 21 28  1  0  0  0  0
 31 36  1  0  0  0  0
  8 13  1  0  0  0  0
 18 26  1  0  0  0  0
 40 42  1  0  0  0  0
  7 12  1  0  0  0  0
 30 35  1  0  0  0  0
 17 25  1  0  0  0  0
 24 29  1  0  0  0  0
M  END
$$$$

  -OEChem-05262214473D

 45 44  0     1  0  0  0  0  0999 V2000
   -2.2987    4.1032   -0.3022 C   0  0  0  0  0  0  0  0  0  0  0  0
   -1.8049    3.7117   -1.3532 O   0  0  0  0  0  0  0  0  0  0  0  0
   -3.0791    5.3755   -0.2846 C   0  0  0  0  0  0  0  0  0  0  0  0
   -2.4478    6.2532   -0.0717 H   0  0  0  0  0  0  0  0  0  0  0  0
   -3.5571    5.5891   -1.2541 H   0  0  0  0  0  0  0  0  0  0  0  0
   -3.8940    5.4184    0.4556 H   0  0  0  0  0  0  0  0  0  0  0  0
   -2.2137    3.4712    0.9275 N   0  0  0  0  0  0  0  0  0  0  0  0
   -1.5102    2.2327    1.1338 C   0  0  2  0  0  0  0  0  0  0  0  0
   -1.3539    1.5497   -0.2184 C   0  0  0  0  0  0  0  0  0  0  0  0
   -2.0852    1.7861   -1.1778 O   0  0  0  0  0  0  0  0  0  0  0  0
   -2.2477    1.3342    2.1145 C   0  0  0  0  0  0  0  0  0  0  0  0
   -2.6724    3.9052    1.7265 H   0  0  0  0  0  0  0  0  0  0  0  0
   -0.5220    2.4922    1.5290 H   0  0  0  0  0  0  0  0  0  0  0  0
   -3.2400    1.0636    1.7358 H   0  0  0  0  0  0  0  0  0  0  0  0
   -1.6970    0.4046    2.2923 H   0  0  0  0  0  0  0  0  0  0  0  0
   -2.3854    1.8384    3.0772 H   0  0  0  0  0  0  0  0  0  0  0  0
   -0.3283    0.6116   -0.2182 N   0  0  0  0  0  0  0  0  0  0  0  0
    0.0090   -0.1762   -1.3759 C   0  0  2  0  0  0  0  0  0  0  0  0
   -0.5135   -1.5887   -1.1460 C   0  0  0  0  0  0  0  0  0  0  0  0
   -0.6489   -2.0784   -0.0266 O   0  0  0  0  0  0  0  0  0  0  0  0
    1.5126   -0.1900   -1.6382 C   0  0  0  0  0  0  0  0  0  0  0  0
    2.0019    1.1640   -2.0902 C   0  0  0  0  0  0  0  0  0  0  0  0
    1.3144    1.9703   -2.7032 O   0  0  0  0  0  0  0  0  0  0  0  0
    3.2976    1.3873   -1.7585 O   0  0  0  0  0  0  0  0  0  0  0  0
    0.2381    0.4970    0.6194 H   0  0  0  0  0  0  0  0  0  0  0  0
   -0.5318    0.2699   -2.2191 H   0  0  0  0  0  0  0  0  0  0  0  0
    2.0714   -0.4371   -0.7267 H   0  0  0  0  0  0  0  0  0  0  0  0
    1.8009   -0.9482   -2.3764 H   0  0  0  0  0  0  0  0  0  0  0  0
    3.6556    2.2539   -2.0472 H   0  0  0  0  0  0  0  0  0  0  0  0
   -0.8553   -2.2196   -2.3339 N   0  0  0  0  0  0  0  0  0  0  0  0
   -1.3885   -3.5611   -2.3786 C   0  0  2  0  0  0  0  0  0  0  0  0
   -2.7708   -3.5392   -1.7395 C   0  0  0  0  0  0  0  0  0  0  0  0
   -3.1295   -2.6712   -0.9466 O   0  0  0  0  0  0  0  0  0  0  0  0
   -0.4746   -4.5439   -1.6635 C   0  0  0  0  0  0  0  0  0  0  0  0
   -0.7251   -1.7176   -3.2073 H   0  0  0  0  0  0  0  0  0  0  0  0
   -1.4789   -3.8305   -3.4366 H   0  0  0  0  0  0  0  0  0  0  0  0
   -0.3718   -4.2902   -0.6021 H   0  0  0  0  0  0  0  0  0  0  0  0
   -0.8659   -5.5649   -1.7228 H   0  0  0  0  0  0  0  0  0  0  0  0
    0.5276   -4.5366   -2.1055 H   0  0  0  0  0  0  0  0  0  0  0  0
   -3.5415   -4.6269   -2.1256 N   0  0  0  0  0  0  0  0  0  0  0  0
   -4.8870   -4.8388   -1.6453 C   0  0  0  0  0  0  0  0  0  0  0  0
   -3.1702   -5.2875   -2.8020 H   0  0  0  0  0  0  0  0  0  0  0  0
   -4.8610   -5.4774   -0.7500 H   0  0  0  0  0  0  0  0  0  0  0  0
   -5.3424   -3.8702   -1.3915 H   0  0  0  0  0  0  0  0  0  0  0  0
   -5.4828   -5.3300   -2.4287 H   0  0  0  0  0  0  0  0  0  0  0  0
  1  3  1  0  0  0  0
  1  7  1  0  0  0  0
  1  2  2  0  0  0  0
 31 32  1  0  0  0  0
 32 40  1  0  0  0  0
 32 33  2  0  0  0  0
  8  9  1  0  0  0  0
  9 17  1  0  0  0  0
  9 10  2  0  0  0  0
 18 19  1  0  0  0  0
 19 30  1  0  0  0  0
 19 20  2  0  0  0  0
 21 22  1  0  0  0  0
 22 23  2  0  0  0  0
 22 24  1  0  0  0  0
 31 34  1  0  0  0  0
  8 11  1  0  0  0  0
 40 41  1  0  0  0  0
 18 21  1  0  0  0  0
 30 31  1  0  0  0  0
  7  8  1  0  0  0  0
 17 18  1  0  0  0  0
  3  4  1  0  0  0  0
  3  5  1  0  0  0  0
  3  6  1  0  0  0  0
 34 37  1  0  0  0  0
 34 38  1  0  0  0  0
 34 39  1  0  0  0  0
 11 14  1  0  0  0  0
 11 15  1  0  0  0  0
 11 16  1  0  0  0  0
 41 43  1  0  0  0  0
 41 44  1  0  0  0  0
 41 45  1  0  0  0  0
 21 27  1  0  0  0  0
 21 28  1  0  0  0  0
 31 36  1  0  0  0  0
  8 13  1  0  0  0  0
 18 26  1  0  0  0  0
 40 42  1  0  0  0  0
  7 12  1  0  0  0  0
 30 35  1  0  0  0  0
 17 25  1  0  0  0  0
 24 29  1  0  0  0  0
M  END
$$$$

  -OEChem-05262214473D

 45 44  0     1  0  0  0  0  0999 V2000
   -2.2987    4.1032   -0.3022 C   0  0  0  0  0  0  0  0  0  0  0  0
   -1.8049    3.7117   -1.3532 O   0  0  0  0  0  0  0  0  0  0  0  0
   -3.0791    5.3755   -0.2846 C   0  0  0  0  0  0  0  0  0  0  0  0
   -2.4478    6.2532   -0.0717 H   0  0  0  0  0  0  0  0  0  0  0  0
   -3.5571    5.5891   -1.2541 H   0  0  0  0  0  0  0  0  0  0  0  0
   -3.8940    5.4184    0.4556 H   0  0  0  0  0  0  0  0  0  0  0  0
   -2.2137    3.4712    0.9275 N   0  0  0  0  0  0  0  0  0  0  0  0
   -1.5102    2.2327    1.1338 C   0  0  2  0  0  0  0  0  0  0  0  0
   -1.3539    1.5497   -0.2184 C   0  0  0  0  0  0  0  0  0  0  0  0
   -2.0852    1.7861   -1.1778 O   0  0  0  0  0  0  0  0  0  0  0  0
   -2.2477    1.3342    2.1145 C   0  0  0  0  0  0  0  0  0  0  0  0
   -2.6724    3.9052    1.7265 H   0  0  0  0  0  0  0  0  0  0  0  0
   -0.5220    2.4922    1.5290 H   0  0  0  0  0  0  0  0  0  0  0  0
   -3.2400    1.0636    1.7358 H   0  0  0  0  0  0  0  0  0  0  0  0
   -1.6970    0.4046    2.2923 H   0  0  0  0  0  0  0  0  0  0  0  0
   -2.3854    1.8384    3.0772 H   0  0  0  0  0  0  0  0  0  0  0  0
   -0.3283    0.6116   -0.2182 N   0  0  0  0  0  0  0  0  0  0  0  0
    0.0090   -0.1762   -1.3759 C   0  0  2  0  0  0  0  0  0  0  0  0
   -0.5135   -1.5887   -1.1460 C   0  0  0  0  0  0  0  0  0  0  0  0
   -0.9016   -1.9888   -0.0503 O   0  0  0  0  0  0  0  0  0  0  0  0
    1.5126   -0.1900   -1.6382 C   0  0  0  0  0  0  0  0  0  0  0  0
    2.0019    1.1640   -2.0902 C   0  0  0  0  0  0  0  0  0  0  0  0
    1.3144    1.9703   -2.7032 O   0  0  0  0  0  0  0  0  0  0  0  0
    3.2976    1.3873   -1.7585 O   0  0  0  0  0  0  0  0  0  0  0  0
    0.2381    0.4970    0.6194 H   0  0  0  0  0  0  0  0  0  0  0  0
   -0.5318    0.2699   -2.2191 H   0  0  0  0  0  0  0  0  0  0  0  0
    2.0714   -0.4371   -0.7267 H   0  0  0  0  0  0  0  0  0  0  0  0
    1.8009   -0.9482   -2.3764 H   0  0  0  0  0  0  0  0  0  0  0  0
    3.6556    2.2539   -2.0472 H   0  0  0  0  0  0  0  0  0  0  0  0
   -0.5400   -2.3334   -2.3168 N   0  0  0  0  0  0  0  0  0  0  0  0
   -1.0086   -3.6989   -2.3615 C   0  0  2  0  0  0  0  0  0  0  0  0
   -2.5044   -3.6924   -2.0750 C   0  0  0  0  0  0  0  0  0  0  0  0
   -3.0685   -2.7797   -1.4751 O   0  0  0  0  0  0  0  0  0  0  0  0
   -0.2672   -4.5713   -1.3606 C   0  0  0  0  0  0  0  0  0  0  0  0
   -0.2168   -1.9007   -3.1771 H   0  0  0  0  0  0  0  0  0  0  0  0
   -0.8329   -4.0603   -3.3806 H   0  0  0  0  0  0  0  0  0  0  0  0
   -0.4313   -4.2245   -0.3338 H   0  0  0  0  0  0  0  0  0  0  0  0
   -0.6036   -5.6119   -1.4157 H   0  0  0  0  0  0  0  0  0  0  0  0
    0.8115   -4.5511   -1.5498 H   0  0  0  0  0  0  0  0  0  0  0  0
   -3.1279   -4.8458   -2.5301 N   0  0  0  0  0  0  0  0  0  0  0  0
   -4.5431   -5.0834   -2.3665 C   0  0  0  0  0  0  0  0  0  0  0  0
   -2.5856   -5.5415   -3.0337 H   0  0  0  0  0  0  0  0  0  0  0  0
   -4.7162   -5.6425   -1.4351 H   0  0  0  0  0  0  0  0  0  0  0  0
   -5.0735   -4.1208   -2.3202 H   0  0  0  0  0  0  0  0  0  0  0  0
   -4.9177   -5.6678   -3.2198 H   0  0  0  0  0  0  0  0  0  0  0  0
  1  3  1  0  0  0  0
  1  7  1  0  0  0  0
  1  2  2  0  0  0  0
 31 32  1  0  0  0  0
 32 40  1  0  0  0  0
 32 33  2  0  0  0  0
  8  9  1  0  0  0  0
  9 17  1  0  0  0  0
  9 10  2  0  0  0  0
 18 19  1  0  0  0  0
 19 30  1  0  0  0  0
 19 20  2  0  0  0  0
 21 22  1  0  0  0  0
 22 23  2  0  0  0  0
 22 24  1  0  0  0  0
 31 34  1  0  0  0  0
  8 11  1  0  0  0  0
 40 41  1  0  0  0  0
 18 21  1  0  0  0  0
 30 31  1  0  0  0  0
  7  8  1  0  0  0  0
 17 18  1  0  0  0  0
  3  4  1  0  0  0  0
  3  5  1  0  0  0  0
  3  6  1  0  0  0  0
 34 37  1  0  0  0  0
 34 38  1  0  0  0  0
 34 39  1  0  0  0  0
 11 14  1  0  0  0  0
 11 15  1  0  0  0  0
 11 16  1  0  0  0  0
 41 43  1  0  0  0  0
 41 44  1  0  0  0  0
 41 45  1  0  0  0  0
 21 27  1  0  0  0  0
 21 28  1  0  0  0  0
 31 36  1  0  0  0  0
  8 13  1  0  0  0  0
 18 26  1  0  0  0  0
 40 42  1  0  0  0  0
  7 12  1  0  0  0  0
 30 35  1  0  0  0  0
 17 25  1  0  0  0  0
 24 29  1  0  0  0  0
M  END
$$$$

  -OEChem-05262214473D

 45 44  0     1  0  0  0  0  0999 V2000
   -2.2987    4.1032   -0.3022 C   0  0  0  0  0  0  0  0  0  0  0  0
   -1.8049    3.7117   -1.3532 O   0  0  0  0  0  0  0  0  0  0  0  0
   -3.0791    5.3755   -0.2846 C   0  0  0  0  0  0  0  0  0  0  0  0
   -2.4478    6.2532   -0.0717 H   0  0  0  0  0  0  0  0  0  0  0  0
   -3.5571    5.5891   -1.2541 H   0  0  0  0  0  0  0  0  0  0  0  0
   -3.8940    5.4184    0.4556 H   0  0  0  0  0  0  0  0  0  0  0  0
   -2.2137    3.4712    0.9275 N   0  0  0  0  0  0  0  0  0  0  0  0
   -1.5102    2.2327    1.1338 C   0  0  2  0  0  0  0  0  0  0  0  0
   -1.3539    1.5497   -0.2184 C   0  0  0  0  0  0  0  0  0  0  0  0
   -2.0852    1.7861   -1.1778 O   0  0  0  0  0  0  0  0  0  0  0  0
   -2.2477    1.3342    2.1145 C   0  0  0  0  0  0  0  0  0  0  0  0
   -2.6724    3.9052    1.7265 H   0  0  0  0  0  0  0  0  0  0  0  0
   -0.5220    2.4922    1.5290 H   0  0  0  0  0  0  0  0  0  0  0  0
   -3.2400    1.0636    1.7358 H   0  0  0  0  0  0  0  0  0  0  0  0
   -1.6970    0.4046    2.2923 H   0  0  0  0  0  0  0  0  0  0  0  0
   -2.3854    1.8384    3.0772 H   0  0  0  0  0  0  0  0  0  0  0  0
   -0.3283    0.6116   -0.2182 N   0  0  0  0  0  0  0  0  0  0  0  0
    0.0090   -0.1762   -1.3759 C   0  0  2  0  0  0  0  0  0  0  0  0
   -0.8183   -1.4545   -1.3261 C   0  0  0  0  0  0  0  0  0  0  0  0
   -1.6430   -1.6842   -0.4438 O   0  0  0  0  0  0  0  0  0  0  0  0
    1.5002   -0.4970   -1.4329 C   0  0  0  0  0  0  0  0  0  0  0  0
    2.3164    0.7413   -1.7109 C   0  0  0  0  0  0  0  0  0  0  0  0
    1.9059    1.7023   -2.3485 O   0  0  0  0  0  0  0  0  0  0  0  0
    3.5667    0.6690   -1.1912 O   0  0  0  0  0  0  0  0  0  0  0  0
    0.2381    0.4970    0.6194 H   0  0  0  0  0  0  0  0  0  0  0  0
   -0.2987    0.4126   -2.2483 H   0  0  0  0  0  0  0  0  0  0  0  0
    1.8558   -0.8985   -0.4755 H   0  0  0  0  0  0  0  0  0  0  0  0
    1.7340   -1.2647   -2.1805 H   0  0  0  0  0  0  0  0  0  0  0  0
    4.1324    1.4520   -1.3626 H   0  0  0  0  0  0  0  0  0  0  0  0
   -0.5621   -2.2856   -2.4077 N   0  0  0  0  0  0  0  0  0  0  0  0
   -1.2325   -3.5513   -2.5940 C   0  0  2  0  0  0  0  0  0  0  0  0
   -2.7009   -3.2678   -2.8818 C   0  0  0  0  0  0  0  0  0  0  0  0
   -3.2595   -2.2235   -2.5526 O   0  0  0  0  0  0  0  0  0  0  0  0
   -1.0805   -4.4431   -1.3716 C   0  0  0  0  0  0  0  0  0  0  0  0
    0.1246   -1.9919   -3.0961 H   0  0  0  0  0  0  0  0  0  0  0  0
   -0.7736   -4.0266   -3.4678 H   0  0  0  0  0  0  0  0  0  0  0  0
   -1.5343   -3.9835   -0.4861 H   0  0  0  0  0  0  0  0  0  0  0  0
   -1.5648   -5.4131   -1.5255 H   0  0  0  0  0  0  0  0  0  0  0  0
   -0.0230   -4.6216   -1.1485 H   0  0  0  0  0  0  0  0  0  0  0  0
   -3.3250   -4.3358   -3.5110 N   0  0  0  0  0  0  0  0  0  0  0  0
   -4.7218   -4.3166   -3.8780 C   0  0  0  0  0  0  0  0  0  0  0  0
   -2.7800   -5.1550   -3.7634 H   0  0  0  0  0  0  0  0  0  0  0  0
   -5.3210   -4.7532   -3.0653 H   0  0  0  0  0  0  0  0  0  0  0  0
   -5.0409   -3.2783   -4.0515 H   0  0  0  0  0  0  0  0  0  0  0  0
   -4.8675   -4.9034   -4.7969 H   0  0  0  0  0  0  0  0  0  0  0  0
  1  3  1  0  0  0  0
  1  7  1  0  0  0  0
  1  2  2  0  0  0  0
 31 32  1  0  0  0  0
 32 40  1  0  0  0  0
 32 33  2  0  0  0  0
  8  9  1  0  0  0  0
  9 17  1  0  0  0  0
  9 10  2  0  0  0  0
 18 19  1  0  0  0  0
 19 30  1  0  0  0  0
 19 20  2  0  0  0  0
 21 22  1  0  0  0  0
 22 23  2  0  0  0  0
 22 24  1  0  0  0  0
 31 34  1  0  0  0  0
  8 11  1  0  0  0  0
 40 41  1  0  0  0  0
 18 21  1  0  0  0  0
 30 31  1  0  0  0  0
  7  8  1  0  0  0  0
 17 18  1  0  0  0  0
  3  4  1  0  0  0  0
  3  5  1  0  0  0  0
  3  6  1  0  0  0  0
 34 37  1  0  0  0  0
 34 38  1  0  0  0  0
 34 39  1  0  0  0  0
 11 14  1  0  0  0  0
 11 15  1  0  0  0  0
 11 16  1  0  0  0  0
 41 43  1  0  0  0  0
 41 44  1  0  0  0  0
 41 45  1  0  0  0  0
 21 27  1  0  0  0  0
 21 28  1  0  0  0  0
 31 36  1  0  0  0  0
  8 13  1  0  0  0  0
 18 26  1  0  0  0  0
 40 42  1  0  0  0  0
  7 12  1  0  0  0  0
 30 35  1  0  0  0  0
 17 25  1  0  0  0  0
 24 29  1  0  0  0  0
M  END
$$$$

  -OEChem-05262214473D

 45 44  0     1  0  0  0  0  0999 V2000
   -2.2987    4.1032   -0.3022 C   0  0  0  0  0  0  0  0  0  0  0  0
   -1.8049    3.7117   -1.3532 O   0  0  0  0  0  0  0  0  0  0  0  0
   -3.0791    5.3755   -0.2846 C   0  0  0  0  0  0  0  0  0  0  0  0
   -2.4478    6.2532   -0.0717 H   0  0  0  0  0  0  0  0  0  0  0  0
   -3.5571    5.5891   -1.2541 H   0  0  0  0  0  0  0  0  0  0  0  0
   -3.8940    5.4184    0.4556 H   0  0  0  0  0  0  0  0  0  0  0  0
   -2.2137    3.4712    0.9275 N   0  0  0  0  0  0  0  0  0  0  0  0
   -1.5102    2.2327    1.1338 C   0  0  2  0  0  0  0  0  0  0  0  0
   -1.3539    1.5497   -0.2184 C   0  0  0  0  0  0  0  0  0  0  0  0
   -2.0852    1.7861   -1.1778 O   0  0  0  0  0  0  0  0  0  0  0  0
   -2.2477    1.3342    2.1145 C   0  0  0  0  0  0  0  0  0  0  0  0
   -2.6724    3.9052    1.7265 H   0  0  0  0  0  0  0  0  0  0  0  0
   -0.5220    2.4922    1.5290 H   0  0  0  0  0  0  0  0  0  0  0  0
   -3.2400    1.0636    1.7358 H   0  0  0  0  0  0  0  0  0  0  0  0
   -1.6970    0.4046    2.2923 H   0  0  0  0  0  0  0  0  0  0  0  0
   -2.3854    1.8384    3.0772 H   0  0  0  0  0  0  0  0  0  0  0  0
   -0.3283    0.6116   -0.2182 N   0  0  0  0  0  0  0  0  0  0  0  0
    0.0090   -0.1762   -1.3759 C   0  0  2  0  0  0  0  0  0  0  0  0
   -0.8183   -1.4545   -1.3261 C   0  0  0  0  0  0  0  0  0  0  0  0
   -1.8169   -1.5785   -0.6199 O   0  0  0  0  0  0  0  0  0  0  0  0
    1.5002   -0.4970   -1.4329 C   0  0  0  0  0  0  0  0  0  0  0  0
    2.3164    0.7413   -1.7109 C   0  0  0  0  0  0  0  0  0  0  0  0
    1.9059    1.7023   -2.3485 O   0  0  0  0  0  0  0  0  0  0  0  0
    3.5667    0.6690   -1.1912 O   0  0  0  0  0  0  0  0  0  0  0  0
    0.2381    0.4970    0.6194 H   0  0  0  0  0  0  0  0  0  0  0  0
   -0.2987    0.4126   -2.2483 H   0  0  0  0  0  0  0  0  0  0  0  0
    1.8558   -0.8985   -0.4755 H   0  0  0  0  0  0  0  0  0  0  0  0
    1.7340   -1.2647   -2.1805 H   0  0  0  0  0  0  0  0  0  0  0  0
    4.1324    1.4520   -1.3626 H   0  0  0  0  0  0  0  0  0  0  0  0
   -0.3386   -2.4221   -2.1978 N   0  0  0  0  0  0  0  0  0  0  0  0
   -0.9612   -3.7171   -2.3439 C   0  0  2  0  0  0  0  0  0  0  0  0
   -2.3297   -3.5119   -2.9800 C   0  0  0  0  0  0  0  0  0  0  0  0
   -2.9392   -2.4455   -2.9308 O   0  0  0  0  0  0  0  0  0  0  0  0
   -1.0854   -4.4256   -1.0040 C   0  0  0  0  0  0  0  0  0  0  0  0
    0.4836   -2.2110   -2.7556 H   0  0  0  0  0  0  0  0  0  0  0  0
   -0.3265   -4.2986   -3.0213 H   0  0  0  0  0  0  0  0  0  0  0  0
   -1.7179   -3.8578   -0.3119 H   0  0  0  0  0  0  0  0  0  0  0  0
   -1.5315   -5.4189   -1.1202 H   0  0  0  0  0  0  0  0  0  0  0  0
   -0.1032   -4.5458   -0.5342 H   0  0  0  0  0  0  0  0  0  0  0  0
   -2.8094   -4.6720   -3.5718 N   0  0  0  0  0  0  0  0  0  0  0  0
   -4.0925   -4.7376   -4.2315 C   0  0  0  0  0  0  0  0  0  0  0  0
   -2.2282   -5.5050   -3.5817 H   0  0  0  0  0  0  0  0  0  0  0  0
   -4.8574   -5.0707   -3.5145 H   0  0  0  0  0  0  0  0  0  0  0  0
   -4.3588   -3.7416   -4.6151 H   0  0  0  0  0  0  0  0  0  0  0  0
   -4.0388   -5.4503   -5.0676 H   0  0  0  0  0  0  0  0  0  0  0  0
  1  3  1  0  0  0  0
  1  7  1  0  0  0  0
  1  2  2  0  0  0  0
 31 32  1  0  0  0  0
 32 40  1  0  0  0  0
 32 33  2  0  0  0  0
  8  9  1  0  0  0  0
  9 17  1  0  0  0  0
  9 10  2  0  0  0  0
 18 19  1  0  0  0  0
 19 30  1  0  0  0  0
 19 20  2  0  0  0  0
 21 22  1  0  0  0  0
 22 23  2  0  0  0  0
 22 24  1  0  0  0  0
 31 34  1  0  0  0  0
  8 11  1  0  0  0  0
 40 41  1  0  0  0  0
 18 21  1  0  0  0  0
 30 31  1  0  0  0  0
  7  8  1  0  0  0  0
 17 18  1  0  0  0  0
  3  4  1  0  0  0  0
  3  5  1  0  0  0  0
  3  6  1  0  0  0  0
 34 37  1  0  0  0  0
 34 38  1  0  0  0  0
 34 39  1  0  0  0  0
 11 14  1  0  0  0  0
 11 15  1  0  0  0  0
 11 16  1  0  0  0  0
 41 43  1  0  0  0  0
 41 44  1  0  0  0  0
 41 45  1  0  0  0  0
 21 27  1  0  0  0  0
 21 28  1  0  0  0  0
 31 36  1  0  0  0  0
  8 13  1  0  0  0  0
 18 26  1  0  0  0  0
 40 42  1  0  0  0  0
  7 12  1  0  0  0  0
 30 35  1  0  0  0  0
 17 25  1  0  0  0  0
 24 29  1  0  0  0  0
M  END
$$$$

  -OEChem-05262214473D

 45 44  0     1  0  0  0  0  0999 V2000
   -2.2987    4.1032   -0.3022 C   0  0  0  0  0  0  0  0  0  0  0  0
   -1.8049    3.7117   -1.3532 O   0  0  0  0  0  0  0  0  0  0  0  0
   -3.0791    5.3755   -0.2846 C   0  0  0  0  0  0  0  0  0  0  0  0
   -2.4478    6.2532   -0.0717 H   0  0  0  0  0  0  0  0  0  0  0  0
   -3.5571    5.5891   -1.2541 H   0  0  0  0  0  0  0  0  0  0  0  0
   -3.8940    5.4184    0.4556 H   0  0  0  0  0  0  0  0  0  0  0  0
   -2.2137    3.4712    0.9275 N   0  0  0  0  0  0  0  0  0  0  0  0
   -1.5102    2.2327    1.1338 C   0  0  2  0  0  0  0  0  0  0  0  0
   -1.3539    1.5497   -0.2184 C   0  0  0  0  0  0  0  0  0  0  0  0
   -2.0852    1.7861   -1.1778 O   0  0  0  0  0  0  0  0  0  0  0  0
   -2.2477    1.3342    2.1145 C   0  0  0  0  0  0  0  0  0  0  0  0
   -2.6724    3.9052    1.7265 H   0  0  0  0  0  0  0  0  0  0  0  0
   -0.5220    2.4922    1.5290 H   0  0  0  0  0  0  0  0  0  0  0  0
   -3.2400    1.0636    1.7358 H   0  0  0  0  0  0  0  0  0  0  0  0
   -1.6970    0.4046    2.2923 H   0  0  0  0  0  0  0  0  0  0  0  0
   -2.3854    1.8384    3.0772 H   0  0  0  0  0  0  0  0  0  0  0  0
   -0.3283    0.6116   -0.2182 N   0  0  0  0  0  0  0  0  0  0  0  0
    0.0090   -0.1762   -1.3759 C   0  0  2  0  0  0  0  0  0  0  0  0
   -0.8183   -1.4545   -1.3261 C   0  0  0  0  0  0  0  0  0  0  0  0
   -1.9476   -1.5026   -0.8427 O   0  0  0  0  0  0  0  0  0  0  0  0
    1.5002   -0.4970   -1.4329 C   0  0  0  0  0  0  0  0  0  0  0  0
    2.3164    0.7413   -1.7109 C   0  0  0  0  0  0  0  0  0  0  0  0
    1.9059    1.7023   -2.3485 O   0  0  0  0  0  0  0  0  0  0  0  0
    3.5667    0.6690   -1.1912 O   0  0  0  0  0  0  0  0  0  0  0  0
    0.2381    0.4970    0.6194 H   0  0  0  0  0  0  0  0  0  0  0  0
   -0.2987    0.4126   -2.2483 H   0  0  0  0  0  0  0  0  0  0  0  0
    1.8558   -0.8985   -0.4755 H   0  0  0  0  0  0  0  0  0  0  0  0
    1.7340   -1.2647   -2.1805 H   0  0  0  0  0  0  0  0  0  0  0  0
    4.1324    1.4520   -1.3626 H   0  0  0  0  0  0  0  0  0  0  0  0
   -0.1672   -2.5225   -1.9273 N   0  0  0  0  0  0  0  0  0  0  0  0
   -0.7522   -3.8398   -2.0200 C   0  0  2  0  0  0  0  0  0  0  0  0
   -1.9478   -3.7583   -2.9599 C   0  0  0  0  0  0  0  0  0  0  0  0
   -2.5458   -2.7104   -3.1952 O   0  0  0  0  0  0  0  0  0  0  0  0
   -1.1701   -4.3571   -0.6524 C   0  0  0  0  0  0  0  0  0  0  0  0
    0.7583   -2.3717   -2.3179 H   0  0  0  0  0  0  0  0  0  0  0  0
    0.0108   -4.4948   -2.4547 H   0  0  0  0  0  0  0  0  0  0  0  0
   -1.9341   -3.7136   -0.2012 H   0  0  0  0  0  0  0  0  0  0  0  0
   -1.5872   -5.3672   -0.7208 H   0  0  0  0  0  0  0  0  0  0  0  0
   -0.3147   -4.3869    0.0311 H   0  0  0  0  0  0  0  0  0  0  0  0
   -2.2952   -5.0008   -3.4713 N   0  0  0  0  0  0  0  0  0  0  0  0
   -3.4044   -5.1886   -4.3771 C   0  0  0  0  0  0  0  0  0  0  0  0
   -1.7318   -5.8129   -3.2371 H   0  0  0  0  0  0  0  0  0  0  0  0
   -4.3094   -5.4366   -3.8030 H   0  0  0  0  0  0  0  0  0  0  0  0
   -3.5737   -4.2627   -4.9463 H   0  0  0  0  0  0  0  0  0  0  0  0
   -3.1749   -6.0096   -5.0723 H   0  0  0  0  0  0  0  0  0  0  0  0
  1  3  1  0  0  0  0
  1  7  1  0  0  0  0
  1  2  2  0  0  0  0
 31 32  1  0  0  0  0
 32 40  1  0  0  0  0
 32 33  2  0  0  0  0
  8  9  1  0  0  0  0
  9 17  1  0  0  0  0
  9 10  2  0  0  0  0
 18 19  1  0  0  0  0
 19 30  1  0  0  0  0
 19 20  2  0  0  0  0
 21 22  1  0  0  0  0
 22 23  2  0  0  0  0
 22 24  1  0  0  0  0
 31 34  1  0  0  0  0
  8 11  1  0  0  0  0
 40 41  1  0  0  0  0
 18 21  1  0  0  0  0
 30 31  1  0  0  0  0
  7  8  1  0  0  0  0
 17 18  1  0  0  0  0
  3  4  1  0  0  0  0
  3  5  1  0  0  0  0
  3  6  1  0  0  0  0
 34 37  1  0  0  0  0
 34 38  1  0  0  0  0
 34 39  1  0  0  0  0
 11 14  1  0  0  0  0
 11 15  1  0  0  0  0
 11 16  1  0  0  0  0
 41 43  1  0  0  0  0
 41 44  1  0  0  0  0
 41 45  1  0  0  0  0
 21 27  1  0  0  0  0
 21 28  1  0  0  0  0
 31 36  1  0  0  0  0
  8 13  1  0  0  0  0
 18 26  1  0  0  0  0
 40 42  1  0  0  0  0
  7 12  1  0  0  0  0
 30 35  1  0  0  0  0
 17 25  1  0  0  0  0
 24 29  1  0  0  0  0
M  END
$$$$

  -OEChem-05262214473D

 45 44  0     1  0  0  0  0  0999 V2000
   -2.2987    4.1032   -0.3022 C   0  0  0  0  0  0  0  0  0  0  0  0
   -1.8049    3.7117   -1.3532 O   0  0  0  0  0  0  0  0  0  0  0  0
   -3.0791    5.3755   -0.2846 C   0  0  0  0  0  0  0  0  0  0  0  0
   -2.4478    6.2532   -0.0717 H   0  0  0  0  0  0  0  0  0  0  0  0
   -3.5571    5.5891   -1.2541 H   0  0  0  0  0  0  0  0  0  0  0  0
   -3.8940    5.4184    0.4556 H   0  0  0  0  0  0  0  0  0  0  0  0
   -2.2137    3.4712    0.9275 N   0  0  0  0  0  0  0  0  0  0  0  0
   -1.5102    2.2327    1.1338 C   0  0  2  0  0  0  0  0  0  0  0  0
   -1.3539    1.5497   -0.2184 C   0  0  0  0  0  0  0  0  0  0  0  0
   -2.0852    1.7861   -1.1778 O   0  0  0  0  0  0  0  0  0  0  0  0
   -2.2477    1.3342    2.1145 C   0  0  0  0  0  0  0  0  0  0  0  0
   -2.6724    3.9052    1.7265 H   0  0  0  0  0  0  0  0  0  0  0  0
   -0.5220    2.4922    1.5290 H   0  0  0  0  0  0  0  0  0  0  0  0
   -3.2400    1.0636    1.7358 H   0  0  0  0  0  0  0  0  0  0  0  0
   -1.6970    0.4046    2.2923 H   0  0  0  0  0  0  0  0  0  0  0  0
   -2.3854    1.8384    3.0772 H   0  0  0  0  0  0  0  0  0  0  0  0
   -0.3283    0.6116   -0.2182 N   0  0  0  0  0  0  0  0  0  0  0  0
    0.0090   -0.1762   -1.3759 C   0  0  2  0  0  0  0  0  0  0  0  0
   -0.8183   -1.4545   -1.3261 C   0  0  0  0  0  0  0  0  0  0  0  0
   -2.0261   -1.4617   -1.0969 O   0  0  0  0  0  0  0  0  0  0  0  0
    1.5002   -0.4970   -1.4329 C   0  0  0  0  0  0  0  0  0  0  0  0
    2.3164    0.7413   -1.7109 C   0  0  0  0  0  0  0  0  0  0  0  0
    1.9059    1.7023   -2.3485 O   0  0  0  0  0  0  0  0  0  0  0  0
    3.5667    0.6690   -1.1912 O   0  0  0  0  0  0  0  0  0  0  0  0
    0.2381    0.4970    0.6194 H   0  0  0  0  0  0  0  0  0  0  0  0
   -0.2987    0.4126   -2.2483 H   0  0  0  0  0  0  0  0  0  0  0  0
    1.8558   -0.8985   -0.4755 H   0  0  0  0  0  0  0  0  0  0  0  0
    1.7340   -1.2647   -2.1805 H   0  0  0  0  0  0  0  0  0  0  0  0
    4.1324    1.4520   -1.3626 H   0  0  0  0  0  0  0  0  0  0  0  0
   -0.0594   -2.5801   -1.6147 N   0  0  0  0  0  0  0  0  0  0  0  0
   -0.6195   -3.9110   -1.6446 C   0  0  2  0  0  0  0  0  0  0  0  0
   -1.5812   -3.9902   -2.8229 C   0  0  0  0  0  0  0  0  0  0  0  0
   -2.1062   -3.0001   -3.3280 O   0  0  0  0  0  0  0  0  0  0  0  0
   -1.3289   -4.2422   -0.3408 C   0  0  0  0  0  0  0  0  0  0  0  0
    0.9299   -2.4631   -1.8130 H   0  0  0  0  0  0  0  0  0  0  0  0
    0.2151   -4.6018   -1.8065 H   0  0  0  0  0  0  0  0  0  0  0  0
   -2.1683   -3.5605   -0.1615 H   0  0  0  0  0  0  0  0  0  0  0  0
   -1.7282   -5.2617   -0.3543 H   0  0  0  0  0  0  0  0  0  0  0  0
   -0.6431   -4.1557    0.5089 H   0  0  0  0  0  0  0  0  0  0  0  0
   -1.8177   -5.3000   -3.2164 N   0  0  0  0  0  0  0  0  0  0  0  0
   -2.7043   -5.6390   -4.3050 C   0  0  0  0  0  0  0  0  0  0  0  0
   -1.3245   -6.0576   -2.7533 H   0  0  0  0  0  0  0  0  0  0  0  0
   -3.7143   -5.8260   -3.9113 H   0  0  0  0  0  0  0  0  0  0  0  0
   -2.7390   -4.8059   -5.0224 H   0  0  0  0  0  0  0  0  0  0  0  0
   -2.3347   -6.5433   -4.8107 H   0  0  0  0  0  0  0  0  0  0  0  0
  1  3  1  0  0  0  0
  1  7  1  0  0  0  0
  1  2  2  0  0  0  0
 31 32  1  0  0  0  0
 32 40  1  0  0  0  0
 32 33  2  0  0  0  0
  8  9  1  0  0  0  0
  9 17  1  0  0  0  0
  9 10  2  0  0  0  0
 18 19  1  0  0  0  0
 19 30  1  0  0  0  0
 19 20  2  0  0  0  0
 21 22  1  0  0  0  0
 22 23  2  0  0  0  0
 22 24  1  0  0  0  0
 31 34  1  0  0  0  0
  8 11  1  0  0  0  0
 40 41  1  0  0  0  0
 18 21  1  0  0  0  0
 30 31  1  0  0  0  0
  7  8  1  0  0  0  0
 17 18  1  0  0  0  0
  3  4  1  0  0  0  0
  3  5  1  0  0  0  0
  3  6  1  0  0  0  0
 34 37  1  0  0  0  0
 34 38  1  0  0  0  0
 34 39  1  0  0  0  0
 11 14  1  0  0  0  0
 11 15  1  0  0  0  0
 11 16  1  0  0  0  0
 41 43  1  0  0  0  0
 41 44  1  0  0  0  0
 41 45  1  0  0  0  0
 21 27  1  0  0  0  0
 21 28  1  0  0  0  0
 31 36  1  0  0  0  0
  8 13  1  0  0  0  0
 18 26  1  0  0  0  0
 40 42  1  0  0  0  0
  7 12  1  0  0  0  0
 30 35  1  0  0  0  0
 17 25  1  0  0  0  0
 24 29  1  0  0  0  0
M  END
$$$$

  -OEChem-05262214473D

 45 44  0     1  0  0  0  0  0999 V2000
   -2.2987    4.1032   -0.3022 C   0  0  0  0  0  0  0  0  0  0  0  0
   -1.8049    3.7117   -1.3532 O   0  0  0  0  0  0  0  0  0  0  0  0
   -3.0791    5.3755   -0.2846 C   0  0  0  0  0  0  0  0  0  0  0  0
   -2.4478    6.2532   -0.0717 H   0  0  0  0  0  0  0  0  0  0  0  0
   -3.5571    5.5891   -1.2541 H   0  0  0  0  0  0  0  0  0  0  0  0
   -3.8940    5.4184    0.4556 H   0  0  0  0  0  0  0  0  0  0  0  0
   -2.2137    3.4712    0.9275 N   0  0  0  0  0  0  0  0  0  0  0  0
   -1.5102    2.2327    1.1338 C   0  0  2  0  0  0  0  0  0  0  0  0
   -1.3539    1.5497   -0.2184 C   0  0  0  0  0  0  0  0  0  0  0  0
   -2.0852    1.7861   -1.1778 O   0  0  0  0  0  0  0  0  0  0  0  0
   -2.2477    1.3342    2.1145 C   0  0  0  0  0  0  0  0  0  0  0  0
   -2.6724    3.9052    1.7265 H   0  0  0  0  0  0  0  0  0  0  0  0
   -0.5220    2.4922    1.5290 H   0  0  0  0  0  0  0  0  0  0  0  0
   -3.2400    1.0636    1.7358 H   0  0  0  0  0  0  0  0  0  0  0  0
   -1.6970    0.4046    2.2923 H   0  0  0  0  0  0  0  0  0  0  0  0
   -2.3854    1.8384    3.0772 H   0  0  0  0  0  0  0  0  0  0  0  0
   -0.3283    0.6116   -0.2182 N   0  0  0  0  0  0  0  0  0  0  0  0
    0.0090   -0.1762   -1.3759 C   0  0  2  0  0  0  0  0  0  0  0  0
   -0.8183   -1.4545   -1.3261 C   0  0  0  0  0  0  0  0  0  0  0  0
   -2.0470   -1.4586   -1.3652 O   0  0  0  0  0  0  0  0  0  0  0  0
    1.5002   -0.4970   -1.4329 C   0  0  0  0  0  0  0  0  0  0  0  0
    2.3164    0.7413   -1.7109 C   0  0  0  0  0  0  0  0  0  0  0  0
    1.9059    1.7023   -2.3485 O   0  0  0  0  0  0  0  0  0  0  0  0
    3.5667    0.6690   -1.1912 O   0  0  0  0  0  0  0  0  0  0  0  0
    0.2381    0.4970    0.6194 H   0  0  0  0  0  0  0  0  0  0  0  0
   -0.2987    0.4126   -2.2483 H   0  0  0  0  0  0  0  0  0  0  0  0
    1.8558   -0.8985   -0.4755 H   0  0  0  0  0  0  0  0  0  0  0  0
    1.7340   -1.2647   -2.1805 H   0  0  0  0  0  0  0  0  0  0  0  0
    4.1324    1.4520   -1.3626 H   0  0  0  0  0  0  0  0  0  0  0  0
   -0.0228   -2.5908   -1.2813 N   0  0  0  0  0  0  0  0  0  0  0  0
   -0.5723   -3.9259   -1.2431 C   0  0  2  0  0  0  0  0  0  0  0  0
   -1.2548   -4.1919   -2.5784 C   0  0  0  0  0  0  0  0  0  0  0  0
   -1.6502   -3.2949   -3.3201 O   0  0  0  0  0  0  0  0  0  0  0  0
   -1.5509   -4.0888   -0.0905 C   0  0  0  0  0  0  0  0  0  0  0  0
    0.9868   -2.4790   -1.2751 H   0  0  0  0  0  0  0  0  0  0  0  0
    0.2726   -4.6124   -1.1211 H   0  0  0  0  0  0  0  0  0  0  0  0
   -2.4044   -3.4090   -0.1955 H   0  0  0  0  0  0  0  0  0  0  0  0
   -1.9449   -5.1094   -0.0457 H   0  0  0  0  0  0  0  0  0  0  0  0
   -1.0660   -3.8681    0.8666 H   0  0  0  0  0  0  0  0  0  0  0  0
   -1.4092   -5.5491   -2.8244 N   0  0  0  0  0  0  0  0  0  0  0  0
   -2.0399   -6.0579   -4.0199 C   0  0  0  0  0  0  0  0  0  0  0  0
   -1.0342   -6.2226   -2.1630 H   0  0  0  0  0  0  0  0  0  0  0  0
   -3.1126   -6.2123   -3.8319 H   0  0  0  0  0  0  0  0  0  0  0  0
   -1.9116   -5.3343   -4.8384 H   0  0  0  0  0  0  0  0  0  0  0  0
   -1.5755   -7.0148   -4.3004 H   0  0  0  0  0  0  0  0  0  0  0  0
  1  3  1  0  0  0  0
  1  7  1  0  0  0  0
  1  2  2  0  0  0  0
 31 32  1  0  0  0  0
 32 40  1  0  0  0  0
 32 33  2  0  0  0  0
  8  9  1  0  0  0  0
  9 17  1  0  0  0  0
  9 10  2  0  0  0  0
 18 19  1  0  0  0  0
 19 30  1  0  0  0  0
 19 20  2  0  0  0  0
 21 22  1  0  0  0  0
 22 23  2  0  0  0  0
 22 24  1  0  0  0  0
 31 34  1  0  0  0  0
  8 11  1  0  0  0  0
 40 41  1  0  0  0  0
 18 21  1  0  0  0  0
 30 31  1  0  0  0  0
  7  8  1  0  0  0  0
 17 18  1  0  0  0  0
  3  4  1  0  0  0  0
  3  5  1  0  0  0  0
  3  6  1  0  0  0  0
 34 37  1  0  0  0  0
 34 38  1  0  0  0  0
 34 39  1  0  0  0  0
 11 14  1  0  0  0  0
 11 15  1  0  0  0  0
 11 16  1  0  0  0  0
 41 43  1  0  0  0  0
 41 44  1  0  0  0  0
 41 45  1  0  0  0  0
 21 27  1  0  0  0  0
 21 28  1  0  0  0  0
 31 36  1  0  0  0  0
  8 13  1  0  0  0  0
 18 26  1  0  0  0  0
 40 42  1  0  0  0  0
  7 12  1  0  0  0  0
 30 35  1  0  0  0  0
 17 25  1  0  0  0  0
 24 29  1  0  0  0  0
M  END
$$$$

  -OEChem-05262214473D

 45 44  0     1  0  0  0  0  0999 V2000
   -2.2987    4.1032   -0.3022 C   0  0  0  0  0  0  0  0  0  0  0  0
   -1.8049    3.7117   -1.3532 O   0  0  0  0  0  0  0  0  0  0  0  0
   -3.0791    5.3755   -0.2846 C   0  0  0  0  0  0  0  0  0  0  0  0
   -2.4478    6.2532   -0.0717 H   0  0  0  0  0  0  0  0  0  0  0  0
   -3.5571    5.5891   -1.2541 H   0  0  0  0  0  0  0  0  0  0  0  0
   -3.8940    5.4184    0.4556 H   0  0  0  0  0  0  0  0  0  0  0  0
   -2.2137    3.4712    0.9275 N   0  0  0  0  0  0  0  0  0  0  0  0
   -1.5102    2.2327    1.1338 C   0  0  2  0  0  0  0  0  0  0  0  0
   -1.3539    1.5497   -0.2184 C   0  0  0  0  0  0  0  0  0  0  0  0
   -2.0852    1.7861   -1.1778 O   0  0  0  0  0  0  0  0  0  0  0  0
   -2.2477    1.3342    2.1145 C   0  0  0  0  0  0  0  0  0  0  0  0
   -2.6724    3.9052    1.7265 H   0  0  0  0  0  0  0  0  0  0  0  0
   -0.5220    2.4922    1.5290 H   0  0  0  0  0  0  0  0  0  0  0  0
   -3.2400    1.0636    1.7358 H   0  0  0  0  0  0  0  0  0  0  0  0
   -1.6970    0.4046    2.2923 H   0  0  0  0  0  0  0  0  0  0  0  0
   -2.3854    1.8384    3.0772 H   0  0  0  0  0  0  0  0  0  0  0  0
   -0.3283    0.6116   -0.2182 N   0  0  0  0  0  0  0  0  0  0  0  0
    0.0090   -0.1762   -1.3759 C   0  0  2  0  0  0  0  0  0  0  0  0
   -0.8183   -1.4545   -1.3261 C   0  0  0  0  0  0  0  0  0  0  0  0
   -2.0090   -1.4935   -1.6294 O   0  0  0  0  0  0  0  0  0  0  0  0
    1.5002   -0.4970   -1.4329 C   0  0  0  0  0  0  0  0  0  0  0  0
    2.3164    0.7413   -1.7109 C   0  0  0  0  0  0  0  0  0  0  0  0
    1.9059    1.7023   -2.3485 O   0  0  0  0  0  0  0  0  0  0  0  0
    3.5667    0.6690   -1.1912 O   0  0  0  0  0  0  0  0  0  0  0  0
    0.2381    0.4970    0.6194 H   0  0  0  0  0  0  0  0  0  0  0  0
   -0.2987    0.4126   -2.2483 H   0  0  0  0  0  0  0  0  0  0  0  0
    1.8558   -0.8985   -0.4755 H   0  0  0  0  0  0  0  0  0  0  0  0
    1.7340   -1.2647   -2.1805 H   0  0  0  0  0  0  0  0  0  0  0  0
    4.1324    1.4520   -1.3626 H   0  0  0  0  0  0  0  0  0  0  0  0
   -0.0597   -2.5540   -0.9498 N   0  0  0  0  0  0  0  0  0  0  0  0
   -0.6138   -3.8835   -0.8430 C   0  0  2  0  0  0  0  0  0  0  0  0
   -0.9910   -4.3497   -2.2430 C   0  0  0  0  0  0  0  0  0  0  0  0
   -1.2090   -3.5747   -3.1720 O   0  0  0  0  0  0  0  0  0  0  0  0
   -1.8210   -3.9072    0.0815 C   0  0  0  0  0  0  0  0  0  0  0  0
    0.9251   -2.4183   -0.7410 H   0  0  0  0  0  0  0  0  0  0  0  0
    0.1794   -4.5257   -0.4450 H   0  0  0  0  0  0  0  0  0  0  0  0
   -2.6263   -3.2695   -0.3009 H   0  0  0  0  0  0  0  0  0  0  0  0
   -2.2226   -4.9208    0.1838 H   0  0  0  0  0  0  0  0  0  0  0  0
   -1.5547   -3.5435    1.0798 H   0  0  0  0  0  0  0  0  0  0  0  0
   -1.0977   -5.7311   -2.3220 N   0  0  0  0  0  0  0  0  0  0  0  0
   -1.4565   -6.4169   -3.5414 C   0  0  0  0  0  0  0  0  0  0  0  0
   -0.8805   -6.2966   -1.5066 H   0  0  0  0  0  0  0  0  0  0  0  0
   -2.5455   -6.5692   -3.5703 H   0  0  0  0  0  0  0  0  0  0  0  0
   -1.1479   -5.8117   -4.4066 H   0  0  0  0  0  0  0  0  0  0  0  0
   -0.9489   -7.3922   -3.5764 H   0  0  0  0  0  0  0  0  0  0  0  0
  1  3  1  0  0  0  0
  1  7  1  0  0  0  0
  1  2  2  0  0  0  0
 31 32  1  0  0  0  0
 32 40  1  0  0  0  0
 32 33  2  0  0  0  0
  8  9  1  0  0  0  0
  9 17  1  0  0  0  0
  9 10  2  0  0  0  0
 18 19  1  0  0  0  0
 19 30  1  0  0  0  0
 19 20  2  0  0  0  0
 21 22  1  0  0  0  0
 22 23  2  0  0  0  0
 22 24  1  0  0  0  0
 31 34  1  0  0  0  0
  8 11  1  0  0  0  0
 40 41  1  0  0  0  0
 18 21  1  0  0  0  0
 30 31  1  0  0  0  0
  7  8  1  0  0  0  0
 17 18  1  0  0  0  0
  3  4  1  0  0  0  0
  3  5  1  0  0  0  0
  3  6  1  0  0  0  0
 34 37  1  0  0  0  0
 34 38  1  0  0  0  0
 34 39  1  0  0  0  0
 11 14  1  0  0  0  0
 11 15  1  0  0  0  0
 11 16  1  0  0  0  0
 41 43  1  0  0  0  0
 41 44  1  0  0  0  0
 41 45  1  0  0  0  0
 21 27  1  0  0  0  0
 21 28  1  0  0  0  0
 31 36  1  0  0  0  0
  8 13  1  0  0  0  0
 18 26  1  0  0  0  0
 40 42  1  0  0  0  0
  7 12  1  0  0  0  0
 30 35  1  0  0  0  0
 17 25  1  0  0  0  0
 24 29  1  0  0  0  0
M  END
$$$$

  -OEChem-05262214473D

 45 44  0     1  0  0  0  0  0999 V2000
   -2.2987    4.1032   -0.3022 C   0  0  0  0  0  0  0  0  0  0  0  0
   -1.8049    3.7117   -1.3532 O   0  0  0  0  0  0  0  0  0  0  0  0
   -3.0791    5.3755   -0.2846 C   0  0  0  0  0  0  0  0  0  0  0  0
   -2.4478    6.2532   -0.0717 H   0  0  0  0  0  0  0  0  0  0  0  0
   -3.5571    5.5891   -1.2541 H   0  0  0  0  0  0  0  0  0  0  0  0
   -3.8940    5.4184    0.4556 H   0  0  0  0  0  0  0  0  0  0  0  0
   -2.2137    3.4712    0.9275 N   0  0  0  0  0  0  0  0  0  0  0  0
   -1.5102    2.2327    1.1338 C   0  0  2  0  0  0  0  0  0  0  0  0
   -1.3539    1.5497   -0.2184 C   0  0  0  0  0  0  0  0  0  0  0  0
   -2.0852    1.7861   -1.1778 O   0  0  0  0  0  0  0  0  0  0  0  0
   -2.2477    1.3342    2.1145 C   0  0  0  0  0  0  0  0  0  0  0  0
   -2.6724    3.9052    1.7265 H   0  0  0  0  0  0  0  0  0  0  0  0
   -0.5220    2.4922    1.5290 H   0  0  0  0  0  0  0  0  0  0  0  0
   -3.2400    1.0636    1.7358 H   0  0  0  0  0  0  0  0  0  0  0  0
   -1.6970    0.4046    2.2923 H   0  0  0  0  0  0  0  0  0  0  0  0
   -2.3854    1.8384    3.0772 H   0  0  0  0  0  0  0  0  0  0  0  0
   -0.3283    0.6116   -0.2182 N   0  0  0  0  0  0  0  0  0  0  0  0
    0.0090   -0.1762   -1.3759 C   0  0  2  0  0  0  0  0  0  0  0  0
   -0.8183   -1.4545   -1.3261 C   0  0  0  0  0  0  0  0  0  0  0  0
   -1.9146   -1.5640   -1.8714 O   0  0  0  0  0  0  0  0  0  0  0  0
    1.5002   -0.4970   -1.4329 C   0  0  0  0  0  0  0  0  0  0  0  0
    2.3164    0.7413   -1.7109 C   0  0  0  0  0  0  0  0  0  0  0  0
    1.9059    1.7023   -2.3485 O   0  0  0  0  0  0  0  0  0  0  0  0
    3.5667    0.6690   -1.1912 O   0  0  0  0  0  0  0  0  0  0  0  0
    0.2381    0.4970    0.6194 H   0  0  0  0  0  0  0  0  0  0  0  0
   -0.2987    0.4126   -2.2483 H   0  0  0  0  0  0  0  0  0  0  0  0
    1.8558   -0.8985   -0.4755 H   0  0  0  0  0  0  0  0  0  0  0  0
    1.7340   -1.2647   -2.1805 H   0  0  0  0  0  0  0  0  0  0  0  0
    4.1324    1.4520   -1.3626 H   0  0  0  0  0  0  0  0  0  0  0  0
   -0.1677   -2.4722   -0.6427 N   0  0  0  0  0  0  0  0  0  0  0  0
   -0.7411   -3.7867   -0.4715 C   0  0  2  0  0  0  0  0  0  0  0  0
   -0.8077   -4.4526   -1.8395 C   0  0  0  0  0  0  0  0  0  0  0  0
   -0.8127   -3.8204   -2.8938 O   0  0  0  0  0  0  0  0  0  0  0  0
   -2.1208   -3.7100    0.1635 C   0  0  0  0  0  0  0  0  0  0  0  0
    0.7489   -2.2851   -0.2470 H   0  0  0  0  0  0  0  0  0  0  0  0
   -0.0582   -4.3478    0.1756 H   0  0  0  0  0  0  0  0  0  0  0  0
   -2.8190   -3.1514   -0.4705 H   0  0  0  0  0  0  0  0  0  0  0  0
   -2.5422   -4.7087    0.3188 H   0  0  0  0  0  0  0  0  0  0  0  0
   -2.0757   -3.2042    1.1340 H   0  0  0  0  0  0  0  0  0  0  0  0
   -0.9044   -5.8338   -1.7435 N   0  0  0  0  0  0  0  0  0  0  0  0
   -0.9938   -6.6915   -2.9021 C   0  0  0  0  0  0  0  0  0  0  0  0
   -0.8739   -6.2744   -0.8288 H   0  0  0  0  0  0  0  0  0  0  0  0
   -2.0515   -6.8724   -3.1443 H   0  0  0  0  0  0  0  0  0  0  0  0
   -0.5000   -6.2058   -3.7567 H   0  0  0  0  0  0  0  0  0  0  0  0
   -0.4977   -7.6496   -2.6880 H   0  0  0  0  0  0  0  0  0  0  0  0
  1  3  1  0  0  0  0
  1  7  1  0  0  0  0
  1  2  2  0  0  0  0
 31 32  1  0  0  0  0
 32 40  1  0  0  0  0
 32 33  2  0  0  0  0
  8  9  1  0  0  0  0
  9 17  1  0  0  0  0
  9 10  2  0  0  0  0
 18 19  1  0  0  0  0
 19 30  1  0  0  0  0
 19 20  2  0  0  0  0
 21 22  1  0  0  0  0
 22 23  2  0  0  0  0
 22 24  1  0  0  0  0
 31 34  1  0  0  0  0
  8 11  1  0  0  0  0
 40 41  1  0  0  0  0
 18 21  1  0  0  0  0
 30 31  1  0  0  0  0
  7  8  1  0  0  0  0
 17 18  1  0  0  0  0
  3  4  1  0  0  0  0
  3  5  1  0  0  0  0
  3  6  1  0  0  0  0
 34 37  1  0  0  0  0
 34 38  1  0  0  0  0
 34 39  1  0  0  0  0
 11 14  1  0  0  0  0
 11 15  1  0  0  0  0
 11 16  1  0  0  0  0
 41 43  1  0  0  0  0
 41 44  1  0  0  0  0
 41 45  1  0  0  0  0
 21 27  1  0  0  0  0
 21 28  1  0  0  0  0
 31 36  1  0  0  0  0
  8 13  1  0  0  0  0
 18 26  1  0  0  0  0
 40 42  1  0  0  0  0
  7 12  1  0  0  0  0
 30 35  1  0  0  0  0
 17 25  1  0  0  0  0
 24 29  1  0  0  0  0
M  END
$$$$

  -OEChem-05262214473D

 45 44  0     1  0  0  0  0  0999 V2000
   -2.2987    4.1032   -0.3022 C   0  0  0  0  0  0  0  0  0  0  0  0
   -1.8049    3.7117   -1.3532 O   0  0  0  0  0  0  0  0  0  0  0  0
   -3.0791    5.3755   -0.2846 C   0  0  0  0  0  0  0  0  0  0  0  0
   -2.4478    6.2532   -0.0717 H   0  0  0  0  0  0  0  0  0  0  0  0
   -3.5571    5.5891   -1.2541 H   0  0  0  0  0  0  0  0  0  0  0  0
   -3.8940    5.4184    0.4556 H   0  0  0  0  0  0  0  0  0  0  0  0
   -2.2137    3.4712    0.9275 N   0  0  0  0  0  0  0  0  0  0  0  0
   -1.5102    2.2327    1.1338 C   0  0  2  0  0  0  0  0  0  0  0  0
   -1.3539    1.5497   -0.2184 C   0  0  0  0  0  0  0  0  0  0  0  0
   -2.0852    1.7861   -1.1778 O   0  0  0  0  0  0  0  0  0  0  0  0
   -2.2477    1.3342    2.1145 C   0  0  0  0  0  0  0  0  0  0  0  0
   -2.6724    3.9052    1.7265 H   0  0  0  0  0  0  0  0  0  0  0  0
   -0.5220    2.4922    1.5290 H   0  0  0  0  0  0  0  0  0  0  0  0
   -3.2400    1.0636    1.7358 H   0  0  0  0  0  0  0  0  0  0  0  0
   -1.6970    0.4046    2.2923 H   0  0  0  0  0  0  0  0  0  0  0  0
   -2.3854    1.8384    3.0772 H   0  0  0  0  0  0  0  0  0  0  0  0
   -0.3283    0.6116   -0.2182 N   0  0  0  0  0  0  0  0  0  0  0  0
    0.0090   -0.1762   -1.3759 C   0  0  2  0  0  0  0  0  0  0  0  0
   -0.8183   -1.4545   -1.3261 C   0  0  0  0  0  0  0  0  0  0  0  0
   -1.7703   -1.6653   -2.0748 O   0  0  0  0  0  0  0  0  0  0  0  0
    1.5002   -0.4970   -1.4329 C   0  0  0  0  0  0  0  0  0  0  0  0
    2.3164    0.7413   -1.7109 C   0  0  0  0  0  0  0  0  0  0  0  0
    1.9059    1.7023   -2.3485 O   0  0  0  0  0  0  0  0  0  0  0  0
    3.5667    0.6690   -1.1912 O   0  0  0  0  0  0  0  0  0  0  0  0
    0.2381    0.4970    0.6194 H   0  0  0  0  0  0  0  0  0  0  0  0
   -0.2987    0.4126   -2.2483 H   0  0  0  0  0  0  0  0  0  0  0  0
    1.8558   -0.8985   -0.4755 H   0  0  0  0  0  0  0  0  0  0  0  0
    1.7340   -1.2647   -2.1805 H   0  0  0  0  0  0  0  0  0  0  0  0
    4.1324    1.4520   -1.3626 H   0  0  0  0  0  0  0  0  0  0  0  0
   -0.3393   -2.3509   -0.3811 N   0  0  0  0  0  0  0  0  0  0  0  0
   -0.9456   -3.6420   -0.1539 C   0  0  2  0  0  0  0  0  0  0  0  0
   -0.7173   -4.4938   -1.3955 C   0  0  0  0  0  0  0  0  0  0  0  0
   -0.4882   -4.0153   -2.5044 O   0  0  0  0  0  0  0  0  0  0  0  0
   -2.4299   -3.5105    0.1498 C   0  0  0  0  0  0  0  0  0  0  0  0
    0.4704   -2.0884    0.1732 H   0  0  0  0  0  0  0  0  0  0  0  0
   -0.4239   -4.0907    0.6985 H   0  0  0  0  0  0  0  0  0  0  0  0
   -2.9692   -3.0628   -0.6928 H   0  0  0  0  0  0  0  0  0  0  0  0
   -2.8820   -4.4876    0.3499 H   0  0  0  0  0  0  0  0  0  0  0  0
   -2.5936   -2.8732    1.0255 H   0  0  0  0  0  0  0  0  0  0  0  0
   -0.8424   -5.8499   -1.1283 N   0  0  0  0  0  0  0  0  0  0  0  0
   -0.6834   -6.8629   -2.1455 C   0  0  0  0  0  0  0  0  0  0  0  0
   -1.0149   -6.1577   -0.1758 H   0  0  0  0  0  0  0  0  0  0  0  0
   -1.6642   -7.1012   -2.5829 H   0  0  0  0  0  0  0  0  0  0  0  0
   -0.0120   -6.4896   -2.9327 H   0  0  0  0  0  0  0  0  0  0  0  0
   -0.2527   -7.7696   -1.6957 H   0  0  0  0  0  0  0  0  0  0  0  0
  1  3  1  0  0  0  0
  1  7  1  0  0  0  0
  1  2  2  0  0  0  0
 31 32  1  0  0  0  0
 32 40  1  0  0  0  0
 32 33  2  0  0  0  0
  8  9  1  0  0  0  0
  9 17  1  0  0  0  0
  9 10  2  0  0  0  0
 18 19  1  0  0  0  0
 19 30  1  0  0  0  0
 19 20  2  0  0  0  0
 21 22  1  0  0  0  0
 22 23  2  0  0  0  0
 22 24  1  0  0  0  0
 31 34  1  0  0  0  0
  8 11  1  0  0  0  0
 40 41  1  0  0  0  0
 18 21  1  0  0  0  0
 30 31  1  0  0  0  0
  7  8  1  0  0  0  0
 17 18  1  0  0  0  0
  3  4  1  0  0  0  0
  3  5  1  0  0  0  0
  3  6  1  0  0  0  0
 34 37  1  0  0  0  0
 34 38  1  0  0  0  0
 34 39  1  0  0  0  0
 11 14  1  0  0  0  0
 11 15  1  0  0  0  0
 11 16  1  0  0  0  0
 41 43  1  0  0  0  0
 41 44  1  0  0  0  0
 41 45  1  0  0  0  0
 21 27  1  0  0  0  0
 21 28  1  0  0  0  0
 31 36  1  0  0  0  0
  8 13  1  0  0  0  0
 18 26  1  0  0  0  0
 40 42  1  0  0  0  0
  7 12  1  0  0  0  0
 30 35  1  0  0  0  0
 17 25  1  0  0  0  0
 24 29  1  0  0  0  0
M  END
$$$$

  -OEChem-05262214473D

 45 44  0     1  0  0  0  0  0999 V2000
   -2.2987    4.1032   -0.3022 C   0  0  0  0  0  0  0  0  0  0  0  0
   -1.8049    3.7117   -1.3532 O   0  0  0  0  0  0  0  0  0  0  0  0
   -3.0791    5.3755   -0.2846 C   0  0  0  0  0  0  0  0  0  0  0  0
   -2.4478    6.2532   -0.0717 H   0  0  0  0  0  0  0  0  0  0  0  0
   -3.5571    5.5891   -1.2541 H   0  0  0  0  0  0  0  0  0  0  0  0
   -3.8940    5.4184    0.4556 H   0  0  0  0  0  0  0  0  0  0  0  0
   -2.2137    3.4712    0.9275 N   0  0  0  0  0  0  0  0  0  0  0  0
   -1.5102    2.2327    1.1338 C   0  0  2  0  0  0  0  0  0  0  0  0
   -1.3539    1.5497   -0.2184 C   0  0  0  0  0  0  0  0  0  0  0  0
   -2.0852    1.7861   -1.1778 O   0  0  0  0  0  0  0  0  0  0  0  0
   -2.2477    1.3342    2.1145 C   0  0  0  0  0  0  0  0  0  0  0  0
   -2.6724    3.9052    1.7265 H   0  0  0  0  0  0  0  0  0  0  0  0
   -0.5220    2.4922    1.5290 H   0  0  0  0  0  0  0  0  0  0  0  0
   -3.2400    1.0636    1.7358 H   0  0  0  0  0  0  0  0  0  0  0  0
   -1.6970    0.4046    2.2923 H   0  0  0  0  0  0  0  0  0  0  0  0
   -2.3854    1.8384    3.0772 H   0  0  0  0  0  0  0  0  0  0  0  0
   -0.3283    0.6116   -0.2182 N   0  0  0  0  0  0  0  0  0  0  0  0
    0.0090   -0.1762   -1.3759 C   0  0  2  0  0  0  0  0  0  0  0  0
   -0.8183   -1.4545   -1.3261 C   0  0  0  0  0  0  0  0  0  0  0  0
   -1.5859   -1.7905   -2.2256 O   0  0  0  0  0  0  0  0  0  0  0  0
    1.5002   -0.4970   -1.4329 C   0  0  0  0  0  0  0  0  0  0  0  0
    2.3164    0.7413   -1.7109 C   0  0  0  0  0  0  0  0  0  0  0  0
    1.9059    1.7023   -2.3485 O   0  0  0  0  0  0  0  0  0  0  0  0
    3.5667    0.6690   -1.1912 O   0  0  0  0  0  0  0  0  0  0  0  0
    0.2381    0.4970    0.6194 H   0  0  0  0  0  0  0  0  0  0  0  0
   -0.2987    0.4126   -2.2483 H   0  0  0  0  0  0  0  0  0  0  0  0
    1.8558   -0.8985   -0.4755 H   0  0  0  0  0  0  0  0  0  0  0  0
    1.7340   -1.2647   -2.1805 H   0  0  0  0  0  0  0  0  0  0  0  0
    4.1324    1.4520   -1.3626 H   0  0  0  0  0  0  0  0  0  0  0  0
   -0.5630   -2.1985   -0.1827 N   0  0  0  0  0  0  0  0  0  0  0  0
   -1.2133   -3.4593    0.0882 C   0  0  2  0  0  0  0  0  0  0  0  0
   -0.7261   -4.4704   -0.9413 C   0  0  0  0  0  0  0  0  0  0  0  0
   -0.2576   -4.1461   -2.0305 O   0  0  0  0  0  0  0  0  0  0  0  0
   -2.7271   -3.3224    0.0415 C   0  0  0  0  0  0  0  0  0  0  0  0
    0.1085   -1.8418    0.4910 H   0  0  0  0  0  0  0  0  0  0  0  0
   -0.8929   -3.7720    1.0880 H   0  0  0  0  0  0  0  0  0  0  0  0
   -3.0668   -3.0097   -0.9526 H   0  0  0  0  0  0  0  0  0  0  0  0
   -3.2188   -4.2724    0.2751 H   0  0  0  0  0  0  0  0  0  0  0  0
   -3.0731   -2.5731    0.7618 H   0  0  0  0  0  0  0  0  0  0  0  0
   -0.9160   -5.7786   -0.5184 N   0  0  0  0  0  0  0  0  0  0  0  0
   -0.5465   -6.9195   -1.3232 C   0  0  0  0  0  0  0  0  0  0  0  0
   -1.2940   -5.9544    0.4079 H   0  0  0  0  0  0  0  0  0  0  0  0
   -1.4102   -7.2400   -1.9243 H   0  0  0  0  0  0  0  0  0  0  0  0
    0.2829   -6.6438   -1.9910 H   0  0  0  0  0  0  0  0  0  0  0  0
   -0.2304   -7.7439   -0.6671 H   0  0  0  0  0  0  0  0  0  0  0  0
  1  3  1  0  0  0  0
  1  7  1  0  0  0  0
  1  2  2  0  0  0  0
 31 32  1  0  0  0  0
 32 40  1  0  0  0  0
 32 33  2  0  0  0  0
  8  9  1  0  0  0  0
  9 17  1  0  0  0  0
  9 10  2  0  0  0  0
 18 19  1  0  0  0  0
 19 30  1  0  0  0  0
 19 20  2  0  0  0  0
 21 22  1  0  0  0  0
 22 23  2  0  0  0  0
 22 24  1  0  0  0  0
 31 34  1  0  0  0  0
  8 11  1  0  0  0  0
 40 41  1  0  0  0  0
 18 21  1  0  0  0  0
 30 31  1  0  0  0  0
  7  8  1  0  0  0  0
 17 18  1  0  0  0  0
  3  4  1  0  0  0  0
  3  5  1  0  0  0  0
  3  6  1  0  0  0  0
 34 37  1  0  0  0  0
 34 38  1  0  0  0  0
 34 39  1  0  0  0  0
 11 14  1  0  0  0  0
 11 15  1  0  0  0  0
 11 16  1  0  0  0  0
 41 43  1  0  0  0  0
 41 44  1  0  0  0  0
 41 45  1  0  0  0  0
 21 27  1  0  0  0  0
 21 28  1  0  0  0  0
 31 36  1  0  0  0  0
  8 13  1  0  0  0  0
 18 26  1  0  0  0  0
 40 42  1  0  0  0  0
  7 12  1  0  0  0  0
 30 35  1  0  0  0  0
 17 25  1  0  0  0  0
 24 29  1  0  0  0  0
M  END
$$$$

  -OEChem-05262214473D

 45 44  0     1  0  0  0  0  0999 V2000
   -2.2987    4.1032   -0.3022 C   0  0  0  0  0  0  0  0  0  0  0  0
   -1.8049    3.7117   -1.3532 O   0  0  0  0  0  0  0  0  0  0  0  0
   -3.0791    5.3755   -0.2846 C   0  0  0  0  0  0  0  0  0  0  0  0
   -2.4478    6.2532   -0.0717 H   0  0  0  0  0  0  0  0  0  0  0  0
   -3.5571    5.5891   -1.2541 H   0  0  0  0  0  0  0  0  0  0  0  0
   -3.8940    5.4184    0.4556 H   0  0  0  0  0  0  0  0  0  0  0  0
   -2.2137    3.4712    0.9275 N   0  0  0  0  0  0  0  0  0  0  0  0
   -1.5102    2.2327    1.1338 C   0  0  2  0  0  0  0  0  0  0  0  0
   -1.3539    1.5497   -0.2184 C   0  0  0  0  0  0  0  0  0  0  0  0
   -2.0852    1.7861   -1.1778 O   0  0  0  0  0  0  0  0  0  0  0  0
   -2.2477    1.3342    2.1145 C   0  0  0  0  0  0  0  0  0  0  0  0
   -2.6724    3.9052    1.7265 H   0  0  0  0  0  0  0  0  0  0  0  0
   -0.5220    2.4922    1.5290 H   0  0  0  0  0  0  0  0  0  0  0  0
   -3.2400    1.0636    1.7358 H   0  0  0  0  0  0  0  0  0  0  0  0
   -1.6970    0.4046    2.2923 H   0  0  0  0  0  0  0  0  0  0  0  0
   -2.3854    1.8384    3.0772 H   0  0  0  0  0  0  0  0  0  0  0  0
   -0.3283    0.6116   -0.2182 N   0  0  0  0  0  0  0  0  0  0  0  0
    0.0090   -0.1762   -1.3759 C   0  0  2  0  0  0  0  0  0  0  0  0
   -0.8183   -1.4545   -1.3261 C   0  0  0  0  0  0  0  0  0  0  0  0
   -1.3740   -1.9311   -2.3137 O   0  0  0  0  0  0  0  0  0  0  0  0
    1.5002   -0.4970   -1.4329 C   0  0  0  0  0  0  0  0  0  0  0  0
    2.3164    0.7413   -1.7109 C   0  0  0  0  0  0  0  0  0  0  0  0
    1.9059    1.7023   -2.3485 O   0  0  0  0  0  0  0  0  0  0  0  0
    3.5667    0.6690   -1.1912 O   0  0  0  0  0  0  0  0  0  0  0  0
    0.2381    0.4970    0.6194 H   0  0  0  0  0  0  0  0  0  0  0  0
   -0.2987    0.4126   -2.2483 H   0  0  0  0  0  0  0  0  0  0  0  0
    1.8558   -0.8985   -0.4755 H   0  0  0  0  0  0  0  0  0  0  0  0
    1.7340   -1.2647   -2.1805 H   0  0  0  0  0  0  0  0  0  0  0  0
    4.1324    1.4520   -1.3626 H   0  0  0  0  0  0  0  0  0  0  0  0
   -0.8234   -2.0252   -0.0610 N   0  0  0  0  0  0  0  0  0  0  0  0
   -1.5259   -3.2511    0.2382 C   0  0  2  0  0  0  0  0  0  0  0  0
   -0.8335   -4.3841   -0.5077 C   0  0  0  0  0  0  0  0  0  0  0  0
   -0.1367   -4.2038   -1.5043 O   0  0  0  0  0  0  0  0  0  0  0  0
   -2.9923   -3.1583   -0.1541 C   0  0  0  0  0  0  0  0  0  0  0  0
   -0.3122   -1.5620    0.6846 H   0  0  0  0  0  0  0  0  0  0  0  0
   -1.4333   -3.4133    1.3176 H   0  0  0  0  0  0  0  0  0  0  0  0
   -3.1051   -2.9958   -1.2322 H   0  0  0  0  0  0  0  0  0  0  0  0
   -3.5298   -4.0780    0.0995 H   0  0  0  0  0  0  0  0  0  0  0  0
   -3.4815   -2.3244    0.3607 H   0  0  0  0  0  0  0  0  0  0  0  0
   -1.1201   -5.6245    0.0448 N   0  0  0  0  0  0  0  0  0  0  0  0
   -0.5923   -6.8575   -0.4911 C   0  0  0  0  0  0  0  0  0  0  0  0
   -1.6920   -5.6783    0.8825 H   0  0  0  0  0  0  0  0  0  0  0  0
   -1.3066   -7.2793   -1.2135 H   0  0  0  0  0  0  0  0  0  0  0  0
    0.3646   -6.6579   -0.9957 H   0  0  0  0  0  0  0  0  0  0  0  0
   -0.4326   -7.5744    0.3277 H   0  0  0  0  0  0  0  0  0  0  0  0
  1  3  1  0  0  0  0
  1  7  1  0  0  0  0
  1  2  2  0  0  0  0
 31 32  1  0  0  0  0
 32 40  1  0  0  0  0
 32 33  2  0  0  0  0
  8  9  1  0  0  0  0
  9 17  1  0  0  0  0
  9 10  2  0  0  0  0
 18 19  1  0  0  0  0
 19 30  1  0  0  0  0
 19 20  2  0  0  0  0
 21 22  1  0  0  0  0
 22 23  2  0  0  0  0
 22 24  1  0  0  0  0
 31 34  1  0  0  0  0
  8 11  1  0  0  0  0
 40 41  1  0  0  0  0
 18 21  1  0  0  0  0
 30 31  1  0  0  0  0
  7  8  1  0  0  0  0
 17 18  1  0  0  0  0
  3  4  1  0  0  0  0
  3  5  1  0  0  0  0
  3  6  1  0  0  0  0
 34 37  1  0  0  0  0
 34 38  1  0  0  0  0
 34 39  1  0  0  0  0
 11 14  1  0  0  0  0
 11 15  1  0  0  0  0
 11 16  1  0  0  0  0
 41 43  1  0  0  0  0
 41 44  1  0  0  0  0
 41 45  1  0  0  0  0
 21 27  1  0  0  0  0
 21 28  1  0  0  0  0
 31 36  1  0  0  0  0
  8 13  1  0  0  0  0
 18 26  1  0  0  0  0
 40 42  1  0  0  0  0
  7 12  1  0  0  0  0
 30 35  1  0  0  0  0
 17 25  1  0  0  0  0
 24 29  1  0  0  0  0
M  END
$$$$

  -OEChem-05262214473D

 45 44  0     1  0  0  0  0  0999 V2000
   -2.2987    4.1032   -0.3022 C   0  0  0  0  0  0  0  0  0  0  0  0
   -1.8049    3.7117   -1.3532 O   0  0  0  0  0  0  0  0  0  0  0  0
   -3.0791    5.3755   -0.2846 C   0  0  0  0  0  0  0  0  0  0  0  0
   -2.4478    6.2532   -0.0717 H   0  0  0  0  0  0  0  0  0  0  0  0
   -3.5571    5.5891   -1.2541 H   0  0  0  0  0  0  0  0  0  0  0  0
   -3.8940    5.4184    0.4556 H   0  0  0  0  0  0  0  0  0  0  0  0
   -2.2137    3.4712    0.9275 N   0  0  0  0  0  0  0  0  0  0  0  0
   -1.5102    2.2327    1.1338 C   0  0  2  0  0  0  0  0  0  0  0  0
   -1.3539    1.5497   -0.2184 C   0  0  0  0  0  0  0  0  0  0  0  0
   -2.0852    1.7861   -1.1778 O   0  0  0  0  0  0  0  0  0  0  0  0
   -2.2477    1.3342    2.1145 C   0  0  0  0  0  0  0  0  0  0  0  0
   -2.6724    3.9052    1.7265 H   0  0  0  0  0  0  0  0  0  0  0  0
   -0.5220    2.4922    1.5290 H   0  0  0  0  0  0  0  0  0  0  0  0
   -3.2400    1.0636    1.7358 H   0  0  0  0  0  0  0  0  0  0  0  0
   -1.6970    0.4046    2.2923 H   0  0  0  0  0  0  0  0  0  0  0  0
   -2.3854    1.8384    3.0772 H   0  0  0  0  0  0  0  0  0  0  0  0
   -0.3283    0.6116   -0.2182 N   0  0  0  0  0  0  0  0  0  0  0  0
    0.0090   -0.1762   -1.3759 C   0  0  2  0  0  0  0  0  0  0  0  0
   -0.8183   -1.4545   -1.3261 C   0  0  0  0  0  0  0  0  0  0  0  0
   -1.1489   -2.0775   -2.3330 O   0  0  0  0  0  0  0  0  0  0  0  0
    1.5002   -0.4970   -1.4329 C   0  0  0  0  0  0  0  0  0  0  0  0
    2.3164    0.7413   -1.7109 C   0  0  0  0  0  0  0  0  0  0  0  0
    1.9059    1.7023   -2.3485 O   0  0  0  0  0  0  0  0  0  0  0  0
    3.5667    0.6690   -1.1912 O   0  0  0  0  0  0  0  0  0  0  0  0
    0.2381    0.4970    0.6194 H   0  0  0  0  0  0  0  0  0  0  0  0
   -0.2987    0.4126   -2.2483 H   0  0  0  0  0  0  0  0  0  0  0  0
    1.8558   -0.8985   -0.4755 H   0  0  0  0  0  0  0  0  0  0  0  0
    1.7340   -1.2647   -2.1805 H   0  0  0  0  0  0  0  0  0  0  0  0
    4.1324    1.4520   -1.3626 H   0  0  0  0  0  0  0  0  0  0  0  0
   -1.1028   -1.8429   -0.0244 N   0  0  0  0  0  0  0  0  0  0  0  0
   -1.8623   -3.0315    0.2859 C   0  0  2  0  0  0  0  0  0  0  0  0
   -1.0321   -4.2406   -0.1243 C   0  0  0  0  0  0  0  0  0  0  0  0
   -0.1338   -4.1846   -0.9616 O   0  0  0  0  0  0  0  0  0  0  0  0
   -3.2073   -3.0297   -0.4237 C   0  0  0  0  0  0  0  0  0  0  0  0
   -0.7630   -1.2680    0.7410 H   0  0  0  0  0  0  0  0  0  0  0  0
   -2.0080   -3.0392    1.3716 H   0  0  0  0  0  0  0  0  0  0  0  0
   -3.0816   -3.0220   -1.5126 H   0  0  0  0  0  0  0  0  0  0  0  0
   -3.7937   -3.9175   -0.1650 H   0  0  0  0  0  0  0  0  0  0  0  0
   -3.7910   -2.1440   -0.1503 H   0  0  0  0  0  0  0  0  0  0  0  0
   -1.4409   -5.3983    0.5228 N   0  0  0  0  0  0  0  0  0  0  0  0
   -0.8178   -6.6810    0.2938 C   0  0  0  0  0  0  0  0  0  0  0  0
   -2.1819   -5.3483    1.2158 H   0  0  0  0  0  0  0  0  0  0  0  0
   -1.3606   -7.2166   -0.4990 H   0  0  0  0  0  0  0  0  0  0  0  0
    0.2274   -6.5309   -0.0145 H   0  0  0  0  0  0  0  0  0  0  0  0
   -0.8453   -7.2725    1.2209 H   0  0  0  0  0  0  0  0  0  0  0  0
  1  3  1  0  0  0  0
  1  7  1  0  0  0  0
  1  2  2  0  0  0  0
 31 32  1  0  0  0  0
 32 40  1  0  0  0  0
 32 33  2  0  0  0  0
  8  9  1  0  0  0  0
  9 17  1  0  0  0  0
  9 10  2  0  0  0  0
 18 19  1  0  0  0  0
 19 30  1  0  0  0  0
 19 20  2  0  0  0  0
 21 22  1  0  0  0  0
 22 23  2  0  0  0  0
 22 24  1  0  0  0  0
 31 34  1  0  0  0  0
  8 11  1  0  0  0  0
 40 41  1  0  0  0  0
 18 21  1  0  0  0  0
 30 31  1  0  0  0  0
  7  8  1  0  0  0  0
 17 18  1  0  0  0  0
  3  4  1  0  0  0  0
  3  5  1  0  0  0  0
  3  6  1  0  0  0  0
 34 37  1  0  0  0  0
 34 38  1  0  0  0  0
 34 39  1  0  0  0  0
 11 14  1  0  0  0  0
 11 15  1  0  0  0  0
 11 16  1  0  0  0  0
 41 43  1  0  0  0  0
 41 44  1  0  0  0  0
 41 45  1  0  0  0  0
 21 27  1  0  0  0  0
 21 28  1  0  0  0  0
 31 36  1  0  0  0  0
  8 13  1  0  0  0  0
 18 26  1  0  0  0  0
 40 42  1  0  0  0  0
  7 12  1  0  0  0  0
 30 35  1  0  0  0  0
 17 25  1  0  0  0  0
 24 29  1  0  0  0  0
M  END
$$$$

  -OEChem-05262214473D

 45 44  0     1  0  0  0  0  0999 V2000
   -2.2987    4.1032   -0.3022 C   0  0  0  0  0  0  0  0  0  0  0  0
   -1.8049    3.7117   -1.3532 O   0  0  0  0  0  0  0  0  0  0  0  0
   -3.0791    5.3755   -0.2846 C   0  0  0  0  0  0  0  0  0  0  0  0
   -2.4478    6.2532   -0.0717 H   0  0  0  0  0  0  0  0  0  0  0  0
   -3.5571    5.5891   -1.2541 H   0  0  0  0  0  0  0  0  0  0  0  0
   -3.8940    5.4184    0.4556 H   0  0  0  0  0  0  0  0  0  0  0  0
   -2.2137    3.4712    0.9275 N   0  0  0  0  0  0  0  0  0  0  0  0
   -1.5102    2.2327    1.1338 C   0  0  2  0  0  0  0  0  0  0  0  0
   -1.3539    1.5497   -0.2184 C   0  0  0  0  0  0  0  0  0  0  0  0
   -2.0852    1.7861   -1.1778 O   0  0  0  0  0  0  0  0  0  0  0  0
   -2.2477    1.3342    2.1145 C   0  0  0  0  0  0  0  0  0  0  0  0
   -2.6724    3.9052    1.7265 H   0  0  0  0  0  0  0  0  0  0  0  0
   -0.5220    2.4922    1.5290 H   0  0  0  0  0  0  0  0  0  0  0  0
   -3.2400    1.0636    1.7358 H   0  0  0  0  0  0  0  0  0  0  0  0
   -1.6970    0.4046    2.2923 H   0  0  0  0  0  0  0  0  0  0  0  0
   -2.3854    1.8384    3.0772 H   0  0  0  0  0  0  0  0  0  0  0  0
   -0.3283    0.6116   -0.2182 N   0  0  0  0  0  0  0  0  0  0  0  0
    0.0090   -0.1762   -1.3759 C   0  0  2  0  0  0  0  0  0  0  0  0
   -0.8183   -1.4545   -1.3261 C   0  0  0  0  0  0  0  0  0  0  0  0
   -0.9261   -2.2197   -2.2821 O   0  0  0  0  0  0  0  0  0  0  0  0
    1.5002   -0.4970   -1.4329 C   0  0  0  0  0  0  0  0  0  0  0  0
    2.3164    0.7413   -1.7109 C   0  0  0  0  0  0  0  0  0  0  0  0
    1.9059    1.7023   -2.3485 O   0  0  0  0  0  0  0  0  0  0  0  0
    3.5667    0.6690   -1.1912 O   0  0  0  0  0  0  0  0  0  0  0  0
    0.2381    0.4970    0.6194 H   0  0  0  0  0  0  0  0  0  0  0  0
   -0.2987    0.4126   -2.2483 H   0  0  0  0  0  0  0  0  0  0  0  0
    1.8558   -0.8985   -0.4755 H   0  0  0  0  0  0  0  0  0  0  0  0
    1.7340   -1.2647   -2.1805 H   0  0  0  0  0  0  0  0  0  0  0  0
    4.1324    1.4520   -1.3626 H   0  0  0  0  0  0  0  0  0  0  0  0
   -1.3821   -1.6641   -0.0754 N   0  0  0  0  0  0  0  0  0  0  0  0
   -2.1994   -2.8156    0.2281 C   0  0  2  0  0  0  0  0  0  0  0  0
   -1.3083   -4.0498    0.1827 C   0  0  0  0  0  0  0  0  0  0  0  0
   -0.2489   -4.0898   -0.4395 O   0  0  0  0  0  0  0  0  0  0  0  0
   -3.3576   -2.9451   -0.7489 C   0  0  0  0  0  0  0  0  0  0  0  0
   -1.2132   -0.9799    0.6562 H   0  0  0  0  0  0  0  0  0  0  0  0
   -2.5781   -2.6751    1.2463 H   0  0  0  0  0  0  0  0  0  0  0  0
   -2.9977   -3.0865   -1.7746 H   0  0  0  0  0  0  0  0  0  0  0  0
   -3.9924   -3.8019   -0.5004 H   0  0  0  0  0  0  0  0  0  0  0  0
   -3.9805   -2.0442   -0.7366 H   0  0  0  0  0  0  0  0  0  0  0  0
   -1.8565   -5.1153    0.8830 N   0  0  0  0  0  0  0  0  0  0  0  0
   -1.2076   -6.4021    0.9783 C   0  0  0  0  0  0  0  0  0  0  0  0
   -2.7302   -4.9868    1.3849 H   0  0  0  0  0  0  0  0  0  0  0  0
   -1.5684   -7.0560    0.1707 H   0  0  0  0  0  0  0  0  0  0  0  0
   -0.1193   -6.2715    0.8855 H   0  0  0  0  0  0  0  0  0  0  0  0
   -1.4404   -6.8589    1.9515 H   0  0  0  0  0  0  0  0  0  0  0  0
  1  3  1  0  0  0  0
  1  7  1  0  0  0  0
  1  2  2  0  0  0  0
 31 32  1  0  0  0  0
 32 40  1  0  0  0  0
 32 33  2  0  0  0  0
  8  9  1  0  0  0  0
  9 17  1  0  0  0  0
  9 10  2  0  0  0  0
 18 19  1  0  0  0  0
 19 30  1  0  0  0  0
 19 20  2  0  0  0  0
 21 22  1  0  0  0  0
 22 23  2  0  0  0  0
 22 24  1  0  0  0  0
 31 34  1  0  0  0  0
  8 11  1  0  0  0  0
 40 41  1  0  0  0  0
 18 21  1  0  0  0  0
 30 31  1  0  0  0  0
  7  8  1  0  0  0  0
 17 18  1  0  0  0  0
  3  4  1  0  0  0  0
  3  5  1  0  0  0  0
  3  6  1  0  0  0  0
 34 37  1  0  0  0  0
 34 38  1  0  0  0  0
 34 39  1  0  0  0  0
 11 14  1  0  0  0  0
 11 15  1  0  0  0  0
 11 16  1  0  0  0  0
 41 43  1  0  0  0  0
 41 44  1  0  0  0  0
 41 45  1  0  0  0  0
 21 27  1  0  0  0  0
 21 28  1  0  0  0  0
 31 36  1  0  0  0  0
  8 13  1  0  0  0  0
 18 26  1  0  0  0  0
 40 42  1  0  0  0  0
  7 12  1  0  0  0  0
 30 35  1  0  0  0  0
 17 25  1  0  0  0  0
 24 29  1  0  0  0  0
M  END
$$$$

  -OEChem-05262214473D

 45 44  0     1  0  0  0  0  0999 V2000
   -2.2987    4.1032   -0.3022 C   0  0  0  0  0  0  0  0  0  0  0  0
   -1.8049    3.7117   -1.3532 O   0  0  0  0  0  0  0  0  0  0  0  0
   -3.0791    5.3755   -0.2846 C   0  0  0  0  0  0  0  0  0  0  0  0
   -2.4478    6.2532   -0.0717 H   0  0  0  0  0  0  0  0  0  0  0  0
   -3.5571    5.5891   -1.2541 H   0  0  0  0  0  0  0  0  0  0  0  0
   -3.8940    5.4184    0.4556 H   0  0  0  0  0  0  0  0  0  0  0  0
   -2.2137    3.4712    0.9275 N   0  0  0  0  0  0  0  0  0  0  0  0
   -1.5102    2.2327    1.1338 C   0  0  2  0  0  0  0  0  0  0  0  0
   -1.3539    1.5497   -0.2184 C   0  0  0  0  0  0  0  0  0  0  0  0
   -2.0852    1.7861   -1.1778 O   0  0  0  0  0  0  0  0  0  0  0  0
   -2.2477    1.3342    2.1145 C   0  0  0  0  0  0  0  0  0  0  0  0
   -2.6724    3.9052    1.7265 H   0  0  0  0  0  0  0  0  0  0  0  0
   -0.5220    2.4922    1.5290 H   0  0  0  0  0  0  0  0  0  0  0  0
   -3.2400    1.0636    1.7358 H   0  0  0  0  0  0  0  0  0  0  0  0
   -1.6970    0.4046    2.2923 H   0  0  0  0  0  0  0  0  0  0  0  0
   -2.3854    1.8384    3.0772 H   0  0  0  0  0  0  0  0  0  0  0  0
   -0.3283    0.6116   -0.2182 N   0  0  0  0  0  0  0  0  0  0  0  0
    0.0090   -0.1762   -1.3759 C   0  0  2  0  0  0  0  0  0  0  0  0
   -0.8183   -1.4545   -1.3261 C   0  0  0  0  0  0  0  0  0  0  0  0
   -0.7208   -2.3481   -2.1647 O   0  0  0  0  0  0  0  0  0  0  0  0
    1.5002   -0.4970   -1.4329 C   0  0  0  0  0  0  0  0  0  0  0  0
    2.3164    0.7413   -1.7109 C   0  0  0  0  0  0  0  0  0  0  0  0
    1.9059    1.7023   -2.3485 O   0  0  0  0  0  0  0  0  0  0  0  0
    3.5667    0.6690   -1.1912 O   0  0  0  0  0  0  0  0  0  0  0  0
    0.2381    0.4970    0.6194 H   0  0  0  0  0  0  0  0  0  0  0  0
   -0.2987    0.4126   -2.2483 H   0  0  0  0  0  0  0  0  0  0  0  0
    1.8558   -0.8985   -0.4755 H   0  0  0  0  0  0  0  0  0  0  0  0
    1.7340   -1.2647   -2.1805 H   0  0  0  0  0  0  0  0  0  0  0  0
    4.1324    1.4520   -1.3626 H   0  0  0  0  0  0  0  0  0  0  0  0
   -1.6425   -1.5009   -0.2104 N   0  0  0  0  0  0  0  0  0  0  0  0
   -2.5143   -2.6180    0.0687 C   0  0  2  0  0  0  0  0  0  0  0  0
   -1.6435   -3.8248    0.3924 C   0  0  0  0  0  0  0  0  0  0  0  0
   -0.4743   -3.9258    0.0265 O   0  0  0  0  0  0  0  0  0  0  0  0
   -3.4328   -2.9103   -1.1076 C   0  0  0  0  0  0  0  0  0  0  0  0
   -1.6320   -0.7174    0.4361 H   0  0  0  0  0  0  0  0  0  0  0  0
   -3.1047   -2.3458    0.9504 H   0  0  0  0  0  0  0  0  0  0  0  0
   -2.8592   -3.1849   -2.0004 H   0  0  0  0  0  0  0  0  0  0  0  0
   -4.1126   -3.7391   -0.8837 H   0  0  0  0  0  0  0  0  0  0  0  0
   -4.0371   -2.0317   -1.3580 H   0  0  0  0  0  0  0  0  0  0  0  0
   -2.3385   -4.7948    1.1010 N   0  0  0  0  0  0  0  0  0  0  0  0
   -1.7350   -6.0398    1.5156 C   0  0  0  0  0  0  0  0  0  0  0  0
   -3.2996   -4.6185    1.3784 H   0  0  0  0  0  0  0  0  0  0  0  0
   -1.9160   -6.8085    0.7499 H   0  0  0  0  0  0  0  0  0  0  0  0
   -0.6518   -5.8974    1.6432 H   0  0  0  0  0  0  0  0  0  0  0  0
   -2.1775   -6.3617    2.4699 H   0  0  0  0  0  0  0  0  0  0  0  0
  1  3  1  0  0  0  0
  1  7  1  0  0  0  0
  1  2  2  0  0  0  0
 31 32  1  0  0  0  0
 32 40  1  0  0  0  0
 32 33  2  0  0  0  0
  8  9  1  0  0  0  0
  9 17  1  0  0  0  0
  9 10  2  0  0  0  0
 18 19  1  0  0  0  0
 19 30  1  0  0  0  0
 19 20  2  0  0  0  0
 21 22  1  0  0  0  0
 22 23  2  0  0  0  0
 22 24  1  0  0  0  0
 31 34  1  0  0  0  0
  8 11  1  0  0  0  0
 40 41  1  0  0  0  0
 18 21  1  0  0  0  0
 30 31  1  0  0  0  0
  7  8  1  0  0  0  0
 17 18  1  0  0  0  0
  3  4  1  0  0  0  0
  3  5  1  0  0  0  0
  3  6  1  0  0  0  0
 34 37  1  0  0  0  0
 34 38  1  0  0  0  0
 34 39  1  0  0  0  0
 11 14  1  0  0  0  0
 11 15  1  0  0  0  0
 11 16  1  0  0  0  0
 41 43  1  0  0  0  0
 41 44  1  0  0  0  0
 41 45  1  0  0  0  0
 21 27  1  0  0  0  0
 21 28  1  0  0  0  0
 31 36  1  0  0  0  0
  8 13  1  0  0  0  0
 18 26  1  0  0  0  0
 40 42  1  0  0  0  0
  7 12  1  0  0  0  0
 30 35  1  0  0  0  0
 17 25  1  0  0  0  0
 24 29  1  0  0  0  0
M  END
$$$$

  -OEChem-05262214473D

 45 44  0     1  0  0  0  0  0999 V2000
   -2.2987    4.1032   -0.3022 C   0  0  0  0  0  0  0  0  0  0  0  0
   -1.8049    3.7117   -1.3532 O   0  0  0  0  0  0  0  0  0  0  0  0
   -3.0791    5.3755   -0.2846 C   0  0  0  0  0  0  0  0  0  0  0  0
   -2.4478    6.2532   -0.0717 H   0  0  0  0  0  0  0  0  0  0  0  0
   -3.5571    5.5891   -1.2541 H   0  0  0  0  0  0  0  0  0  0  0  0
   -3.8940    5.4184    0.4556 H   0  0  0  0  0  0  0  0  0  0  0  0
   -2.2137    3.4712    0.9275 N   0  0  0  0  0  0  0  0  0  0  0  0
   -1.5102    2.2327    1.1338 C   0  0  2  0  0  0  0  0  0  0  0  0
   -1.3539    1.5497   -0.2184 C   0  0  0  0  0  0  0  0  0  0  0  0
   -2.0852    1.7861   -1.1778 O   0  0  0  0  0  0  0  0  0  0  0  0
   -2.2477    1.3342    2.1145 C   0  0  0  0  0  0  0  0  0  0  0  0
   -2.6724    3.9052    1.7265 H   0  0  0  0  0  0  0  0  0  0  0  0
   -0.5220    2.4922    1.5290 H   0  0  0  0  0  0  0  0  0  0  0  0
   -3.2400    1.0636    1.7358 H   0  0  0  0  0  0  0  0  0  0  0  0
   -1.6970    0.4046    2.2923 H   0  0  0  0  0  0  0  0  0  0  0  0
   -2.3854    1.8384    3.0772 H   0  0  0  0  0  0  0  0  0  0  0  0
   -0.3283    0.6116   -0.2182 N   0  0  0  0  0  0  0  0  0  0  0  0
    0.0090   -0.1762   -1.3759 C   0  0  2  0  0  0  0  0  0  0  0  0
   -0.8183   -1.4545   -1.3261 C   0  0  0  0  0  0  0  0  0  0  0  0
   -0.5468   -2.4538   -1.9886 O   0  0  0  0  0  0  0  0  0  0  0  0
    1.5002   -0.4970   -1.4329 C   0  0  0  0  0  0  0  0  0  0  0  0
    2.3164    0.7413   -1.7109 C   0  0  0  0  0  0  0  0  0  0  0  0
    1.9059    1.7023   -2.3485 O   0  0  0  0  0  0  0  0  0  0  0  0
    3.5667    0.6690   -1.1912 O   0  0  0  0  0  0  0  0  0  0  0  0
    0.2381    0.4970    0.6194 H   0  0  0  0  0  0  0  0  0  0  0  0
   -0.2987    0.4126   -2.2483 H   0  0  0  0  0  0  0  0  0  0  0  0
    1.8558   -0.8985   -0.4755 H   0  0  0  0  0  0  0  0  0  0  0  0
    1.7340   -1.2647   -2.1805 H   0  0  0  0  0  0  0  0  0  0  0  0
    4.1324    1.4520   -1.3626 H   0  0  0  0  0  0  0  0  0  0  0  0
   -1.8659   -1.3644   -0.4203 N   0  0  0  0  0  0  0  0  0  0  0  0
   -2.7855   -2.4522   -0.1815 C   0  0  2  0  0  0  0  0  0  0  0  0
   -2.0147   -3.5807    0.4906 C   0  0  0  0  0  0  0  0  0  0  0  0
   -0.7946   -3.7037    0.4047 O   0  0  0  0  0  0  0  0  0  0  0  0
   -3.4279   -2.9278   -1.4752 C   0  0  0  0  0  0  0  0  0  0  0  0
   -1.9910   -0.4983    0.0956 H   0  0  0  0  0  0  0  0  0  0  0  0
   -3.5518   -2.0738    0.5039 H   0  0  0  0  0  0  0  0  0  0  0  0
   -2.6756   -3.3105   -2.1745 H   0  0  0  0  0  0  0  0  0  0  0  0
   -4.1460   -3.7333   -1.2890 H   0  0  0  0  0  0  0  0  0  0  0  0
   -3.9569   -2.1075   -1.9723 H   0  0  0  0  0  0  0  0  0  0  0  0
   -2.8542   -4.4587    1.1618 N   0  0  0  0  0  0  0  0  0  0  0  0
   -2.3643   -5.6187    1.8691 C   0  0  0  0  0  0  0  0  0  0  0  0
   -3.8513   -4.2685    1.1967 H   0  0  0  0  0  0  0  0  0  0  0  0
   -2.3796   -6.4910    1.1991 H   0  0  0  0  0  0  0  0  0  0  0  0
   -1.3338   -5.4340    2.2068 H   0  0  0  0  0  0  0  0  0  0  0  0
   -3.0062   -5.8147    2.7407 H   0  0  0  0  0  0  0  0  0  0  0  0
  1  3  1  0  0  0  0
  1  7  1  0  0  0  0
  1  2  2  0  0  0  0
 31 32  1  0  0  0  0
 32 40  1  0  0  0  0
 32 33  2  0  0  0  0
  8  9  1  0  0  0  0
  9 17  1  0  0  0  0
  9 10  2  0  0  0  0
 18 19  1  0  0  0  0
 19 30  1  0  0  0  0
 19 20  2  0  0  0  0
 21 22  1  0  0  0  0
 22 23  2  0  0  0  0
 22 24  1  0  0  0  0
 31 34  1  0  0  0  0
  8 11  1  0  0  0  0
 40 41  1  0  0  0  0
 18 21  1  0  0  0  0
 30 31  1  0  0  0  0
  7  8  1  0  0  0  0
 17 18  1  0  0  0  0
  3  4  1  0  0  0  0
  3  5  1  0  0  0  0
  3  6  1  0  0  0  0
 34 37  1  0  0  0  0
 34 38  1  0  0  0  0
 34 39  1  0  0  0  0
 11 14  1  0  0  0  0
 11 15  1  0  0  0  0
 11 16  1  0  0  0  0
 41 43  1  0  0  0  0
 41 44  1  0  0  0  0
 41 45  1  0  0  0  0
 21 27  1  0  0  0  0
 21 28  1  0  0  0  0
 31 36  1  0  0  0  0
  8 13  1  0  0  0  0
 18 26  1  0  0  0  0
 40 42  1  0  0  0  0
  7 12  1  0  0  0  0
 30 35  1  0  0  0  0
 17 25  1  0  0  0  0
 24 29  1  0  0  0  0
M  END
$$$$

  -OEChem-05262214473D

 45 44  0     1  0  0  0  0  0999 V2000
   -2.2987    4.1032   -0.3022 C   0  0  0  0  0  0  0  0  0  0  0  0
   -1.8049    3.7117   -1.3532 O   0  0  0  0  0  0  0  0  0  0  0  0
   -3.0791    5.3755   -0.2846 C   0  0  0  0  0  0  0  0  0  0  0  0
   -2.4478    6.2532   -0.0717 H   0  0  0  0  0  0  0  0  0  0  0  0
   -3.5571    5.5891   -1.2541 H   0  0  0  0  0  0  0  0  0  0  0  0
   -3.8940    5.4184    0.4556 H   0  0  0  0  0  0  0  0  0  0  0  0
   -2.2137    3.4712    0.9275 N   0  0  0  0  0  0  0  0  0  0  0  0
   -1.5102    2.2327    1.1338 C   0  0  2  0  0  0  0  0  0  0  0  0
   -1.3539    1.5497   -0.2184 C   0  0  0  0  0  0  0  0  0  0  0  0
   -2.0852    1.7861   -1.1778 O   0  0  0  0  0  0  0  0  0  0  0  0
   -2.2477    1.3342    2.1145 C   0  0  0  0  0  0  0  0  0  0  0  0
   -2.6724    3.9052    1.7265 H   0  0  0  0  0  0  0  0  0  0  0  0
   -0.5220    2.4922    1.5290 H   0  0  0  0  0  0  0  0  0  0  0  0
   -3.2400    1.0636    1.7358 H   0  0  0  0  0  0  0  0  0  0  0  0
   -1.6970    0.4046    2.2923 H   0  0  0  0  0  0  0  0  0  0  0  0
   -2.3854    1.8384    3.0772 H   0  0  0  0  0  0  0  0  0  0  0  0
   -0.3283    0.6116   -0.2182 N   0  0  0  0  0  0  0  0  0  0  0  0
    0.0090   -0.1762   -1.3759 C   0  0  2  0  0  0  0  0  0  0  0  0
   -0.8183   -1.4545   -1.3261 C   0  0  0  0  0  0  0  0  0  0  0  0
   -0.4161   -2.5297   -1.7658 O   0  0  0  0  0  0  0  0  0  0  0  0
    1.5002   -0.4970   -1.4329 C   0  0  0  0  0  0  0  0  0  0  0  0
    2.3164    0.7413   -1.7109 C   0  0  0  0  0  0  0  0  0  0  0  0
    1.9059    1.7023   -2.3485 O   0  0  0  0  0  0  0  0  0  0  0  0
    3.5667    0.6690   -1.1912 O   0  0  0  0  0  0  0  0  0  0  0  0
    0.2381    0.4970    0.6194 H   0  0  0  0  0  0  0  0  0  0  0  0
   -0.2987    0.4126   -2.2483 H   0  0  0  0  0  0  0  0  0  0  0  0
    1.8558   -0.8985   -0.4755 H   0  0  0  0  0  0  0  0  0  0  0  0
    1.7340   -1.2647   -2.1805 H   0  0  0  0  0  0  0  0  0  0  0  0
    4.1324    1.4520   -1.3626 H   0  0  0  0  0  0  0  0  0  0  0  0
   -2.0374   -1.2639   -0.6907 N   0  0  0  0  0  0  0  0  0  0  0  0
   -2.9946   -2.3294   -0.5053 C   0  0  2  0  0  0  0  0  0  0  0  0
   -2.3966   -3.3343    0.4705 C   0  0  0  0  0  0  0  0  0  0  0  0
   -1.1880   -3.4388    0.6691 O   0  0  0  0  0  0  0  0  0  0  0  0
   -3.3431   -2.9964   -1.8268 C   0  0  0  0  0  0  0  0  0  0  0  0
   -2.2657   -0.3376   -0.3420 H   0  0  0  0  0  0  0  0  0  0  0  0
   -3.8890   -1.8776   -0.0628 H   0  0  0  0  0  0  0  0  0  0  0  0
   -2.4593   -3.4548   -2.2853 H   0  0  0  0  0  0  0  0  0  0  0  0
   -4.0902   -3.7849   -1.6884 H   0  0  0  0  0  0  0  0  0  0  0  0
   -3.7454   -2.2664   -2.5376 H   0  0  0  0  0  0  0  0  0  0  0  0
   -3.3683   -4.1299    1.0613 N   0  0  0  0  0  0  0  0  0  0  0  0
   -3.0524   -5.1677    2.0148 C   0  0  0  0  0  0  0  0  0  0  0  0
   -4.3477   -3.9606    0.8521 H   0  0  0  0  0  0  0  0  0  0  0  0
   -2.9276   -6.1250    1.4876 H   0  0  0  0  0  0  0  0  0  0  0  0
   -2.1190   -4.9130    2.5380 H   0  0  0  0  0  0  0  0  0  0  0  0
   -3.8701   -5.2554    2.7454 H   0  0  0  0  0  0  0  0  0  0  0  0
  1  3  1  0  0  0  0
  1  7  1  0  0  0  0
  1  2  2  0  0  0  0
 31 32  1  0  0  0  0
 32 40  1  0  0  0  0
 32 33  2  0  0  0  0
  8  9  1  0  0  0  0
  9 17  1  0  0  0  0
  9 10  2  0  0  0  0
 18 19  1  0  0  0  0
 19 30  1  0  0  0  0
 19 20  2  0  0  0  0
 21 22  1  0  0  0  0
 22 23  2  0  0  0  0
 22 24  1  0  0  0  0
 31 34  1  0  0  0  0
  8 11  1  0  0  0  0
 40 41  1  0  0  0  0
 18 21  1  0  0  0  0
 30 31  1  0  0  0  0
  7  8  1  0  0  0  0
 17 18  1  0  0  0  0
  3  4  1  0  0  0  0
  3  5  1  0  0  0  0
  3  6  1  0  0  0  0
 34 37  1  0  0  0  0
 34 38  1  0  0  0  0
 34 39  1  0  0  0  0
 11 14  1  0  0  0  0
 11 15  1  0  0  0  0
 11 16  1  0  0  0  0
 41 43  1  0  0  0  0
 41 44  1  0  0  0  0
 41 45  1  0  0  0  0
 21 27  1  0  0  0  0
 21 28  1  0  0  0  0
 31 36  1  0  0  0  0
  8 13  1  0  0  0  0
 18 26  1  0  0  0  0
 40 42  1  0  0  0  0
  7 12  1  0  0  0  0
 30 35  1  0  0  0  0
 17 25  1  0  0  0  0
 24 29  1  0  0  0  0
M  END
$$$$

  -OEChem-05262214473D

 45 44  0     1  0  0  0  0  0999 V2000
   -2.2987    4.1032   -0.3022 C   0  0  0  0  0  0  0  0  0  0  0  0
   -1.8049    3.7117   -1.3532 O   0  0  0  0  0  0  0  0  0  0  0  0
   -3.0791    5.3755   -0.2846 C   0  0  0  0  0  0  0  0  0  0  0  0
   -2.4478    6.2532   -0.0717 H   0  0  0  0  0  0  0  0  0  0  0  0
   -3.5571    5.5891   -1.2541 H   0  0  0  0  0  0  0  0  0  0  0  0
   -3.8940    5.4184    0.4556 H   0  0  0  0  0  0  0  0  0  0  0  0
   -2.2137    3.4712    0.9275 N   0  0  0  0  0  0  0  0  0  0  0  0
   -1.5102    2.2327    1.1338 C   0  0  2  0  0  0  0  0  0  0  0  0
   -1.3539    1.5497   -0.2184 C   0  0  0  0  0  0  0  0  0  0  0  0
   -2.0852    1.7861   -1.1778 O   0  0  0  0  0  0  0  0  0  0  0  0
   -2.2477    1.3342    2.1145 C   0  0  0  0  0  0  0  0  0  0  0  0
   -2.6724    3.9052    1.7265 H   0  0  0  0  0  0  0  0  0  0  0  0
   -0.5220    2.4922    1.5290 H   0  0  0  0  0  0  0  0  0  0  0  0
   -3.2400    1.0636    1.7358 H   0  0  0  0  0  0  0  0  0  0  0  0
   -1.6970    0.4046    2.2923 H   0  0  0  0  0  0  0  0  0  0  0  0
   -2.3854    1.8384    3.0772 H   0  0  0  0  0  0  0  0  0  0  0  0
   -0.3283    0.6116   -0.2182 N   0  0  0  0  0  0  0  0  0  0  0  0
    0.0090   -0.1762   -1.3759 C   0  0  2  0  0  0  0  0  0  0  0  0
   -0.8183   -1.4545   -1.3261 C   0  0  0  0  0  0  0  0  0  0  0  0
   -0.3377   -2.5706   -1.5116 O   0  0  0  0  0  0  0  0  0  0  0  0
    1.5002   -0.4970   -1.4329 C   0  0  0  0  0  0  0  0  0  0  0  0
    2.3164    0.7413   -1.7109 C   0  0  0  0  0  0  0  0  0  0  0  0
    1.9059    1.7023   -2.3485 O   0  0  0  0  0  0  0  0  0  0  0  0
    3.5667    0.6690   -1.1912 O   0  0  0  0  0  0  0  0  0  0  0  0
    0.2381    0.4970    0.6194 H   0  0  0  0  0  0  0  0  0  0  0  0
   -0.2987    0.4126   -2.2483 H   0  0  0  0  0  0  0  0  0  0  0  0
    1.8558   -0.8985   -0.4755 H   0  0  0  0  0  0  0  0  0  0  0  0
    1.7340   -1.2647   -2.1805 H   0  0  0  0  0  0  0  0  0  0  0  0
    4.1324    1.4520   -1.3626 H   0  0  0  0  0  0  0  0  0  0  0  0
   -2.1451   -1.2064   -1.0033 N   0  0  0  0  0  0  0  0  0  0  0  0
   -3.1272   -2.2582   -0.8807 C   0  0  2  0  0  0  0  0  0  0  0  0
   -2.7632   -3.1023    0.3335 C   0  0  0  0  0  0  0  0  0  0  0  0
   -1.6277   -3.1491    0.8019 O   0  0  0  0  0  0  0  0  0  0  0  0
   -3.1843   -3.1113   -2.1384 C   0  0  0  0  0  0  0  0  0  0  0  0
   -2.4373   -0.2462   -0.8470 H   0  0  0  0  0  0  0  0  0  0  0  0
   -4.0934   -1.7706   -0.7109 H   0  0  0  0  0  0  0  0  0  0  0  0
   -2.2252   -3.6079   -2.3250 H   0  0  0  0  0  0  0  0  0  0  0  0
   -3.9492   -3.8904   -2.0549 H   0  0  0  0  0  0  0  0  0  0  0  0
   -3.4170   -2.4976   -3.0153 H   0  0  0  0  0  0  0  0  0  0  0  0
   -3.8459   -3.8307    0.8063 N   0  0  0  0  0  0  0  0  0  0  0  0
   -3.7525   -4.7173    1.9426 C   0  0  0  0  0  0  0  0  0  0  0  0
   -4.7550   -3.7158    0.3682 H   0  0  0  0  0  0  0  0  0  0  0  0
   -3.5227   -5.7356    1.5959 H   0  0  0  0  0  0  0  0  0  0  0  0
   -2.9536   -4.3697    2.6141 H   0  0  0  0  0  0  0  0  0  0  0  0
   -4.7103   -4.7218    2.4837 H   0  0  0  0  0  0  0  0  0  0  0  0
  1  3  1  0  0  0  0
  1  7  1  0  0  0  0
  1  2  2  0  0  0  0
 31 32  1  0  0  0  0
 32 40  1  0  0  0  0
 32 33  2  0  0  0  0
  8  9  1  0  0  0  0
  9 17  1  0  0  0  0
  9 10  2  0  0  0  0
 18 19  1  0  0  0  0
 19 30  1  0  0  0  0
 19 20  2  0  0  0  0
 21 22  1  0  0  0  0
 22 23  2  0  0  0  0
 22 24  1  0  0  0  0
 31 34  1  0  0  0  0
  8 11  1  0  0  0  0
 40 41  1  0  0  0  0
 18 21  1  0  0  0  0
 30 31  1  0  0  0  0
  7  8  1  0  0  0  0
 17 18  1  0  0  0  0
  3  4  1  0  0  0  0
  3  5  1  0  0  0  0
  3  6  1  0  0  0  0
 34 37  1  0  0  0  0
 34 38  1  0  0  0  0
 34 39  1  0  0  0  0
 11 14  1  0  0  0  0
 11 15  1  0  0  0  0
 11 16  1  0  0  0  0
 41 43  1  0  0  0  0
 41 44  1  0  0  0  0
 41 45  1  0  0  0  0
 21 27  1  0  0  0  0
 21 28  1  0  0  0  0
 31 36  1  0  0  0  0
  8 13  1  0  0  0  0
 18 26  1  0  0  0  0
 40 42  1  0  0  0  0
  7 12  1  0  0  0  0
 30 35  1  0  0  0  0
 17 25  1  0  0  0  0
 24 29  1  0  0  0  0
M  END
$$$$

  -OEChem-05262214473D

 45 44  0     1  0  0  0  0  0999 V2000
   -2.2987    4.1032   -0.3022 C   0  0  0  0  0  0  0  0  0  0  0  0
   -1.8049    3.7117   -1.3532 O   0  0  0  0  0  0  0  0  0  0  0  0
   -3.0791    5.3755   -0.2846 C   0  0  0  0  0  0  0  0  0  0  0  0
   -2.4478    6.2532   -0.0717 H   0  0  0  0  0  0  0  0  0  0  0  0
   -3.5571    5.5891   -1.2541 H   0  0  0  0  0  0  0  0  0  0  0  0
   -3.8940    5.4184    0.4556 H   0  0  0  0  0  0  0  0  0  0  0  0
   -2.2137    3.4712    0.9275 N   0  0  0  0  0  0  0  0  0  0  0  0
   -1.5102    2.2327    1.1338 C   0  0  2  0  0  0  0  0  0  0  0  0
   -1.3539    1.5497   -0.2184 C   0  0  0  0  0  0  0  0  0  0  0  0
   -2.0852    1.7861   -1.1778 O   0  0  0  0  0  0  0  0  0  0  0  0
   -2.2477    1.3342    2.1145 C   0  0  0  0  0  0  0  0  0  0  0  0
   -2.6724    3.9052    1.7265 H   0  0  0  0  0  0  0  0  0  0  0  0
   -0.5220    2.4922    1.5290 H   0  0  0  0  0  0  0  0  0  0  0  0
   -3.2400    1.0636    1.7358 H   0  0  0  0  0  0  0  0  0  0  0  0
   -1.6970    0.4046    2.2923 H   0  0  0  0  0  0  0  0  0  0  0  0
   -2.3854    1.8384    3.0772 H   0  0  0  0  0  0  0  0  0  0  0  0
   -0.3283    0.6116   -0.2182 N   0  0  0  0  0  0  0  0  0  0  0  0
    0.0090   -0.1762   -1.3759 C   0  0  2  0  0  0  0  0  0  0  0  0
   -0.8183   -1.4545   -1.3261 C   0  0  0  0  0  0  0  0  0  0  0  0
   -0.3167   -2.5738   -1.2433 O   0  0  0  0  0  0  0  0  0  0  0  0
    1.5002   -0.4970   -1.4329 C   0  0  0  0  0  0  0  0  0  0  0  0
    2.3164    0.7413   -1.7109 C   0  0  0  0  0  0  0  0  0  0  0  0
    1.9059    1.7023   -2.3485 O   0  0  0  0  0  0  0  0  0  0  0  0
    3.5667    0.6690   -1.1912 O   0  0  0  0  0  0  0  0  0  0  0  0
    0.2381    0.4970    0.6194 H   0  0  0  0  0  0  0  0  0  0  0  0
   -0.2987    0.4126   -2.2483 H   0  0  0  0  0  0  0  0  0  0  0  0
    1.8558   -0.8985   -0.4755 H   0  0  0  0  0  0  0  0  0  0  0  0
    1.7340   -1.2647   -2.1805 H   0  0  0  0  0  0  0  0  0  0  0  0
    4.1324    1.4520   -1.3626 H   0  0  0  0  0  0  0  0  0  0  0  0
   -2.1818   -1.1956   -1.3368 N   0  0  0  0  0  0  0  0  0  0  0  0
   -3.1745   -2.2433   -1.2822 C   0  0  2  0  0  0  0  0  0  0  0  0
   -3.0896   -2.9006    0.0890 C   0  0  0  0  0  0  0  0  0  0  0  0
   -2.0836   -2.8543    0.7940 O   0  0  0  0  0  0  0  0  0  0  0  0
   -2.9623   -3.2647   -2.3887 C   0  0  0  0  0  0  0  0  0  0  0  0
   -2.4942   -0.2303   -1.3849 H   0  0  0  0  0  0  0  0  0  0  0  0
   -4.1509   -1.7600   -1.3963 H   0  0  0  0  0  0  0  0  0  0  0  0
   -1.9891   -3.7594   -2.2909 H   0  0  0  0  0  0  0  0  0  0  0  0
   -3.7325   -4.0427   -2.3635 H   0  0  0  0  0  0  0  0  0  0  0  0
   -2.9941   -2.7852   -3.3730 H   0  0  0  0  0  0  0  0  0  0  0  0
   -4.2543   -3.5816    0.4143 N   0  0  0  0  0  0  0  0  0  0  0  0
   -4.4170   -4.2984    1.6576 C   0  0  0  0  0  0  0  0  0  0  0  0
   -5.0454   -3.5508   -0.2220 H   0  0  0  0  0  0  0  0  0  0  0  0
   -4.1243   -5.3493    1.5165 H   0  0  0  0  0  0  0  0  0  0  0  0
   -3.7810   -3.8414    2.4301 H   0  0  0  0  0  0  0  0  0  0  0  0
   -5.4695   -4.2502    1.9735 H   0  0  0  0  0  0  0  0  0  0  0  0
  1  3  1  0  0  0  0
  1  7  1  0  0  0  0
  1  2  2  0  0  0  0
 31 32  1  0  0  0  0
 32 40  1  0  0  0  0
 32 33  2  0  0  0  0
  8  9  1  0  0  0  0
  9 17  1  0  0  0  0
  9 10  2  0  0  0  0
 18 19  1  0  0  0  0
 19 30  1  0  0  0  0
 19 20  2  0  0  0  0
 21 22  1  0  0  0  0
 22 23  2  0  0  0  0
 22 24  1  0  0  0  0
 31 34  1  0  0  0  0
  8 11  1  0  0  0  0
 40 41  1  0  0  0  0
 18 21  1  0  0  0  0
 30 31  1  0  0  0  0
  7  8  1  0  0  0  0
 17 18  1  0  0  0  0
  3  4  1  0  0  0  0
  3  5  1  0  0  0  0
  3  6  1  0  0  0  0
 34 37  1  0  0  0  0
 34 38  1  0  0  0  0
 34 39  1  0  0  0  0
 11 14  1  0  0  0  0
 11 15  1  0  0  0  0
 11 16  1  0  0  0  0
 41 43  1  0  0  0  0
 41 44  1  0  0  0  0
 41 45  1  0  0  0  0
 21 27  1  0  0  0  0
 21 28  1  0  0  0  0
 31 36  1  0  0  0  0
  8 13  1  0  0  0  0
 18 26  1  0  0  0  0
 40 42  1  0  0  0  0
  7 12  1  0  0  0  0
 30 35  1  0  0  0  0
 17 25  1  0  0  0  0
 24 29  1  0  0  0  0
M  END
$$$$

  -OEChem-05262214473D

 45 44  0     1  0  0  0  0  0999 V2000
   -2.2987    4.1032   -0.3022 C   0  0  0  0  0  0  0  0  0  0  0  0
   -1.8049    3.7117   -1.3532 O   0  0  0  0  0  0  0  0  0  0  0  0
   -3.0791    5.3755   -0.2846 C   0  0  0  0  0  0  0  0  0  0  0  0
   -2.4478    6.2532   -0.0717 H   0  0  0  0  0  0  0  0  0  0  0  0
   -3.5571    5.5891   -1.2541 H   0  0  0  0  0  0  0  0  0  0  0  0
   -3.8940    5.4184    0.4556 H   0  0  0  0  0  0  0  0  0  0  0  0
   -2.2137    3.4712    0.9275 N   0  0  0  0  0  0  0  0  0  0  0  0
   -1.5102    2.2327    1.1338 C   0  0  2  0  0  0  0  0  0  0  0  0
   -1.3539    1.5497   -0.2184 C   0  0  0  0  0  0  0  0  0  0  0  0
   -2.0852    1.7861   -1.1778 O   0  0  0  0  0  0  0  0  0  0  0  0
   -2.2477    1.3342    2.1145 C   0  0  0  0  0  0  0  0  0  0  0  0
   -2.6724    3.9052    1.7265 H   0  0  0  0  0  0  0  0  0  0  0  0
   -0.5220    2.4922    1.5290 H   0  0  0  0  0  0  0  0  0  0  0  0
   -3.2400    1.0636    1.7358 H   0  0  0  0  0  0  0  0  0  0  0  0
   -1.6970    0.4046    2.2923 H   0  0  0  0  0  0  0  0  0  0  0  0
   -2.3854    1.8384    3.0772 H   0  0  0  0  0  0  0  0  0  0  0  0
   -0.3283    0.6116   -0.2182 N   0  0  0  0  0  0  0  0  0  0  0  0
    0.0090   -0.1762   -1.3759 C   0  0  2  0  0  0  0  0  0  0  0  0
   -0.8183   -1.4545   -1.3261 C   0  0  0  0  0  0  0  0  0  0  0  0
   -0.3547   -2.5389   -0.9791 O   0  0  0  0  0  0  0  0  0  0  0  0
    1.5002   -0.4970   -1.4329 C   0  0  0  0  0  0  0  0  0  0  0  0
    2.3164    0.7413   -1.7109 C   0  0  0  0  0  0  0  0  0  0  0  0
    1.9059    1.7023   -2.3485 O   0  0  0  0  0  0  0  0  0  0  0  0
    3.5667    0.6690   -1.1912 O   0  0  0  0  0  0  0  0  0  0  0  0
    0.2381    0.4970    0.6194 H   0  0  0  0  0  0  0  0  0  0  0  0
   -0.2987    0.4126   -2.2483 H   0  0  0  0  0  0  0  0  0  0  0  0
    1.8558   -0.8985   -0.4755 H   0  0  0  0  0  0  0  0  0  0  0  0
    1.7340   -1.2647   -2.1805 H   0  0  0  0  0  0  0  0  0  0  0  0
    4.1324    1.4520   -1.3626 H   0  0  0  0  0  0  0  0  0  0  0  0
   -2.1449   -1.2324   -1.6683 N   0  0  0  0  0  0  0  0  0  0  0  0
   -3.1330   -2.2857   -1.6823 C   0  0  2  0  0  0  0  0  0  0  0  0
   -3.3534   -2.7429   -0.2464 C   0  0  0  0  0  0  0  0  0  0  0  0
   -2.5248   -2.5745    0.6459 O   0  0  0  0  0  0  0  0  0  0  0  0
   -2.6922   -3.4462   -2.5607 C   0  0  0  0  0  0  0  0  0  0  0  0
   -2.4325   -0.2910   -1.9190 H   0  0  0  0  0  0  0  0  0  0  0  0
   -4.0577   -1.8467   -2.0724 H   0  0  0  0  0  0  0  0  0  0  0  0
   -1.7671   -3.8989   -2.1855 H   0  0  0  0  0  0  0  0  0  0  0  0
   -3.4549   -4.2313   -2.5931 H   0  0  0  0  0  0  0  0  0  0  0  0
   -2.5054   -3.1098   -3.5862 H   0  0  0  0  0  0  0  0  0  0  0  0
   -4.5658   -3.3995   -0.0880 N   0  0  0  0  0  0  0  0  0  0  0  0
   -5.0004   -3.9394    1.1791 C   0  0  0  0  0  0  0  0  0  0  0  0
   -5.1991   -3.4769   -0.8784 H   0  0  0  0  0  0  0  0  0  0  0  0
   -4.6915   -4.9924    1.2549 H   0  0  0  0  0  0  0  0  0  0  0  0
   -4.5447   -3.3639    1.9984 H   0  0  0  0  0  0  0  0  0  0  0  0
   -6.0961   -3.8729    1.2495 H   0  0  0  0  0  0  0  0  0  0  0  0
  1  3  1  0  0  0  0
  1  7  1  0  0  0  0
  1  2  2  0  0  0  0
 31 32  1  0  0  0  0
 32 40  1  0  0  0  0
 32 33  2  0  0  0  0
  8  9  1  0  0  0  0
  9 17  1  0  0  0  0
  9 10  2  0  0  0  0
 18 19  1  0  0  0  0
 19 30  1  0  0  0  0
 19 20  2  0  0  0  0
 21 22  1  0  0  0  0
 22 23  2  0  0  0  0
 22 24  1  0  0  0  0
 31 34  1  0  0  0  0
  8 11  1  0  0  0  0
 40 41  1  0  0  0  0
 18 21  1  0  0  0  0
 30 31  1  0  0  0  0
  7  8  1  0  0  0  0
 17 18  1  0  0  0  0
  3  4  1  0  0  0  0
  3  5  1  0  0  0  0
  3  6  1  0  0  0  0
 34 37  1  0  0  0  0
 34 38  1  0  0  0  0
 34 39  1  0  0  0  0
 11 14  1  0  0  0  0
 11 15  1  0  0  0  0
 11 16  1  0  0  0  0
 41 43  1  0  0  0  0
 41 44  1  0  0  0  0
 41 45  1  0  0  0  0
 21 27  1  0  0  0  0
 21 28  1  0  0  0  0
 31 36  1  0  0  0  0
  8 13  1  0  0  0  0
 18 26  1  0  0  0  0
 40 42  1  0  0  0  0
  7 12  1  0  0  0  0
 30 35  1  0  0  0  0
 17 25  1  0  0  0  0
 24 29  1  0  0  0  0
M  END
$$$$

  -OEChem-05262214473D

 45 44  0     1  0  0  0  0  0999 V2000
   -2.2987    4.1032   -0.3022 C   0  0  0  0  0  0  0  0  0  0  0  0
   -1.8049    3.7117   -1.3532 O   0  0  0  0  0  0  0  0  0  0  0  0
   -3.0791    5.3755   -0.2846 C   0  0  0  0  0  0  0  0  0  0  0  0
   -2.4478    6.2532   -0.0717 H   0  0  0  0  0  0  0  0  0  0  0  0
   -3.5571    5.5891   -1.2541 H   0  0  0  0  0  0  0  0  0  0  0  0
   -3.8940    5.4184    0.4556 H   0  0  0  0  0  0  0  0  0  0  0  0
   -2.2137    3.4712    0.9275 N   0  0  0  0  0  0  0  0  0  0  0  0
   -1.5102    2.2327    1.1338 C   0  0  2  0  0  0  0  0  0  0  0  0
   -1.3539    1.5497   -0.2184 C   0  0  0  0  0  0  0  0  0  0  0  0
   -2.0852    1.7861   -1.1778 O   0  0  0  0  0  0  0  0  0  0  0  0
   -2.2477    1.3342    2.1145 C   0  0  0  0  0  0  0  0  0  0  0  0
   -2.6724    3.9052    1.7265 H   0  0  0  0  0  0  0  0  0  0  0  0
   -0.5220    2.4922    1.5290 H   0  0  0  0  0  0  0  0  0  0  0  0
   -3.2400    1.0636    1.7358 H   0  0  0  0  0  0  0  0  0  0  0  0
   -1.6970    0.4046    2.2923 H   0  0  0  0  0  0  0  0  0  0  0  0
   -2.3854    1.8384    3.0772 H   0  0  0  0  0  0  0  0  0  0  0  0
   -0.3283    0.6116   -0.2182 N   0  0  0  0  0  0  0  0  0  0  0  0
    0.0090   -0.1762   -1.3759 C   0  0  2  0  0  0  0  0  0  0  0  0
   -0.8183   -1.4545   -1.3261 C   0  0  0  0  0  0  0  0  0  0  0  0
   -0.4491   -2.4684   -0.7371 O   0  0  0  0  0  0  0  0  0  0  0  0
    1.5002   -0.4970   -1.4329 C   0  0  0  0  0  0  0  0  0  0  0  0
    2.3164    0.7413   -1.7109 C   0  0  0  0  0  0  0  0  0  0  0  0
    1.9059    1.7023   -2.3485 O   0  0  0  0  0  0  0  0  0  0  0  0
    3.5667    0.6690   -1.1912 O   0  0  0  0  0  0  0  0  0  0  0  0
    0.2381    0.4970    0.6194 H   0  0  0  0  0  0  0  0  0  0  0  0
   -0.2987    0.4126   -2.2483 H   0  0  0  0  0  0  0  0  0  0  0  0
    1.8558   -0.8985   -0.4755 H   0  0  0  0  0  0  0  0  0  0  0  0
    1.7340   -1.2647   -2.1805 H   0  0  0  0  0  0  0  0  0  0  0  0
    4.1324    1.4520   -1.3626 H   0  0  0  0  0  0  0  0  0  0  0  0
   -2.0369   -1.3142   -1.9753 N   0  0  0  0  0  0  0  0  0  0  0  0
   -3.0057   -2.3825   -2.0538 C   0  0  2  0  0  0  0  0  0  0  0  0
   -3.5367   -2.6400   -0.6498 C   0  0  0  0  0  0  0  0  0  0  0  0
   -2.9212   -2.3288    0.3677 O   0  0  0  0  0  0  0  0  0  0  0  0
   -2.3924   -3.6434   -2.6427 C   0  0  0  0  0  0  0  0  0  0  0  0
   -2.2563   -0.4242   -2.4130 H   0  0  0  0  0  0  0  0  0  0  0  0
   -3.8201   -2.0246   -2.6930 H   0  0  0  0  0  0  0  0  0  0  0  0
   -1.5745   -4.0170   -2.0159 H   0  0  0  0  0  0  0  0  0  0  0  0
   -3.1353   -4.4434   -2.7280 H   0  0  0  0  0  0  0  0  0  0  0  0
   -1.9844   -3.4491   -3.6405 H   0  0  0  0  0  0  0  0  0  0  0  0
   -4.7591   -3.2969   -0.6665 N   0  0  0  0  0  0  0  0  0  0  0  0
   -5.4630   -3.6649    0.5398 C   0  0  0  0  0  0  0  0  0  0  0  0
   -5.2057   -3.4990   -1.5562 H   0  0  0  0  0  0  0  0  0  0  0  0
   -5.1855   -4.6893    0.8288 H   0  0  0  0  0  0  0  0  0  0  0  0
   -5.1926   -2.9698    1.3484 H   0  0  0  0  0  0  0  0  0  0  0  0
   -6.5473   -3.6154    0.3610 H   0  0  0  0  0  0  0  0  0  0  0  0
  1  3  1  0  0  0  0
  1  7  1  0  0  0  0
  1  2  2  0  0  0  0
 31 32  1  0  0  0  0
 32 40  1  0  0  0  0
 32 33  2  0  0  0  0
  8  9  1  0  0  0  0
  9 17  1  0  0  0  0
  9 10  2  0  0  0  0
 18 19  1  0  0  0  0
 19 30  1  0  0  0  0
 19 20  2  0  0  0  0
 21 22  1  0  0  0  0
 22 23  2  0  0  0  0
 22 24  1  0  0  0  0
 31 34  1  0  0  0  0
  8 11  1  0  0  0  0
 40 41  1  0  0  0  0
 18 21  1  0  0  0  0
 30 31  1  0  0  0  0
  7  8  1  0  0  0  0
 17 18  1  0  0  0  0
  3  4  1  0  0  0  0
  3  5  1  0  0  0  0
  3  6  1  0  0  0  0
 34 37  1  0  0  0  0
 34 38  1  0  0  0  0
 34 39  1  0  0  0  0
 11 14  1  0  0  0  0
 11 15  1  0  0  0  0
 11 16  1  0  0  0  0
 41 43  1  0  0  0  0
 41 44  1  0  0  0  0
 41 45  1  0  0  0  0
 21 27  1  0  0  0  0
 21 28  1  0  0  0  0
 31 36  1  0  0  0  0
  8 13  1  0  0  0  0
 18 26  1  0  0  0  0
 40 42  1  0  0  0  0
  7 12  1  0  0  0  0
 30 35  1  0  0  0  0
 17 25  1  0  0  0  0
 24 29  1  0  0  0  0
M  END
$$$$

  -OEChem-05262214473D

 45 44  0     1  0  0  0  0  0999 V2000
   -2.2987    4.1032   -0.3022 C   0  0  0  0  0  0  0  0  0  0  0  0
   -1.8049    3.7117   -1.3532 O   0  0  0  0  0  0  0  0  0  0  0  0
   -3.0791    5.3755   -0.2846 C   0  0  0  0  0  0  0  0  0  0  0  0
   -2.4478    6.2532   -0.0717 H   0  0  0  0  0  0  0  0  0  0  0  0
   -3.5571    5.5891   -1.2541 H   0  0  0  0  0  0  0  0  0  0  0  0
   -3.8940    5.4184    0.4556 H   0  0  0  0  0  0  0  0  0  0  0  0
   -2.2137    3.4712    0.9275 N   0  0  0  0  0  0  0  0  0  0  0  0
   -1.5102    2.2327    1.1338 C   0  0  2  0  0  0  0  0  0  0  0  0
   -1.3539    1.5497   -0.2184 C   0  0  0  0  0  0  0  0  0  0  0  0
   -2.0852    1.7861   -1.1778 O   0  0  0  0  0  0  0  0  0  0  0  0
   -2.2477    1.3342    2.1145 C   0  0  0  0  0  0  0  0  0  0  0  0
   -2.6724    3.9052    1.7265 H   0  0  0  0  0  0  0  0  0  0  0  0
   -0.5220    2.4922    1.5290 H   0  0  0  0  0  0  0  0  0  0  0  0
   -3.2400    1.0636    1.7358 H   0  0  0  0  0  0  0  0  0  0  0  0
   -1.6970    0.4046    2.2923 H   0  0  0  0  0  0  0  0  0  0  0  0
   -2.3854    1.8384    3.0772 H   0  0  0  0  0  0  0  0  0  0  0  0
   -0.3283    0.6116   -0.2182 N   0  0  0  0  0  0  0  0  0  0  0  0
    0.0090   -0.1762   -1.3759 C   0  0  2  0  0  0  0  0  0  0  0  0
   -0.8183   -1.4545   -1.3261 C   0  0  0  0  0  0  0  0  0  0  0  0
   -0.5934   -2.3671   -0.5337 O   0  0  0  0  0  0  0  0  0  0  0  0
    1.5002   -0.4970   -1.4329 C   0  0  0  0  0  0  0  0  0  0  0  0
    2.3164    0.7413   -1.7109 C   0  0  0  0  0  0  0  0  0  0  0  0
    1.9059    1.7023   -2.3485 O   0  0  0  0  0  0  0  0  0  0  0  0
    3.5667    0.6690   -1.1912 O   0  0  0  0  0  0  0  0  0  0  0  0
    0.2381    0.4970    0.6194 H   0  0  0  0  0  0  0  0  0  0  0  0
   -0.2987    0.4126   -2.2483 H   0  0  0  0  0  0  0  0  0  0  0  0
    1.8558   -0.8985   -0.4755 H   0  0  0  0  0  0  0  0  0  0  0  0
    1.7340   -1.2647   -2.1805 H   0  0  0  0  0  0  0  0  0  0  0  0
    4.1324    1.4520   -1.3626 H   0  0  0  0  0  0  0  0  0  0  0  0
   -1.8653   -1.4355   -2.2370 N   0  0  0  0  0  0  0  0  0  0  0  0
   -2.8012   -2.5272   -2.3715 C   0  0  2  0  0  0  0  0  0  0  0  0
   -3.6271   -2.5988   -1.0938 C   0  0  0  0  0  0  0  0  0  0  0  0
   -3.2457   -2.1339   -0.0217 O   0  0  0  0  0  0  0  0  0  0  0  0
   -2.0834   -3.8429   -2.6291 C   0  0  0  0  0  0  0  0  0  0  0  0
   -1.9778   -0.6209   -2.8332 H   0  0  0  0  0  0  0  0  0  0  0  0
   -3.4544   -2.2817   -3.2159 H   0  0  0  0  0  0  0  0  0  0  0  0
   -1.4242   -4.1056   -1.7936 H   0  0  0  0  0  0  0  0  0  0  0  0
   -2.7955   -4.6646   -2.7592 H   0  0  0  0  0  0  0  0  0  0  0  0
   -1.4665   -3.7801   -3.5320 H   0  0  0  0  0  0  0  0  0  0  0  0
   -4.8211   -3.2807   -1.2817 N   0  0  0  0  0  0  0  0  0  0  0  0
   -5.7734   -3.4934   -0.2169 C   0  0  0  0  0  0  0  0  0  0  0  0
   -5.0646   -3.6158   -2.2092 H   0  0  0  0  0  0  0  0  0  0  0  0
   -5.5728   -4.4605    0.2674 H   0  0  0  0  0  0  0  0  0  0  0  0
   -5.6807   -2.6860    0.5244 H   0  0  0  0  0  0  0  0  0  0  0  0
   -6.7923   -3.4955   -0.6313 H   0  0  0  0  0  0  0  0  0  0  0  0
  1  3  1  0  0  0  0
  1  7  1  0  0  0  0
  1  2  2  0  0  0  0
 31 32  1  0  0  0  0
 32 40  1  0  0  0  0
 32 33  2  0  0  0  0
  8  9  1  0  0  0  0
  9 17  1  0  0  0  0
  9 10  2  0  0  0  0
 18 19  1  0  0  0  0
 19 30  1  0  0  0  0
 19 20  2  0  0  0  0
 21 22  1  0  0  0  0
 22 23  2  0  0  0  0
 22 24  1  0  0  0  0
 31 34  1  0  0  0  0
  8 11  1  0  0  0  0
 40 41  1  0  0  0  0
 18 21  1  0  0  0  0
 30 31  1  0  0  0  0
  7  8  1  0  0  0  0
 17 18  1  0  0  0  0
  3  4  1  0  0  0  0
  3  5  1  0  0  0  0
  3  6  1  0  0  0  0
 34 37  1  0  0  0  0
 34 38  1  0  0  0  0
 34 39  1  0  0  0  0
 11 14  1  0  0  0  0
 11 15  1  0  0  0  0
 11 16  1  0  0  0  0
 41 43  1  0  0  0  0
 41 44  1  0  0  0  0
 41 45  1  0  0  0  0
 21 27  1  0  0  0  0
 21 28  1  0  0  0  0
 31 36  1  0  0  0  0
  8 13  1  0  0  0  0
 18 26  1  0  0  0  0
 40 42  1  0  0  0  0
  7 12  1  0  0  0  0
 30 35  1  0  0  0  0
 17 25  1  0  0  0  0
 24 29  1  0  0  0  0
M  END
$$$$

  -OEChem-05262214473D

 45 44  0     1  0  0  0  0  0999 V2000
   -2.2987    4.1032   -0.3022 C   0  0  0  0  0  0  0  0  0  0  0  0
   -1.8049    3.7117   -1.3532 O   0  0  0  0  0  0  0  0  0  0  0  0
   -3.0791    5.3755   -0.2846 C   0  0  0  0  0  0  0  0  0  0  0  0
   -2.4478    6.2532   -0.0717 H   0  0  0  0  0  0  0  0  0  0  0  0
   -3.5571    5.5891   -1.2541 H   0  0  0  0  0  0  0  0  0  0  0  0
   -3.8940    5.4184    0.4556 H   0  0  0  0  0  0  0  0  0  0  0  0
   -2.2137    3.4712    0.9275 N   0  0  0  0  0  0  0  0  0  0  0  0
   -1.5102    2.2327    1.1338 C   0  0  2  0  0  0  0  0  0  0  0  0
   -1.3539    1.5497   -0.2184 C   0  0  0  0  0  0  0  0  0  0  0  0
   -2.0852    1.7861   -1.1778 O   0  0  0  0  0  0  0  0  0  0  0  0
   -2.2477    1.3342    2.1145 C   0  0  0  0  0  0  0  0  0  0  0  0
   -2.6724    3.9052    1.7265 H   0  0  0  0  0  0  0  0  0  0  0  0
   -0.5220    2.4922    1.5290 H   0  0  0  0  0  0  0  0  0  0  0  0
   -3.2400    1.0636    1.7358 H   0  0  0  0  0  0  0  0  0  0  0  0
   -1.6970    0.4046    2.2923 H   0  0  0  0  0  0  0  0  0  0  0  0
   -2.3854    1.8384    3.0772 H   0  0  0  0  0  0  0  0  0  0  0  0
   -0.3283    0.6116   -0.2182 N   0  0  0  0  0  0  0  0  0  0  0  0
    0.0090   -0.1762   -1.3759 C   0  0  2  0  0  0  0  0  0  0  0  0
   -0.8183   -1.4545   -1.3261 C   0  0  0  0  0  0  0  0  0  0  0  0
   -0.7778   -2.2418   -0.3829 O   0  0  0  0  0  0  0  0  0  0  0  0
    1.5002   -0.4970   -1.4329 C   0  0  0  0  0  0  0  0  0  0  0  0
    2.3164    0.7413   -1.7109 C   0  0  0  0  0  0  0  0  0  0  0  0
    1.9059    1.7023   -2.3485 O   0  0  0  0  0  0  0  0  0  0  0  0
    3.5667    0.6690   -1.1912 O   0  0  0  0  0  0  0  0  0  0  0  0
    0.2381    0.4970    0.6194 H   0  0  0  0  0  0  0  0  0  0  0  0
   -0.2987    0.4126   -2.2483 H   0  0  0  0  0  0  0  0  0  0  0  0
    1.8558   -0.8985   -0.4755 H   0  0  0  0  0  0  0  0  0  0  0  0
    1.7340   -1.2647   -2.1805 H   0  0  0  0  0  0  0  0  0  0  0  0
    4.1324    1.4520   -1.3626 H   0  0  0  0  0  0  0  0  0  0  0  0
   -1.6416   -1.5880   -2.4354 N   0  0  0  0  0  0  0  0  0  0  0  0
   -2.5335   -2.7099   -2.6135 C   0  0  2  0  0  0  0  0  0  0  0  0
   -3.6183   -2.6221   -1.5481 C   0  0  0  0  0  0  0  0  0  0  0  0
   -3.4762   -2.0031   -0.4956 O   0  0  0  0  0  0  0  0  0  0  0  0
   -1.7862   -4.0311   -2.5207 C   0  0  0  0  0  0  0  0  0  0  0  0
   -1.6159   -0.8675   -3.1509 H   0  0  0  0  0  0  0  0  0  0  0  0
   -2.9853   -2.6004   -3.6054 H   0  0  0  0  0  0  0  0  0  0  0  0
   -1.3266   -4.1587   -1.5338 H   0  0  0  0  0  0  0  0  0  0  0  0
   -2.4586   -4.8797   -2.6843 H   0  0  0  0  0  0  0  0  0  0  0  0
   -0.9870   -4.0802   -3.2683 H   0  0  0  0  0  0  0  0  0  0  0  0
   -4.7475   -3.3521   -1.8917 N   0  0  0  0  0  0  0  0  0  0  0  0
   -5.9103   -3.4368   -1.0392 C   0  0  0  0  0  0  0  0  0  0  0  0
   -4.7856   -3.8191   -2.7929 H   0  0  0  0  0  0  0  0  0  0  0  0
   -5.8268   -4.3217   -0.3911 H   0  0  0  0  0  0  0  0  0  0  0  0
   -5.9756   -2.5318   -0.4173 H   0  0  0  0  0  0  0  0  0  0  0  0
   -6.8145   -3.5211   -1.6599 H   0  0  0  0  0  0  0  0  0  0  0  0
  1  3  1  0  0  0  0
  1  7  1  0  0  0  0
  1  2  2  0  0  0  0
 31 32  1  0  0  0  0
 32 40  1  0  0  0  0
 32 33  2  0  0  0  0
  8  9  1  0  0  0  0
  9 17  1  0  0  0  0
  9 10  2  0  0  0  0
 18 19  1  0  0  0  0
 19 30  1  0  0  0  0
 19 20  2  0  0  0  0
 21 22  1  0  0  0  0
 22 23  2  0  0  0  0
 22 24  1  0  0  0  0
 31 34  1  0  0  0  0
  8 11  1  0  0  0  0
 40 41  1  0  0  0  0
 18 21  1  0  0  0  0
 30 31  1  0  0  0  0
  7  8  1  0  0  0  0
 17 18  1  0  0  0  0
  3  4  1  0  0  0  0
  3  5  1  0  0  0  0
  3  6  1  0  0  0  0
 34 37  1  0  0  0  0
 34 38  1  0  0  0  0
 34 39  1  0  0  0  0
 11 14  1  0  0  0  0
 11 15  1  0  0  0  0
 11 16  1  0  0  0  0
 41 43  1  0  0  0  0
 41 44  1  0  0  0  0
 41 45  1  0  0  0  0
 21 27  1  0  0  0  0
 21 28  1  0  0  0  0
 31 36  1  0  0  0  0
  8 13  1  0  0  0  0
 18 26  1  0  0  0  0
 40 42  1  0  0  0  0
  7 12  1  0  0  0  0
 30 35  1  0  0  0  0
 17 25  1  0  0  0  0
 24 29  1  0  0  0  0
M  END
$$$$

  -OEChem-05262214473D

 45 44  0     1  0  0  0  0  0999 V2000
   -2.2987    4.1032   -0.3022 C   0  0  0  0  0  0  0  0  0  0  0  0
   -1.8049    3.7117   -1.3532 O   0  0  0  0  0  0  0  0  0  0  0  0
   -3.0791    5.3755   -0.2846 C   0  0  0  0  0  0  0  0  0  0  0  0
   -2.4478    6.2532   -0.0717 H   0  0  0  0  0  0  0  0  0  0  0  0
   -3.5571    5.5891   -1.2541 H   0  0  0  0  0  0  0  0  0  0  0  0
   -3.8940    5.4184    0.4556 H   0  0  0  0  0  0  0  0  0  0  0  0
   -2.2137    3.4712    0.9275 N   0  0  0  0  0  0  0  0  0  0  0  0
   -1.5102    2.2327    1.1338 C   0  0  2  0  0  0  0  0  0  0  0  0
   -1.3539    1.5497   -0.2184 C   0  0  0  0  0  0  0  0  0  0  0  0
   -2.0852    1.7861   -1.1778 O   0  0  0  0  0  0  0  0  0  0  0  0
   -2.2477    1.3342    2.1145 C   0  0  0  0  0  0  0  0  0  0  0  0
   -2.6724    3.9052    1.7265 H   0  0  0  0  0  0  0  0  0  0  0  0
   -0.5220    2.4922    1.5290 H   0  0  0  0  0  0  0  0  0  0  0  0
   -3.2400    1.0636    1.7358 H   0  0  0  0  0  0  0  0  0  0  0  0
   -1.6970    0.4046    2.2923 H   0  0  0  0  0  0  0  0  0  0  0  0
   -2.3854    1.8384    3.0772 H   0  0  0  0  0  0  0  0  0  0  0  0
   -0.3283    0.6116   -0.2182 N   0  0  0  0  0  0  0  0  0  0  0  0
    0.0090   -0.1762   -1.3759 C   0  0  2  0  0  0  0  0  0  0  0  0
   -0.8183   -1.4545   -1.3261 C   0  0  0  0  0  0  0  0  0  0  0  0
   -0.9897   -2.1012   -0.2948 O   0  0  0  0  0  0  0  0  0  0  0  0
    1.5002   -0.4970   -1.4329 C   0  0  0  0  0  0  0  0  0  0  0  0
    2.3164    0.7413   -1.7109 C   0  0  0  0  0  0  0  0  0  0  0  0
    1.9059    1.7023   -2.3485 O   0  0  0  0  0  0  0  0  0  0  0  0
    3.5667    0.6690   -1.1912 O   0  0  0  0  0  0  0  0  0  0  0  0
    0.2381    0.4970    0.6194 H   0  0  0  0  0  0  0  0  0  0  0  0
   -0.2987    0.4126   -2.2483 H   0  0  0  0  0  0  0  0  0  0  0  0
    1.8558   -0.8985   -0.4755 H   0  0  0  0  0  0  0  0  0  0  0  0
    1.7340   -1.2647   -2.1805 H   0  0  0  0  0  0  0  0  0  0  0  0
    4.1324    1.4520   -1.3626 H   0  0  0  0  0  0  0  0  0  0  0  0
   -1.3812   -1.7613   -2.5570 N   0  0  0  0  0  0  0  0  0  0  0  0
   -2.2208   -2.9181   -2.7635 C   0  0  2  0  0  0  0  0  0  0  0  0
   -3.5109   -2.7085   -1.9817 C   0  0  0  0  0  0  0  0  0  0  0  0
   -3.5971   -1.9454   -1.0218 O   0  0  0  0  0  0  0  0  0  0  0  0
   -1.5210   -4.1951   -2.3251 C   0  0  0  0  0  0  0  0  0  0  0  0
   -1.1952   -1.1473   -3.3446 H   0  0  0  0  0  0  0  0  0  0  0  0
   -2.4450   -2.9590   -3.8350 H   0  0  0  0  0  0  0  0  0  0  0  0
   -1.2883   -4.1726   -1.2542 H   0  0  0  0  0  0  0  0  0  0  0  0
   -2.1476   -5.0741   -2.5087 H   0  0  0  0  0  0  0  0  0  0  0  0
   -0.5786   -4.3289   -2.8672 H   0  0  0  0  0  0  0  0  0  0  0  0
   -4.5434   -3.5061   -2.4549 N   0  0  0  0  0  0  0  0  0  0  0  0
   -5.8645   -3.4989   -1.8712 C   0  0  0  0  0  0  0  0  0  0  0  0
   -4.3876   -4.0952   -3.2676 H   0  0  0  0  0  0  0  0  0  0  0  0
   -5.9304   -4.2823   -1.1019 H   0  0  0  0  0  0  0  0  0  0  0  0
   -6.0572   -2.5177   -1.4126 H   0  0  0  0  0  0  0  0  0  0  0  0
   -6.6124   -3.6907   -2.6547 H   0  0  0  0  0  0  0  0  0  0  0  0
  1  3  1  0  0  0  0
  1  7  1  0  0  0  0
  1  2  2  0  0  0  0
 31 32  1  0  0  0  0
 32 40  1  0  0  0  0
 32 33  2  0  0  0  0
  8  9  1  0  0  0  0
  9 17  1  0  0  0  0
  9 10  2  0  0  0  0
 18 19  1  0  0  0  0
 19 30  1  0  0  0  0
 19 20  2  0  0  0  0
 21 22  1  0  0  0  0
 22 23  2  0  0  0  0
 22 24  1  0  0  0  0
 31 34  1  0  0  0  0
  8 11  1  0  0  0  0
 40 41  1  0  0  0  0
 18 21  1  0  0  0  0
 30 31  1  0  0  0  0
  7  8  1  0  0  0  0
 17 18  1  0  0  0  0
  3  4  1  0  0  0  0
  3  5  1  0  0  0  0
  3  6  1  0  0  0  0
 34 37  1  0  0  0  0
 34 38  1  0  0  0  0
 34 39  1  0  0  0  0
 11 14  1  0  0  0  0
 11 15  1  0  0  0  0
 11 16  1  0  0  0  0
 41 43  1  0  0  0  0
 41 44  1  0  0  0  0
 41 45  1  0  0  0  0
 21 27  1  0  0  0  0
 21 28  1  0  0  0  0
 31 36  1  0  0  0  0
  8 13  1  0  0  0  0
 18 26  1  0  0  0  0
 40 42  1  0  0  0  0
  7 12  1  0  0  0  0
 30 35  1  0  0  0  0
 17 25  1  0  0  0  0
 24 29  1  0  0  0  0
M  END
$$$$

  -OEChem-05262214473D

 45 44  0     1  0  0  0  0  0999 V2000
   -2.2987    4.1032   -0.3022 C   0  0  0  0  0  0  0  0  0  0  0  0
   -1.8049    3.7117   -1.3532 O   0  0  0  0  0  0  0  0  0  0  0  0
   -3.0791    5.3755   -0.2846 C   0  0  0  0  0  0  0  0  0  0  0  0
   -2.4478    6.2532   -0.0717 H   0  0  0  0  0  0  0  0  0  0  0  0
   -3.5571    5.5891   -1.2541 H   0  0  0  0  0  0  0  0  0  0  0  0
   -3.8940    5.4184    0.4556 H   0  0  0  0  0  0  0  0  0  0  0  0
   -2.2137    3.4712    0.9275 N   0  0  0  0  0  0  0  0  0  0  0  0
   -1.5102    2.2327    1.1338 C   0  0  2  0  0  0  0  0  0  0  0  0
   -1.3539    1.5497   -0.2184 C   0  0  0  0  0  0  0  0  0  0  0  0
   -2.0852    1.7861   -1.1778 O   0  0  0  0  0  0  0  0  0  0  0  0
   -2.2477    1.3342    2.1145 C   0  0  0  0  0  0  0  0  0  0  0  0
   -2.6724    3.9052    1.7265 H   0  0  0  0  0  0  0  0  0  0  0  0
   -0.5220    2.4922    1.5290 H   0  0  0  0  0  0  0  0  0  0  0  0
   -3.2400    1.0636    1.7358 H   0  0  0  0  0  0  0  0  0  0  0  0
   -1.6970    0.4046    2.2923 H   0  0  0  0  0  0  0  0  0  0  0  0
   -2.3854    1.8384    3.0772 H   0  0  0  0  0  0  0  0  0  0  0  0
   -0.3283    0.6116   -0.2182 N   0  0  0  0  0  0  0  0  0  0  0  0
    0.0090   -0.1762   -1.3759 C   0  0  2  0  0  0  0  0  0  0  0  0
   -0.8183   -1.4545   -1.3261 C   0  0  0  0  0  0  0  0  0  0  0  0
   -1.2148   -1.9548   -0.2755 O   0  0  0  0  0  0  0  0  0  0  0  0
    1.5002   -0.4970   -1.4329 C   0  0  0  0  0  0  0  0  0  0  0  0
    2.3164    0.7413   -1.7109 C   0  0  0  0  0  0  0  0  0  0  0  0
    1.9059    1.7023   -2.3485 O   0  0  0  0  0  0  0  0  0  0  0  0
    3.5667    0.6690   -1.1912 O   0  0  0  0  0  0  0  0  0  0  0  0
    0.2381    0.4970    0.6194 H   0  0  0  0  0  0  0  0  0  0  0  0
   -0.2987    0.4126   -2.2483 H   0  0  0  0  0  0  0  0  0  0  0  0
    1.8558   -0.8985   -0.4755 H   0  0  0  0  0  0  0  0  0  0  0  0
    1.7340   -1.2647   -2.1805 H   0  0  0  0  0  0  0  0  0  0  0  0
    4.1324    1.4520   -1.3626 H   0  0  0  0  0  0  0  0  0  0  0  0
   -1.1018   -1.9435   -2.5936 N   0  0  0  0  0  0  0  0  0  0  0  0
   -1.8845   -3.1377   -2.8112 C   0  0  2  0  0  0  0  0  0  0  0  0
   -3.3123   -2.8520   -2.3650 C   0  0  0  0  0  0  0  0  0  0  0  0
   -3.6001   -1.9646   -1.5645 O   0  0  0  0  0  0  0  0  0  0  0  0
   -1.3059   -4.3238   -2.0555 C   0  0  0  0  0  0  0  0  0  0  0  0
   -0.7444   -1.4413   -3.4010 H   0  0  0  0  0  0  0  0  0  0  0  0
   -1.8702   -3.3332   -3.8890 H   0  0  0  0  0  0  0  0  0  0  0  0
   -1.3119   -4.1464   -0.9738 H   0  0  0  0  0  0  0  0  0  0  0  0
   -1.8838   -5.2346   -2.2442 H   0  0  0  0  0  0  0  0  0  0  0  0
   -0.2691   -4.5093   -2.3561 H   0  0  0  0  0  0  0  0  0  0  0  0
   -4.2226   -3.7324   -2.9328 N   0  0  0  0  0  0  0  0  0  0  0  0
   -5.6390   -3.6753   -2.6562 C   0  0  0  0  0  0  0  0  0  0  0  0
   -3.8977   -4.4252   -3.6008 H   0  0  0  0  0  0  0  0  0  0  0  0
   -5.8764   -4.3451   -1.8165 H   0  0  0  0  0  0  0  0  0  0  0  0
   -5.9200   -2.6447   -2.3938 H   0  0  0  0  0  0  0  0  0  0  0  0
   -6.1997   -3.9925   -3.5478 H   0  0  0  0  0  0  0  0  0  0  0  0
  1  3  1  0  0  0  0
  1  7  1  0  0  0  0
  1  2  2  0  0  0  0
 31 32  1  0  0  0  0
 32 40  1  0  0  0  0
 32 33  2  0  0  0  0
  8  9  1  0  0  0  0
  9 17  1  0  0  0  0
  9 10  2  0  0  0  0
 18 19  1  0  0  0  0
 19 30  1  0  0  0  0
 19 20  2  0  0  0  0
 21 22  1  0  0  0  0
 22 23  2  0  0  0  0
 22 24  1  0  0  0  0
 31 34  1  0  0  0  0
  8 11  1  0  0  0  0
 40 41  1  0  0  0  0
 18 21  1  0  0  0  0
 30 31  1  0  0  0  0
  7  8  1  0  0  0  0
 17 18  1  0  0  0  0
  3  4  1  0  0  0  0
  3  5  1  0  0  0  0
  3  6  1  0  0  0  0
 34 37  1  0  0  0  0
 34 38  1  0  0  0  0
 34 39  1  0  0  0  0
 11 14  1  0  0  0  0
 11 15  1  0  0  0  0
 11 16  1  0  0  0  0
 41 43  1  0  0  0  0
 41 44  1  0  0  0  0
 41 45  1  0  0  0  0
 21 27  1  0  0  0  0
 21 28  1  0  0  0  0
 31 36  1  0  0  0  0
  8 13  1  0  0  0  0
 18 26  1  0  0  0  0
 40 42  1  0  0  0  0
  7 12  1  0  0  0  0
 30 35  1  0  0  0  0
 17 25  1  0  0  0  0
 24 29  1  0  0  0  0
M  END
$$$$

  -OEChem-05262214473D

 45 44  0     1  0  0  0  0  0999 V2000
   -2.2987    4.1032   -0.3022 C   0  0  0  0  0  0  0  0  0  0  0  0
   -1.8049    3.7117   -1.3532 O   0  0  0  0  0  0  0  0  0  0  0  0
   -3.0791    5.3755   -0.2846 C   0  0  0  0  0  0  0  0  0  0  0  0
   -2.4478    6.2532   -0.0717 H   0  0  0  0  0  0  0  0  0  0  0  0
   -3.5571    5.5891   -1.2541 H   0  0  0  0  0  0  0  0  0  0  0  0
   -3.8940    5.4184    0.4556 H   0  0  0  0  0  0  0  0  0  0  0  0
   -2.2137    3.4712    0.9275 N   0  0  0  0  0  0  0  0  0  0  0  0
   -1.5102    2.2327    1.1338 C   0  0  2  0  0  0  0  0  0  0  0  0
   -1.3539    1.5497   -0.2184 C   0  0  0  0  0  0  0  0  0  0  0  0
   -2.0852    1.7861   -1.1778 O   0  0  0  0  0  0  0  0  0  0  0  0
   -2.2477    1.3342    2.1145 C   0  0  0  0  0  0  0  0  0  0  0  0
   -2.6724    3.9052    1.7265 H   0  0  0  0  0  0  0  0  0  0  0  0
   -0.5220    2.4922    1.5290 H   0  0  0  0  0  0  0  0  0  0  0  0
   -3.2400    1.0636    1.7358 H   0  0  0  0  0  0  0  0  0  0  0  0
   -1.6970    0.4046    2.2923 H   0  0  0  0  0  0  0  0  0  0  0  0
   -2.3854    1.8384    3.0772 H   0  0  0  0  0  0  0  0  0  0  0  0
   -0.3283    0.6116   -0.2182 N   0  0  0  0  0  0  0  0  0  0  0  0
    0.0090   -0.1762   -1.3759 C   0  0  2  0  0  0  0  0  0  0  0  0
   -0.8183   -1.4545   -1.3261 C   0  0  0  0  0  0  0  0  0  0  0  0
   -1.4376   -1.8126   -0.3264 O   0  0  0  0  0  0  0  0  0  0  0  0
    1.5002   -0.4970   -1.4329 C   0  0  0  0  0  0  0  0  0  0  0  0
    2.3164    0.7413   -1.7109 C   0  0  0  0  0  0  0  0  0  0  0  0
    1.9059    1.7023   -2.3485 O   0  0  0  0  0  0  0  0  0  0  0  0
    3.5667    0.6690   -1.1912 O   0  0  0  0  0  0  0  0  0  0  0  0
    0.2381    0.4970    0.6194 H   0  0  0  0  0  0  0  0  0  0  0  0
   -0.2987    0.4126   -2.2483 H   0  0  0  0  0  0  0  0  0  0  0  0
    1.8558   -0.8985   -0.4755 H   0  0  0  0  0  0  0  0  0  0  0  0
    1.7340   -1.2647   -2.1805 H   0  0  0  0  0  0  0  0  0  0  0  0
    4.1324    1.4520   -1.3626 H   0  0  0  0  0  0  0  0  0  0  0  0
   -0.8224   -2.1224   -2.5427 N   0  0  0  0  0  0  0  0  0  0  0  0
   -1.5474   -3.3536   -2.7534 C   0  0  2  0  0  0  0  0  0  0  0  0
   -3.0361   -3.0427   -2.6721 C   0  0  0  0  0  0  0  0  0  0  0  0
   -3.4849   -2.0594   -2.0866 O   0  0  0  0  0  0  0  0  0  0  0  0
   -1.1557   -4.4084   -1.7303 C   0  0  0  0  0  0  0  0  0  0  0  0
   -0.2942   -1.7294   -3.3162 H   0  0  0  0  0  0  0  0  0  0  0  0
   -1.3001   -3.6973   -3.7638 H   0  0  0  0  0  0  0  0  0  0  0  0
   -1.3958   -4.0819   -0.7119 H   0  0  0  0  0  0  0  0  0  0  0  0
   -1.6850   -5.3502   -1.9088 H   0  0  0  0  0  0  0  0  0  0  0  0
   -0.0796   -4.6092   -1.7699 H   0  0  0  0  0  0  0  0  0  0  0  0
   -3.8070   -4.0154   -3.2931 N   0  0  0  0  0  0  0  0  0  0  0  0
   -5.2493   -3.9543   -3.3407 C   0  0  0  0  0  0  0  0  0  0  0  0
   -3.3494   -4.7867   -3.7699 H   0  0  0  0  0  0  0  0  0  0  0  0
   -5.6685   -4.5057   -2.4862 H   0  0  0  0  0  0  0  0  0  0  0  0
   -5.5734   -2.9041   -3.2938 H   0  0  0  0  0  0  0  0  0  0  0  0
   -5.6046   -4.4062   -4.2785 H   0  0  0  0  0  0  0  0  0  0  0  0
  1  3  1  0  0  0  0
  1  7  1  0  0  0  0
  1  2  2  0  0  0  0
 31 32  1  0  0  0  0
 32 40  1  0  0  0  0
 32 33  2  0  0  0  0
  8  9  1  0  0  0  0
  9 17  1  0  0  0  0
  9 10  2  0  0  0  0
 18 19  1  0  0  0  0
 19 30  1  0  0  0  0
 19 20  2  0  0  0  0
 21 22  1  0  0  0  0
 22 23  2  0  0  0  0
 22 24  1  0  0  0  0
 31 34  1  0  0  0  0
  8 11  1  0  0  0  0
 40 41  1  0  0  0  0
 18 21  1  0  0  0  0
 30 31  1  0  0  0  0
  7  8  1  0  0  0  0
 17 18  1  0  0  0  0
  3  4  1  0  0  0  0
  3  5  1  0  0  0  0
  3  6  1  0  0  0  0
 34 37  1  0  0  0  0
 34 38  1  0  0  0  0
 34 39  1  0  0  0  0
 11 14  1  0  0  0  0
 11 15  1  0  0  0  0
 11 16  1  0  0  0  0
 41 43  1  0  0  0  0
 41 44  1  0  0  0  0
 41 45  1  0  0  0  0
 21 27  1  0  0  0  0
 21 28  1  0  0  0  0
 31 36  1  0  0  0  0
  8 13  1  0  0  0  0
 18 26  1  0  0  0  0
 40 42  1  0  0  0  0
  7 12  1  0  0  0  0
 30 35  1  0  0  0  0
 17 25  1  0  0  0  0
 24 29  1  0  0  0  0
M  END
$$$$

  -OEChem-05262214473D

 45 44  0     1  0  0  0  0  0999 V2000
   -2.2987    4.1032   -0.3022 C   0  0  0  0  0  0  0  0  0  0  0  0
   -1.8049    3.7117   -1.3532 O   0  0  0  0  0  0  0  0  0  0  0  0
   -3.0791    5.3755   -0.2846 C   0  0  0  0  0  0  0  0  0  0  0  0
   -2.4478    6.2532   -0.0717 H   0  0  0  0  0  0  0  0  0  0  0  0
   -3.5571    5.5891   -1.2541 H   0  0  0  0  0  0  0  0  0  0  0  0
   -3.8940    5.4184    0.4556 H   0  0  0  0  0  0  0  0  0  0  0  0
   -2.2137    3.4712    0.9275 N   0  0  0  0  0  0  0  0  0  0  0  0
   -1.5102    2.2327    1.1338 C   0  0  2  0  0  0  0  0  0  0  0  0
   -1.3539    1.5497   -0.2184 C   0  0  0  0  0  0  0  0  0  0  0  0
   -2.0852    1.7861   -1.1778 O   0  0  0  0  0  0  0  0  0  0  0  0
   -2.2477    1.3342    2.1145 C   0  0  0  0  0  0  0  0  0  0  0  0
   -2.6724    3.9052    1.7265 H   0  0  0  0  0  0  0  0  0  0  0  0
   -0.5220    2.4922    1.5290 H   0  0  0  0  0  0  0  0  0  0  0  0
   -3.2400    1.0636    1.7358 H   0  0  0  0  0  0  0  0  0  0  0  0
   -1.6970    0.4046    2.2923 H   0  0  0  0  0  0  0  0  0  0  0  0
   -2.3854    1.8384    3.0772 H   0  0  0  0  0  0  0  0  0  0  0  0
   -0.3283    0.6116   -0.2182 N   0  0  0  0  0  0  0  0  0  0  0  0
    0.0090   -0.1762   -1.3759 C   0  0  2  0  0  0  0  0  0  0  0  0
   -1.0594   -1.2505   -1.5351 C   0  0  0  0  0  0  0  0  0  0  0  0
   -2.0348   -1.3399   -0.7923 O   0  0  0  0  0  0  0  0  0  0  0  0
    1.3953   -0.8035   -1.2549 C   0  0  0  0  0  0  0  0  0  0  0  0
    2.4785    0.2447   -1.3257 C   0  0  0  0  0  0  0  0  0  0  0  0
    2.3714    1.2990   -1.9384 O   0  0  0  0  0  0  0  0  0  0  0  0
    3.5969   -0.1153   -0.6487 O   0  0  0  0  0  0  0  0  0  0  0  0
    0.2381    0.4970    0.6194 H   0  0  0  0  0  0  0  0  0  0  0  0
   -0.0397    0.5037   -2.2349 H   0  0  0  0  0  0  0  0  0  0  0  0
    1.5160   -1.3146   -0.2914 H   0  0  0  0  0  0  0  0  0  0  0  0
    1.5759   -1.5683   -2.0199 H   0  0  0  0  0  0  0  0  0  0  0  0
    4.3293    0.5368   -0.6824 H   0  0  0  0  0  0  0  0  0  0  0  0
   -0.8206   -2.0669   -2.6318 N   0  0  0  0  0  0  0  0  0  0  0  0
   -1.6996   -3.1514   -3.0022 C   0  0  2  0  0  0  0  0  0  0  0  0
   -3.0204   -2.5497   -3.4636 C   0  0  0  0  0  0  0  0  0  0  0  0
   -3.3970   -1.4267   -3.1349 O   0  0  0  0  0  0  0  0  0  0  0  0
   -1.9150   -4.1101   -1.8414 C   0  0  0  0  0  0  0  0  0  0  0  0
    0.0057   -1.8946   -3.1969 H   0  0  0  0  0  0  0  0  0  0  0  0
   -1.2230   -3.6730   -3.8393 H   0  0  0  0  0  0  0  0  0  0  0  0
   -2.3916   -3.6054   -0.9931 H   0  0  0  0  0  0  0  0  0  0  0  0
   -2.5585   -4.9469   -2.1322 H   0  0  0  0  0  0  0  0  0  0  0  0
   -0.9610   -4.5190   -1.4915 H   0  0  0  0  0  0  0  0  0  0  0  0
   -3.7488   -3.4310   -4.2503 N   0  0  0  0  0  0  0  0  0  0  0  0
   -5.0424   -3.0988   -4.8001 C   0  0  0  0  0  0  0  0  0  0  0  0
   -3.3508   -4.3348   -4.4879 H   0  0  0  0  0  0  0  0  0  0  0  0
   -5.8314   -3.4348   -4.1113 H   0  0  0  0  0  0  0  0  0  0  0  0
   -5.1140   -2.0096   -4.9362 H   0  0  0  0  0  0  0  0  0  0  0  0
   -5.1669   -3.5988   -5.7720 H   0  0  0  0  0  0  0  0  0  0  0  0
  1  3  1  0  0  0  0
  1  7  1  0  0  0  0
  1  2  2  0  0  0  0
 31 32  1  0  0  0  0
 32 40  1  0  0  0  0
 32 33  2  0  0  0  0
  8  9  1  0  0  0  0
  9 17  1  0  0  0  0
  9 10  2  0  0  0  0
 18 19  1  0  0  0  0
 19 30  1  0  0  0  0
 19 20  2  0  0  0  0
 21 22  1  0  0  0  0
 22 23  2  0  0  0  0
 22 24  1  0  0  0  0
 31 34  1  0  0  0  0
  8 11  1  0  0  0  0
 40 41  1  0  0  0  0
 18 21  1  0  0  0  0
 30 31  1  0  0  0  0
  7  8  1  0  0  0  0
 17 18  1  0  0  0  0
  3  4  1  0  0  0  0
  3  5  1  0  0  0  0
  3  6  1  0  0  0  0
 34 37  1  0  0  0  0
 34 38  1  0  0  0  0
 34 39  1  0  0  0  0
 11 14  1  0  0  0  0
 11 15  1  0  0  0  0
 11 16  1  0  0  0  0
 41 43  1  0  0  0  0
 41 44  1  0  0  0  0
 41 45  1  0  0  0  0
 21 27  1  0  0  0  0
 21 28  1  0  0  0  0
 31 36  1  0  0  0  0
  8 13  1  0  0  0  0
 18 26  1  0  0  0  0
 40 42  1  0  0  0  0
  7 12  1  0  0  0  0
 30 35  1  0  0  0  0
 17 25  1  0  0  0  0
 24 29  1  0  0  0  0
M  END
$$$$

  -OEChem-05262214473D

 45 44  0     1  0  0  0  0  0999 V2000
   -2.2987    4.1032   -0.3022 C   0  0  0  0  0  0  0  0  0  0  0  0
   -1.8049    3.7117   -1.3532 O   0  0  0  0  0  0  0  0  0  0  0  0
   -3.0791    5.3755   -0.2846 C   0  0  0  0  0  0  0  0  0  0  0  0
   -2.4478    6.2532   -0.0717 H   0  0  0  0  0  0  0  0  0  0  0  0
   -3.5571    5.5891   -1.2541 H   0  0  0  0  0  0  0  0  0  0  0  0
   -3.8940    5.4184    0.4556 H   0  0  0  0  0  0  0  0  0  0  0  0
   -2.2137    3.4712    0.9275 N   0  0  0  0  0  0  0  0  0  0  0  0
   -1.5102    2.2327    1.1338 C   0  0  2  0  0  0  0  0  0  0  0  0
   -1.3539    1.5497   -0.2184 C   0  0  0  0  0  0  0  0  0  0  0  0
   -2.0852    1.7861   -1.1778 O   0  0  0  0  0  0  0  0  0  0  0  0
   -2.2477    1.3342    2.1145 C   0  0  0  0  0  0  0  0  0  0  0  0
   -2.6724    3.9052    1.7265 H   0  0  0  0  0  0  0  0  0  0  0  0
   -0.5220    2.4922    1.5290 H   0  0  0  0  0  0  0  0  0  0  0  0
   -3.2400    1.0636    1.7358 H   0  0  0  0  0  0  0  0  0  0  0  0
   -1.6970    0.4046    2.2923 H   0  0  0  0  0  0  0  0  0  0  0  0
   -2.3854    1.8384    3.0772 H   0  0  0  0  0  0  0  0  0  0  0  0
   -0.3283    0.6116   -0.2182 N   0  0  0  0  0  0  0  0  0  0  0  0
    0.0090   -0.1762   -1.3759 C   0  0  2  0  0  0  0  0  0  0  0  0
   -1.0594   -1.2505   -1.5351 C   0  0  0  0  0  0  0  0  0  0  0  0
   -2.1555   -1.1917   -0.9818 O   0  0  0  0  0  0  0  0  0  0  0  0
    1.3953   -0.8035   -1.2549 C   0  0  0  0  0  0  0  0  0  0  0  0
    2.4785    0.2447   -1.3257 C   0  0  0  0  0  0  0  0  0  0  0  0
    2.3714    1.2990   -1.9384 O   0  0  0  0  0  0  0  0  0  0  0  0
    3.5969   -0.1153   -0.6487 O   0  0  0  0  0  0  0  0  0  0  0  0
    0.2381    0.4970    0.6194 H   0  0  0  0  0  0  0  0  0  0  0  0
   -0.0397    0.5037   -2.2349 H   0  0  0  0  0  0  0  0  0  0  0  0
    1.5160   -1.3146   -0.2914 H   0  0  0  0  0  0  0  0  0  0  0  0
    1.5759   -1.5683   -2.0199 H   0  0  0  0  0  0  0  0  0  0  0  0
    4.3293    0.5368   -0.6824 H   0  0  0  0  0  0  0  0  0  0  0  0
   -0.6632   -2.2571   -2.4046 N   0  0  0  0  0  0  0  0  0  0  0  0
   -1.5079   -3.3823   -2.7309 C   0  0  2  0  0  0  0  0  0  0  0  0
   -2.6964   -2.8623   -3.5288 C   0  0  0  0  0  0  0  0  0  0  0  0
   -3.0763   -1.6942   -3.4820 O   0  0  0  0  0  0  0  0  0  0  0  0
   -1.9706   -4.1087   -1.4776 C   0  0  0  0  0  0  0  0  0  0  0  0
    0.2581   -2.2002   -2.8286 H   0  0  0  0  0  0  0  0  0  0  0  0
   -0.9117   -4.0538   -3.3583 H   0  0  0  0  0  0  0  0  0  0  0  0
   -2.5695   -3.4517   -0.8364 H   0  0  0  0  0  0  0  0  0  0  0  0
   -2.5874   -4.9782   -1.7278 H   0  0  0  0  0  0  0  0  0  0  0  0
   -1.1140   -4.4560   -0.8898 H   0  0  0  0  0  0  0  0  0  0  0  0
   -3.3092   -3.8658   -4.2661 N   0  0  0  0  0  0  0  0  0  0  0  0
   -4.4668   -3.6273   -5.0961 C   0  0  0  0  0  0  0  0  0  0  0  0
   -2.9150   -4.8019   -4.2602 H   0  0  0  0  0  0  0  0  0  0  0  0
   -5.3810   -3.8227   -4.5163 H   0  0  0  0  0  0  0  0  0  0  0  0
   -4.4649   -2.5811   -5.4359 H   0  0  0  0  0  0  0  0  0  0  0  0
   -4.4362   -4.2962   -5.9688 H   0  0  0  0  0  0  0  0  0  0  0  0
  1  3  1  0  0  0  0
  1  7  1  0  0  0  0
  1  2  2  0  0  0  0
 31 32  1  0  0  0  0
 32 40  1  0  0  0  0
 32 33  2  0  0  0  0
  8  9  1  0  0  0  0
  9 17  1  0  0  0  0
  9 10  2  0  0  0  0
 18 19  1  0  0  0  0
 19 30  1  0  0  0  0
 19 20  2  0  0  0  0
 21 22  1  0  0  0  0
 22 23  2  0  0  0  0
 22 24  1  0  0  0  0
 31 34  1  0  0  0  0
  8 11  1  0  0  0  0
 40 41  1  0  0  0  0
 18 21  1  0  0  0  0
 30 31  1  0  0  0  0
  7  8  1  0  0  0  0
 17 18  1  0  0  0  0
  3  4  1  0  0  0  0
  3  5  1  0  0  0  0
  3  6  1  0  0  0  0
 34 37  1  0  0  0  0
 34 38  1  0  0  0  0
 34 39  1  0  0  0  0
 11 14  1  0  0  0  0
 11 15  1  0  0  0  0
 11 16  1  0  0  0  0
 41 43  1  0  0  0  0
 41 44  1  0  0  0  0
 41 45  1  0  0  0  0
 21 27  1  0  0  0  0
 21 28  1  0  0  0  0
 31 36  1  0  0  0  0
  8 13  1  0  0  0  0
 18 26  1  0  0  0  0
 40 42  1  0  0  0  0
  7 12  1  0  0  0  0
 30 35  1  0  0  0  0
 17 25  1  0  0  0  0
 24 29  1  0  0  0  0
M  END
$$$$

  -OEChem-05262214473D

 45 44  0     1  0  0  0  0  0999 V2000
   -2.2987    4.1032   -0.3022 C   0  0  0  0  0  0  0  0  0  0  0  0
   -1.8049    3.7117   -1.3532 O   0  0  0  0  0  0  0  0  0  0  0  0
   -3.0791    5.3755   -0.2846 C   0  0  0  0  0  0  0  0  0  0  0  0
   -2.4478    6.2532   -0.0717 H   0  0  0  0  0  0  0  0  0  0  0  0
   -3.5571    5.5891   -1.2541 H   0  0  0  0  0  0  0  0  0  0  0  0
   -3.8940    5.4184    0.4556 H   0  0  0  0  0  0  0  0  0  0  0  0
   -2.2137    3.4712    0.9275 N   0  0  0  0  0  0  0  0  0  0  0  0
   -1.5102    2.2327    1.1338 C   0  0  2  0  0  0  0  0  0  0  0  0
   -1.3539    1.5497   -0.2184 C   0  0  0  0  0  0  0  0  0  0  0  0
   -2.0852    1.7861   -1.1778 O   0  0  0  0  0  0  0  0  0  0  0  0
   -2.2477    1.3342    2.1145 C   0  0  0  0  0  0  0  0  0  0  0  0
   -2.6724    3.9052    1.7265 H   0  0  0  0  0  0  0  0  0  0  0  0
   -0.5220    2.4922    1.5290 H   0  0  0  0  0  0  0  0  0  0  0  0
   -3.2400    1.0636    1.7358 H   0  0  0  0  0  0  0  0  0  0  0  0
   -1.6970    0.4046    2.2923 H   0  0  0  0  0  0  0  0  0  0  0  0
   -2.3854    1.8384    3.0772 H   0  0  0  0  0  0  0  0  0  0  0  0
   -0.3283    0.6116   -0.2182 N   0  0  0  0  0  0  0  0  0  0  0  0
    0.0090   -0.1762   -1.3759 C   0  0  2  0  0  0  0  0  0  0  0  0
   -1.0594   -1.2505   -1.5351 C   0  0  0  0  0  0  0  0  0  0  0  0
   -2.2336   -1.0797   -1.2138 O   0  0  0  0  0  0  0  0  0  0  0  0
    1.3953   -0.8035   -1.2549 C   0  0  0  0  0  0  0  0  0  0  0  0
    2.4785    0.2447   -1.3257 C   0  0  0  0  0  0  0  0  0  0  0  0
    2.3714    1.2990   -1.9384 O   0  0  0  0  0  0  0  0  0  0  0  0
    3.5969   -0.1153   -0.6487 O   0  0  0  0  0  0  0  0  0  0  0  0
    0.2381    0.4970    0.6194 H   0  0  0  0  0  0  0  0  0  0  0  0
   -0.0397    0.5037   -2.2349 H   0  0  0  0  0  0  0  0  0  0  0  0
    1.5160   -1.3146   -0.2914 H   0  0  0  0  0  0  0  0  0  0  0  0
    1.5759   -1.5683   -2.0199 H   0  0  0  0  0  0  0  0  0  0  0  0
    4.3293    0.5368   -0.6824 H   0  0  0  0  0  0  0  0  0  0  0  0
   -0.5577   -2.4039   -2.1218 N   0  0  0  0  0  0  0  0  0  0  0  0
   -1.3784   -3.5612   -2.3920 C   0  0  2  0  0  0  0  0  0  0  0  0
   -2.3799   -3.1849   -3.4760 C   0  0  0  0  0  0  0  0  0  0  0  0
   -2.7104   -2.0243   -3.7101 O   0  0  0  0  0  0  0  0  0  0  0  0
   -2.0907   -4.0398   -1.1365 C   0  0  0  0  0  0  0  0  0  0  0  0
    0.4264   -2.4354   -2.3713 H   0  0  0  0  0  0  0  0  0  0  0  0
   -0.7092   -4.3428   -2.7678 H   0  0  0  0  0  0  0  0  0  0  0  0
   -2.7658   -3.2700   -0.7453 H   0  0  0  0  0  0  0  0  0  0  0  0
   -2.6899   -4.9342   -1.3368 H   0  0  0  0  0  0  0  0  0  0  0  0
   -1.3700   -4.2818   -0.3479 H   0  0  0  0  0  0  0  0  0  0  0  0
   -2.8935   -4.3006   -4.1221 N   0  0  0  0  0  0  0  0  0  0  0  0
   -3.8712   -4.2071   -5.1811 C   0  0  0  0  0  0  0  0  0  0  0  0
   -2.5483   -5.2236   -3.8760 H   0  0  0  0  0  0  0  0  0  0  0  0
   -4.8824   -4.2831   -4.7550 H   0  0  0  0  0  0  0  0  0  0  0  0
   -3.7622   -3.2413   -5.6963 H   0  0  0  0  0  0  0  0  0  0  0  0
   -3.7134   -5.0255   -5.8990 H   0  0  0  0  0  0  0  0  0  0  0  0
  1  3  1  0  0  0  0
  1  7  1  0  0  0  0
  1  2  2  0  0  0  0
 31 32  1  0  0  0  0
 32 40  1  0  0  0  0
 32 33  2  0  0  0  0
  8  9  1  0  0  0  0
  9 17  1  0  0  0  0
  9 10  2  0  0  0  0
 18 19  1  0  0  0  0
 19 30  1  0  0  0  0
 19 20  2  0  0  0  0
 21 22  1  0  0  0  0
 22 23  2  0  0  0  0
 22 24  1  0  0  0  0
 31 34  1  0  0  0  0
  8 11  1  0  0  0  0
 40 41  1  0  0  0  0
 18 21  1  0  0  0  0
 30 31  1  0  0  0  0
  7  8  1  0  0  0  0
 17 18  1  0  0  0  0
  3  4  1  0  0  0  0
  3  5  1  0  0  0  0
  3  6  1  0  0  0  0
 34 37  1  0  0  0  0
 34 38  1  0  0  0  0
 34 39  1  0  0  0  0
 11 14  1  0  0  0  0
 11 15  1  0  0  0  0
 11 16  1  0  0  0  0
 41 43  1  0  0  0  0
 41 44  1  0  0  0  0
 41 45  1  0  0  0  0
 21 27  1  0  0  0  0
 21 28  1  0  0  0  0
 31 36  1  0  0  0  0
  8 13  1  0  0  0  0
 18 26  1  0  0  0  0
 40 42  1  0  0  0  0
  7 12  1  0  0  0  0
 30 35  1  0  0  0  0
 17 25  1  0  0  0  0
 24 29  1  0  0  0  0
M  END
$$$$

  -OEChem-05262214473D

 45 44  0     1  0  0  0  0  0999 V2000
   -2.2987    4.1032   -0.3022 C   0  0  0  0  0  0  0  0  0  0  0  0
   -1.8049    3.7117   -1.3532 O   0  0  0  0  0  0  0  0  0  0  0  0
   -3.0791    5.3755   -0.2846 C   0  0  0  0  0  0  0  0  0  0  0  0
   -2.4478    6.2532   -0.0717 H   0  0  0  0  0  0  0  0  0  0  0  0
   -3.5571    5.5891   -1.2541 H   0  0  0  0  0  0  0  0  0  0  0  0
   -3.8940    5.4184    0.4556 H   0  0  0  0  0  0  0  0  0  0  0  0
   -2.2137    3.4712    0.9275 N   0  0  0  0  0  0  0  0  0  0  0  0
   -1.5102    2.2327    1.1338 C   0  0  2  0  0  0  0  0  0  0  0  0
   -1.3539    1.5497   -0.2184 C   0  0  0  0  0  0  0  0  0  0  0  0
   -2.0852    1.7861   -1.1778 O   0  0  0  0  0  0  0  0  0  0  0  0
   -2.2477    1.3342    2.1145 C   0  0  0  0  0  0  0  0  0  0  0  0
   -2.6724    3.9052    1.7265 H   0  0  0  0  0  0  0  0  0  0  0  0
   -0.5220    2.4922    1.5290 H   0  0  0  0  0  0  0  0  0  0  0  0
   -3.2400    1.0636    1.7358 H   0  0  0  0  0  0  0  0  0  0  0  0
   -1.6970    0.4046    2.2923 H   0  0  0  0  0  0  0  0  0  0  0  0
   -2.3854    1.8384    3.0772 H   0  0  0  0  0  0  0  0  0  0  0  0
   -0.3283    0.6116   -0.2182 N   0  0  0  0  0  0  0  0  0  0  0  0
    0.0090   -0.1762   -1.3759 C   0  0  2  0  0  0  0  0  0  0  0  0
   -1.0594   -1.2505   -1.5351 C   0  0  0  0  0  0  0  0  0  0  0  0
   -2.2636   -1.0115   -1.4724 O   0  0  0  0  0  0  0  0  0  0  0  0
    1.3953   -0.8035   -1.2549 C   0  0  0  0  0  0  0  0  0  0  0  0
    2.4785    0.2447   -1.3257 C   0  0  0  0  0  0  0  0  0  0  0  0
    2.3714    1.2990   -1.9384 O   0  0  0  0  0  0  0  0  0  0  0  0
    3.5969   -0.1153   -0.6487 O   0  0  0  0  0  0  0  0  0  0  0  0
    0.2381    0.4970    0.6194 H   0  0  0  0  0  0  0  0  0  0  0  0
   -0.0397    0.5037   -2.2349 H   0  0  0  0  0  0  0  0  0  0  0  0
    1.5160   -1.3146   -0.2914 H   0  0  0  0  0  0  0  0  0  0  0  0
    1.5759   -1.5683   -2.0199 H   0  0  0  0  0  0  0  0  0  0  0  0
    4.3293    0.5368   -0.6824 H   0  0  0  0  0  0  0  0  0  0  0  0
   -0.5115   -2.4973   -1.8028 N   0  0  0  0  0  0  0  0  0  0  0  0
   -1.3201   -3.6761   -2.0086 C   0  0  2  0  0  0  0  0  0  0  0  0
   -2.0926   -3.4954   -3.3087 C   0  0  0  0  0  0  0  0  0  0  0  0
   -2.3243   -2.3944   -3.8038 O   0  0  0  0  0  0  0  0  0  0  0  0
   -2.2671   -3.9082   -0.8415 C   0  0  0  0  0  0  0  0  0  0  0  0
    0.4992   -2.5842   -1.8561 H   0  0  0  0  0  0  0  0  0  0  0  0
   -0.6291   -4.5203   -2.1080 H   0  0  0  0  0  0  0  0  0  0  0  0
   -2.9671   -3.0726   -0.7262 H   0  0  0  0  0  0  0  0  0  0  0  0
   -2.8592   -4.8179   -0.9858 H   0  0  0  0  0  0  0  0  0  0  0  0
   -1.7115   -4.0082    0.0972 H   0  0  0  0  0  0  0  0  0  0  0  0
   -2.5300   -4.7057   -3.8283 N   0  0  0  0  0  0  0  0  0  0  0  0
   -3.2960   -4.7986   -5.0492 C   0  0  0  0  0  0  0  0  0  0  0  0
   -2.2756   -5.5711   -3.3614 H   0  0  0  0  0  0  0  0  0  0  0  0
   -4.3698   -4.7847   -4.8110 H   0  0  0  0  0  0  0  0  0  0  0  0
   -3.0537   -3.9454   -5.6998 H   0  0  0  0  0  0  0  0  0  0  0  0
   -3.0476   -5.7367   -5.5672 H   0  0  0  0  0  0  0  0  0  0  0  0
  1  3  1  0  0  0  0
  1  7  1  0  0  0  0
  1  2  2  0  0  0  0
 31 32  1  0  0  0  0
 32 40  1  0  0  0  0
 32 33  2  0  0  0  0
  8  9  1  0  0  0  0
  9 17  1  0  0  0  0
  9 10  2  0  0  0  0
 18 19  1  0  0  0  0
 19 30  1  0  0  0  0
 19 20  2  0  0  0  0
 21 22  1  0  0  0  0
 22 23  2  0  0  0  0
 22 24  1  0  0  0  0
 31 34  1  0  0  0  0
  8 11  1  0  0  0  0
 40 41  1  0  0  0  0
 18 21  1  0  0  0  0
 30 31  1  0  0  0  0
  7  8  1  0  0  0  0
 17 18  1  0  0  0  0
  3  4  1  0  0  0  0
  3  5  1  0  0  0  0
  3  6  1  0  0  0  0
 34 37  1  0  0  0  0
 34 38  1  0  0  0  0
 34 39  1  0  0  0  0
 11 14  1  0  0  0  0
 11 15  1  0  0  0  0
 11 16  1  0  0  0  0
 41 43  1  0  0  0  0
 41 44  1  0  0  0  0
 41 45  1  0  0  0  0
 21 27  1  0  0  0  0
 21 28  1  0  0  0  0
 31 36  1  0  0  0  0
  8 13  1  0  0  0  0
 18 26  1  0  0  0  0
 40 42  1  0  0  0  0
  7 12  1  0  0  0  0
 30 35  1  0  0  0  0
 17 25  1  0  0  0  0
 24 29  1  0  0  0  0
M  END
$$$$

  -OEChem-05262214473D

 45 44  0     1  0  0  0  0  0999 V2000
   -2.2987    4.1032   -0.3022 C   0  0  0  0  0  0  0  0  0  0  0  0
   -1.8049    3.7117   -1.3532 O   0  0  0  0  0  0  0  0  0  0  0  0
   -3.0791    5.3755   -0.2846 C   0  0  0  0  0  0  0  0  0  0  0  0
   -2.4478    6.2532   -0.0717 H   0  0  0  0  0  0  0  0  0  0  0  0
   -3.5571    5.5891   -1.2541 H   0  0  0  0  0  0  0  0  0  0  0  0
   -3.8940    5.4184    0.4556 H   0  0  0  0  0  0  0  0  0  0  0  0
   -2.2137    3.4712    0.9275 N   0  0  0  0  0  0  0  0  0  0  0  0
   -1.5102    2.2327    1.1338 C   0  0  2  0  0  0  0  0  0  0  0  0
   -1.3539    1.5497   -0.2184 C   0  0  0  0  0  0  0  0  0  0  0  0
   -2.0852    1.7861   -1.1778 O   0  0  0  0  0  0  0  0  0  0  0  0
   -2.2477    1.3342    2.1145 C   0  0  0  0  0  0  0  0  0  0  0  0
   -2.6724    3.9052    1.7265 H   0  0  0  0  0  0  0  0  0  0  0  0
   -0.5220    2.4922    1.5290 H   0  0  0  0  0  0  0  0  0  0  0  0
   -3.2400    1.0636    1.7358 H   0  0  0  0  0  0  0  0  0  0  0  0
   -1.6970    0.4046    2.2923 H   0  0  0  0  0  0  0  0  0  0  0  0
   -2.3854    1.8384    3.0772 H   0  0  0  0  0  0  0  0  0  0  0  0
   -0.3283    0.6116   -0.2182 N   0  0  0  0  0  0  0  0  0  0  0  0
    0.0090   -0.1762   -1.3759 C   0  0  2  0  0  0  0  0  0  0  0  0
   -1.0594   -1.2505   -1.5351 C   0  0  0  0  0  0  0  0  0  0  0  0
   -2.2435   -0.9918   -1.7401 O   0  0  0  0  0  0  0  0  0  0  0  0
    1.3953   -0.8035   -1.2549 C   0  0  0  0  0  0  0  0  0  0  0  0
    2.4785    0.2447   -1.3257 C   0  0  0  0  0  0  0  0  0  0  0  0
    2.3714    1.2990   -1.9384 O   0  0  0  0  0  0  0  0  0  0  0  0
    3.5969   -0.1153   -0.6487 O   0  0  0  0  0  0  0  0  0  0  0  0
    0.2381    0.4970    0.6194 H   0  0  0  0  0  0  0  0  0  0  0  0
   -0.0397    0.5037   -2.2349 H   0  0  0  0  0  0  0  0  0  0  0  0
    1.5160   -1.3146   -0.2914 H   0  0  0  0  0  0  0  0  0  0  0  0
    1.5759   -1.5683   -2.0199 H   0  0  0  0  0  0  0  0  0  0  0  0
    4.3293    0.5368   -0.6824 H   0  0  0  0  0  0  0  0  0  0  0  0
   -0.5275   -2.5307   -1.4692 N   0  0  0  0  0  0  0  0  0  0  0  0
   -1.3369   -3.7190   -1.6067 C   0  0  2  0  0  0  0  0  0  0  0  0
   -1.8540   -3.7728   -3.0382 C   0  0  0  0  0  0  0  0  0  0  0  0
   -1.9442   -2.7794   -3.7566 O   0  0  0  0  0  0  0  0  0  0  0  0
   -2.4877   -3.7227   -0.6126 C   0  0  0  0  0  0  0  0  0  0  0  0
    0.4714   -2.6363   -1.3182 H   0  0  0  0  0  0  0  0  0  0  0  0
   -0.6770   -4.5741   -1.4238 H   0  0  0  0  0  0  0  0  0  0  0  0
   -3.1597   -2.8731   -0.7802 H   0  0  0  0  0  0  0  0  0  0  0  0
   -3.0835   -4.6373   -0.6987 H   0  0  0  0  0  0  0  0  0  0  0  0
   -2.1151   -3.6539    0.4152 H   0  0  0  0  0  0  0  0  0  0  0  0
   -2.2434   -5.0535   -3.4047 N   0  0  0  0  0  0  0  0  0  0  0  0
   -2.7805   -5.3617   -4.7095 C   0  0  0  0  0  0  0  0  0  0  0  0
   -2.1155   -5.8208   -2.7515 H   0  0  0  0  0  0  0  0  0  0  0  0
   -3.8779   -5.2931   -4.6804 H   0  0  0  0  0  0  0  0  0  0  0  0
   -2.3878   -4.6452   -5.4460 H   0  0  0  0  0  0  0  0  0  0  0  0
   -2.4844   -6.3816   -4.9962 H   0  0  0  0  0  0  0  0  0  0  0  0
  1  3  1  0  0  0  0
  1  7  1  0  0  0  0
  1  2  2  0  0  0  0
 31 32  1  0  0  0  0
 32 40  1  0  0  0  0
 32 33  2  0  0  0  0
  8  9  1  0  0  0  0
  9 17  1  0  0  0  0
  9 10  2  0  0  0  0
 18 19  1  0  0  0  0
 19 30  1  0  0  0  0
 19 20  2  0  0  0  0
 21 22  1  0  0  0  0
 22 23  2  0  0  0  0
 22 24  1  0  0  0  0
 31 34  1  0  0  0  0
  8 11  1  0  0  0  0
 40 41  1  0  0  0  0
 18 21  1  0  0  0  0
 30 31  1  0  0  0  0
  7  8  1  0  0  0  0
 17 18  1  0  0  0  0
  3  4  1  0  0  0  0
  3  5  1  0  0  0  0
  3  6  1  0  0  0  0
 34 37  1  0  0  0  0
 34 38  1  0  0  0  0
 34 39  1  0  0  0  0
 11 14  1  0  0  0  0
 11 15  1  0  0  0  0
 11 16  1  0  0  0  0
 41 43  1  0  0  0  0
 41 44  1  0  0  0  0
 41 45  1  0  0  0  0
 21 27  1  0  0  0  0
 21 28  1  0  0  0  0
 31 36  1  0  0  0  0
  8 13  1  0  0  0  0
 18 26  1  0  0  0  0
 40 42  1  0  0  0  0
  7 12  1  0  0  0  0
 30 35  1  0  0  0  0
 17 25  1  0  0  0  0
 24 29  1  0  0  0  0
M  END
$$$$

  -OEChem-05262214473D

 45 44  0     1  0  0  0  0  0999 V2000
   -2.2987    4.1032   -0.3022 C   0  0  0  0  0  0  0  0  0  0  0  0
   -1.8049    3.7117   -1.3532 O   0  0  0  0  0  0  0  0  0  0  0  0
   -3.0791    5.3755   -0.2846 C   0  0  0  0  0  0  0  0  0  0  0  0
   -2.4478    6.2532   -0.0717 H   0  0  0  0  0  0  0  0  0  0  0  0
   -3.5571    5.5891   -1.2541 H   0  0  0  0  0  0  0  0  0  0  0  0
   -3.8940    5.4184    0.4556 H   0  0  0  0  0  0  0  0  0  0  0  0
   -2.2137    3.4712    0.9275 N   0  0  0  0  0  0  0  0  0  0  0  0
   -1.5102    2.2327    1.1338 C   0  0  2  0  0  0  0  0  0  0  0  0
   -1.3539    1.5497   -0.2184 C   0  0  0  0  0  0  0  0  0  0  0  0
   -2.0852    1.7861   -1.1778 O   0  0  0  0  0  0  0  0  0  0  0  0
   -2.2477    1.3342    2.1145 C   0  0  0  0  0  0  0  0  0  0  0  0
   -2.6724    3.9052    1.7265 H   0  0  0  0  0  0  0  0  0  0  0  0
   -0.5220    2.4922    1.5290 H   0  0  0  0  0  0  0  0  0  0  0  0
   -3.2400    1.0636    1.7358 H   0  0  0  0  0  0  0  0  0  0  0  0
   -1.6970    0.4046    2.2923 H   0  0  0  0  0  0  0  0  0  0  0  0
   -2.3854    1.8384    3.0772 H   0  0  0  0  0  0  0  0  0  0  0  0
   -0.3283    0.6116   -0.2182 N   0  0  0  0  0  0  0  0  0  0  0  0
    0.0090   -0.1762   -1.3759 C   0  0  2  0  0  0  0  0  0  0  0  0
   -1.0594   -1.2505   -1.5351 C   0  0  0  0  0  0  0  0  0  0  0  0
   -2.1748   -1.0218   -1.9986 O   0  0  0  0  0  0  0  0  0  0  0  0
    1.3953   -0.8035   -1.2549 C   0  0  0  0  0  0  0  0  0  0  0  0
    2.4785    0.2447   -1.3257 C   0  0  0  0  0  0  0  0  0  0  0  0
    2.3714    1.2990   -1.9384 O   0  0  0  0  0  0  0  0  0  0  0  0
    3.5969   -0.1153   -0.6487 O   0  0  0  0  0  0  0  0  0  0  0  0
    0.2381    0.4970    0.6194 H   0  0  0  0  0  0  0  0  0  0  0  0
   -0.0397    0.5037   -2.2349 H   0  0  0  0  0  0  0  0  0  0  0  0
    1.5160   -1.3146   -0.2914 H   0  0  0  0  0  0  0  0  0  0  0  0
    1.5759   -1.5683   -2.0199 H   0  0  0  0  0  0  0  0  0  0  0  0
    4.3293    0.5368   -0.6824 H   0  0  0  0  0  0  0  0  0  0  0  0
   -0.6048   -2.5021   -1.1439 N   0  0  0  0  0  0  0  0  0  0  0  0
   -1.4276   -3.6870   -1.2138 C   0  0  2  0  0  0  0  0  0  0  0  0
   -1.6804   -3.9980   -2.6831 C   0  0  0  0  0  0  0  0  0  0  0  0
   -1.5961   -3.1529   -3.5718 O   0  0  0  0  0  0  0  0  0  0  0  0
   -2.7376   -3.4960   -0.4654 C   0  0  0  0  0  0  0  0  0  0  0  0
    0.3450   -2.5883   -0.7943 H   0  0  0  0  0  0  0  0  0  0  0  0
   -0.8496   -4.5005   -0.7619 H   0  0  0  0  0  0  0  0  0  0  0  0
   -3.3305   -2.6849   -0.9038 H   0  0  0  0  0  0  0  0  0  0  0  0
   -3.3478   -4.4047   -0.4952 H   0  0  0  0  0  0  0  0  0  0  0  0
   -2.5535   -3.2431    0.5843 H   0  0  0  0  0  0  0  0  0  0  0  0
   -2.0534   -5.3203   -2.8800 N   0  0  0  0  0  0  0  0  0  0  0  0
   -2.3598   -5.8578   -4.1851 C   0  0  0  0  0  0  0  0  0  0  0  0
   -2.0789   -5.9555   -2.0878 H   0  0  0  0  0  0  0  0  0  0  0  0
   -3.4404   -5.7739   -4.3723 H   0  0  0  0  0  0  0  0  0  0  0  0
   -1.8099   -5.2932   -4.9524 H   0  0  0  0  0  0  0  0  0  0  0  0
   -2.0620   -6.9160   -4.2247 H   0  0  0  0  0  0  0  0  0  0  0  0
  1  3  1  0  0  0  0
  1  7  1  0  0  0  0
  1  2  2  0  0  0  0
 31 32  1  0  0  0  0
 32 40  1  0  0  0  0
 32 33  2  0  0  0  0
  8  9  1  0  0  0  0
  9 17  1  0  0  0  0
  9 10  2  0  0  0  0
 18 19  1  0  0  0  0
 19 30  1  0  0  0  0
 19 20  2  0  0  0  0
 21 22  1  0  0  0  0
 22 23  2  0  0  0  0
 22 24  1  0  0  0  0
 31 34  1  0  0  0  0
  8 11  1  0  0  0  0
 40 41  1  0  0  0  0
 18 21  1  0  0  0  0
 30 31  1  0  0  0  0
  7  8  1  0  0  0  0
 17 18  1  0  0  0  0
  3  4  1  0  0  0  0
  3  5  1  0  0  0  0
  3  6  1  0  0  0  0
 34 37  1  0  0  0  0
 34 38  1  0  0  0  0
 34 39  1  0  0  0  0
 11 14  1  0  0  0  0
 11 15  1  0  0  0  0
 11 16  1  0  0  0  0
 41 43  1  0  0  0  0
 41 44  1  0  0  0  0
 41 45  1  0  0  0  0
 21 27  1  0  0  0  0
 21 28  1  0  0  0  0
 31 36  1  0  0  0  0
  8 13  1  0  0  0  0
 18 26  1  0  0  0  0
 40 42  1  0  0  0  0
  7 12  1  0  0  0  0
 30 35  1  0  0  0  0
 17 25  1  0  0  0  0
 24 29  1  0  0  0  0
M  END
$$$$

  -OEChem-05262214473D

 45 44  0     1  0  0  0  0  0999 V2000
   -2.2987    4.1032   -0.3022 C   0  0  0  0  0  0  0  0  0  0  0  0
   -1.8049    3.7117   -1.3532 O   0  0  0  0  0  0  0  0  0  0  0  0
   -3.0791    5.3755   -0.2846 C   0  0  0  0  0  0  0  0  0  0  0  0
   -2.4478    6.2532   -0.0717 H   0  0  0  0  0  0  0  0  0  0  0  0
   -3.5571    5.5891   -1.2541 H   0  0  0  0  0  0  0  0  0  0  0  0
   -3.8940    5.4184    0.4556 H   0  0  0  0  0  0  0  0  0  0  0  0
   -2.2137    3.4712    0.9275 N   0  0  0  0  0  0  0  0  0  0  0  0
   -1.5102    2.2327    1.1338 C   0  0  2  0  0  0  0  0  0  0  0  0
   -1.3539    1.5497   -0.2184 C   0  0  0  0  0  0  0  0  0  0  0  0
   -2.0852    1.7861   -1.1778 O   0  0  0  0  0  0  0  0  0  0  0  0
   -2.2477    1.3342    2.1145 C   0  0  0  0  0  0  0  0  0  0  0  0
   -2.6724    3.9052    1.7265 H   0  0  0  0  0  0  0  0  0  0  0  0
   -0.5220    2.4922    1.5290 H   0  0  0  0  0  0  0  0  0  0  0  0
   -3.2400    1.0636    1.7358 H   0  0  0  0  0  0  0  0  0  0  0  0
   -1.6970    0.4046    2.2923 H   0  0  0  0  0  0  0  0  0  0  0  0
   -2.3854    1.8384    3.0772 H   0  0  0  0  0  0  0  0  0  0  0  0
   -0.3283    0.6116   -0.2182 N   0  0  0  0  0  0  0  0  0  0  0  0
    0.0090   -0.1762   -1.3759 C   0  0  2  0  0  0  0  0  0  0  0  0
   -1.0594   -1.2505   -1.5351 C   0  0  0  0  0  0  0  0  0  0  0  0
   -2.0620   -1.0997   -2.2303 O   0  0  0  0  0  0  0  0  0  0  0  0
    1.3953   -0.8035   -1.2549 C   0  0  0  0  0  0  0  0  0  0  0  0
    2.4785    0.2447   -1.3257 C   0  0  0  0  0  0  0  0  0  0  0  0
    2.3714    1.2990   -1.9384 O   0  0  0  0  0  0  0  0  0  0  0  0
    3.5969   -0.1153   -0.6487 O   0  0  0  0  0  0  0  0  0  0  0  0
    0.2381    0.4970    0.6194 H   0  0  0  0  0  0  0  0  0  0  0  0
   -0.0397    0.5037   -2.2349 H   0  0  0  0  0  0  0  0  0  0  0  0
    1.5160   -1.3146   -0.2914 H   0  0  0  0  0  0  0  0  0  0  0  0
    1.5759   -1.5683   -2.0199 H   0  0  0  0  0  0  0  0  0  0  0  0
    4.3293    0.5368   -0.6824 H   0  0  0  0  0  0  0  0  0  0  0  0
   -0.7380   -2.4133   -0.8490 N   0  0  0  0  0  0  0  0  0  0  0  0
   -1.5861   -3.5824   -0.8566 C   0  0  2  0  0  0  0  0  0  0  0  0
   -1.5837   -4.1559   -2.2675 C   0  0  0  0  0  0  0  0  0  0  0  0
   -1.3038   -3.4896   -3.2619 O   0  0  0  0  0  0  0  0  0  0  0  0
   -2.9997   -3.2435   -0.4100 C   0  0  0  0  0  0  0  0  0  0  0  0
    0.1286   -2.4434   -0.3200 H   0  0  0  0  0  0  0  0  0  0  0  0
   -1.1352   -4.3047   -0.1674 H   0  0  0  0  0  0  0  0  0  0  0  0
   -3.4678   -2.5210   -1.0885 H   0  0  0  0  0  0  0  0  0  0  0  0
   -3.6338   -4.1360   -0.3890 H   0  0  0  0  0  0  0  0  0  0  0  0
   -2.9966   -2.8037    0.5931 H   0  0  0  0  0  0  0  0  0  0  0  0
   -1.9728   -5.4879   -2.2901 N   0  0  0  0  0  0  0  0  0  0  0  0
   -2.0625   -6.2533   -3.5117 C   0  0  0  0  0  0  0  0  0  0  0  0
   -2.1684   -5.9662   -1.4157 H   0  0  0  0  0  0  0  0  0  0  0  0
   -3.0871   -6.1942   -3.9075 H   0  0  0  0  0  0  0  0  0  0  0  0
   -1.3593   -5.8451   -4.2525 H   0  0  0  0  0  0  0  0  0  0  0  0
   -1.8092   -7.3037   -3.3055 H   0  0  0  0  0  0  0  0  0  0  0  0
  1  3  1  0  0  0  0
  1  7  1  0  0  0  0
  1  2  2  0  0  0  0
 31 32  1  0  0  0  0
 32 40  1  0  0  0  0
 32 33  2  0  0  0  0
  8  9  1  0  0  0  0
  9 17  1  0  0  0  0
  9 10  2  0  0  0  0
 18 19  1  0  0  0  0
 19 30  1  0  0  0  0
 19 20  2  0  0  0  0
 21 22  1  0  0  0  0
 22 23  2  0  0  0  0
 22 24  1  0  0  0  0
 31 34  1  0  0  0  0
  8 11  1  0  0  0  0
 40 41  1  0  0  0  0
 18 21  1  0  0  0  0
 30 31  1  0  0  0  0
  7  8  1  0  0  0  0
 17 18  1  0  0  0  0
  3  4  1  0  0  0  0
  3  5  1  0  0  0  0
  3  6  1  0  0  0  0
 34 37  1  0  0  0  0
 34 38  1  0  0  0  0
 34 39  1  0  0  0  0
 11 14  1  0  0  0  0
 11 15  1  0  0  0  0
 11 16  1  0  0  0  0
 41 43  1  0  0  0  0
 41 44  1  0  0  0  0
 41 45  1  0  0  0  0
 21 27  1  0  0  0  0
 21 28  1  0  0  0  0
 31 36  1  0  0  0  0
  8 13  1  0  0  0  0
 18 26  1  0  0  0  0
 40 42  1  0  0  0  0
  7 12  1  0  0  0  0
 30 35  1  0  0  0  0
 17 25  1  0  0  0  0
 24 29  1  0  0  0  0
M  END
$$$$

  -OEChem-05262214473D

 45 44  0     1  0  0  0  0  0999 V2000
   -2.2987    4.1032   -0.3022 C   0  0  0  0  0  0  0  0  0  0  0  0
   -1.8049    3.7117   -1.3532 O   0  0  0  0  0  0  0  0  0  0  0  0
   -3.0791    5.3755   -0.2846 C   0  0  0  0  0  0  0  0  0  0  0  0
   -2.4478    6.2532   -0.0717 H   0  0  0  0  0  0  0  0  0  0  0  0
   -3.5571    5.5891   -1.2541 H   0  0  0  0  0  0  0  0  0  0  0  0
   -3.8940    5.4184    0.4556 H   0  0  0  0  0  0  0  0  0  0  0  0
   -2.2137    3.4712    0.9275 N   0  0  0  0  0  0  0  0  0  0  0  0
   -1.5102    2.2327    1.1338 C   0  0  2  0  0  0  0  0  0  0  0  0
   -1.3539    1.5497   -0.2184 C   0  0  0  0  0  0  0  0  0  0  0  0
   -2.0852    1.7861   -1.1778 O   0  0  0  0  0  0  0  0  0  0  0  0
   -2.2477    1.3342    2.1145 C   0  0  0  0  0  0  0  0  0  0  0  0
   -2.6724    3.9052    1.7265 H   0  0  0  0  0  0  0  0  0  0  0  0
   -0.5220    2.4922    1.5290 H   0  0  0  0  0  0  0  0  0  0  0  0
   -3.2400    1.0636    1.7358 H   0  0  0  0  0  0  0  0  0  0  0  0
   -1.6970    0.4046    2.2923 H   0  0  0  0  0  0  0  0  0  0  0  0
   -2.3854    1.8384    3.0772 H   0  0  0  0  0  0  0  0  0  0  0  0
   -0.3283    0.6116   -0.2182 N   0  0  0  0  0  0  0  0  0  0  0  0
    0.0090   -0.1762   -1.3759 C   0  0  2  0  0  0  0  0  0  0  0  0
   -1.0594   -1.2505   -1.5351 C   0  0  0  0  0  0  0  0  0  0  0  0
   -1.9129   -1.2199   -2.4194 O   0  0  0  0  0  0  0  0  0  0  0  0
    1.3953   -0.8035   -1.2549 C   0  0  0  0  0  0  0  0  0  0  0  0
    2.4785    0.2447   -1.3257 C   0  0  0  0  0  0  0  0  0  0  0  0
    2.3714    1.2990   -1.9384 O   0  0  0  0  0  0  0  0  0  0  0  0
    3.5969   -0.1153   -0.6487 O   0  0  0  0  0  0  0  0  0  0  0  0
    0.2381    0.4970    0.6194 H   0  0  0  0  0  0  0  0  0  0  0  0
   -0.0397    0.5037   -2.2349 H   0  0  0  0  0  0  0  0  0  0  0  0
    1.5160   -1.3146   -0.2914 H   0  0  0  0  0  0  0  0  0  0  0  0
    1.5759   -1.5683   -2.0199 H   0  0  0  0  0  0  0  0  0  0  0  0
    4.3293    0.5368   -0.6824 H   0  0  0  0  0  0  0  0  0  0  0  0
   -0.9182   -2.2704   -0.6045 N   0  0  0  0  0  0  0  0  0  0  0  0
   -1.8015   -3.4122   -0.5596 C   0  0  2  0  0  0  0  0  0  0  0  0
   -1.5703   -4.2355   -1.8198 C   0  0  0  0  0  0  0  0  0  0  0  0
   -1.0870   -3.7666   -2.8482 O   0  0  0  0  0  0  0  0  0  0  0  0
   -3.2562   -2.9825   -0.4502 C   0  0  0  0  0  0  0  0  0  0  0  0
   -0.1631   -2.2114    0.0724 H   0  0  0  0  0  0  0  0  0  0  0  0
   -1.5142   -3.9999    0.3191 H   0  0  0  0  0  0  0  0  0  0  0  0
   -3.5622   -2.3925   -1.3218 H   0  0  0  0  0  0  0  0  0  0  0  0
   -3.9223   -3.8493   -0.3875 H   0  0  0  0  0  0  0  0  0  0  0  0
   -3.4144   -2.3656    0.4410 H   0  0  0  0  0  0  0  0  0  0  0  0
   -2.0071   -5.5449   -1.6752 N   0  0  0  0  0  0  0  0  0  0  0  0
   -1.9090   -6.5211   -2.7352 C   0  0  0  0  0  0  0  0  0  0  0  0
   -2.3777   -5.8521   -0.7808 H   0  0  0  0  0  0  0  0  0  0  0  0
   -2.8420   -6.5254   -3.3178 H   0  0  0  0  0  0  0  0  0  0  0  0
   -1.0667   -6.2634   -3.3940 H   0  0  0  0  0  0  0  0  0  0  0  0
   -1.7433   -7.5181   -2.3011 H   0  0  0  0  0  0  0  0  0  0  0  0
  1  3  1  0  0  0  0
  1  7  1  0  0  0  0
  1  2  2  0  0  0  0
 31 32  1  0  0  0  0
 32 40  1  0  0  0  0
 32 33  2  0  0  0  0
  8  9  1  0  0  0  0
  9 17  1  0  0  0  0
  9 10  2  0  0  0  0
 18 19  1  0  0  0  0
 19 30  1  0  0  0  0
 19 20  2  0  0  0  0
 21 22  1  0  0  0  0
 22 23  2  0  0  0  0
 22 24  1  0  0  0  0
 31 34  1  0  0  0  0
  8 11  1  0  0  0  0
 40 41  1  0  0  0  0
 18 21  1  0  0  0  0
 30 31  1  0  0  0  0
  7  8  1  0  0  0  0
 17 18  1  0  0  0  0
  3  4  1  0  0  0  0
  3  5  1  0  0  0  0
  3  6  1  0  0  0  0
 34 37  1  0  0  0  0
 34 38  1  0  0  0  0
 34 39  1  0  0  0  0
 11 14  1  0  0  0  0
 11 15  1  0  0  0  0
 11 16  1  0  0  0  0
 41 43  1  0  0  0  0
 41 44  1  0  0  0  0
 41 45  1  0  0  0  0
 21 27  1  0  0  0  0
 21 28  1  0  0  0  0
 31 36  1  0  0  0  0
  8 13  1  0  0  0  0
 18 26  1  0  0  0  0
 40 42  1  0  0  0  0
  7 12  1  0  0  0  0
 30 35  1  0  0  0  0
 17 25  1  0  0  0  0
 24 29  1  0  0  0  0
M  END
$$$$

  -OEChem-05262214473D

 45 44  0     1  0  0  0  0  0999 V2000
   -2.2987    4.1032   -0.3022 C   0  0  0  0  0  0  0  0  0  0  0  0
   -1.8049    3.7117   -1.3532 O   0  0  0  0  0  0  0  0  0  0  0  0
   -3.0791    5.3755   -0.2846 C   0  0  0  0  0  0  0  0  0  0  0  0
   -2.4478    6.2532   -0.0717 H   0  0  0  0  0  0  0  0  0  0  0  0
   -3.5571    5.5891   -1.2541 H   0  0  0  0  0  0  0  0  0  0  0  0
   -3.8940    5.4184    0.4556 H   0  0  0  0  0  0  0  0  0  0  0  0
   -2.2137    3.4712    0.9275 N   0  0  0  0  0  0  0  0  0  0  0  0
   -1.5102    2.2327    1.1338 C   0  0  2  0  0  0  0  0  0  0  0  0
   -1.3539    1.5497   -0.2184 C   0  0  0  0  0  0  0  0  0  0  0  0
   -2.0852    1.7861   -1.1778 O   0  0  0  0  0  0  0  0  0  0  0  0
   -2.2477    1.3342    2.1145 C   0  0  0  0  0  0  0  0  0  0  0  0
   -2.6724    3.9052    1.7265 H   0  0  0  0  0  0  0  0  0  0  0  0
   -0.5220    2.4922    1.5290 H   0  0  0  0  0  0  0  0  0  0  0  0
   -3.2400    1.0636    1.7358 H   0  0  0  0  0  0  0  0  0  0  0  0
   -1.6970    0.4046    2.2923 H   0  0  0  0  0  0  0  0  0  0  0  0
   -2.3854    1.8384    3.0772 H   0  0  0  0  0  0  0  0  0  0  0  0
   -0.3283    0.6116   -0.2182 N   0  0  0  0  0  0  0  0  0  0  0  0
    0.0090   -0.1762   -1.3759 C   0  0  2  0  0  0  0  0  0  0  0  0
   -1.0594   -1.2505   -1.5351 C   0  0  0  0  0  0  0  0  0  0  0  0
   -1.7376   -1.3745   -2.5529 O   0  0  0  0  0  0  0  0  0  0  0  0
    1.3953   -0.8035   -1.2549 C   0  0  0  0  0  0  0  0  0  0  0  0
    2.4785    0.2447   -1.3257 C   0  0  0  0  0  0  0  0  0  0  0  0
    2.3714    1.2990   -1.9384 O   0  0  0  0  0  0  0  0  0  0  0  0
    3.5969   -0.1153   -0.6487 O   0  0  0  0  0  0  0  0  0  0  0  0
    0.2381    0.4970    0.6194 H   0  0  0  0  0  0  0  0  0  0  0  0
   -0.0397    0.5037   -2.2349 H   0  0  0  0  0  0  0  0  0  0  0  0
    1.5160   -1.3146   -0.2914 H   0  0  0  0  0  0  0  0  0  0  0  0
    1.5759   -1.5683   -2.0199 H   0  0  0  0  0  0  0  0  0  0  0  0
    4.3293    0.5368   -0.6824 H   0  0  0  0  0  0  0  0  0  0  0  0
   -1.1329   -2.0831   -0.4272 N   0  0  0  0  0  0  0  0  0  0  0  0
   -2.0592   -3.1881   -0.3428 C   0  0  2  0  0  0  0  0  0  0  0  0
   -1.6413   -4.2316   -1.3704 C   0  0  0  0  0  0  0  0  0  0  0  0
   -0.9606   -3.9648   -2.3587 O   0  0  0  0  0  0  0  0  0  0  0  0
   -3.4895   -2.7308   -0.5832 C   0  0  0  0  0  0  0  0  0  0  0  0
   -0.5102   -1.9083    0.3560 H   0  0  0  0  0  0  0  0  0  0  0  0
   -1.9608   -3.6070    0.6646 H   0  0  0  0  0  0  0  0  0  0  0  0
   -3.6075   -2.3081   -1.5876 H   0  0  0  0  0  0  0  0  0  0  0  0
   -4.1934   -3.5644   -0.4906 H   0  0  0  0  0  0  0  0  0  0  0  0
   -3.7783   -1.9588    0.1383 H   0  0  0  0  0  0  0  0  0  0  0  0
   -2.1540   -5.4875   -1.0772 N   0  0  0  0  0  0  0  0  0  0  0  0
   -1.9097   -6.6429   -1.9085 C   0  0  0  0  0  0  0  0  0  0  0  0
   -2.6927   -5.6210   -0.2264 H   0  0  0  0  0  0  0  0  0  0  0  0
   -2.7219   -6.7449   -2.6434 H   0  0  0  0  0  0  0  0  0  0  0  0
   -0.9520   -6.5195   -2.4354 H   0  0  0  0  0  0  0  0  0  0  0  0
   -1.8688   -7.5447   -1.2800 H   0  0  0  0  0  0  0  0  0  0  0  0
  1  3  1  0  0  0  0
  1  7  1  0  0  0  0
  1  2  2  0  0  0  0
 31 32  1  0  0  0  0
 32 40  1  0  0  0  0
 32 33  2  0  0  0  0
  8  9  1  0  0  0  0
  9 17  1  0  0  0  0
  9 10  2  0  0  0  0
 18 19  1  0  0  0  0
 19 30  1  0  0  0  0
 19 20  2  0  0  0  0
 21 22  1  0  0  0  0
 22 23  2  0  0  0  0
 22 24  1  0  0  0  0
 31 34  1  0  0  0  0
  8 11  1  0  0  0  0
 40 41  1  0  0  0  0
 18 21  1  0  0  0  0
 30 31  1  0  0  0  0
  7  8  1  0  0  0  0
 17 18  1  0  0  0  0
  3  4  1  0  0  0  0
  3  5  1  0  0  0  0
  3  6  1  0  0  0  0
 34 37  1  0  0  0  0
 34 38  1  0  0  0  0
 34 39  1  0  0  0  0
 11 14  1  0  0  0  0
 11 15  1  0  0  0  0
 11 16  1  0  0  0  0
 41 43  1  0  0  0  0
 41 44  1  0  0  0  0
 41 45  1  0  0  0  0
 21 27  1  0  0  0  0
 21 28  1  0  0  0  0
 31 36  1  0  0  0  0
  8 13  1  0  0  0  0
 18 26  1  0  0  0  0
 40 42  1  0  0  0  0
  7 12  1  0  0  0  0
 30 35  1  0  0  0  0
 17 25  1  0  0  0  0
 24 29  1  0  0  0  0
M  END
$$$$

  -OEChem-05262214473D

 45 44  0     1  0  0  0  0  0999 V2000
   -2.2987    4.1032   -0.3022 C   0  0  0  0  0  0  0  0  0  0  0  0
   -1.8049    3.7117   -1.3532 O   0  0  0  0  0  0  0  0  0  0  0  0
   -3.0791    5.3755   -0.2846 C   0  0  0  0  0  0  0  0  0  0  0  0
   -2.4478    6.2532   -0.0717 H   0  0  0  0  0  0  0  0  0  0  0  0
   -3.5571    5.5891   -1.2541 H   0  0  0  0  0  0  0  0  0  0  0  0
   -3.8940    5.4184    0.4556 H   0  0  0  0  0  0  0  0  0  0  0  0
   -2.2137    3.4712    0.9275 N   0  0  0  0  0  0  0  0  0  0  0  0
   -1.5102    2.2327    1.1338 C   0  0  2  0  0  0  0  0  0  0  0  0
   -1.3539    1.5497   -0.2184 C   0  0  0  0  0  0  0  0  0  0  0  0
   -2.0852    1.7861   -1.1778 O   0  0  0  0  0  0  0  0  0  0  0  0
   -2.2477    1.3342    2.1145 C   0  0  0  0  0  0  0  0  0  0  0  0
   -2.6724    3.9052    1.7265 H   0  0  0  0  0  0  0  0  0  0  0  0
   -0.5220    2.4922    1.5290 H   0  0  0  0  0  0  0  0  0  0  0  0
   -3.2400    1.0636    1.7358 H   0  0  0  0  0  0  0  0  0  0  0  0
   -1.6970    0.4046    2.2923 H   0  0  0  0  0  0  0  0  0  0  0  0
   -2.3854    1.8384    3.0772 H   0  0  0  0  0  0  0  0  0  0  0  0
   -0.3283    0.6116   -0.2182 N   0  0  0  0  0  0  0  0  0  0  0  0
    0.0090   -0.1762   -1.3759 C   0  0  2  0  0  0  0  0  0  0  0  0
   -1.0594   -1.2505   -1.5351 C   0  0  0  0  0  0  0  0  0  0  0  0
   -1.5480   -1.5527   -2.6219 O   0  0  0  0  0  0  0  0  0  0  0  0
    1.3953   -0.8035   -1.2549 C   0  0  0  0  0  0  0  0  0  0  0  0
    2.4785    0.2447   -1.3257 C   0  0  0  0  0  0  0  0  0  0  0  0
    2.3714    1.2990   -1.9384 O   0  0  0  0  0  0  0  0  0  0  0  0
    3.5969   -0.1153   -0.6487 O   0  0  0  0  0  0  0  0  0  0  0  0
    0.2381    0.4970    0.6194 H   0  0  0  0  0  0  0  0  0  0  0  0
   -0.0397    0.5037   -2.2349 H   0  0  0  0  0  0  0  0  0  0  0  0
    1.5160   -1.3146   -0.2914 H   0  0  0  0  0  0  0  0  0  0  0  0
    1.5759   -1.5683   -2.0199 H   0  0  0  0  0  0  0  0  0  0  0  0
    4.3293    0.5368   -0.6824 H   0  0  0  0  0  0  0  0  0  0  0  0
   -1.3677   -1.8642   -0.3291 N   0  0  0  0  0  0  0  0  0  0  0  0
   -2.3416   -2.9253   -0.2211 C   0  0  2  0  0  0  0  0  0  0  0  0
   -1.7918   -4.1443   -0.9501 C   0  0  0  0  0  0  0  0  0  0  0  0
   -0.9333   -4.0708   -1.8268 O   0  0  0  0  0  0  0  0  0  0  0  0
   -3.6837   -2.5054   -0.7999 C   0  0  0  0  0  0  0  0  0  0  0  0
   -0.8890   -1.5546    0.5116 H   0  0  0  0  0  0  0  0  0  0  0  0
   -2.4446   -3.1526    0.8455 H   0  0  0  0  0  0  0  0  0  0  0  0
   -3.6003   -2.2736   -1.8680 H   0  0  0  0  0  0  0  0  0  0  0  0
   -4.4288   -3.3006   -0.6915 H   0  0  0  0  0  0  0  0  0  0  0  0
   -4.0635   -1.6110   -0.2944 H   0  0  0  0  0  0  0  0  0  0  0  0
   -2.4036   -5.3194   -0.5367 N   0  0  0  0  0  0  0  0  0  0  0  0
   -2.0646   -6.6106   -1.0881 C   0  0  0  0  0  0  0  0  0  0  0  0
   -3.0920   -5.2887    0.2096 H   0  0  0  0  0  0  0  0  0  0  0  0
   -2.7348   -6.8377   -1.9302 H   0  0  0  0  0  0  0  0  0  0  0  0
   -1.0232   -6.5960   -1.4421 H   0  0  0  0  0  0  0  0  0  0  0  0
   -2.1771   -7.3817   -0.3117 H   0  0  0  0  0  0  0  0  0  0  0  0
  1  3  1  0  0  0  0
  1  7  1  0  0  0  0
  1  2  2  0  0  0  0
 31 32  1  0  0  0  0
 32 40  1  0  0  0  0
 32 33  2  0  0  0  0
  8  9  1  0  0  0  0
  9 17  1  0  0  0  0
  9 10  2  0  0  0  0
 18 19  1  0  0  0  0
 19 30  1  0  0  0  0
 19 20  2  0  0  0  0
 21 22  1  0  0  0  0
 22 23  2  0  0  0  0
 22 24  1  0  0  0  0
 31 34  1  0  0  0  0
  8 11  1  0  0  0  0
 40 41  1  0  0  0  0
 18 21  1  0  0  0  0
 30 31  1  0  0  0  0
  7  8  1  0  0  0  0
 17 18  1  0  0  0  0
  3  4  1  0  0  0  0
  3  5  1  0  0  0  0
  3  6  1  0  0  0  0
 34 37  1  0  0  0  0
 34 38  1  0  0  0  0
 34 39  1  0  0  0  0
 11 14  1  0  0  0  0
 11 15  1  0  0  0  0
 11 16  1  0  0  0  0
 41 43  1  0  0  0  0
 41 44  1  0  0  0  0
 41 45  1  0  0  0  0
 21 27  1  0  0  0  0
 21 28  1  0  0  0  0
 31 36  1  0  0  0  0
  8 13  1  0  0  0  0
 18 26  1  0  0  0  0
 40 42  1  0  0  0  0
  7 12  1  0  0  0  0
 30 35  1  0  0  0  0
 17 25  1  0  0  0  0
 24 29  1  0  0  0  0
M  END
$$$$

  -OEChem-05262214473D

 45 44  0     1  0  0  0  0  0999 V2000
   -2.2987    4.1032   -0.3022 C   0  0  0  0  0  0  0  0  0  0  0  0
   -1.8049    3.7117   -1.3532 O   0  0  0  0  0  0  0  0  0  0  0  0
   -3.0791    5.3755   -0.2846 C   0  0  0  0  0  0  0  0  0  0  0  0
   -2.4478    6.2532   -0.0717 H   0  0  0  0  0  0  0  0  0  0  0  0
   -3.5571    5.5891   -1.2541 H   0  0  0  0  0  0  0  0  0  0  0  0
   -3.8940    5.4184    0.4556 H   0  0  0  0  0  0  0  0  0  0  0  0
   -2.2137    3.4712    0.9275 N   0  0  0  0  0  0  0  0  0  0  0  0
   -1.5102    2.2327    1.1338 C   0  0  2  0  0  0  0  0  0  0  0  0
   -1.3539    1.5497   -0.2184 C   0  0  0  0  0  0  0  0  0  0  0  0
   -2.0852    1.7861   -1.1778 O   0  0  0  0  0  0  0  0  0  0  0  0
   -2.2477    1.3342    2.1145 C   0  0  0  0  0  0  0  0  0  0  0  0
   -2.6724    3.9052    1.7265 H   0  0  0  0  0  0  0  0  0  0  0  0
   -0.5220    2.4922    1.5290 H   0  0  0  0  0  0  0  0  0  0  0  0
   -3.2400    1.0636    1.7358 H   0  0  0  0  0  0  0  0  0  0  0  0
   -1.6970    0.4046    2.2923 H   0  0  0  0  0  0  0  0  0  0  0  0
   -2.3854    1.8384    3.0772 H   0  0  0  0  0  0  0  0  0  0  0  0
   -0.3283    0.6116   -0.2182 N   0  0  0  0  0  0  0  0  0  0  0  0
    0.0090   -0.1762   -1.3759 C   0  0  2  0  0  0  0  0  0  0  0  0
   -1.0594   -1.2505   -1.5351 C   0  0  0  0  0  0  0  0  0  0  0  0
   -1.3572   -1.7425   -2.6216 O   0  0  0  0  0  0  0  0  0  0  0  0
    1.3953   -0.8035   -1.2549 C   0  0  0  0  0  0  0  0  0  0  0  0
    2.4785    0.2447   -1.3257 C   0  0  0  0  0  0  0  0  0  0  0  0
    2.3714    1.2990   -1.9384 O   0  0  0  0  0  0  0  0  0  0  0  0
    3.5969   -0.1153   -0.6487 O   0  0  0  0  0  0  0  0  0  0  0  0
    0.2381    0.4970    0.6194 H   0  0  0  0  0  0  0  0  0  0  0  0
   -0.0397    0.5037   -2.2349 H   0  0  0  0  0  0  0  0  0  0  0  0
    1.5160   -1.3146   -0.2914 H   0  0  0  0  0  0  0  0  0  0  0  0
    1.5759   -1.5683   -2.0199 H   0  0  0  0  0  0  0  0  0  0  0  0
    4.3293    0.5368   -0.6824 H   0  0  0  0  0  0  0  0  0  0  0  0
   -1.6064   -1.6286   -0.3170 N   0  0  0  0  0  0  0  0  0  0  0  0
   -2.6294   -2.6417   -0.2029 C   0  0  2  0  0  0  0  0  0  0  0  0
   -2.0115   -3.9795   -0.5873 C   0  0  0  0  0  0  0  0  0  0  0  0
   -1.0068   -4.0775   -1.2888 O   0  0  0  0  0  0  0  0  0  0  0  0
   -3.8258   -2.3218   -1.0856 C   0  0  0  0  0  0  0  0  0  0  0  0
   -1.2738   -1.1745    0.5286 H   0  0  0  0  0  0  0  0  0  0  0  0
   -2.9327   -2.6678    0.8494 H   0  0  0  0  0  0  0  0  0  0  0  0
   -3.5413   -2.2914   -2.1437 H   0  0  0  0  0  0  0  0  0  0  0  0
   -4.6123   -3.0758   -0.9764 H   0  0  0  0  0  0  0  0  0  0  0  0
   -4.2507   -1.3458   -0.8275 H   0  0  0  0  0  0  0  0  0  0  0  0
   -2.7387   -5.0523   -0.0908 N   0  0  0  0  0  0  0  0  0  0  0  0
   -2.3630   -6.4262   -0.3297 C   0  0  0  0  0  0  0  0  0  0  0  0
   -3.5481   -4.8777    0.4975 H   0  0  0  0  0  0  0  0  0  0  0  0
   -2.8801   -6.7976   -1.2268 H   0  0  0  0  0  0  0  0  0  0  0  0
   -1.2753   -6.4877   -0.4817 H   0  0  0  0  0  0  0  0  0  0  0  0
   -2.6472   -7.0401    0.5377 H   0  0  0  0  0  0  0  0  0  0  0  0
  1  3  1  0  0  0  0
  1  7  1  0  0  0  0
  1  2  2  0  0  0  0
 31 32  1  0  0  0  0
 32 40  1  0  0  0  0
 32 33  2  0  0  0  0
  8  9  1  0  0  0  0
  9 17  1  0  0  0  0
  9 10  2  0  0  0  0
 18 19  1  0  0  0  0
 19 30  1  0  0  0  0
 19 20  2  0  0  0  0
 21 22  1  0  0  0  0
 22 23  2  0  0  0  0
 22 24  1  0  0  0  0
 31 34  1  0  0  0  0
  8 11  1  0  0  0  0
 40 41  1  0  0  0  0
 18 21  1  0  0  0  0
 30 31  1  0  0  0  0
  7  8  1  0  0  0  0
 17 18  1  0  0  0  0
  3  4  1  0  0  0  0
  3  5  1  0  0  0  0
  3  6  1  0  0  0  0
 34 37  1  0  0  0  0
 34 38  1  0  0  0  0
 34 39  1  0  0  0  0
 11 14  1  0  0  0  0
 11 15  1  0  0  0  0
 11 16  1  0  0  0  0
 41 43  1  0  0  0  0
 41 44  1  0  0  0  0
 41 45  1  0  0  0  0
 21 27  1  0  0  0  0
 21 28  1  0  0  0  0
 31 36  1  0  0  0  0
  8 13  1  0  0  0  0
 18 26  1  0  0  0  0
 40 42  1  0  0  0  0
  7 12  1  0  0  0  0
 30 35  1  0  0  0  0
 17 25  1  0  0  0  0
 24 29  1  0  0  0  0
M  END
$$$$

  -OEChem-05262214473D

 45 44  0     1  0  0  0  0  0999 V2000
   -2.2987    4.1032   -0.3022 C   0  0  0  0  0  0  0  0  0  0  0  0
   -1.8049    3.7117   -1.3532 O   0  0  0  0  0  0  0  0  0  0  0  0
   -3.0791    5.3755   -0.2846 C   0  0  0  0  0  0  0  0  0  0  0  0
   -2.4478    6.2532   -0.0717 H   0  0  0  0  0  0  0  0  0  0  0  0
   -3.5571    5.5891   -1.2541 H   0  0  0  0  0  0  0  0  0  0  0  0
   -3.8940    5.4184    0.4556 H   0  0  0  0  0  0  0  0  0  0  0  0
   -2.2137    3.4712    0.9275 N   0  0  0  0  0  0  0  0  0  0  0  0
   -1.5102    2.2327    1.1338 C   0  0  2  0  0  0  0  0  0  0  0  0
   -1.3539    1.5497   -0.2184 C   0  0  0  0  0  0  0  0  0  0  0  0
   -2.0852    1.7861   -1.1778 O   0  0  0  0  0  0  0  0  0  0  0  0
   -2.2477    1.3342    2.1145 C   0  0  0  0  0  0  0  0  0  0  0  0
   -2.6724    3.9052    1.7265 H   0  0  0  0  0  0  0  0  0  0  0  0
   -0.5220    2.4922    1.5290 H   0  0  0  0  0  0  0  0  0  0  0  0
   -3.2400    1.0636    1.7358 H   0  0  0  0  0  0  0  0  0  0  0  0
   -1.6970    0.4046    2.2923 H   0  0  0  0  0  0  0  0  0  0  0  0
   -2.3854    1.8384    3.0772 H   0  0  0  0  0  0  0  0  0  0  0  0
   -0.3283    0.6116   -0.2182 N   0  0  0  0  0  0  0  0  0  0  0  0
    0.0090   -0.1762   -1.3759 C   0  0  2  0  0  0  0  0  0  0  0  0
   -1.0594   -1.2505   -1.5351 C   0  0  0  0  0  0  0  0  0  0  0  0
   -1.1781   -1.9310   -2.5520 O   0  0  0  0  0  0  0  0  0  0  0  0
    1.3953   -0.8035   -1.2549 C   0  0  0  0  0  0  0  0  0  0  0  0
    2.4785    0.2447   -1.3257 C   0  0  0  0  0  0  0  0  0  0  0  0
    2.3714    1.2990   -1.9384 O   0  0  0  0  0  0  0  0  0  0  0  0
    3.5969   -0.1153   -0.6487 O   0  0  0  0  0  0  0  0  0  0  0  0
    0.2381    0.4970    0.6194 H   0  0  0  0  0  0  0  0  0  0  0  0
   -0.0397    0.5037   -2.2349 H   0  0  0  0  0  0  0  0  0  0  0  0
    1.5160   -1.3146   -0.2914 H   0  0  0  0  0  0  0  0  0  0  0  0
    1.5759   -1.5683   -2.0199 H   0  0  0  0  0  0  0  0  0  0  0  0
    4.3293    0.5368   -0.6824 H   0  0  0  0  0  0  0  0  0  0  0  0
   -1.8328   -1.3924   -0.3915 N   0  0  0  0  0  0  0  0  0  0  0  0
   -2.9032   -2.3567   -0.2892 C   0  0  2  0  0  0  0  0  0  0  0  0
   -2.2854   -3.7487   -0.3069 C   0  0  0  0  0  0  0  0  0  0  0  0
   -1.1762   -3.9843   -0.7814 O   0  0  0  0  0  0  0  0  0  0  0  0
   -3.9058   -2.1925   -1.4208 C   0  0  0  0  0  0  0  0  0  0  0  0
   -1.6382   -0.7939    0.4058 H   0  0  0  0  0  0  0  0  0  0  0  0
   -3.3918   -2.1856    0.6762 H   0  0  0  0  0  0  0  0  0  0  0  0
   -3.4345   -2.3602   -2.3961 H   0  0  0  0  0  0  0  0  0  0  0  0
   -4.7315   -2.9054   -1.3258 H   0  0  0  0  0  0  0  0  0  0  0  0
   -4.3270   -1.1814   -1.4247 H   0  0  0  0  0  0  0  0  0  0  0  0
   -3.1366   -4.7042    0.2304 N   0  0  0  0  0  0  0  0  0  0  0  0
   -2.7847   -6.1024    0.3149 C   0  0  0  0  0  0  0  0  0  0  0  0
   -4.0302   -4.4161    0.6178 H   0  0  0  0  0  0  0  0  0  0  0  0
   -3.1476   -6.6272   -0.5811 H   0  0  0  0  0  0  0  0  0  0  0  0
   -1.6911   -6.2019    0.3802 H   0  0  0  0  0  0  0  0  0  0  0  0
   -3.2471   -6.5433    1.2104 H   0  0  0  0  0  0  0  0  0  0  0  0
  1  3  1  0  0  0  0
  1  7  1  0  0  0  0
  1  2  2  0  0  0  0
 31 32  1  0  0  0  0
 32 40  1  0  0  0  0
 32 33  2  0  0  0  0
  8  9  1  0  0  0  0
  9 17  1  0  0  0  0
  9 10  2  0  0  0  0
 18 19  1  0  0  0  0
 19 30  1  0  0  0  0
 19 20  2  0  0  0  0
 21 22  1  0  0  0  0
 22 23  2  0  0  0  0
 22 24  1  0  0  0  0
 31 34  1  0  0  0  0
  8 11  1  0  0  0  0
 40 41  1  0  0  0  0
 18 21  1  0  0  0  0
 30 31  1  0  0  0  0
  7  8  1  0  0  0  0
 17 18  1  0  0  0  0
  3  4  1  0  0  0  0
  3  5  1  0  0  0  0
  3  6  1  0  0  0  0
 34 37  1  0  0  0  0
 34 38  1  0  0  0  0
 34 39  1  0  0  0  0
 11 14  1  0  0  0  0
 11 15  1  0  0  0  0
 11 16  1  0  0  0  0
 41 43  1  0  0  0  0
 41 44  1  0  0  0  0
 41 45  1  0  0  0  0
 21 27  1  0  0  0  0
 21 28  1  0  0  0  0
 31 36  1  0  0  0  0
  8 13  1  0  0  0  0
 18 26  1  0  0  0  0
 40 42  1  0  0  0  0
  7 12  1  0  0  0  0
 30 35  1  0  0  0  0
 17 25  1  0  0  0  0
 24 29  1  0  0  0  0
M  END
$$$$

  -OEChem-05262214473D

 45 44  0     1  0  0  0  0  0999 V2000
   -2.2987    4.1032   -0.3022 C   0  0  0  0  0  0  0  0  0  0  0  0
   -1.8049    3.7117   -1.3532 O   0  0  0  0  0  0  0  0  0  0  0  0
   -3.0791    5.3755   -0.2846 C   0  0  0  0  0  0  0  0  0  0  0  0
   -2.4478    6.2532   -0.0717 H   0  0  0  0  0  0  0  0  0  0  0  0
   -3.5571    5.5891   -1.2541 H   0  0  0  0  0  0  0  0  0  0  0  0
   -3.8940    5.4184    0.4556 H   0  0  0  0  0  0  0  0  0  0  0  0
   -2.2137    3.4712    0.9275 N   0  0  0  0  0  0  0  0  0  0  0  0
   -1.5102    2.2327    1.1338 C   0  0  2  0  0  0  0  0  0  0  0  0
   -1.3539    1.5497   -0.2184 C   0  0  0  0  0  0  0  0  0  0  0  0
   -2.0852    1.7861   -1.1778 O   0  0  0  0  0  0  0  0  0  0  0  0
   -2.2477    1.3342    2.1145 C   0  0  0  0  0  0  0  0  0  0  0  0
   -2.6724    3.9052    1.7265 H   0  0  0  0  0  0  0  0  0  0  0  0
   -0.5220    2.4922    1.5290 H   0  0  0  0  0  0  0  0  0  0  0  0
   -3.2400    1.0636    1.7358 H   0  0  0  0  0  0  0  0  0  0  0  0
   -1.6970    0.4046    2.2923 H   0  0  0  0  0  0  0  0  0  0  0  0
   -2.3854    1.8384    3.0772 H   0  0  0  0  0  0  0  0  0  0  0  0
   -0.3283    0.6116   -0.2182 N   0  0  0  0  0  0  0  0  0  0  0  0
    0.0090   -0.1762   -1.3759 C   0  0  2  0  0  0  0  0  0  0  0  0
   -1.0594   -1.2505   -1.5351 C   0  0  0  0  0  0  0  0  0  0  0  0
   -1.0228   -2.1053   -2.4179 O   0  0  0  0  0  0  0  0  0  0  0  0
    1.3953   -0.8035   -1.2549 C   0  0  0  0  0  0  0  0  0  0  0  0
    2.4785    0.2447   -1.3257 C   0  0  0  0  0  0  0  0  0  0  0  0
    2.3714    1.2990   -1.9384 O   0  0  0  0  0  0  0  0  0  0  0  0
    3.5969   -0.1153   -0.6487 O   0  0  0  0  0  0  0  0  0  0  0  0
    0.2381    0.4970    0.6194 H   0  0  0  0  0  0  0  0  0  0  0  0
   -0.0397    0.5037   -2.2349 H   0  0  0  0  0  0  0  0  0  0  0  0
    1.5160   -1.3146   -0.2914 H   0  0  0  0  0  0  0  0  0  0  0  0
    1.5759   -1.5683   -2.0199 H   0  0  0  0  0  0  0  0  0  0  0  0
    4.3293    0.5368   -0.6824 H   0  0  0  0  0  0  0  0  0  0  0  0
   -2.0315   -1.1716   -0.5478 N   0  0  0  0  0  0  0  0  0  0  0  0
   -3.1441   -2.0896   -0.4743 C   0  0  2  0  0  0  0  0  0  0  0  0
   -2.5950   -3.4673   -0.1280 C   0  0  0  0  0  0  0  0  0  0  0  0
   -1.4299   -3.7976   -0.3391 O   0  0  0  0  0  0  0  0  0  0  0  0
   -3.9185   -2.1263   -1.7827 C   0  0  0  0  0  0  0  0  0  0  0  0
   -1.9575   -0.4386    0.1515 H   0  0  0  0  0  0  0  0  0  0  0  0
   -3.7905   -1.7388    0.3375 H   0  0  0  0  0  0  0  0  0  0  0  0
   -3.2871   -2.4754   -2.6079 H   0  0  0  0  0  0  0  0  0  0  0  0
   -4.7783   -2.8011   -1.7160 H   0  0  0  0  0  0  0  0  0  0  0  0
   -4.2873   -1.1289   -2.0453 H   0  0  0  0  0  0  0  0  0  0  0  0
   -3.5701   -4.2989    0.4048 N   0  0  0  0  0  0  0  0  0  0  0  0
   -3.3009   -5.6613    0.8018 C   0  0  0  0  0  0  0  0  0  0  0  0
   -4.5053   -3.9354    0.5622 H   0  0  0  0  0  0  0  0  0  0  0  0
   -3.5193   -6.3382   -0.0372 H   0  0  0  0  0  0  0  0  0  0  0  0
   -2.2424   -5.7582    1.0851 H   0  0  0  0  0  0  0  0  0  0  0  0
   -3.9359   -5.9250    1.6605 H   0  0  0  0  0  0  0  0  0  0  0  0
  1  3  1  0  0  0  0
  1  7  1  0  0  0  0
  1  2  2  0  0  0  0
 31 32  1  0  0  0  0
 32 40  1  0  0  0  0
 32 33  2  0  0  0  0
  8  9  1  0  0  0  0
  9 17  1  0  0  0  0
  9 10  2  0  0  0  0
 18 19  1  0  0  0  0
 19 30  1  0  0  0  0
 19 20  2  0  0  0  0
 21 22  1  0  0  0  0
 22 23  2  0  0  0  0
 22 24  1  0  0  0  0
 31 34  1  0  0  0  0
  8 11  1  0  0  0  0
 40 41  1  0  0  0  0
 18 21  1  0  0  0  0
 30 31  1  0  0  0  0
  7  8  1  0  0  0  0
 17 18  1  0  0  0  0
  3  4  1  0  0  0  0
  3  5  1  0  0  0  0
  3  6  1  0  0  0  0
 34 37  1  0  0  0  0
 34 38  1  0  0  0  0
 34 39  1  0  0  0  0
 11 14  1  0  0  0  0
 11 15  1  0  0  0  0
 11 16  1  0  0  0  0
 41 43  1  0  0  0  0
 41 44  1  0  0  0  0
 41 45  1  0  0  0  0
 21 27  1  0  0  0  0
 21 28  1  0  0  0  0
 31 36  1  0  0  0  0
  8 13  1  0  0  0  0
 18 26  1  0  0  0  0
 40 42  1  0  0  0  0
  7 12  1  0  0  0  0
 30 35  1  0  0  0  0
 17 25  1  0  0  0  0
 24 29  1  0  0  0  0
M  END
$$$$

  -OEChem-05262214473D

 45 44  0     1  0  0  0  0  0999 V2000
   -2.2987    4.1032   -0.3022 C   0  0  0  0  0  0  0  0  0  0  0  0
   -1.8049    3.7117   -1.3532 O   0  0  0  0  0  0  0  0  0  0  0  0
   -3.0791    5.3755   -0.2846 C   0  0  0  0  0  0  0  0  0  0  0  0
   -2.4478    6.2532   -0.0717 H   0  0  0  0  0  0  0  0  0  0  0  0
   -3.5571    5.5891   -1.2541 H   0  0  0  0  0  0  0  0  0  0  0  0
   -3.8940    5.4184    0.4556 H   0  0  0  0  0  0  0  0  0  0  0  0
   -2.2137    3.4712    0.9275 N   0  0  0  0  0  0  0  0  0  0  0  0
   -1.5102    2.2327    1.1338 C   0  0  2  0  0  0  0  0  0  0  0  0
   -1.3539    1.5497   -0.2184 C   0  0  0  0  0  0  0  0  0  0  0  0
   -2.0852    1.7861   -1.1778 O   0  0  0  0  0  0  0  0  0  0  0  0
   -2.2477    1.3342    2.1145 C   0  0  0  0  0  0  0  0  0  0  0  0
   -2.6724    3.9052    1.7265 H   0  0  0  0  0  0  0  0  0  0  0  0
   -0.5220    2.4922    1.5290 H   0  0  0  0  0  0  0  0  0  0  0  0
   -3.2400    1.0636    1.7358 H   0  0  0  0  0  0  0  0  0  0  0  0
   -1.6970    0.4046    2.2923 H   0  0  0  0  0  0  0  0  0  0  0  0
   -2.3854    1.8384    3.0772 H   0  0  0  0  0  0  0  0  0  0  0  0
   -0.3283    0.6116   -0.2182 N   0  0  0  0  0  0  0  0  0  0  0  0
    0.0090   -0.1762   -1.3759 C   0  0  2  0  0  0  0  0  0  0  0  0
   -1.0594   -1.2505   -1.5351 C   0  0  0  0  0  0  0  0  0  0  0  0
   -0.9021   -2.2534   -2.2284 O   0  0  0  0  0  0  0  0  0  0  0  0
    1.3953   -0.8035   -1.2549 C   0  0  0  0  0  0  0  0  0  0  0  0
    2.4785    0.2447   -1.3257 C   0  0  0  0  0  0  0  0  0  0  0  0
    2.3714    1.2990   -1.9384 O   0  0  0  0  0  0  0  0  0  0  0  0
    3.5969   -0.1153   -0.6487 O   0  0  0  0  0  0  0  0  0  0  0  0
    0.2381    0.4970    0.6194 H   0  0  0  0  0  0  0  0  0  0  0  0
   -0.0397    0.5037   -2.2349 H   0  0  0  0  0  0  0  0  0  0  0  0
    1.5160   -1.3146   -0.2914 H   0  0  0  0  0  0  0  0  0  0  0  0
    1.5759   -1.5683   -2.0199 H   0  0  0  0  0  0  0  0  0  0  0  0
    4.3293    0.5368   -0.6824 H   0  0  0  0  0  0  0  0  0  0  0  0
   -2.1889   -0.9814   -0.7750 N   0  0  0  0  0  0  0  0  0  0  0  0
   -3.3358   -1.8588   -0.7456 C   0  0  2  0  0  0  0  0  0  0  0  0
   -2.9190   -3.1548   -0.0628 C   0  0  0  0  0  0  0  0  0  0  0  0
   -1.7506   -3.5300    0.0080 O   0  0  0  0  0  0  0  0  0  0  0  0
   -3.8629   -2.1276   -2.1465 C   0  0  0  0  0  0  0  0  0  0  0  0
   -2.2099   -0.1330   -0.2168 H   0  0  0  0  0  0  0  0  0  0  0  0
   -4.1018   -1.3580   -0.1435 H   0  0  0  0  0  0  0  0  0  0  0  0
   -3.1092   -2.6291   -2.7646 H   0  0  0  0  0  0  0  0  0  0  0  0
   -4.7494   -2.7698   -2.1204 H   0  0  0  0  0  0  0  0  0  0  0  0
   -4.1342   -1.1919   -2.6471 H   0  0  0  0  0  0  0  0  0  0  0  0
   -4.0096   -3.8641    0.4205 N   0  0  0  0  0  0  0  0  0  0  0  0
   -3.8764   -5.1328    1.0979 C   0  0  0  0  0  0  0  0  0  0  0  0
   -4.9411   -3.4682    0.3346 H   0  0  0  0  0  0  0  0  0  0  0  0
   -3.9697   -5.9503    0.3679 H   0  0  0  0  0  0  0  0  0  0  0  0
   -2.8915   -5.1867    1.5847 H   0  0  0  0  0  0  0  0  0  0  0  0
   -4.6666   -5.2275    1.8573 H   0  0  0  0  0  0  0  0  0  0  0  0
  1  3  1  0  0  0  0
  1  7  1  0  0  0  0
  1  2  2  0  0  0  0
 31 32  1  0  0  0  0
 32 40  1  0  0  0  0
 32 33  2  0  0  0  0
  8  9  1  0  0  0  0
  9 17  1  0  0  0  0
  9 10  2  0  0  0  0
 18 19  1  0  0  0  0
 19 30  1  0  0  0  0
 19 20  2  0  0  0  0
 21 22  1  0  0  0  0
 22 23  2  0  0  0  0
 22 24  1  0  0  0  0
 31 34  1  0  0  0  0
  8 11  1  0  0  0  0
 40 41  1  0  0  0  0
 18 21  1  0  0  0  0
 30 31  1  0  0  0  0
  7  8  1  0  0  0  0
 17 18  1  0  0  0  0
  3  4  1  0  0  0  0
  3  5  1  0  0  0  0
  3  6  1  0  0  0  0
 34 37  1  0  0  0  0
 34 38  1  0  0  0  0
 34 39  1  0  0  0  0
 11 14  1  0  0  0  0
 11 15  1  0  0  0  0
 11 16  1  0  0  0  0
 41 43  1  0  0  0  0
 41 44  1  0  0  0  0
 41 45  1  0  0  0  0
 21 27  1  0  0  0  0
 21 28  1  0  0  0  0
 31 36  1  0  0  0  0
  8 13  1  0  0  0  0
 18 26  1  0  0  0  0
 40 42  1  0  0  0  0
  7 12  1  0  0  0  0
 30 35  1  0  0  0  0
 17 25  1  0  0  0  0
 24 29  1  0  0  0  0
M  END
$$$$

  -OEChem-05262214473D

 45 44  0     1  0  0  0  0  0999 V2000
   -2.2987    4.1032   -0.3022 C   0  0  0  0  0  0  0  0  0  0  0  0
   -1.8049    3.7117   -1.3532 O   0  0  0  0  0  0  0  0  0  0  0  0
   -3.0791    5.3755   -0.2846 C   0  0  0  0  0  0  0  0  0  0  0  0
   -2.4478    6.2532   -0.0717 H   0  0  0  0  0  0  0  0  0  0  0  0
   -3.5571    5.5891   -1.2541 H   0  0  0  0  0  0  0  0  0  0  0  0
   -3.8940    5.4184    0.4556 H   0  0  0  0  0  0  0  0  0  0  0  0
   -2.2137    3.4712    0.9275 N   0  0  0  0  0  0  0  0  0  0  0  0
   -1.5102    2.2327    1.1338 C   0  0  2  0  0  0  0  0  0  0  0  0
   -1.3539    1.5497   -0.2184 C   0  0  0  0  0  0  0  0  0  0  0  0
   -2.0852    1.7861   -1.1778 O   0  0  0  0  0  0  0  0  0  0  0  0
   -2.2477    1.3342    2.1145 C   0  0  0  0  0  0  0  0  0  0  0  0
   -2.6724    3.9052    1.7265 H   0  0  0  0  0  0  0  0  0  0  0  0
   -0.5220    2.4922    1.5290 H   0  0  0  0  0  0  0  0  0  0  0  0
   -3.2400    1.0636    1.7358 H   0  0  0  0  0  0  0  0  0  0  0  0
   -1.6970    0.4046    2.2923 H   0  0  0  0  0  0  0  0  0  0  0  0
   -2.3854    1.8384    3.0772 H   0  0  0  0  0  0  0  0  0  0  0  0
   -0.3283    0.6116   -0.2182 N   0  0  0  0  0  0  0  0  0  0  0  0
    0.0090   -0.1762   -1.3759 C   0  0  2  0  0  0  0  0  0  0  0  0
   -1.0594   -1.2505   -1.5351 C   0  0  0  0  0  0  0  0  0  0  0  0
   -0.8240   -2.3654   -1.9965 O   0  0  0  0  0  0  0  0  0  0  0  0
    1.3953   -0.8035   -1.2549 C   0  0  0  0  0  0  0  0  0  0  0  0
    2.4785    0.2447   -1.3257 C   0  0  0  0  0  0  0  0  0  0  0  0
    2.3714    1.2990   -1.9384 O   0  0  0  0  0  0  0  0  0  0  0  0
    3.5969   -0.1153   -0.6487 O   0  0  0  0  0  0  0  0  0  0  0  0
    0.2381    0.4970    0.6194 H   0  0  0  0  0  0  0  0  0  0  0  0
   -0.0397    0.5037   -2.2349 H   0  0  0  0  0  0  0  0  0  0  0  0
    1.5160   -1.3146   -0.2914 H   0  0  0  0  0  0  0  0  0  0  0  0
    1.5759   -1.5683   -2.0199 H   0  0  0  0  0  0  0  0  0  0  0  0
    4.3293    0.5368   -0.6824 H   0  0  0  0  0  0  0  0  0  0  0  0
   -2.2944   -0.8346   -1.0578 N   0  0  0  0  0  0  0  0  0  0  0  0
   -3.4652   -1.6798   -1.0845 C   0  0  2  0  0  0  0  0  0  0  0  0
   -3.2355   -2.8322   -0.1156 C   0  0  0  0  0  0  0  0  0  0  0  0
   -2.1165   -3.2000    0.2361 O   0  0  0  0  0  0  0  0  0  0  0  0
   -3.7428   -2.1965   -2.4876 C   0  0  0  0  0  0  0  0  0  0  0  0
   -2.3783    0.1022   -0.6741 H   0  0  0  0  0  0  0  0  0  0  0  0
   -4.3043   -1.0690   -0.7340 H   0  0  0  0  0  0  0  0  0  0  0  0
   -2.9129   -2.8108   -2.8557 H   0  0  0  0  0  0  0  0  0  0  0  0
   -4.6469   -2.8138   -2.5115 H   0  0  0  0  0  0  0  0  0  0  0  0
   -3.8782   -1.3661   -3.1890 H   0  0  0  0  0  0  0  0  0  0  0  0
   -4.4254   -3.4293    0.2766 N   0  0  0  0  0  0  0  0  0  0  0  0
   -4.4721   -4.5530    1.1828 C   0  0  0  0  0  0  0  0  0  0  0  0
   -5.3078   -3.0465   -0.0496 H   0  0  0  0  0  0  0  0  0  0  0  0
   -4.4683   -5.4899    0.6065 H   0  0  0  0  0  0  0  0  0  0  0  0
   -3.5943   -4.5264    1.8452 H   0  0  0  0  0  0  0  0  0  0  0  0
   -5.3894   -4.4983    1.7875 H   0  0  0  0  0  0  0  0  0  0  0  0
  1  3  1  0  0  0  0
  1  7  1  0  0  0  0
  1  2  2  0  0  0  0
 31 32  1  0  0  0  0
 32 40  1  0  0  0  0
 32 33  2  0  0  0  0
  8  9  1  0  0  0  0
  9 17  1  0  0  0  0
  9 10  2  0  0  0  0
 18 19  1  0  0  0  0
 19 30  1  0  0  0  0
 19 20  2  0  0  0  0
 21 22  1  0  0  0  0
 22 23  2  0  0  0  0
 22 24  1  0  0  0  0
 31 34  1  0  0  0  0
  8 11  1  0  0  0  0
 40 41  1  0  0  0  0
 18 21  1  0  0  0  0
 30 31  1  0  0  0  0
  7  8  1  0  0  0  0
 17 18  1  0  0  0  0
  3  4  1  0  0  0  0
  3  5  1  0  0  0  0
  3  6  1  0  0  0  0
 34 37  1  0  0  0  0
 34 38  1  0  0  0  0
 34 39  1  0  0  0  0
 11 14  1  0  0  0  0
 11 15  1  0  0  0  0
 11 16  1  0  0  0  0
 41 43  1  0  0  0  0
 41 44  1  0  0  0  0
 41 45  1  0  0  0  0
 21 27  1  0  0  0  0
 21 28  1  0  0  0  0
 31 36  1  0  0  0  0
  8 13  1  0  0  0  0
 18 26  1  0  0  0  0
 40 42  1  0  0  0  0
  7 12  1  0  0  0  0
 30 35  1  0  0  0  0
 17 25  1  0  0  0  0
 24 29  1  0  0  0  0
M  END
$$$$

  -OEChem-05262214473D

 45 44  0     1  0  0  0  0  0999 V2000
   -2.2987    4.1032   -0.3022 C   0  0  0  0  0  0  0  0  0  0  0  0
   -1.8049    3.7117   -1.3532 O   0  0  0  0  0  0  0  0  0  0  0  0
   -3.0791    5.3755   -0.2846 C   0  0  0  0  0  0  0  0  0  0  0  0
   -2.4478    6.2532   -0.0717 H   0  0  0  0  0  0  0  0  0  0  0  0
   -3.5571    5.5891   -1.2541 H   0  0  0  0  0  0  0  0  0  0  0  0
   -3.8940    5.4184    0.4556 H   0  0  0  0  0  0  0  0  0  0  0  0
   -2.2137    3.4712    0.9275 N   0  0  0  0  0  0  0  0  0  0  0  0
   -1.5102    2.2327    1.1338 C   0  0  2  0  0  0  0  0  0  0  0  0
   -1.3539    1.5497   -0.2184 C   0  0  0  0  0  0  0  0  0  0  0  0
   -2.0852    1.7861   -1.1778 O   0  0  0  0  0  0  0  0  0  0  0  0
   -2.2477    1.3342    2.1145 C   0  0  0  0  0  0  0  0  0  0  0  0
   -2.6724    3.9052    1.7265 H   0  0  0  0  0  0  0  0  0  0  0  0
   -0.5220    2.4922    1.5290 H   0  0  0  0  0  0  0  0  0  0  0  0
   -3.2400    1.0636    1.7358 H   0  0  0  0  0  0  0  0  0  0  0  0
   -1.6970    0.4046    2.2923 H   0  0  0  0  0  0  0  0  0  0  0  0
   -2.3854    1.8384    3.0772 H   0  0  0  0  0  0  0  0  0  0  0  0
   -0.3283    0.6116   -0.2182 N   0  0  0  0  0  0  0  0  0  0  0  0
    0.0090   -0.1762   -1.3759 C   0  0  2  0  0  0  0  0  0  0  0  0
   -1.0594   -1.2505   -1.5351 C   0  0  0  0  0  0  0  0  0  0  0  0
   -0.7940   -2.4336   -1.7378 O   0  0  0  0  0  0  0  0  0  0  0  0
    1.3953   -0.8035   -1.2549 C   0  0  0  0  0  0  0  0  0  0  0  0
    2.4785    0.2447   -1.3257 C   0  0  0  0  0  0  0  0  0  0  0  0
    2.3714    1.2990   -1.9384 O   0  0  0  0  0  0  0  0  0  0  0  0
    3.5969   -0.1153   -0.6487 O   0  0  0  0  0  0  0  0  0  0  0  0
    0.2381    0.4970    0.6194 H   0  0  0  0  0  0  0  0  0  0  0  0
   -0.0397    0.5037   -2.2349 H   0  0  0  0  0  0  0  0  0  0  0  0
    1.5160   -1.3146   -0.2914 H   0  0  0  0  0  0  0  0  0  0  0  0
    1.5759   -1.5683   -2.0199 H   0  0  0  0  0  0  0  0  0  0  0  0
    4.3293    0.5368   -0.6824 H   0  0  0  0  0  0  0  0  0  0  0  0
   -2.3407   -0.7413   -1.3768 N   0  0  0  0  0  0  0  0  0  0  0  0
   -3.5235   -1.5650   -1.4679 C   0  0  2  0  0  0  0  0  0  0  0  0
   -3.5228   -2.5217   -0.2829 C   0  0  0  0  0  0  0  0  0  0  0  0
   -2.5027   -2.8299    0.3297 O   0  0  0  0  0  0  0  0  0  0  0  0
   -3.5664   -2.3282   -2.7826 C   0  0  0  0  0  0  0  0  0  0  0  0
   -2.4510    0.2509   -1.1893 H   0  0  0  0  0  0  0  0  0  0  0  0
   -4.3844   -0.8916   -1.3939 H   0  0  0  0  0  0  0  0  0  0  0  0
   -2.7116   -3.0081   -2.8748 H   0  0  0  0  0  0  0  0  0  0  0  0
   -4.4776   -2.9301   -2.8624 H   0  0  0  0  0  0  0  0  0  0  0  0
   -3.5368   -1.6397   -3.6341 H   0  0  0  0  0  0  0  0  0  0  0  0
   -4.7889   -3.0243   -0.0172 N   0  0  0  0  0  0  0  0  0  0  0  0
   -5.0473   -3.9614    1.0510 C   0  0  0  0  0  0  0  0  0  0  0  0
   -5.5805   -2.6990   -0.5642 H   0  0  0  0  0  0  0  0  0  0  0  0
   -4.9809   -4.9884    0.6625 H   0  0  0  0  0  0  0  0  0  0  0  0
   -4.3027   -3.8224    1.8486 H   0  0  0  0  0  0  0  0  0  0  0  0
   -6.0552   -3.7870    1.4557 H   0  0  0  0  0  0  0  0  0  0  0  0
  1  3  1  0  0  0  0
  1  7  1  0  0  0  0
  1  2  2  0  0  0  0
 31 32  1  0  0  0  0
 32 40  1  0  0  0  0
 32 33  2  0  0  0  0
  8  9  1  0  0  0  0
  9 17  1  0  0  0  0
  9 10  2  0  0  0  0
 18 19  1  0  0  0  0
 19 30  1  0  0  0  0
 19 20  2  0  0  0  0
 21 22  1  0  0  0  0
 22 23  2  0  0  0  0
 22 24  1  0  0  0  0
 31 34  1  0  0  0  0
  8 11  1  0  0  0  0
 40 41  1  0  0  0  0
 18 21  1  0  0  0  0
 30 31  1  0  0  0  0
  7  8  1  0  0  0  0
 17 18  1  0  0  0  0
  3  4  1  0  0  0  0
  3  5  1  0  0  0  0
  3  6  1  0  0  0  0
 34 37  1  0  0  0  0
 34 38  1  0  0  0  0
 34 39  1  0  0  0  0
 11 14  1  0  0  0  0
 11 15  1  0  0  0  0
 11 16  1  0  0  0  0
 41 43  1  0  0  0  0
 41 44  1  0  0  0  0
 41 45  1  0  0  0  0
 21 27  1  0  0  0  0
 21 28  1  0  0  0  0
 31 36  1  0  0  0  0
  8 13  1  0  0  0  0
 18 26  1  0  0  0  0
 40 42  1  0  0  0  0
  7 12  1  0  0  0  0
 30 35  1  0  0  0  0
 17 25  1  0  0  0  0
 24 29  1  0  0  0  0
M  END
$$$$

  -OEChem-05262214473D

 45 44  0     1  0  0  0  0  0999 V2000
   -2.2987    4.1032   -0.3022 C   0  0  0  0  0  0  0  0  0  0  0  0
   -1.8049    3.7117   -1.3532 O   0  0  0  0  0  0  0  0  0  0  0  0
   -3.0791    5.3755   -0.2846 C   0  0  0  0  0  0  0  0  0  0  0  0
   -2.4478    6.2532   -0.0717 H   0  0  0  0  0  0  0  0  0  0  0  0
   -3.5571    5.5891   -1.2541 H   0  0  0  0  0  0  0  0  0  0  0  0
   -3.8940    5.4184    0.4556 H   0  0  0  0  0  0  0  0  0  0  0  0
   -2.2137    3.4712    0.9275 N   0  0  0  0  0  0  0  0  0  0  0  0
   -1.5102    2.2327    1.1338 C   0  0  2  0  0  0  0  0  0  0  0  0
   -1.3539    1.5497   -0.2184 C   0  0  0  0  0  0  0  0  0  0  0  0
   -2.0852    1.7861   -1.1778 O   0  0  0  0  0  0  0  0  0  0  0  0
   -2.2477    1.3342    2.1145 C   0  0  0  0  0  0  0  0  0  0  0  0
   -2.6724    3.9052    1.7265 H   0  0  0  0  0  0  0  0  0  0  0  0
   -0.5220    2.4922    1.5290 H   0  0  0  0  0  0  0  0  0  0  0  0
   -3.2400    1.0636    1.7358 H   0  0  0  0  0  0  0  0  0  0  0  0
   -1.6970    0.4046    2.2923 H   0  0  0  0  0  0  0  0  0  0  0  0
   -2.3854    1.8384    3.0772 H   0  0  0  0  0  0  0  0  0  0  0  0
   -0.3283    0.6116   -0.2182 N   0  0  0  0  0  0  0  0  0  0  0  0
    0.0090   -0.1762   -1.3759 C   0  0  2  0  0  0  0  0  0  0  0  0
   -1.0594   -1.2505   -1.5351 C   0  0  0  0  0  0  0  0  0  0  0  0
   -0.8141   -2.4534   -1.4701 O   0  0  0  0  0  0  0  0  0  0  0  0
    1.3953   -0.8035   -1.2549 C   0  0  0  0  0  0  0  0  0  0  0  0
    2.4785    0.2447   -1.3257 C   0  0  0  0  0  0  0  0  0  0  0  0
    2.3714    1.2990   -1.9384 O   0  0  0  0  0  0  0  0  0  0  0  0
    3.5969   -0.1153   -0.6487 O   0  0  0  0  0  0  0  0  0  0  0  0
    0.2381    0.4970    0.6194 H   0  0  0  0  0  0  0  0  0  0  0  0
   -0.0397    0.5037   -2.2349 H   0  0  0  0  0  0  0  0  0  0  0  0
    1.5160   -1.3146   -0.2914 H   0  0  0  0  0  0  0  0  0  0  0  0
    1.5759   -1.5683   -2.0199 H   0  0  0  0  0  0  0  0  0  0  0  0
    4.3293    0.5368   -0.6824 H   0  0  0  0  0  0  0  0  0  0  0  0
   -2.3246   -0.7078   -1.7104 N   0  0  0  0  0  0  0  0  0  0  0  0
   -3.5068   -1.5221   -1.8698 C   0  0  2  0  0  0  0  0  0  0  0  0
   -3.7614   -2.2443   -0.5534 C   0  0  0  0  0  0  0  0  0  0  0  0
   -2.8827   -2.4449    0.2826 O   0  0  0  0  0  0  0  0  0  0  0  0
   -3.3457   -2.5137   -3.0115 C   0  0  0  0  0  0  0  0  0  0  0  0
   -2.4232    0.3031   -1.7272 H   0  0  0  0  0  0  0  0  0  0  0  0
   -4.3364   -0.8378   -2.0780 H   0  0  0  0  0  0  0  0  0  0  0  0
   -2.5190   -3.2077   -2.8208 H   0  0  0  0  0  0  0  0  0  0  0  0
   -4.2533   -3.1107   -3.1495 H   0  0  0  0  0  0  0  0  0  0  0  0
   -3.1331   -1.9940   -3.9520 H   0  0  0  0  0  0  0  0  0  0  0  0
   -5.0754   -2.6765   -0.4409 N   0  0  0  0  0  0  0  0  0  0  0  0
   -5.5628   -3.3984    0.7112 C   0  0  0  0  0  0  0  0  0  0  0  0
   -5.7406   -2.4494   -1.1741 H   0  0  0  0  0  0  0  0  0  0  0  0
   -5.4728   -4.4799    0.5320 H   0  0  0  0  0  0  0  0  0  0  0  0
   -4.9686   -3.1226    1.5949 H   0  0  0  0  0  0  0  0  0  0  0  0
   -6.6184   -3.1422    0.8847 H   0  0  0  0  0  0  0  0  0  0  0  0
  1  3  1  0  0  0  0
  1  7  1  0  0  0  0
  1  2  2  0  0  0  0
 31 32  1  0  0  0  0
 32 40  1  0  0  0  0
 32 33  2  0  0  0  0
  8  9  1  0  0  0  0
  9 17  1  0  0  0  0
  9 10  2  0  0  0  0
 18 19  1  0  0  0  0
 19 30  1  0  0  0  0
 19 20  2  0  0  0  0
 21 22  1  0  0  0  0
 22 23  2  0  0  0  0
 22 24  1  0  0  0  0
 31 34  1  0  0  0  0
  8 11  1  0  0  0  0
 40 41  1  0  0  0  0
 18 21  1  0  0  0  0
 30 31  1  0  0  0  0
  7  8  1  0  0  0  0
 17 18  1  0  0  0  0
  3  4  1  0  0  0  0
  3  5  1  0  0  0  0
  3  6  1  0  0  0  0
 34 37  1  0  0  0  0
 34 38  1  0  0  0  0
 34 39  1  0  0  0  0
 11 14  1  0  0  0  0
 11 15  1  0  0  0  0
 11 16  1  0  0  0  0
 41 43  1  0  0  0  0
 41 44  1  0  0  0  0
 41 45  1  0  0  0  0
 21 27  1  0  0  0  0
 21 28  1  0  0  0  0
 31 36  1  0  0  0  0
  8 13  1  0  0  0  0
 18 26  1  0  0  0  0
 40 42  1  0  0  0  0
  7 12  1  0  0  0  0
 30 35  1  0  0  0  0
 17 25  1  0  0  0  0
 24 29  1  0  0  0  0
M  END
$$$$

  -OEChem-05262214473D

 45 44  0     1  0  0  0  0  0999 V2000
   -2.2987    4.1032   -0.3022 C   0  0  0  0  0  0  0  0  0  0  0  0
   -1.8049    3.7117   -1.3532 O   0  0  0  0  0  0  0  0  0  0  0  0
   -3.0791    5.3755   -0.2846 C   0  0  0  0  0  0  0  0  0  0  0  0
   -2.4478    6.2532   -0.0717 H   0  0  0  0  0  0  0  0  0  0  0  0
   -3.5571    5.5891   -1.2541 H   0  0  0  0  0  0  0  0  0  0  0  0
   -3.8940    5.4184    0.4556 H   0  0  0  0  0  0  0  0  0  0  0  0
   -2.2137    3.4712    0.9275 N   0  0  0  0  0  0  0  0  0  0  0  0
   -1.5102    2.2327    1.1338 C   0  0  2  0  0  0  0  0  0  0  0  0
   -1.3539    1.5497   -0.2184 C   0  0  0  0  0  0  0  0  0  0  0  0
   -2.0852    1.7861   -1.1778 O   0  0  0  0  0  0  0  0  0  0  0  0
   -2.2477    1.3342    2.1145 C   0  0  0  0  0  0  0  0  0  0  0  0
   -2.6724    3.9052    1.7265 H   0  0  0  0  0  0  0  0  0  0  0  0
   -0.5220    2.4922    1.5290 H   0  0  0  0  0  0  0  0  0  0  0  0
   -3.2400    1.0636    1.7358 H   0  0  0  0  0  0  0  0  0  0  0  0
   -1.6970    0.4046    2.2923 H   0  0  0  0  0  0  0  0  0  0  0  0
   -2.3854    1.8384    3.0772 H   0  0  0  0  0  0  0  0  0  0  0  0
   -0.3283    0.6116   -0.2182 N   0  0  0  0  0  0  0  0  0  0  0  0
    0.0090   -0.1762   -1.3759 C   0  0  2  0  0  0  0  0  0  0  0  0
   -1.0594   -1.2505   -1.5351 C   0  0  0  0  0  0  0  0  0  0  0  0
   -0.8829   -2.4233   -1.2116 O   0  0  0  0  0  0  0  0  0  0  0  0
    1.3953   -0.8035   -1.2549 C   0  0  0  0  0  0  0  0  0  0  0  0
    2.4785    0.2447   -1.3257 C   0  0  0  0  0  0  0  0  0  0  0  0
    2.3714    1.2990   -1.9384 O   0  0  0  0  0  0  0  0  0  0  0  0
    3.5969   -0.1153   -0.6487 O   0  0  0  0  0  0  0  0  0  0  0  0
    0.2381    0.4970    0.6194 H   0  0  0  0  0  0  0  0  0  0  0  0
   -0.0397    0.5037   -2.2349 H   0  0  0  0  0  0  0  0  0  0  0  0
    1.5160   -1.3146   -0.2914 H   0  0  0  0  0  0  0  0  0  0  0  0
    1.5759   -1.5683   -2.0199 H   0  0  0  0  0  0  0  0  0  0  0  0
    4.3293    0.5368   -0.6824 H   0  0  0  0  0  0  0  0  0  0  0  0
   -2.2473   -0.7364   -2.0357 N   0  0  0  0  0  0  0  0  0  0  0  0
   -3.4161   -1.5540   -2.2627 C   0  0  2  0  0  0  0  0  0  0  0  0
   -3.9350   -2.0190   -0.9085 C   0  0  0  0  0  0  0  0  0  0  0  0
   -3.2308   -2.0713    0.0978 O   0  0  0  0  0  0  0  0  0  0  0  0
   -3.0959   -2.7404   -3.1587 C   0  0  0  0  0  0  0  0  0  0  0  0
   -2.2968    0.2550   -2.2511 H   0  0  0  0  0  0  0  0  0  0  0  0
   -4.1638   -0.9113   -2.7399 H   0  0  0  0  0  0  0  0  0  0  0  0
   -2.3483   -3.3958   -2.6972 H   0  0  0  0  0  0  0  0  0  0  0  0
   -3.9890   -3.3433   -3.3530 H   0  0  0  0  0  0  0  0  0  0  0  0
   -2.6948   -2.4048   -4.1211 H   0  0  0  0  0  0  0  0  0  0  0  0
   -5.2655   -2.4097   -0.9655 N   0  0  0  0  0  0  0  0  0  0  0  0
   -5.9835   -2.9022    0.1868 C   0  0  0  0  0  0  0  0  0  0  0  0
   -5.7772   -2.3147   -1.8378 H   0  0  0  0  0  0  0  0  0  0  0  0
   -5.9103   -3.9991    0.2238 H   0  0  0  0  0  0  0  0  0  0  0  0
   -5.5466   -2.4746    1.1013 H   0  0  0  0  0  0  0  0  0  0  0  0
   -7.0408   -2.6077    0.1133 H   0  0  0  0  0  0  0  0  0  0  0  0
  1  3  1  0  0  0  0
  1  7  1  0  0  0  0
  1  2  2  0  0  0  0
 31 32  1  0  0  0  0
 32 40  1  0  0  0  0
 32 33  2  0  0  0  0
  8  9  1  0  0  0  0
  9 17  1  0  0  0  0
  9 10  2  0  0  0  0
 18 19  1  0  0  0  0
 19 30  1  0  0  0  0
 19 20  2  0  0  0  0
 21 22  1  0  0  0  0
 22 23  2  0  0  0  0
 22 24  1  0  0  0  0
 31 34  1  0  0  0  0
  8 11  1  0  0  0  0
 40 41  1  0  0  0  0
 18 21  1  0  0  0  0
 30 31  1  0  0  0  0
  7  8  1  0  0  0  0
 17 18  1  0  0  0  0
  3  4  1  0  0  0  0
  3  5  1  0  0  0  0
  3  6  1  0  0  0  0
 34 37  1  0  0  0  0
 34 38  1  0  0  0  0
 34 39  1  0  0  0  0
 11 14  1  0  0  0  0
 11 15  1  0  0  0  0
 11 16  1  0  0  0  0
 41 43  1  0  0  0  0
 41 44  1  0  0  0  0
 41 45  1  0  0  0  0
 21 27  1  0  0  0  0
 21 28  1  0  0  0  0
 31 36  1  0  0  0  0
  8 13  1  0  0  0  0
 18 26  1  0  0  0  0
 40 42  1  0  0  0  0
  7 12  1  0  0  0  0
 30 35  1  0  0  0  0
 17 25  1  0  0  0  0
 24 29  1  0  0  0  0
M  END
$$$$

  -OEChem-05262214473D

 45 44  0     1  0  0  0  0  0999 V2000
   -2.2987    4.1032   -0.3022 C   0  0  0  0  0  0  0  0  0  0  0  0
   -1.8049    3.7117   -1.3532 O   0  0  0  0  0  0  0  0  0  0  0  0
   -3.0791    5.3755   -0.2846 C   0  0  0  0  0  0  0  0  0  0  0  0
   -2.4478    6.2532   -0.0717 H   0  0  0  0  0  0  0  0  0  0  0  0
   -3.5571    5.5891   -1.2541 H   0  0  0  0  0  0  0  0  0  0  0  0
   -3.8940    5.4184    0.4556 H   0  0  0  0  0  0  0  0  0  0  0  0
   -2.2137    3.4712    0.9275 N   0  0  0  0  0  0  0  0  0  0  0  0
   -1.5102    2.2327    1.1338 C   0  0  2  0  0  0  0  0  0  0  0  0
   -1.3539    1.5497   -0.2184 C   0  0  0  0  0  0  0  0  0  0  0  0
   -2.0852    1.7861   -1.1778 O   0  0  0  0  0  0  0  0  0  0  0  0
   -2.2477    1.3342    2.1145 C   0  0  0  0  0  0  0  0  0  0  0  0
   -2.6724    3.9052    1.7265 H   0  0  0  0  0  0  0  0  0  0  0  0
   -0.5220    2.4922    1.5290 H   0  0  0  0  0  0  0  0  0  0  0  0
   -3.2400    1.0636    1.7358 H   0  0  0  0  0  0  0  0  0  0  0  0
   -1.6970    0.4046    2.2923 H   0  0  0  0  0  0  0  0  0  0  0  0
   -2.3854    1.8384    3.0772 H   0  0  0  0  0  0  0  0  0  0  0  0
   -0.3283    0.6116   -0.2182 N   0  0  0  0  0  0  0  0  0  0  0  0
    0.0090   -0.1762   -1.3759 C   0  0  2  0  0  0  0  0  0  0  0  0
   -1.0594   -1.2505   -1.5351 C   0  0  0  0  0  0  0  0  0  0  0  0
   -0.9957   -2.3455   -0.9800 O   0  0  0  0  0  0  0  0  0  0  0  0
    1.3953   -0.8035   -1.2549 C   0  0  0  0  0  0  0  0  0  0  0  0
    2.4785    0.2447   -1.3257 C   0  0  0  0  0  0  0  0  0  0  0  0
    2.3714    1.2990   -1.9384 O   0  0  0  0  0  0  0  0  0  0  0  0
    3.5969   -0.1153   -0.6487 O   0  0  0  0  0  0  0  0  0  0  0  0
    0.2381    0.4970    0.6194 H   0  0  0  0  0  0  0  0  0  0  0  0
   -0.0397    0.5037   -2.2349 H   0  0  0  0  0  0  0  0  0  0  0  0
    1.5160   -1.3146   -0.2914 H   0  0  0  0  0  0  0  0  0  0  0  0
    1.5759   -1.5683   -2.0199 H   0  0  0  0  0  0  0  0  0  0  0  0
    4.3293    0.5368   -0.6824 H   0  0  0  0  0  0  0  0  0  0  0  0
   -2.1141   -0.8252   -2.3306 N   0  0  0  0  0  0  0  0  0  0  0  0
   -3.2576   -1.6586   -2.6199 C   0  0  2  0  0  0  0  0  0  0  0  0
   -4.0317   -1.8612   -1.3240 C   0  0  0  0  0  0  0  0  0  0  0  0
   -3.5232   -1.7346   -0.2121 O   0  0  0  0  0  0  0  0  0  0  0  0
   -2.8338   -2.9928   -3.2140 C   0  0  0  0  0  0  0  0  0  0  0  0
   -2.0804    0.1101   -2.7254 H   0  0  0  0  0  0  0  0  0  0  0  0
   -3.8783   -1.1071   -3.3344 H   0  0  0  0  0  0  0  0  0  0  0  0
   -2.2110   -3.5598   -2.5125 H   0  0  0  0  0  0  0  0  0  0  0  0
   -3.7030   -3.6120   -3.4592 H   0  0  0  0  0  0  0  0  0  0  0  0
   -2.2517   -2.8443   -4.1300 H   0  0  0  0  0  0  0  0  0  0  0  0
   -5.3461   -2.2421   -1.5554 N   0  0  0  0  0  0  0  0  0  0  0  0
   -6.2807   -2.5068   -0.4866 C   0  0  0  0  0  0  0  0  0  0  0  0
   -5.6878   -2.3040   -2.5100 H   0  0  0  0  0  0  0  0  0  0  0  0
   -6.2636   -3.5788   -0.2409 H   0  0  0  0  0  0  0  0  0  0  0  0
   -5.9972   -1.9227    0.4013 H   0  0  0  0  0  0  0  0  0  0  0  0
   -7.2936   -2.2201   -0.8060 H   0  0  0  0  0  0  0  0  0  0  0  0
  1  3  1  0  0  0  0
  1  7  1  0  0  0  0
  1  2  2  0  0  0  0
 31 32  1  0  0  0  0
 32 40  1  0  0  0  0
 32 33  2  0  0  0  0
  8  9  1  0  0  0  0
  9 17  1  0  0  0  0
  9 10  2  0  0  0  0
 18 19  1  0  0  0  0
 19 30  1  0  0  0  0
 19 20  2  0  0  0  0
 21 22  1  0  0  0  0
 22 23  2  0  0  0  0
 22 24  1  0  0  0  0
 31 34  1  0  0  0  0
  8 11  1  0  0  0  0
 40 41  1  0  0  0  0
 18 21  1  0  0  0  0
 30 31  1  0  0  0  0
  7  8  1  0  0  0  0
 17 18  1  0  0  0  0
  3  4  1  0  0  0  0
  3  5  1  0  0  0  0
  3  6  1  0  0  0  0
 34 37  1  0  0  0  0
 34 38  1  0  0  0  0
 34 39  1  0  0  0  0
 11 14  1  0  0  0  0
 11 15  1  0  0  0  0
 11 16  1  0  0  0  0
 41 43  1  0  0  0  0
 41 44  1  0  0  0  0
 41 45  1  0  0  0  0
 21 27  1  0  0  0  0
 21 28  1  0  0  0  0
 31 36  1  0  0  0  0
  8 13  1  0  0  0  0
 18 26  1  0  0  0  0
 40 42  1  0  0  0  0
  7 12  1  0  0  0  0
 30 35  1  0  0  0  0
 17 25  1  0  0  0  0
 24 29  1  0  0  0  0
M  END
$$$$

  -OEChem-05262214473D

 45 44  0     1  0  0  0  0  0999 V2000
   -2.2987    4.1032   -0.3022 C   0  0  0  0  0  0  0  0  0  0  0  0
   -1.8049    3.7117   -1.3532 O   0  0  0  0  0  0  0  0  0  0  0  0
   -3.0791    5.3755   -0.2846 C   0  0  0  0  0  0  0  0  0  0  0  0
   -2.4478    6.2532   -0.0717 H   0  0  0  0  0  0  0  0  0  0  0  0
   -3.5571    5.5891   -1.2541 H   0  0  0  0  0  0  0  0  0  0  0  0
   -3.8940    5.4184    0.4556 H   0  0  0  0  0  0  0  0  0  0  0  0
   -2.2137    3.4712    0.9275 N   0  0  0  0  0  0  0  0  0  0  0  0
   -1.5102    2.2327    1.1338 C   0  0  2  0  0  0  0  0  0  0  0  0
   -1.3539    1.5497   -0.2184 C   0  0  0  0  0  0  0  0  0  0  0  0
   -2.0852    1.7861   -1.1778 O   0  0  0  0  0  0  0  0  0  0  0  0
   -2.2477    1.3342    2.1145 C   0  0  0  0  0  0  0  0  0  0  0  0
   -2.6724    3.9052    1.7265 H   0  0  0  0  0  0  0  0  0  0  0  0
   -0.5220    2.4922    1.5290 H   0  0  0  0  0  0  0  0  0  0  0  0
   -3.2400    1.0636    1.7358 H   0  0  0  0  0  0  0  0  0  0  0  0
   -1.6970    0.4046    2.2923 H   0  0  0  0  0  0  0  0  0  0  0  0
   -2.3854    1.8384    3.0772 H   0  0  0  0  0  0  0  0  0  0  0  0
   -0.3283    0.6116   -0.2182 N   0  0  0  0  0  0  0  0  0  0  0  0
    0.0090   -0.1762   -1.3759 C   0  0  2  0  0  0  0  0  0  0  0  0
   -1.0594   -1.2505   -1.5351 C   0  0  0  0  0  0  0  0  0  0  0  0
   -1.1448   -2.2252   -0.7909 O   0  0  0  0  0  0  0  0  0  0  0  0
    1.3953   -0.8035   -1.2549 C   0  0  0  0  0  0  0  0  0  0  0  0
    2.4785    0.2447   -1.3257 C   0  0  0  0  0  0  0  0  0  0  0  0
    2.3714    1.2990   -1.9384 O   0  0  0  0  0  0  0  0  0  0  0  0
    3.5969   -0.1153   -0.6487 O   0  0  0  0  0  0  0  0  0  0  0  0
    0.2381    0.4970    0.6194 H   0  0  0  0  0  0  0  0  0  0  0  0
   -0.0397    0.5037   -2.2349 H   0  0  0  0  0  0  0  0  0  0  0  0
    1.5160   -1.3146   -0.2914 H   0  0  0  0  0  0  0  0  0  0  0  0
    1.5759   -1.5683   -2.0199 H   0  0  0  0  0  0  0  0  0  0  0  0
    4.3293    0.5368   -0.6824 H   0  0  0  0  0  0  0  0  0  0  0  0
   -1.9339   -0.9681   -2.5751 N   0  0  0  0  0  0  0  0  0  0  0  0
   -3.0422   -1.8288   -2.9170 C   0  0  2  0  0  0  0  0  0  0  0  0
   -4.0451   -1.7815   -1.7718 C   0  0  0  0  0  0  0  0  0  0  0  0
   -3.7399   -1.4577   -0.6259 O   0  0  0  0  0  0  0  0  0  0  0  0
   -2.5773   -3.2538   -3.1739 C   0  0  0  0  0  0  0  0  0  0  0  0
   -1.7887   -0.1218   -3.1178 H   0  0  0  0  0  0  0  0  0  0  0  0
   -3.4993   -1.4119   -3.8210 H   0  0  0  0  0  0  0  0  0  0  0  0
   -2.1165   -3.6883   -2.2793 H   0  0  0  0  0  0  0  0  0  0  0  0
   -3.4145   -3.8987   -3.4607 H   0  0  0  0  0  0  0  0  0  0  0  0
   -1.8339   -3.2823   -3.9778 H   0  0  0  0  0  0  0  0  0  0  0  0
   -5.3118   -2.1850   -2.1703 N   0  0  0  0  0  0  0  0  0  0  0  0
   -6.4342   -2.2390   -1.2631 C   0  0  0  0  0  0  0  0  0  0  0  0
   -5.4784   -2.4180   -3.1449 H   0  0  0  0  0  0  0  0  0  0  0  0
   -6.5087   -3.2477   -0.8306 H   0  0  0  0  0  0  0  0  0  0  0  0
   -6.2898   -1.5044   -0.4572 H   0  0  0  0  0  0  0  0  0  0  0  0
   -7.3594   -2.0057   -1.8104 H   0  0  0  0  0  0  0  0  0  0  0  0
  1  3  1  0  0  0  0
  1  7  1  0  0  0  0
  1  2  2  0  0  0  0
 31 32  1  0  0  0  0
 32 40  1  0  0  0  0
 32 33  2  0  0  0  0
  8  9  1  0  0  0  0
  9 17  1  0  0  0  0
  9 10  2  0  0  0  0
 18 19  1  0  0  0  0
 19 30  1  0  0  0  0
 19 20  2  0  0  0  0
 21 22  1  0  0  0  0
 22 23  2  0  0  0  0
 22 24  1  0  0  0  0
 31 34  1  0  0  0  0
  8 11  1  0  0  0  0
 40 41  1  0  0  0  0
 18 21  1  0  0  0  0
 30 31  1  0  0  0  0
  7  8  1  0  0  0  0
 17 18  1  0  0  0  0
  3  4  1  0  0  0  0
  3  5  1  0  0  0  0
  3  6  1  0  0  0  0
 34 37  1  0  0  0  0
 34 38  1  0  0  0  0
 34 39  1  0  0  0  0
 11 14  1  0  0  0  0
 11 15  1  0  0  0  0
 11 16  1  0  0  0  0
 41 43  1  0  0  0  0
 41 44  1  0  0  0  0
 41 45  1  0  0  0  0
 21 27  1  0  0  0  0
 21 28  1  0  0  0  0
 31 36  1  0  0  0  0
  8 13  1  0  0  0  0
 18 26  1  0  0  0  0
 40 42  1  0  0  0  0
  7 12  1  0  0  0  0
 30 35  1  0  0  0  0
 17 25  1  0  0  0  0
 24 29  1  0  0  0  0
M  END
$$$$

  -OEChem-05262214473D

 45 44  0     1  0  0  0  0  0999 V2000
   -2.2987    4.1032   -0.3022 C   0  0  0  0  0  0  0  0  0  0  0  0
   -1.8049    3.7117   -1.3532 O   0  0  0  0  0  0  0  0  0  0  0  0
   -3.0791    5.3755   -0.2846 C   0  0  0  0  0  0  0  0  0  0  0  0
   -2.4478    6.2532   -0.0717 H   0  0  0  0  0  0  0  0  0  0  0  0
   -3.5571    5.5891   -1.2541 H   0  0  0  0  0  0  0  0  0  0  0  0
   -3.8940    5.4184    0.4556 H   0  0  0  0  0  0  0  0  0  0  0  0
   -2.2137    3.4712    0.9275 N   0  0  0  0  0  0  0  0  0  0  0  0
   -1.5102    2.2327    1.1338 C   0  0  2  0  0  0  0  0  0  0  0  0
   -1.3539    1.5497   -0.2184 C   0  0  0  0  0  0  0  0  0  0  0  0
   -2.0852    1.7861   -1.1778 O   0  0  0  0  0  0  0  0  0  0  0  0
   -2.2477    1.3342    2.1145 C   0  0  0  0  0  0  0  0  0  0  0  0
   -2.6724    3.9052    1.7265 H   0  0  0  0  0  0  0  0  0  0  0  0
   -0.5220    2.4922    1.5290 H   0  0  0  0  0  0  0  0  0  0  0  0
   -3.2400    1.0636    1.7358 H   0  0  0  0  0  0  0  0  0  0  0  0
   -1.6970    0.4046    2.2923 H   0  0  0  0  0  0  0  0  0  0  0  0
   -2.3854    1.8384    3.0772 H   0  0  0  0  0  0  0  0  0  0  0  0
   -0.3283    0.6116   -0.2182 N   0  0  0  0  0  0  0  0  0  0  0  0
    0.0090   -0.1762   -1.3759 C   0  0  2  0  0  0  0  0  0  0  0  0
   -1.0594   -1.2505   -1.5351 C   0  0  0  0  0  0  0  0  0  0  0  0
   -1.3201   -2.0707   -0.6573 O   0  0  0  0  0  0  0  0  0  0  0  0
    1.3953   -0.8035   -1.2549 C   0  0  0  0  0  0  0  0  0  0  0  0
    2.4785    0.2447   -1.3257 C   0  0  0  0  0  0  0  0  0  0  0  0
    2.3714    1.2990   -1.9384 O   0  0  0  0  0  0  0  0  0  0  0  0
    3.5969   -0.1153   -0.6487 O   0  0  0  0  0  0  0  0  0  0  0  0
    0.2381    0.4970    0.6194 H   0  0  0  0  0  0  0  0  0  0  0  0
   -0.0397    0.5037   -2.2349 H   0  0  0  0  0  0  0  0  0  0  0  0
    1.5160   -1.3146   -0.2914 H   0  0  0  0  0  0  0  0  0  0  0  0
    1.5759   -1.5683   -2.0199 H   0  0  0  0  0  0  0  0  0  0  0  0
    4.3293    0.5368   -0.6824 H   0  0  0  0  0  0  0  0  0  0  0  0
   -1.7192   -1.1554   -2.7524 N   0  0  0  0  0  0  0  0  0  0  0  0
   -2.7845   -2.0530   -3.1337 C   0  0  2  0  0  0  0  0  0  0  0  0
   -3.9741   -1.7855   -2.2211 C   0  0  0  0  0  0  0  0  0  0  0  0
   -3.8663   -1.2595   -1.1154 O   0  0  0  0  0  0  0  0  0  0  0  0
   -2.3440   -3.5056   -3.0409 C   0  0  0  0  0  0  0  0  0  0  0  0
   -1.4416   -0.4249   -3.4014 H   0  0  0  0  0  0  0  0  0  0  0  0
   -3.0527   -1.8048   -4.1665 H   0  0  0  0  0  0  0  0  0  0  0  0
   -2.0713   -3.7727   -2.0134 H   0  0  0  0  0  0  0  0  0  0  0  0
   -3.1434   -4.1836   -3.3576 H   0  0  0  0  0  0  0  0  0  0  0  0
   -1.4700   -3.6891   -3.6751 H   0  0  0  0  0  0  0  0  0  0  0  0
   -5.1648   -2.2425   -2.7684 N   0  0  0  0  0  0  0  0  0  0  0  0
   -6.4335   -2.1171   -2.0897 C   0  0  0  0  0  0  0  0  0  0  0  0
   -5.1634   -2.6491   -3.6992 H   0  0  0  0  0  0  0  0  0  0  0  0
   -6.6288   -3.0282   -1.5051 H   0  0  0  0  0  0  0  0  0  0  0  0
   -6.4044   -1.2483   -1.4157 H   0  0  0  0  0  0  0  0  0  0  0  0
   -7.2340   -1.9791   -2.8315 H   0  0  0  0  0  0  0  0  0  0  0  0
  1  3  1  0  0  0  0
  1  7  1  0  0  0  0
  1  2  2  0  0  0  0
 31 32  1  0  0  0  0
 32 40  1  0  0  0  0
 32 33  2  0  0  0  0
  8  9  1  0  0  0  0
  9 17  1  0  0  0  0
  9 10  2  0  0  0  0
 18 19  1  0  0  0  0
 19 30  1  0  0  0  0
 19 20  2  0  0  0  0
 21 22  1  0  0  0  0
 22 23  2  0  0  0  0
 22 24  1  0  0  0  0
 31 34  1  0  0  0  0
  8 11  1  0  0  0  0
 40 41  1  0  0  0  0
 18 21  1  0  0  0  0
 30 31  1  0  0  0  0
  7  8  1  0  0  0  0
 17 18  1  0  0  0  0
  3  4  1  0  0  0  0
  3  5  1  0  0  0  0
  3  6  1  0  0  0  0
 34 37  1  0  0  0  0
 34 38  1  0  0  0  0
 34 39  1  0  0  0  0
 11 14  1  0  0  0  0
 11 15  1  0  0  0  0
 11 16  1  0  0  0  0
 41 43  1  0  0  0  0
 41 44  1  0  0  0  0
 41 45  1  0  0  0  0
 21 27  1  0  0  0  0
 21 28  1  0  0  0  0
 31 36  1  0  0  0  0
  8 13  1  0  0  0  0
 18 26  1  0  0  0  0
 40 42  1  0  0  0  0
  7 12  1  0  0  0  0
 30 35  1  0  0  0  0
 17 25  1  0  0  0  0
 24 29  1  0  0  0  0
M  END
$$$$

  -OEChem-05262214473D

 45 44  0     1  0  0  0  0  0999 V2000
   -2.2987    4.1032   -0.3022 C   0  0  0  0  0  0  0  0  0  0  0  0
   -1.8049    3.7117   -1.3532 O   0  0  0  0  0  0  0  0  0  0  0  0
   -3.0791    5.3755   -0.2846 C   0  0  0  0  0  0  0  0  0  0  0  0
   -2.4478    6.2532   -0.0717 H   0  0  0  0  0  0  0  0  0  0  0  0
   -3.5571    5.5891   -1.2541 H   0  0  0  0  0  0  0  0  0  0  0  0
   -3.8940    5.4184    0.4556 H   0  0  0  0  0  0  0  0  0  0  0  0
   -2.2137    3.4712    0.9275 N   0  0  0  0  0  0  0  0  0  0  0  0
   -1.5102    2.2327    1.1338 C   0  0  2  0  0  0  0  0  0  0  0  0
   -1.3539    1.5497   -0.2184 C   0  0  0  0  0  0  0  0  0  0  0  0
   -2.0852    1.7861   -1.1778 O   0  0  0  0  0  0  0  0  0  0  0  0
   -2.2477    1.3342    2.1145 C   0  0  0  0  0  0  0  0  0  0  0  0
   -2.6724    3.9052    1.7265 H   0  0  0  0  0  0  0  0  0  0  0  0
   -0.5220    2.4922    1.5290 H   0  0  0  0  0  0  0  0  0  0  0  0
   -3.2400    1.0636    1.7358 H   0  0  0  0  0  0  0  0  0  0  0  0
   -1.6970    0.4046    2.2923 H   0  0  0  0  0  0  0  0  0  0  0  0
   -2.3854    1.8384    3.0772 H   0  0  0  0  0  0  0  0  0  0  0  0
   -0.3283    0.6116   -0.2182 N   0  0  0  0  0  0  0  0  0  0  0  0
    0.0090   -0.1762   -1.3759 C   0  0  2  0  0  0  0  0  0  0  0  0
   -1.0594   -1.2505   -1.5351 C   0  0  0  0  0  0  0  0  0  0  0  0
   -1.5096   -1.8924   -0.5883 O   0  0  0  0  0  0  0  0  0  0  0  0
    1.3953   -0.8035   -1.2549 C   0  0  0  0  0  0  0  0  0  0  0  0
    2.4785    0.2447   -1.3257 C   0  0  0  0  0  0  0  0  0  0  0  0
    2.3714    1.2990   -1.9384 O   0  0  0  0  0  0  0  0  0  0  0  0
    3.5969   -0.1153   -0.6487 O   0  0  0  0  0  0  0  0  0  0  0  0
    0.2381    0.4970    0.6194 H   0  0  0  0  0  0  0  0  0  0  0  0
   -0.0397    0.5037   -2.2349 H   0  0  0  0  0  0  0  0  0  0  0  0
    1.5160   -1.3146   -0.2914 H   0  0  0  0  0  0  0  0  0  0  0  0
    1.5759   -1.5683   -2.0199 H   0  0  0  0  0  0  0  0  0  0  0  0
    4.3293    0.5368   -0.6824 H   0  0  0  0  0  0  0  0  0  0  0  0
   -1.4845   -1.3743   -2.8505 N   0  0  0  0  0  0  0  0  0  0  0  0
   -2.5021   -2.3158   -3.2554 C   0  0  2  0  0  0  0  0  0  0  0  0
   -3.8236   -1.8728   -2.6415 C   0  0  0  0  0  0  0  0  0  0  0  0
   -3.8937   -1.1534   -1.6472 O   0  0  0  0  0  0  0  0  0  0  0  0
   -2.1497   -3.7309   -2.8242 C   0  0  0  0  0  0  0  0  0  0  0  0
   -1.0628   -0.7786   -3.5570 H   0  0  0  0  0  0  0  0  0  0  0  0
   -2.5688   -2.2592   -4.3473 H   0  0  0  0  0  0  0  0  0  0  0  0
   -2.0784   -3.8072   -1.7331 H   0  0  0  0  0  0  0  0  0  0  0  0
   -2.9080   -4.4474   -3.1567 H   0  0  0  0  0  0  0  0  0  0  0  0
   -1.1847   -4.0369   -3.2425 H   0  0  0  0  0  0  0  0  0  0  0  0
   -4.9153   -2.4105   -3.3088 N   0  0  0  0  0  0  0  0  0  0  0  0
   -6.2787   -2.1495   -2.9102 C   0  0  0  0  0  0  0  0  0  0  0  0
   -4.7641   -2.9815   -4.1352 H   0  0  0  0  0  0  0  0  0  0  0  0
   -6.6159   -2.9353   -2.2183 H   0  0  0  0  0  0  0  0  0  0  0  0
   -6.3333   -1.1718   -2.4091 H   0  0  0  0  0  0  0  0  0  0  0  0
   -6.9257   -2.1421   -3.7998 H   0  0  0  0  0  0  0  0  0  0  0  0
  1  3  1  0  0  0  0
  1  7  1  0  0  0  0
  1  2  2  0  0  0  0
 31 32  1  0  0  0  0
 32 40  1  0  0  0  0
 32 33  2  0  0  0  0
  8  9  1  0  0  0  0
  9 17  1  0  0  0  0
  9 10  2  0  0  0  0
 18 19  1  0  0  0  0
 19 30  1  0  0  0  0
 19 20  2  0  0  0  0
 21 22  1  0  0  0  0
 22 23  2  0  0  0  0
 22 24  1  0  0  0  0
 31 34  1  0  0  0  0
  8 11  1  0  0  0  0
 40 41  1  0  0  0  0
 18 21  1  0  0  0  0
 30 31  1  0  0  0  0
  7  8  1  0  0  0  0
 17 18  1  0  0  0  0
  3  4  1  0  0  0  0
  3  5  1  0  0  0  0
  3  6  1  0  0  0  0
 34 37  1  0  0  0  0
 34 38  1  0  0  0  0
 34 39  1  0  0  0  0
 11 14  1  0  0  0  0
 11 15  1  0  0  0  0
 11 16  1  0  0  0  0
 41 43  1  0  0  0  0
 41 44  1  0  0  0  0
 41 45  1  0  0  0  0
 21 27  1  0  0  0  0
 21 28  1  0  0  0  0
 31 36  1  0  0  0  0
  8 13  1  0  0  0  0
 18 26  1  0  0  0  0
 40 42  1  0  0  0  0
  7 12  1  0  0  0  0
 30 35  1  0  0  0  0
 17 25  1  0  0  0  0
 24 29  1  0  0  0  0
M  END
$$$$

  -OEChem-05262214473D

 45 44  0     1  0  0  0  0  0999 V2000
   -2.2987    4.1032   -0.3022 C   0  0  0  0  0  0  0  0  0  0  0  0
   -1.8049    3.7117   -1.3532 O   0  0  0  0  0  0  0  0  0  0  0  0
   -3.0791    5.3755   -0.2846 C   0  0  0  0  0  0  0  0  0  0  0  0
   -2.4478    6.2532   -0.0717 H   0  0  0  0  0  0  0  0  0  0  0  0
   -3.5571    5.5891   -1.2541 H   0  0  0  0  0  0  0  0  0  0  0  0
   -3.8940    5.4184    0.4556 H   0  0  0  0  0  0  0  0  0  0  0  0
   -2.2137    3.4712    0.9275 N   0  0  0  0  0  0  0  0  0  0  0  0
   -1.5102    2.2327    1.1338 C   0  0  2  0  0  0  0  0  0  0  0  0
   -1.3539    1.5497   -0.2184 C   0  0  0  0  0  0  0  0  0  0  0  0
   -2.0852    1.7861   -1.1778 O   0  0  0  0  0  0  0  0  0  0  0  0
   -2.2477    1.3342    2.1145 C   0  0  0  0  0  0  0  0  0  0  0  0
   -2.6724    3.9052    1.7265 H   0  0  0  0  0  0  0  0  0  0  0  0
   -0.5220    2.4922    1.5290 H   0  0  0  0  0  0  0  0  0  0  0  0
   -3.2400    1.0636    1.7358 H   0  0  0  0  0  0  0  0  0  0  0  0
   -1.6970    0.4046    2.2923 H   0  0  0  0  0  0  0  0  0  0  0  0
   -2.3854    1.8384    3.0772 H   0  0  0  0  0  0  0  0  0  0  0  0
   -0.3283    0.6116   -0.2182 N   0  0  0  0  0  0  0  0  0  0  0  0
    0.0090   -0.1762   -1.3759 C   0  0  2  0  0  0  0  0  0  0  0  0
   -1.0594   -1.2505   -1.5351 C   0  0  0  0  0  0  0  0  0  0  0  0
   -1.7004   -1.7026   -0.5886 O   0  0  0  0  0  0  0  0  0  0  0  0
    1.3953   -0.8035   -1.2549 C   0  0  0  0  0  0  0  0  0  0  0  0
    2.4785    0.2447   -1.3257 C   0  0  0  0  0  0  0  0  0  0  0  0
    2.3714    1.2990   -1.9384 O   0  0  0  0  0  0  0  0  0  0  0  0
    3.5969   -0.1153   -0.6487 O   0  0  0  0  0  0  0  0  0  0  0  0
    0.2381    0.4970    0.6194 H   0  0  0  0  0  0  0  0  0  0  0  0
   -0.0397    0.5037   -2.2349 H   0  0  0  0  0  0  0  0  0  0  0  0
    1.5160   -1.3146   -0.2914 H   0  0  0  0  0  0  0  0  0  0  0  0
    1.5759   -1.5683   -2.0199 H   0  0  0  0  0  0  0  0  0  0  0  0
    4.3293    0.5368   -0.6824 H   0  0  0  0  0  0  0  0  0  0  0  0
   -1.2457   -1.6099   -2.8627 N   0  0  0  0  0  0  0  0  0  0  0  0
   -2.2142   -2.5994   -3.2737 C   0  0  2  0  0  0  0  0  0  0  0  0
   -3.6039   -2.0375   -3.0042 C   0  0  0  0  0  0  0  0  0  0  0  0
   -3.8201   -1.1468   -2.1852 O   0  0  0  0  0  0  0  0  0  0  0  0
   -2.0077   -3.9145   -2.5385 C   0  0  0  0  0  0  0  0  0  0  0  0
   -0.6781   -1.1587   -3.5740 H   0  0  0  0  0  0  0  0  0  0  0  0
   -2.0807   -2.7440   -4.3513 H   0  0  0  0  0  0  0  0  0  0  0  0
   -2.1374   -3.7894   -1.4573 H   0  0  0  0  0  0  0  0  0  0  0  0
   -2.7245   -4.6722   -2.8718 H   0  0  0  0  0  0  0  0  0  0  0  0
   -0.9976   -4.3021   -2.7094 H   0  0  0  0  0  0  0  0  0  0  0  0
   -4.5802   -2.6777   -3.7548 N   0  0  0  0  0  0  0  0  0  0  0  0
   -5.9803   -2.3338   -3.6686 C   0  0  0  0  0  0  0  0  0  0  0  0
   -4.3080   -3.3925   -4.4231 H   0  0  0  0  0  0  0  0  0  0  0  0
   -6.4707   -2.9755   -2.9217 H   0  0  0  0  0  0  0  0  0  0  0  0
   -6.0812   -1.2801   -3.3694 H   0  0  0  0  0  0  0  0  0  0  0  0
   -6.4556   -2.4837   -4.6492 H   0  0  0  0  0  0  0  0  0  0  0  0
  1  3  1  0  0  0  0
  1  7  1  0  0  0  0
  1  2  2  0  0  0  0
 31 32  1  0  0  0  0
 32 40  1  0  0  0  0
 32 33  2  0  0  0  0
  8  9  1  0  0  0  0
  9 17  1  0  0  0  0
  9 10  2  0  0  0  0
 18 19  1  0  0  0  0
 19 30  1  0  0  0  0
 19 20  2  0  0  0  0
 21 22  1  0  0  0  0
 22 23  2  0  0  0  0
 22 24  1  0  0  0  0
 31 34  1  0  0  0  0
  8 11  1  0  0  0  0
 40 41  1  0  0  0  0
 18 21  1  0  0  0  0
 30 31  1  0  0  0  0
  7  8  1  0  0  0  0
 17 18  1  0  0  0  0
  3  4  1  0  0  0  0
  3  5  1  0  0  0  0
  3  6  1  0  0  0  0
 34 37  1  0  0  0  0
 34 38  1  0  0  0  0
 34 39  1  0  0  0  0
 11 14  1  0  0  0  0
 11 15  1  0  0  0  0
 11 16  1  0  0  0  0
 41 43  1  0  0  0  0
 41 44  1  0  0  0  0
 41 45  1  0  0  0  0
 21 27  1  0  0  0  0
 21 28  1  0  0  0  0
 31 36  1  0  0  0  0
  8 13  1  0  0  0  0
 18 26  1  0  0  0  0
 40 42  1  0  0  0  0
  7 12  1  0  0  0  0
 30 35  1  0  0  0  0
 17 25  1  0  0  0  0
 24 29  1  0  0  0  0
M  END
$$$$

  -OEChem-05262214473D

 45 44  0     1  0  0  0  0  0999 V2000
   -2.2987    4.1032   -0.3022 C   0  0  0  0  0  0  0  0  0  0  0  0
   -1.8049    3.7117   -1.3532 O   0  0  0  0  0  0  0  0  0  0  0  0
   -3.0791    5.3755   -0.2846 C   0  0  0  0  0  0  0  0  0  0  0  0
   -2.4478    6.2532   -0.0717 H   0  0  0  0  0  0  0  0  0  0  0  0
   -3.5571    5.5891   -1.2541 H   0  0  0  0  0  0  0  0  0  0  0  0
   -3.8940    5.4184    0.4556 H   0  0  0  0  0  0  0  0  0  0  0  0
   -2.2137    3.4712    0.9275 N   0  0  0  0  0  0  0  0  0  0  0  0
   -1.5102    2.2327    1.1338 C   0  0  2  0  0  0  0  0  0  0  0  0
   -1.3539    1.5497   -0.2184 C   0  0  0  0  0  0  0  0  0  0  0  0
   -2.0852    1.7861   -1.1778 O   0  0  0  0  0  0  0  0  0  0  0  0
   -2.2477    1.3342    2.1145 C   0  0  0  0  0  0  0  0  0  0  0  0
   -2.6724    3.9052    1.7265 H   0  0  0  0  0  0  0  0  0  0  0  0
   -0.5220    2.4922    1.5290 H   0  0  0  0  0  0  0  0  0  0  0  0
   -3.2400    1.0636    1.7358 H   0  0  0  0  0  0  0  0  0  0  0  0
   -1.6970    0.4046    2.2923 H   0  0  0  0  0  0  0  0  0  0  0  0
   -2.3854    1.8384    3.0772 H   0  0  0  0  0  0  0  0  0  0  0  0
   -0.3283    0.6116   -0.2182 N   0  0  0  0  0  0  0  0  0  0  0  0
    0.0090   -0.1762   -1.3759 C   0  0  2  0  0  0  0  0  0  0  0  0
   -1.0594   -1.2505   -1.5351 C   0  0  0  0  0  0  0  0  0  0  0  0
   -1.8796   -1.5142   -0.6582 O   0  0  0  0  0  0  0  0  0  0  0  0
    1.3953   -0.8035   -1.2549 C   0  0  0  0  0  0  0  0  0  0  0  0
    2.4785    0.2447   -1.3257 C   0  0  0  0  0  0  0  0  0  0  0  0
    2.3714    1.2990   -1.9384 O   0  0  0  0  0  0  0  0  0  0  0  0
    3.5969   -0.1153   -0.6487 O   0  0  0  0  0  0  0  0  0  0  0  0
    0.2381    0.4970    0.6194 H   0  0  0  0  0  0  0  0  0  0  0  0
   -0.0397    0.5037   -2.2349 H   0  0  0  0  0  0  0  0  0  0  0  0
    1.5160   -1.3146   -0.2914 H   0  0  0  0  0  0  0  0  0  0  0  0
    1.5759   -1.5683   -2.0199 H   0  0  0  0  0  0  0  0  0  0  0  0
    4.3293    0.5368   -0.6824 H   0  0  0  0  0  0  0  0  0  0  0  0
   -1.0193   -1.8461   -2.7881 N   0  0  0  0  0  0  0  0  0  0  0  0
   -1.9405   -2.8844   -3.1873 C   0  0  2  0  0  0  0  0  0  0  0  0
   -3.3300   -2.2684   -3.2846 C   0  0  0  0  0  0  0  0  0  0  0  0
   -3.6507   -1.2400   -2.6926 O   0  0  0  0  0  0  0  0  0  0  0  0
   -1.9276   -4.0438   -2.2033 C   0  0  0  0  0  0  0  0  0  0  0  0
   -0.3136   -1.5393   -3.4512 H   0  0  0  0  0  0  0  0  0  0  0  0
   -1.6217   -3.2262   -4.1780 H   0  0  0  0  0  0  0  0  0  0  0  0
   -2.2442   -3.7206   -1.2049 H   0  0  0  0  0  0  0  0  0  0  0  0
   -2.6053   -4.8426   -2.5224 H   0  0  0  0  0  0  0  0  0  0  0  0
   -0.9212   -4.4665   -2.1122 H   0  0  0  0  0  0  0  0  0  0  0  0
   -4.1823   -3.0258   -4.0759 N   0  0  0  0  0  0  0  0  0  0  0  0
   -5.5586   -2.6576   -4.3132 C   0  0  0  0  0  0  0  0  0  0  0  0
   -3.8259   -3.8541   -4.5434 H   0  0  0  0  0  0  0  0  0  0  0  0
   -6.2031   -3.1458   -3.5674 H   0  0  0  0  0  0  0  0  0  0  0  0
   -5.6653   -1.5659   -4.2314 H   0  0  0  0  0  0  0  0  0  0  0  0
   -5.8557   -2.9805   -5.3219 H   0  0  0  0  0  0  0  0  0  0  0  0
  1  3  1  0  0  0  0
  1  7  1  0  0  0  0
  1  2  2  0  0  0  0
 31 32  1  0  0  0  0
 32 40  1  0  0  0  0
 32 33  2  0  0  0  0
  8  9  1  0  0  0  0
  9 17  1  0  0  0  0
  9 10  2  0  0  0  0
 18 19  1  0  0  0  0
 19 30  1  0  0  0  0
 19 20  2  0  0  0  0
 21 22  1  0  0  0  0
 22 23  2  0  0  0  0
 22 24  1  0  0  0  0
 31 34  1  0  0  0  0
  8 11  1  0  0  0  0
 40 41  1  0  0  0  0
 18 21  1  0  0  0  0
 30 31  1  0  0  0  0
  7  8  1  0  0  0  0
 17 18  1  0  0  0  0
  3  4  1  0  0  0  0
  3  5  1  0  0  0  0
  3  6  1  0  0  0  0
 34 37  1  0  0  0  0
 34 38  1  0  0  0  0
 34 39  1  0  0  0  0
 11 14  1  0  0  0  0
 11 15  1  0  0  0  0
 11 16  1  0  0  0  0
 41 43  1  0  0  0  0
 41 44  1  0  0  0  0
 41 45  1  0  0  0  0
 21 27  1  0  0  0  0
 21 28  1  0  0  0  0
 31 36  1  0  0  0  0
  8 13  1  0  0  0  0
 18 26  1  0  0  0  0
 40 42  1  0  0  0  0
  7 12  1  0  0  0  0
 30 35  1  0  0  0  0
 17 25  1  0  0  0  0
 24 29  1  0  0  0  0
M  END
$$$$

  -OEChem-05262214473D

 45 44  0     1  0  0  0  0  0999 V2000
   -2.2987    4.1032   -0.3022 C   0  0  0  0  0  0  0  0  0  0  0  0
   -1.8049    3.7117   -1.3532 O   0  0  0  0  0  0  0  0  0  0  0  0
   -3.0791    5.3755   -0.2846 C   0  0  0  0  0  0  0  0  0  0  0  0
   -2.4478    6.2532   -0.0717 H   0  0  0  0  0  0  0  0  0  0  0  0
   -3.5571    5.5891   -1.2541 H   0  0  0  0  0  0  0  0  0  0  0  0
   -3.8940    5.4184    0.4556 H   0  0  0  0  0  0  0  0  0  0  0  0
   -2.2137    3.4712    0.9275 N   0  0  0  0  0  0  0  0  0  0  0  0
   -1.5102    2.2327    1.1338 C   0  0  2  0  0  0  0  0  0  0  0  0
   -1.3539    1.5497   -0.2184 C   0  0  0  0  0  0  0  0  0  0  0  0
   -2.0852    1.7861   -1.1778 O   0  0  0  0  0  0  0  0  0  0  0  0
   -2.2477    1.3342    2.1145 C   0  0  0  0  0  0  0  0  0  0  0  0
   -2.6724    3.9052    1.7265 H   0  0  0  0  0  0  0  0  0  0  0  0
   -0.5220    2.4922    1.5290 H   0  0  0  0  0  0  0  0  0  0  0  0
   -3.2400    1.0636    1.7358 H   0  0  0  0  0  0  0  0  0  0  0  0
   -1.6970    0.4046    2.2923 H   0  0  0  0  0  0  0  0  0  0  0  0
   -2.3854    1.8384    3.0772 H   0  0  0  0  0  0  0  0  0  0  0  0
   -0.3283    0.6116   -0.2182 N   0  0  0  0  0  0  0  0  0  0  0  0
    0.0090   -0.1762   -1.3759 C   0  0  2  0  0  0  0  0  0  0  0  0
   -1.2202   -0.9907   -1.7588 C   0  0  0  0  0  0  0  0  0  0  0  0
   -2.2923   -0.9047   -1.1635 O   0  0  0  0  0  0  0  0  0  0  0  0
    1.2050   -1.0885   -1.1164 C   0  0  0  0  0  0  0  0  0  0  0  0
    2.4773   -0.2922   -0.9607 C   0  0  0  0  0  0  0  0  0  0  0  0
    2.6790    0.7877   -1.5008 O   0  0  0  0  0  0  0  0  0  0  0  0
    3.3862   -0.9119   -0.1679 O   0  0  0  0  0  0  0  0  0  0  0  0
    0.2381    0.4970    0.6194 H   0  0  0  0  0  0  0  0  0  0  0  0
    0.2274    0.5370   -2.1797 H   0  0  0  0  0  0  0  0  0  0  0  0
    1.0752   -1.6569   -0.1868 H   0  0  0  0  0  0  0  0  0  0  0  0
    1.3372   -1.8385   -1.9056 H   0  0  0  0  0  0  0  0  0  0  0  0
    4.2327   -0.4294   -0.0529 H   0  0  0  0  0  0  0  0  0  0  0  0
   -0.9931   -1.7882   -2.8717 N   0  0  0  0  0  0  0  0  0  0  0  0
   -2.0098   -2.6433   -3.4384 C   0  0  2  0  0  0  0  0  0  0  0  0
   -3.0973   -1.7544   -4.0272 C   0  0  0  0  0  0  0  0  0  0  0  0
   -3.2817   -0.5932   -3.6686 O   0  0  0  0  0  0  0  0  0  0  0  0
   -2.5853   -3.5863   -2.3932 C   0  0  0  0  0  0  0  0  0  0  0  0
   -0.0747   -1.7698   -3.3053 H   0  0  0  0  0  0  0  0  0  0  0  0
   -1.5309   -3.2154   -4.2404 H   0  0  0  0  0  0  0  0  0  0  0  0
   -3.0693   -3.0311   -1.5814 H   0  0  0  0  0  0  0  0  0  0  0  0
   -3.3355   -4.2532   -2.8306 H   0  0  0  0  0  0  0  0  0  0  0  0
   -1.7971   -4.2040   -1.9495 H   0  0  0  0  0  0  0  0  0  0  0  0
   -3.8653   -2.4241   -4.9695 N   0  0  0  0  0  0  0  0  0  0  0  0
   -4.9682   -1.8000   -5.6624 C   0  0  0  0  0  0  0  0  0  0  0  0
   -3.6290   -3.3800   -5.2187 H   0  0  0  0  0  0  0  0  0  0  0  0
   -5.9022   -1.9918   -5.1139 H   0  0  0  0  0  0  0  0  0  0  0  0
   -4.7956   -0.7153   -5.7243 H   0  0  0  0  0  0  0  0  0  0  0  0
   -5.0467   -2.2172   -6.6772 H   0  0  0  0  0  0  0  0  0  0  0  0
  1  3  1  0  0  0  0
  1  7  1  0  0  0  0
  1  2  2  0  0  0  0
 31 32  1  0  0  0  0
 32 40  1  0  0  0  0
 32 33  2  0  0  0  0
  8  9  1  0  0  0  0
  9 17  1  0  0  0  0
  9 10  2  0  0  0  0
 18 19  1  0  0  0  0
 19 30  1  0  0  0  0
 19 20  2  0  0  0  0
 21 22  1  0  0  0  0
 22 23  2  0  0  0  0
 22 24  1  0  0  0  0
 31 34  1  0  0  0  0
  8 11  1  0  0  0  0
 40 41  1  0  0  0  0
 18 21  1  0  0  0  0
 30 31  1  0  0  0  0
  7  8  1  0  0  0  0
 17 18  1  0  0  0  0
  3  4  1  0  0  0  0
  3  5  1  0  0  0  0
  3  6  1  0  0  0  0
 34 37  1  0  0  0  0
 34 38  1  0  0  0  0
 34 39  1  0  0  0  0
 11 14  1  0  0  0  0
 11 15  1  0  0  0  0
 11 16  1  0  0  0  0
 41 43  1  0  0  0  0
 41 44  1  0  0  0  0
 41 45  1  0  0  0  0
 21 27  1  0  0  0  0
 21 28  1  0  0  0  0
 31 36  1  0  0  0  0
  8 13  1  0  0  0  0
 18 26  1  0  0  0  0
 40 42  1  0  0  0  0
  7 12  1  0  0  0  0
 30 35  1  0  0  0  0
 17 25  1  0  0  0  0
 24 29  1  0  0  0  0
M  END
$$$$

  -OEChem-05262214473D

 45 44  0     1  0  0  0  0  0999 V2000
   -2.2987    4.1032   -0.3022 C   0  0  0  0  0  0  0  0  0  0  0  0
   -1.8049    3.7117   -1.3532 O   0  0  0  0  0  0  0  0  0  0  0  0
   -3.0791    5.3755   -0.2846 C   0  0  0  0  0  0  0  0  0  0  0  0
   -2.4478    6.2532   -0.0717 H   0  0  0  0  0  0  0  0  0  0  0  0
   -3.5571    5.5891   -1.2541 H   0  0  0  0  0  0  0  0  0  0  0  0
   -3.8940    5.4184    0.4556 H   0  0  0  0  0  0  0  0  0  0  0  0
   -2.2137    3.4712    0.9275 N   0  0  0  0  0  0  0  0  0  0  0  0
   -1.5102    2.2327    1.1338 C   0  0  2  0  0  0  0  0  0  0  0  0
   -1.3539    1.5497   -0.2184 C   0  0  0  0  0  0  0  0  0  0  0  0
   -2.0852    1.7861   -1.1778 O   0  0  0  0  0  0  0  0  0  0  0  0
   -2.2477    1.3342    2.1145 C   0  0  0  0  0  0  0  0  0  0  0  0
   -2.6724    3.9052    1.7265 H   0  0  0  0  0  0  0  0  0  0  0  0
   -0.5220    2.4922    1.5290 H   0  0  0  0  0  0  0  0  0  0  0  0
   -3.2400    1.0636    1.7358 H   0  0  0  0  0  0  0  0  0  0  0  0
   -1.6970    0.4046    2.2923 H   0  0  0  0  0  0  0  0  0  0  0  0
   -2.3854    1.8384    3.0772 H   0  0  0  0  0  0  0  0  0  0  0  0
   -0.3283    0.6116   -0.2182 N   0  0  0  0  0  0  0  0  0  0  0  0
    0.0090   -0.1762   -1.3759 C   0  0  2  0  0  0  0  0  0  0  0  0
   -1.2202   -0.9907   -1.7588 C   0  0  0  0  0  0  0  0  0  0  0  0
   -2.3509   -0.7257   -1.3559 O   0  0  0  0  0  0  0  0  0  0  0  0
    1.2050   -1.0885   -1.1164 C   0  0  0  0  0  0  0  0  0  0  0  0
    2.4773   -0.2922   -0.9607 C   0  0  0  0  0  0  0  0  0  0  0  0
    2.6790    0.7877   -1.5008 O   0  0  0  0  0  0  0  0  0  0  0  0
    3.3862   -0.9119   -0.1679 O   0  0  0  0  0  0  0  0  0  0  0  0
    0.2381    0.4970    0.6194 H   0  0  0  0  0  0  0  0  0  0  0  0
    0.2274    0.5370   -2.1797 H   0  0  0  0  0  0  0  0  0  0  0  0
    1.0752   -1.6569   -0.1868 H   0  0  0  0  0  0  0  0  0  0  0  0
    1.3372   -1.8385   -1.9056 H   0  0  0  0  0  0  0  0  0  0  0  0
    4.2327   -0.4294   -0.0529 H   0  0  0  0  0  0  0  0  0  0  0  0
   -0.9131   -2.0177   -2.6403 N   0  0  0  0  0  0  0  0  0  0  0  0
   -1.9114   -2.9217   -3.1619 C   0  0  2  0  0  0  0  0  0  0  0  0
   -2.8377   -2.1254   -4.0715 C   0  0  0  0  0  0  0  0  0  0  0  0
   -2.9744   -0.9066   -3.9883 O   0  0  0  0  0  0  0  0  0  0  0  0
   -2.6927   -3.5897   -2.0411 C   0  0  0  0  0  0  0  0  0  0  0  0
    0.0529   -2.1385   -2.9304 H   0  0  0  0  0  0  0  0  0  0  0  0
   -1.3784   -3.6752   -3.7519 H   0  0  0  0  0  0  0  0  0  0  0  0
   -3.2334   -2.8505   -1.4390 H   0  0  0  0  0  0  0  0  0  0  0  0
   -3.4296   -4.2960   -2.4374 H   0  0  0  0  0  0  0  0  0  0  0  0
   -2.0214   -4.1375   -1.3709 H   0  0  0  0  0  0  0  0  0  0  0  0
   -3.5261   -2.9411   -4.9585 N   0  0  0  0  0  0  0  0  0  0  0  0
   -4.4750   -2.4246   -5.9170 C   0  0  0  0  0  0  0  0  0  0  0  0
   -3.3361   -3.9389   -4.9702 H   0  0  0  0  0  0  0  0  0  0  0  0
   -5.4853   -2.4476   -5.4826 H   0  0  0  0  0  0  0  0  0  0  0  0
   -4.2098   -1.3882   -6.1733 H   0  0  0  0  0  0  0  0  0  0  0  0
   -4.4525   -3.0442   -6.8256 H   0  0  0  0  0  0  0  0  0  0  0  0
  1  3  1  0  0  0  0
  1  7  1  0  0  0  0
  1  2  2  0  0  0  0
 31 32  1  0  0  0  0
 32 40  1  0  0  0  0
 32 33  2  0  0  0  0
  8  9  1  0  0  0  0
  9 17  1  0  0  0  0
  9 10  2  0  0  0  0
 18 19  1  0  0  0  0
 19 30  1  0  0  0  0
 19 20  2  0  0  0  0
 21 22  1  0  0  0  0
 22 23  2  0  0  0  0
 22 24  1  0  0  0  0
 31 34  1  0  0  0  0
  8 11  1  0  0  0  0
 40 41  1  0  0  0  0
 18 21  1  0  0  0  0
 30 31  1  0  0  0  0
  7  8  1  0  0  0  0
 17 18  1  0  0  0  0
  3  4  1  0  0  0  0
  3  5  1  0  0  0  0
  3  6  1  0  0  0  0
 34 37  1  0  0  0  0
 34 38  1  0  0  0  0
 34 39  1  0  0  0  0
 11 14  1  0  0  0  0
 11 15  1  0  0  0  0
 11 16  1  0  0  0  0
 41 43  1  0  0  0  0
 41 44  1  0  0  0  0
 41 45  1  0  0  0  0
 21 27  1  0  0  0  0
 21 28  1  0  0  0  0
 31 36  1  0  0  0  0
  8 13  1  0  0  0  0
 18 26  1  0  0  0  0
 40 42  1  0  0  0  0
  7 12  1  0  0  0  0
 30 35  1  0  0  0  0
 17 25  1  0  0  0  0
 24 29  1  0  0  0  0
M  END
$$$$

  -OEChem-05262214473D

 45 44  0     1  0  0  0  0  0999 V2000
   -2.2987    4.1032   -0.3022 C   0  0  0  0  0  0  0  0  0  0  0  0
   -1.8049    3.7117   -1.3532 O   0  0  0  0  0  0  0  0  0  0  0  0
   -3.0791    5.3755   -0.2846 C   0  0  0  0  0  0  0  0  0  0  0  0
   -2.4478    6.2532   -0.0717 H   0  0  0  0  0  0  0  0  0  0  0  0
   -3.5571    5.5891   -1.2541 H   0  0  0  0  0  0  0  0  0  0  0  0
   -3.8940    5.4184    0.4556 H   0  0  0  0  0  0  0  0  0  0  0  0
   -2.2137    3.4712    0.9275 N   0  0  0  0  0  0  0  0  0  0  0  0
   -1.5102    2.2327    1.1338 C   0  0  2  0  0  0  0  0  0  0  0  0
   -1.3539    1.5497   -0.2184 C   0  0  0  0  0  0  0  0  0  0  0  0
   -2.0852    1.7861   -1.1778 O   0  0  0  0  0  0  0  0  0  0  0  0
   -2.2477    1.3342    2.1145 C   0  0  0  0  0  0  0  0  0  0  0  0
   -2.6724    3.9052    1.7265 H   0  0  0  0  0  0  0  0  0  0  0  0
   -0.5220    2.4922    1.5290 H   0  0  0  0  0  0  0  0  0  0  0  0
   -3.2400    1.0636    1.7358 H   0  0  0  0  0  0  0  0  0  0  0  0
   -1.6970    0.4046    2.2923 H   0  0  0  0  0  0  0  0  0  0  0  0
   -2.3854    1.8384    3.0772 H   0  0  0  0  0  0  0  0  0  0  0  0
   -0.3283    0.6116   -0.2182 N   0  0  0  0  0  0  0  0  0  0  0  0
    0.0090   -0.1762   -1.3759 C   0  0  2  0  0  0  0  0  0  0  0  0
   -1.2202   -0.9907   -1.7588 C   0  0  0  0  0  0  0  0  0  0  0  0
   -2.3693   -0.5892   -1.5871 O   0  0  0  0  0  0  0  0  0  0  0  0
    1.2050   -1.0885   -1.1164 C   0  0  0  0  0  0  0  0  0  0  0  0
    2.4773   -0.2922   -0.9607 C   0  0  0  0  0  0  0  0  0  0  0  0
    2.6790    0.7877   -1.5008 O   0  0  0  0  0  0  0  0  0  0  0  0
    3.3862   -0.9119   -0.1679 O   0  0  0  0  0  0  0  0  0  0  0  0
    0.2381    0.4970    0.6194 H   0  0  0  0  0  0  0  0  0  0  0  0
    0.2274    0.5370   -2.1797 H   0  0  0  0  0  0  0  0  0  0  0  0
    1.0752   -1.6569   -0.1868 H   0  0  0  0  0  0  0  0  0  0  0  0
    1.3372   -1.8385   -1.9056 H   0  0  0  0  0  0  0  0  0  0  0  0
    4.2327   -0.4294   -0.0529 H   0  0  0  0  0  0  0  0  0  0  0  0
   -0.8828   -2.1963   -2.3578 N   0  0  0  0  0  0  0  0  0  0  0  0
   -1.8728   -3.1394   -2.8231 C   0  0  2  0  0  0  0  0  0  0  0  0
   -2.6049   -2.5099   -4.0009 C   0  0  0  0  0  0  0  0  0  0  0  0
   -2.6538   -1.2961   -4.1892 O   0  0  0  0  0  0  0  0  0  0  0  0
   -2.8453   -3.5126   -1.7152 C   0  0  0  0  0  0  0  0  0  0  0  0
    0.1002   -2.4247   -2.4736 H   0  0  0  0  0  0  0  0  0  0  0  0
   -1.3286   -4.0273   -3.1630 H   0  0  0  0  0  0  0  0  0  0  0  0
   -3.3998   -2.6356   -1.3618 H   0  0  0  0  0  0  0  0  0  0  0  0
   -3.5778   -4.2491   -2.0616 H   0  0  0  0  0  0  0  0  0  0  0  0
   -2.3139   -3.9377   -0.8569 H   0  0  0  0  0  0  0  0  0  0  0  0
   -3.2336   -3.4604   -4.7930 N   0  0  0  0  0  0  0  0  0  0  0  0
   -4.0040   -3.1131   -5.9643 C   0  0  0  0  0  0  0  0  0  0  0  0
   -3.1239   -4.4459   -4.5730 H   0  0  0  0  0  0  0  0  0  0  0  0
   -5.0612   -2.9920   -5.6858 H   0  0  0  0  0  0  0  0  0  0  0  0
   -3.6256   -2.1701   -6.3856 H   0  0  0  0  0  0  0  0  0  0  0  0
   -3.9117   -3.9128   -6.7140 H   0  0  0  0  0  0  0  0  0  0  0  0
  1  3  1  0  0  0  0
  1  7  1  0  0  0  0
  1  2  2  0  0  0  0
 31 32  1  0  0  0  0
 32 40  1  0  0  0  0
 32 33  2  0  0  0  0
  8  9  1  0  0  0  0
  9 17  1  0  0  0  0
  9 10  2  0  0  0  0
 18 19  1  0  0  0  0
 19 30  1  0  0  0  0
 19 20  2  0  0  0  0
 21 22  1  0  0  0  0
 22 23  2  0  0  0  0
 22 24  1  0  0  0  0
 31 34  1  0  0  0  0
  8 11  1  0  0  0  0
 40 41  1  0  0  0  0
 18 21  1  0  0  0  0
 30 31  1  0  0  0  0
  7  8  1  0  0  0  0
 17 18  1  0  0  0  0
  3  4  1  0  0  0  0
  3  5  1  0  0  0  0
  3  6  1  0  0  0  0
 34 37  1  0  0  0  0
 34 38  1  0  0  0  0
 34 39  1  0  0  0  0
 11 14  1  0  0  0  0
 11 15  1  0  0  0  0
 11 16  1  0  0  0  0
 41 43  1  0  0  0  0
 41 44  1  0  0  0  0
 41 45  1  0  0  0  0
 21 27  1  0  0  0  0
 21 28  1  0  0  0  0
 31 36  1  0  0  0  0
  8 13  1  0  0  0  0
 18 26  1  0  0  0  0
 40 42  1  0  0  0  0
  7 12  1  0  0  0  0
 30 35  1  0  0  0  0
 17 25  1  0  0  0  0
 24 29  1  0  0  0  0
M  END
$$$$

  -OEChem-05262214473D

 45 44  0     1  0  0  0  0  0999 V2000
   -2.2987    4.1032   -0.3022 C   0  0  0  0  0  0  0  0  0  0  0  0
   -1.8049    3.7117   -1.3532 O   0  0  0  0  0  0  0  0  0  0  0  0
   -3.0791    5.3755   -0.2846 C   0  0  0  0  0  0  0  0  0  0  0  0
   -2.4478    6.2532   -0.0717 H   0  0  0  0  0  0  0  0  0  0  0  0
   -3.5571    5.5891   -1.2541 H   0  0  0  0  0  0  0  0  0  0  0  0
   -3.8940    5.4184    0.4556 H   0  0  0  0  0  0  0  0  0  0  0  0
   -2.2137    3.4712    0.9275 N   0  0  0  0  0  0  0  0  0  0  0  0
   -1.5102    2.2327    1.1338 C   0  0  2  0  0  0  0  0  0  0  0  0
   -1.3539    1.5497   -0.2184 C   0  0  0  0  0  0  0  0  0  0  0  0
   -2.0852    1.7861   -1.1778 O   0  0  0  0  0  0  0  0  0  0  0  0
   -2.2477    1.3342    2.1145 C   0  0  0  0  0  0  0  0  0  0  0  0
   -2.6724    3.9052    1.7265 H   0  0  0  0  0  0  0  0  0  0  0  0
   -0.5220    2.4922    1.5290 H   0  0  0  0  0  0  0  0  0  0  0  0
   -3.2400    1.0636    1.7358 H   0  0  0  0  0  0  0  0  0  0  0  0
   -1.6970    0.4046    2.2923 H   0  0  0  0  0  0  0  0  0  0  0  0
   -2.3854    1.8384    3.0772 H   0  0  0  0  0  0  0  0  0  0  0  0
   -0.3283    0.6116   -0.2182 N   0  0  0  0  0  0  0  0  0  0  0  0
    0.0090   -0.1762   -1.3759 C   0  0  2  0  0  0  0  0  0  0  0  0
   -1.2202   -0.9907   -1.7588 C   0  0  0  0  0  0  0  0  0  0  0  0
   -2.3462   -0.5045   -1.8416 O   0  0  0  0  0  0  0  0  0  0  0  0
    1.2050   -1.0885   -1.1164 C   0  0  0  0  0  0  0  0  0  0  0  0
    2.4773   -0.2922   -0.9607 C   0  0  0  0  0  0  0  0  0  0  0  0
    2.6790    0.7877   -1.5008 O   0  0  0  0  0  0  0  0  0  0  0  0
    3.3862   -0.9119   -0.1679 O   0  0  0  0  0  0  0  0  0  0  0  0
    0.2381    0.4970    0.6194 H   0  0  0  0  0  0  0  0  0  0  0  0
    0.2274    0.5370   -2.1797 H   0  0  0  0  0  0  0  0  0  0  0  0
    1.0752   -1.6569   -0.1868 H   0  0  0  0  0  0  0  0  0  0  0  0
    1.3372   -1.8385   -1.9056 H   0  0  0  0  0  0  0  0  0  0  0  0
    4.2327   -0.4294   -0.0529 H   0  0  0  0  0  0  0  0  0  0  0  0
   -0.9042   -2.3118   -2.0434 N   0  0  0  0  0  0  0  0  0  0  0  0
   -1.8965   -3.2814   -2.4451 C   0  0  2  0  0  0  0  0  0  0  0  0
   -2.4149   -2.8816   -3.8202 C   0  0  0  0  0  0  0  0  0  0  0  0
   -2.3416   -1.7351   -4.2575 O   0  0  0  0  0  0  0  0  0  0  0  0
   -3.0329   -3.3600   -1.4376 C   0  0  0  0  0  0  0  0  0  0  0  0
    0.0641   -2.6089   -1.9660 H   0  0  0  0  0  0  0  0  0  0  0  0
   -1.3849   -4.2476   -2.5137 H   0  0  0  0  0  0  0  0  0  0  0  0
   -3.5573   -2.4010   -1.3552 H   0  0  0  0  0  0  0  0  0  0  0  0
   -3.7698   -4.1157   -1.7289 H   0  0  0  0  0  0  0  0  0  0  0  0
   -2.6545   -3.6185   -0.4427 H   0  0  0  0  0  0  0  0  0  0  0  0
   -3.0077   -3.9464   -4.4843 N   0  0  0  0  0  0  0  0  0  0  0  0
   -3.5873   -3.8188   -5.8010 C   0  0  0  0  0  0  0  0  0  0  0  0
   -3.0069   -4.8665   -4.0540 H   0  0  0  0  0  0  0  0  0  0  0  0
   -4.6589   -3.5879   -5.7097 H   0  0  0  0  0  0  0  0  0  0  0  0
   -3.0828   -3.0076   -6.3465 H   0  0  0  0  0  0  0  0  0  0  0  0
   -3.4614   -4.7636   -6.3501 H   0  0  0  0  0  0  0  0  0  0  0  0
  1  3  1  0  0  0  0
  1  7  1  0  0  0  0
  1  2  2  0  0  0  0
 31 32  1  0  0  0  0
 32 40  1  0  0  0  0
 32 33  2  0  0  0  0
  8  9  1  0  0  0  0
  9 17  1  0  0  0  0
  9 10  2  0  0  0  0
 18 19  1  0  0  0  0
 19 30  1  0  0  0  0
 19 20  2  0  0  0  0
 21 22  1  0  0  0  0
 22 23  2  0  0  0  0
 22 24  1  0  0  0  0
 31 34  1  0  0  0  0
  8 11  1  0  0  0  0
 40 41  1  0  0  0  0
 18 21  1  0  0  0  0
 30 31  1  0  0  0  0
  7  8  1  0  0  0  0
 17 18  1  0  0  0  0
  3  4  1  0  0  0  0
  3  5  1  0  0  0  0
  3  6  1  0  0  0  0
 34 37  1  0  0  0  0
 34 38  1  0  0  0  0
 34 39  1  0  0  0  0
 11 14  1  0  0  0  0
 11 15  1  0  0  0  0
 11 16  1  0  0  0  0
 41 43  1  0  0  0  0
 41 44  1  0  0  0  0
 41 45  1  0  0  0  0
 21 27  1  0  0  0  0
 21 28  1  0  0  0  0
 31 36  1  0  0  0  0
  8 13  1  0  0  0  0
 18 26  1  0  0  0  0
 40 42  1  0  0  0  0
  7 12  1  0  0  0  0
 30 35  1  0  0  0  0
 17 25  1  0  0  0  0
 24 29  1  0  0  0  0
M  END
$$$$

  -OEChem-05262214473D

 45 44  0     1  0  0  0  0  0999 V2000
   -2.2987    4.1032   -0.3022 C   0  0  0  0  0  0  0  0  0  0  0  0
   -1.8049    3.7117   -1.3532 O   0  0  0  0  0  0  0  0  0  0  0  0
   -3.0791    5.3755   -0.2846 C   0  0  0  0  0  0  0  0  0  0  0  0
   -2.4478    6.2532   -0.0717 H   0  0  0  0  0  0  0  0  0  0  0  0
   -3.5571    5.5891   -1.2541 H   0  0  0  0  0  0  0  0  0  0  0  0
   -3.8940    5.4184    0.4556 H   0  0  0  0  0  0  0  0  0  0  0  0
   -2.2137    3.4712    0.9275 N   0  0  0  0  0  0  0  0  0  0  0  0
   -1.5102    2.2327    1.1338 C   0  0  2  0  0  0  0  0  0  0  0  0
   -1.3539    1.5497   -0.2184 C   0  0  0  0  0  0  0  0  0  0  0  0
   -2.0852    1.7861   -1.1778 O   0  0  0  0  0  0  0  0  0  0  0  0
   -2.2477    1.3342    2.1145 C   0  0  0  0  0  0  0  0  0  0  0  0
   -2.6724    3.9052    1.7265 H   0  0  0  0  0  0  0  0  0  0  0  0
   -0.5220    2.4922    1.5290 H   0  0  0  0  0  0  0  0  0  0  0  0
   -3.2400    1.0636    1.7358 H   0  0  0  0  0  0  0  0  0  0  0  0
   -1.6970    0.4046    2.2923 H   0  0  0  0  0  0  0  0  0  0  0  0
   -2.3854    1.8384    3.0772 H   0  0  0  0  0  0  0  0  0  0  0  0
   -0.3283    0.6116   -0.2182 N   0  0  0  0  0  0  0  0  0  0  0  0
    0.0090   -0.1762   -1.3759 C   0  0  2  0  0  0  0  0  0  0  0  0
   -1.2202   -0.9907   -1.7588 C   0  0  0  0  0  0  0  0  0  0  0  0
   -2.2832   -0.4773   -2.1018 O   0  0  0  0  0  0  0  0  0  0  0  0
    1.2050   -1.0885   -1.1164 C   0  0  0  0  0  0  0  0  0  0  0  0
    2.4773   -0.2922   -0.9607 C   0  0  0  0  0  0  0  0  0  0  0  0
    2.6790    0.7877   -1.5008 O   0  0  0  0  0  0  0  0  0  0  0  0
    3.3862   -0.9119   -0.1679 O   0  0  0  0  0  0  0  0  0  0  0  0
    0.2381    0.4970    0.6194 H   0  0  0  0  0  0  0  0  0  0  0  0
    0.2274    0.5370   -2.1797 H   0  0  0  0  0  0  0  0  0  0  0  0
    1.0752   -1.6569   -0.1868 H   0  0  0  0  0  0  0  0  0  0  0  0
    1.3372   -1.8385   -1.9056 H   0  0  0  0  0  0  0  0  0  0  0  0
    4.2327   -0.4294   -0.0529 H   0  0  0  0  0  0  0  0  0  0  0  0
   -0.9759   -2.3563   -1.7186 N   0  0  0  0  0  0  0  0  0  0  0  0
   -1.9809   -3.3380   -2.0536 C   0  0  2  0  0  0  0  0  0  0  0  0
   -2.2805   -3.2154   -3.5418 C   0  0  0  0  0  0  0  0  0  0  0  0
   -2.0592   -2.1938   -4.1886 O   0  0  0  0  0  0  0  0  0  0  0  0
   -3.2425   -3.1425   -1.2273 C   0  0  0  0  0  0  0  0  0  0  0  0
   -0.0530   -2.6784   -1.4423 H   0  0  0  0  0  0  0  0  0  0  0  0
   -1.5435   -4.3211   -1.8483 H   0  0  0  0  0  0  0  0  0  0  0  0
   -3.6950   -2.1629   -1.4195 H   0  0  0  0  0  0  0  0  0  0  0  0
   -3.9927   -3.9049   -1.4620 H   0  0  0  0  0  0  0  0  0  0  0  0
   -3.0200   -3.2014   -0.1564 H   0  0  0  0  0  0  0  0  0  0  0  0
   -2.8639   -4.3661   -4.0533 N   0  0  0  0  0  0  0  0  0  0  0  0
   -3.2534   -4.4933   -5.4382 C   0  0  0  0  0  0  0  0  0  0  0  0
   -2.9930   -5.1720   -3.4487 H   0  0  0  0  0  0  0  0  0  0  0  0
   -4.3058   -4.1947   -5.5527 H   0  0  0  0  0  0  0  0  0  0  0  0
   -2.6185   -3.8437   -6.0587 H   0  0  0  0  0  0  0  0  0  0  0  0
   -3.1321   -5.5387   -5.7585 H   0  0  0  0  0  0  0  0  0  0  0  0
  1  3  1  0  0  0  0
  1  7  1  0  0  0  0
  1  2  2  0  0  0  0
 31 32  1  0  0  0  0
 32 40  1  0  0  0  0
 32 33  2  0  0  0  0
  8  9  1  0  0  0  0
  9 17  1  0  0  0  0
  9 10  2  0  0  0  0
 18 19  1  0  0  0  0
 19 30  1  0  0  0  0
 19 20  2  0  0  0  0
 21 22  1  0  0  0  0
 22 23  2  0  0  0  0
 22 24  1  0  0  0  0
 31 34  1  0  0  0  0
  8 11  1  0  0  0  0
 40 41  1  0  0  0  0
 18 21  1  0  0  0  0
 30 31  1  0  0  0  0
  7  8  1  0  0  0  0
 17 18  1  0  0  0  0
  3  4  1  0  0  0  0
  3  5  1  0  0  0  0
  3  6  1  0  0  0  0
 34 37  1  0  0  0  0
 34 38  1  0  0  0  0
 34 39  1  0  0  0  0
 11 14  1  0  0  0  0
 11 15  1  0  0  0  0
 11 16  1  0  0  0  0
 41 43  1  0  0  0  0
 41 44  1  0  0  0  0
 41 45  1  0  0  0  0
 21 27  1  0  0  0  0
 21 28  1  0  0  0  0
 31 36  1  0  0  0  0
  8 13  1  0  0  0  0
 18 26  1  0  0  0  0
 40 42  1  0  0  0  0
  7 12  1  0  0  0  0
 30 35  1  0  0  0  0
 17 25  1  0  0  0  0
 24 29  1  0  0  0  0
M  END
$$$$

  -OEChem-05262214473D

 45 44  0     1  0  0  0  0  0999 V2000
   -2.2987    4.1032   -0.3022 C   0  0  0  0  0  0  0  0  0  0  0  0
   -1.8049    3.7117   -1.3532 O   0  0  0  0  0  0  0  0  0  0  0  0
   -3.0791    5.3755   -0.2846 C   0  0  0  0  0  0  0  0  0  0  0  0
   -2.4478    6.2532   -0.0717 H   0  0  0  0  0  0  0  0  0  0  0  0
   -3.5571    5.5891   -1.2541 H   0  0  0  0  0  0  0  0  0  0  0  0
   -3.8940    5.4184    0.4556 H   0  0  0  0  0  0  0  0  0  0  0  0
   -2.2137    3.4712    0.9275 N   0  0  0  0  0  0  0  0  0  0  0  0
   -1.5102    2.2327    1.1338 C   0  0  2  0  0  0  0  0  0  0  0  0
   -1.3539    1.5497   -0.2184 C   0  0  0  0  0  0  0  0  0  0  0  0
   -2.0852    1.7861   -1.1778 O   0  0  0  0  0  0  0  0  0  0  0  0
   -2.2477    1.3342    2.1145 C   0  0  0  0  0  0  0  0  0  0  0  0
   -2.6724    3.9052    1.7265 H   0  0  0  0  0  0  0  0  0  0  0  0
   -0.5220    2.4922    1.5290 H   0  0  0  0  0  0  0  0  0  0  0  0
   -3.2400    1.0636    1.7358 H   0  0  0  0  0  0  0  0  0  0  0  0
   -1.6970    0.4046    2.2923 H   0  0  0  0  0  0  0  0  0  0  0  0
   -2.3854    1.8384    3.0772 H   0  0  0  0  0  0  0  0  0  0  0  0
   -0.3283    0.6116   -0.2182 N   0  0  0  0  0  0  0  0  0  0  0  0
    0.0090   -0.1762   -1.3759 C   0  0  2  0  0  0  0  0  0  0  0  0
   -1.2202   -0.9907   -1.7588 C   0  0  0  0  0  0  0  0  0  0  0  0
   -2.1845   -0.5094   -2.3502 O   0  0  0  0  0  0  0  0  0  0  0  0
    1.2050   -1.0885   -1.1164 C   0  0  0  0  0  0  0  0  0  0  0  0
    2.4773   -0.2922   -0.9607 C   0  0  0  0  0  0  0  0  0  0  0  0
    2.6790    0.7877   -1.5008 O   0  0  0  0  0  0  0  0  0  0  0  0
    3.3862   -0.9119   -0.1679 O   0  0  0  0  0  0  0  0  0  0  0  0
    0.2381    0.4970    0.6194 H   0  0  0  0  0  0  0  0  0  0  0  0
    0.2274    0.5370   -2.1797 H   0  0  0  0  0  0  0  0  0  0  0  0
    1.0752   -1.6569   -0.1868 H   0  0  0  0  0  0  0  0  0  0  0  0
    1.3372   -1.8385   -1.9056 H   0  0  0  0  0  0  0  0  0  0  0  0
    4.2327   -0.4294   -0.0529 H   0  0  0  0  0  0  0  0  0  0  0  0
   -1.0930   -2.3268   -1.4055 N   0  0  0  0  0  0  0  0  0  0  0  0
   -2.1203   -3.3055   -1.6753 C   0  0  2  0  0  0  0  0  0  0  0  0
   -2.2109   -3.4883   -3.1845 C   0  0  0  0  0  0  0  0  0  0  0  0
   -1.8257   -2.6408   -3.9872 O   0  0  0  0  0  0  0  0  0  0  0  0
   -3.4600   -2.8749   -1.0985 C   0  0  0  0  0  0  0  0  0  0  0  0
   -0.2431   -2.6286   -0.9382 H   0  0  0  0  0  0  0  0  0  0  0  0
   -1.7935   -4.2429   -1.2122 H   0  0  0  0  0  0  0  0  0  0  0  0
   -3.8037   -1.9373   -1.5505 H   0  0  0  0  0  0  0  0  0  0  0  0
   -4.2311   -3.6310   -1.2791 H   0  0  0  0  0  0  0  0  0  0  0  0
   -3.3856   -2.7150   -0.0175 H   0  0  0  0  0  0  0  0  0  0  0  0
   -2.8120   -4.6908   -3.5294 N   0  0  0  0  0  0  0  0  0  0  0  0
   -3.0248   -5.0909   -4.9008 C   0  0  0  0  0  0  0  0  0  0  0  0
   -3.0833   -5.3416   -2.7982 H   0  0  0  0  0  0  0  0  0  0  0  0
   -4.0259   -4.7709   -5.2254 H   0  0  0  0  0  0  0  0  0  0  0  0
   -2.2641   -4.6215   -5.5418 H   0  0  0  0  0  0  0  0  0  0  0  0
   -2.9463   -6.1853   -4.9797 H   0  0  0  0  0  0  0  0  0  0  0  0
  1  3  1  0  0  0  0
  1  7  1  0  0  0  0
  1  2  2  0  0  0  0
 31 32  1  0  0  0  0
 32 40  1  0  0  0  0
 32 33  2  0  0  0  0
  8  9  1  0  0  0  0
  9 17  1  0  0  0  0
  9 10  2  0  0  0  0
 18 19  1  0  0  0  0
 19 30  1  0  0  0  0
 19 20  2  0  0  0  0
 21 22  1  0  0  0  0
 22 23  2  0  0  0  0
 22 24  1  0  0  0  0
 31 34  1  0  0  0  0
  8 11  1  0  0  0  0
 40 41  1  0  0  0  0
 18 21  1  0  0  0  0
 30 31  1  0  0  0  0
  7  8  1  0  0  0  0
 17 18  1  0  0  0  0
  3  4  1  0  0  0  0
  3  5  1  0  0  0  0
  3  6  1  0  0  0  0
 34 37  1  0  0  0  0
 34 38  1  0  0  0  0
 34 39  1  0  0  0  0
 11 14  1  0  0  0  0
 11 15  1  0  0  0  0
 11 16  1  0  0  0  0
 41 43  1  0  0  0  0
 41 44  1  0  0  0  0
 41 45  1  0  0  0  0
 21 27  1  0  0  0  0
 21 28  1  0  0  0  0
 31 36  1  0  0  0  0
  8 13  1  0  0  0  0
 18 26  1  0  0  0  0
 40 42  1  0  0  0  0
  7 12  1  0  0  0  0
 30 35  1  0  0  0  0
 17 25  1  0  0  0  0
 24 29  1  0  0  0  0
M  END
$$$$

  -OEChem-05262214473D

 45 44  0     1  0  0  0  0  0999 V2000
   -2.2987    4.1032   -0.3022 C   0  0  0  0  0  0  0  0  0  0  0  0
   -1.8049    3.7117   -1.3532 O   0  0  0  0  0  0  0  0  0  0  0  0
   -3.0791    5.3755   -0.2846 C   0  0  0  0  0  0  0  0  0  0  0  0
   -2.4478    6.2532   -0.0717 H   0  0  0  0  0  0  0  0  0  0  0  0
   -3.5571    5.5891   -1.2541 H   0  0  0  0  0  0  0  0  0  0  0  0
   -3.8940    5.4184    0.4556 H   0  0  0  0  0  0  0  0  0  0  0  0
   -2.2137    3.4712    0.9275 N   0  0  0  0  0  0  0  0  0  0  0  0
   -1.5102    2.2327    1.1338 C   0  0  2  0  0  0  0  0  0  0  0  0
   -1.3539    1.5497   -0.2184 C   0  0  0  0  0  0  0  0  0  0  0  0
   -2.0852    1.7861   -1.1778 O   0  0  0  0  0  0  0  0  0  0  0  0
   -2.2477    1.3342    2.1145 C   0  0  0  0  0  0  0  0  0  0  0  0
   -2.6724    3.9052    1.7265 H   0  0  0  0  0  0  0  0  0  0  0  0
   -0.5220    2.4922    1.5290 H   0  0  0  0  0  0  0  0  0  0  0  0
   -3.2400    1.0636    1.7358 H   0  0  0  0  0  0  0  0  0  0  0  0
   -1.6970    0.4046    2.2923 H   0  0  0  0  0  0  0  0  0  0  0  0
   -2.3854    1.8384    3.0772 H   0  0  0  0  0  0  0  0  0  0  0  0
   -0.3283    0.6116   -0.2182 N   0  0  0  0  0  0  0  0  0  0  0  0
    0.0090   -0.1762   -1.3759 C   0  0  2  0  0  0  0  0  0  0  0  0
   -1.2202   -0.9907   -1.7588 C   0  0  0  0  0  0  0  0  0  0  0  0
   -2.0569   -0.5988   -2.5697 O   0  0  0  0  0  0  0  0  0  0  0  0
    1.2050   -1.0885   -1.1164 C   0  0  0  0  0  0  0  0  0  0  0  0
    2.4773   -0.2922   -0.9607 C   0  0  0  0  0  0  0  0  0  0  0  0
    2.6790    0.7877   -1.5008 O   0  0  0  0  0  0  0  0  0  0  0  0
    3.3862   -0.9119   -0.1679 O   0  0  0  0  0  0  0  0  0  0  0  0
    0.2381    0.4970    0.6194 H   0  0  0  0  0  0  0  0  0  0  0  0
    0.2274    0.5370   -2.1797 H   0  0  0  0  0  0  0  0  0  0  0  0
    1.0752   -1.6569   -0.1868 H   0  0  0  0  0  0  0  0  0  0  0  0
    1.3372   -1.8385   -1.9056 H   0  0  0  0  0  0  0  0  0  0  0  0
    4.2327   -0.4294   -0.0529 H   0  0  0  0  0  0  0  0  0  0  0  0
   -1.2476   -2.2253   -1.1254 N   0  0  0  0  0  0  0  0  0  0  0  0
   -2.3052   -3.1860   -1.3359 C   0  0  2  0  0  0  0  0  0  0  0  0
   -2.2109   -3.6819   -2.7728 C   0  0  0  0  0  0  0  0  0  0  0  0
   -1.6572   -3.0457   -3.6670 O   0  0  0  0  0  0  0  0  0  0  0  0
   -3.6704   -2.5753   -1.0602 C   0  0  0  0  0  0  0  0  0  0  0  0
   -0.4932   -2.4628   -0.4879 H   0  0  0  0  0  0  0  0  0  0  0  0
   -2.1179   -4.0183   -0.6487 H   0  0  0  0  0  0  0  0  0  0  0  0
   -3.8758   -1.7397   -1.7391 H   0  0  0  0  0  0  0  0  0  0  0  0
   -4.4690   -3.3127   -1.1926 H   0  0  0  0  0  0  0  0  0  0  0  0
   -3.7263   -2.1924   -0.0355 H   0  0  0  0  0  0  0  0  0  0  0  0
   -2.8554   -4.8985   -2.9484 N   0  0  0  0  0  0  0  0  0  0  0  0
   -2.9174   -5.5708   -4.2252 C   0  0  0  0  0  0  0  0  0  0  0  0
   -3.2715   -5.3637   -2.1471 H   0  0  0  0  0  0  0  0  0  0  0  0
   -3.8384   -5.2774   -4.7503 H   0  0  0  0  0  0  0  0  0  0  0  0
   -2.0440   -5.2879   -4.8312 H   0  0  0  0  0  0  0  0  0  0  0  0
   -2.9167   -6.6593   -4.0667 H   0  0  0  0  0  0  0  0  0  0  0  0
  1  3  1  0  0  0  0
  1  7  1  0  0  0  0
  1  2  2  0  0  0  0
 31 32  1  0  0  0  0
 32 40  1  0  0  0  0
 32 33  2  0  0  0  0
  8  9  1  0  0  0  0
  9 17  1  0  0  0  0
  9 10  2  0  0  0  0
 18 19  1  0  0  0  0
 19 30  1  0  0  0  0
 19 20  2  0  0  0  0
 21 22  1  0  0  0  0
 22 23  2  0  0  0  0
 22 24  1  0  0  0  0
 31 34  1  0  0  0  0
  8 11  1  0  0  0  0
 40 41  1  0  0  0  0
 18 21  1  0  0  0  0
 30 31  1  0  0  0  0
  7  8  1  0  0  0  0
 17 18  1  0  0  0  0
  3  4  1  0  0  0  0
  3  5  1  0  0  0  0
  3  6  1  0  0  0  0
 34 37  1  0  0  0  0
 34 38  1  0  0  0  0
 34 39  1  0  0  0  0
 11 14  1  0  0  0  0
 11 15  1  0  0  0  0
 11 16  1  0  0  0  0
 41 43  1  0  0  0  0
 41 44  1  0  0  0  0
 41 45  1  0  0  0  0
 21 27  1  0  0  0  0
 21 28  1  0  0  0  0
 31 36  1  0  0  0  0
  8 13  1  0  0  0  0
 18 26  1  0  0  0  0
 40 42  1  0  0  0  0
  7 12  1  0  0  0  0
 30 35  1  0  0  0  0
 17 25  1  0  0  0  0
 24 29  1  0  0  0  0
M  END
$$$$

  -OEChem-05262214473D

 45 44  0     1  0  0  0  0  0999 V2000
   -2.2987    4.1032   -0.3022 C   0  0  0  0  0  0  0  0  0  0  0  0
   -1.8049    3.7117   -1.3532 O   0  0  0  0  0  0  0  0  0  0  0  0
   -3.0791    5.3755   -0.2846 C   0  0  0  0  0  0  0  0  0  0  0  0
   -2.4478    6.2532   -0.0717 H   0  0  0  0  0  0  0  0  0  0  0  0
   -3.5571    5.5891   -1.2541 H   0  0  0  0  0  0  0  0  0  0  0  0
   -3.8940    5.4184    0.4556 H   0  0  0  0  0  0  0  0  0  0  0  0
   -2.2137    3.4712    0.9275 N   0  0  0  0  0  0  0  0  0  0  0  0
   -1.5102    2.2327    1.1338 C   0  0  2  0  0  0  0  0  0  0  0  0
   -1.3539    1.5497   -0.2184 C   0  0  0  0  0  0  0  0  0  0  0  0
   -2.0852    1.7861   -1.1778 O   0  0  0  0  0  0  0  0  0  0  0  0
   -2.2477    1.3342    2.1145 C   0  0  0  0  0  0  0  0  0  0  0  0
   -2.6724    3.9052    1.7265 H   0  0  0  0  0  0  0  0  0  0  0  0
   -0.5220    2.4922    1.5290 H   0  0  0  0  0  0  0  0  0  0  0  0
   -3.2400    1.0636    1.7358 H   0  0  0  0  0  0  0  0  0  0  0  0
   -1.6970    0.4046    2.2923 H   0  0  0  0  0  0  0  0  0  0  0  0
   -2.3854    1.8384    3.0772 H   0  0  0  0  0  0  0  0  0  0  0  0
   -0.3283    0.6116   -0.2182 N   0  0  0  0  0  0  0  0  0  0  0  0
    0.0090   -0.1762   -1.3759 C   0  0  2  0  0  0  0  0  0  0  0  0
   -1.2202   -0.9907   -1.7588 C   0  0  0  0  0  0  0  0  0  0  0  0
   -1.9091   -0.7392   -2.7454 O   0  0  0  0  0  0  0  0  0  0  0  0
    1.2050   -1.0885   -1.1164 C   0  0  0  0  0  0  0  0  0  0  0  0
    2.4773   -0.2922   -0.9607 C   0  0  0  0  0  0  0  0  0  0  0  0
    2.6790    0.7877   -1.5008 O   0  0  0  0  0  0  0  0  0  0  0  0
    3.3862   -0.9119   -0.1679 O   0  0  0  0  0  0  0  0  0  0  0  0
    0.2381    0.4970    0.6194 H   0  0  0  0  0  0  0  0  0  0  0  0
    0.2274    0.5370   -2.1797 H   0  0  0  0  0  0  0  0  0  0  0  0
    1.0752   -1.6569   -0.1868 H   0  0  0  0  0  0  0  0  0  0  0  0
    1.3372   -1.8385   -1.9056 H   0  0  0  0  0  0  0  0  0  0  0  0
    4.2327   -0.4294   -0.0529 H   0  0  0  0  0  0  0  0  0  0  0  0
   -1.4290   -2.0587   -0.8974 N   0  0  0  0  0  0  0  0  0  0  0  0
   -2.5230   -2.9877   -1.0587 C   0  0  2  0  0  0  0  0  0  0  0  0
   -2.2805   -3.7829   -2.3347 C   0  0  0  0  0  0  0  0  0  0  0  0
   -1.5650   -3.3809   -3.2499 O   0  0  0  0  0  0  0  0  0  0  0  0
   -3.8595   -2.2643   -1.1148 C   0  0  0  0  0  0  0  0  0  0  0  0
   -0.7864   -2.1923   -0.1222 H   0  0  0  0  0  0  0  0  0  0  0  0
   -2.4946   -3.6625   -0.1962 H   0  0  0  0  0  0  0  0  0  0  0  0
   -3.9066   -1.5835   -1.9726 H   0  0  0  0  0  0  0  0  0  0  0  0
   -4.6900   -2.9718   -1.2084 H   0  0  0  0  0  0  0  0  0  0  0  0
   -4.0189   -1.6692   -0.2091 H   0  0  0  0  0  0  0  0  0  0  0  0
   -2.9912   -4.9749   -2.3499 N   0  0  0  0  0  0  0  0  0  0  0  0
   -2.9383   -5.9002   -3.4576 C   0  0  0  0  0  0  0  0  0  0  0  0
   -3.5449   -5.2368   -1.5395 H   0  0  0  0  0  0  0  0  0  0  0  0
   -3.7559   -5.6797   -4.1596 H   0  0  0  0  0  0  0  0  0  0  0  0
   -1.9731   -5.7975   -3.9751 H   0  0  0  0  0  0  0  0  0  0  0  0
   -3.0452   -6.9284   -3.0817 H   0  0  0  0  0  0  0  0  0  0  0  0
  1  3  1  0  0  0  0
  1  7  1  0  0  0  0
  1  2  2  0  0  0  0
 31 32  1  0  0  0  0
 32 40  1  0  0  0  0
 32 33  2  0  0  0  0
  8  9  1  0  0  0  0
  9 17  1  0  0  0  0
  9 10  2  0  0  0  0
 18 19  1  0  0  0  0
 19 30  1  0  0  0  0
 19 20  2  0  0  0  0
 21 22  1  0  0  0  0
 22 23  2  0  0  0  0
 22 24  1  0  0  0  0
 31 34  1  0  0  0  0
  8 11  1  0  0  0  0
 40 41  1  0  0  0  0
 18 21  1  0  0  0  0
 30 31  1  0  0  0  0
  7  8  1  0  0  0  0
 17 18  1  0  0  0  0
  3  4  1  0  0  0  0
  3  5  1  0  0  0  0
  3  6  1  0  0  0  0
 34 37  1  0  0  0  0
 34 38  1  0  0  0  0
 34 39  1  0  0  0  0
 11 14  1  0  0  0  0
 11 15  1  0  0  0  0
 11 16  1  0  0  0  0
 41 43  1  0  0  0  0
 41 44  1  0  0  0  0
 41 45  1  0  0  0  0
 21 27  1  0  0  0  0
 21 28  1  0  0  0  0
 31 36  1  0  0  0  0
  8 13  1  0  0  0  0
 18 26  1  0  0  0  0
 40 42  1  0  0  0  0
  7 12  1  0  0  0  0
 30 35  1  0  0  0  0
 17 25  1  0  0  0  0
 24 29  1  0  0  0  0
M  END
$$$$

  -OEChem-05262214473D

 45 44  0     1  0  0  0  0  0999 V2000
   -2.2987    4.1032   -0.3022 C   0  0  0  0  0  0  0  0  0  0  0  0
   -1.8049    3.7117   -1.3532 O   0  0  0  0  0  0  0  0  0  0  0  0
   -3.0791    5.3755   -0.2846 C   0  0  0  0  0  0  0  0  0  0  0  0
   -2.4478    6.2532   -0.0717 H   0  0  0  0  0  0  0  0  0  0  0  0
   -3.5571    5.5891   -1.2541 H   0  0  0  0  0  0  0  0  0  0  0  0
   -3.8940    5.4184    0.4556 H   0  0  0  0  0  0  0  0  0  0  0  0
   -2.2137    3.4712    0.9275 N   0  0  0  0  0  0  0  0  0  0  0  0
   -1.5102    2.2327    1.1338 C   0  0  2  0  0  0  0  0  0  0  0  0
   -1.3539    1.5497   -0.2184 C   0  0  0  0  0  0  0  0  0  0  0  0
   -2.0852    1.7861   -1.1778 O   0  0  0  0  0  0  0  0  0  0  0  0
   -2.2477    1.3342    2.1145 C   0  0  0  0  0  0  0  0  0  0  0  0
   -2.6724    3.9052    1.7265 H   0  0  0  0  0  0  0  0  0  0  0  0
   -0.5220    2.4922    1.5290 H   0  0  0  0  0  0  0  0  0  0  0  0
   -3.2400    1.0636    1.7358 H   0  0  0  0  0  0  0  0  0  0  0  0
   -1.6970    0.4046    2.2923 H   0  0  0  0  0  0  0  0  0  0  0  0
   -2.3854    1.8384    3.0772 H   0  0  0  0  0  0  0  0  0  0  0  0
   -0.3283    0.6116   -0.2182 N   0  0  0  0  0  0  0  0  0  0  0  0
    0.0090   -0.1762   -1.3759 C   0  0  2  0  0  0  0  0  0  0  0  0
   -1.2202   -0.9907   -1.7588 C   0  0  0  0  0  0  0  0  0  0  0  0
   -1.7511   -0.9212   -2.8654 O   0  0  0  0  0  0  0  0  0  0  0  0
    1.2050   -1.0885   -1.1164 C   0  0  0  0  0  0  0  0  0  0  0  0
    2.4773   -0.2922   -0.9607 C   0  0  0  0  0  0  0  0  0  0  0  0
    2.6790    0.7877   -1.5008 O   0  0  0  0  0  0  0  0  0  0  0  0
    3.3862   -0.9119   -0.1679 O   0  0  0  0  0  0  0  0  0  0  0  0
    0.2381    0.4970    0.6194 H   0  0  0  0  0  0  0  0  0  0  0  0
    0.2274    0.5370   -2.1797 H   0  0  0  0  0  0  0  0  0  0  0  0
    1.0752   -1.6569   -0.1868 H   0  0  0  0  0  0  0  0  0  0  0  0
    1.3372   -1.8385   -1.9056 H   0  0  0  0  0  0  0  0  0  0  0  0
    4.2327   -0.4294   -0.0529 H   0  0  0  0  0  0  0  0  0  0  0  0
   -1.6249   -1.8383   -0.7371 N   0  0  0  0  0  0  0  0  0  0  0  0
   -2.7588   -2.7241   -0.8624 C   0  0  2  0  0  0  0  0  0  0  0  0
   -2.4149   -3.7845   -1.9001 C   0  0  0  0  0  0  0  0  0  0  0  0
   -1.5555   -3.6235   -2.7642 O   0  0  0  0  0  0  0  0  0  0  0  0
   -4.0143   -1.9629   -1.2587 C   0  0  0  0  0  0  0  0  0  0  0  0
   -1.1025   -1.8357    0.1340 H   0  0  0  0  0  0  0  0  0  0  0  0
   -2.8980   -3.1998    0.1145 H   0  0  0  0  0  0  0  0  0  0  0  0
   -3.8938   -1.4794   -2.2350 H   0  0  0  0  0  0  0  0  0  0  0  0
   -4.8791   -2.6313   -1.3254 H   0  0  0  0  0  0  0  0  0  0  0  0
   -4.2434   -1.1810   -0.5266 H   0  0  0  0  0  0  0  0  0  0  0  0
   -3.2102   -4.9149   -1.7745 N   0  0  0  0  0  0  0  0  0  0  0  0
   -3.0861   -6.0567   -2.6502 C   0  0  0  0  0  0  0  0  0  0  0  0
   -3.8847   -4.9696   -1.0170 H   0  0  0  0  0  0  0  0  0  0  0  0
   -3.7841   -5.9502   -3.4937 H   0  0  0  0  0  0  0  0  0  0  0  0
   -2.0561   -6.1156   -3.0319 H   0  0  0  0  0  0  0  0  0  0  0  0
   -3.3232   -6.9743   -2.0918 H   0  0  0  0  0  0  0  0  0  0  0  0
  1  3  1  0  0  0  0
  1  7  1  0  0  0  0
  1  2  2  0  0  0  0
 31 32  1  0  0  0  0
 32 40  1  0  0  0  0
 32 33  2  0  0  0  0
  8  9  1  0  0  0  0
  9 17  1  0  0  0  0
  9 10  2  0  0  0  0
 18 19  1  0  0  0  0
 19 30  1  0  0  0  0
 19 20  2  0  0  0  0
 21 22  1  0  0  0  0
 22 23  2  0  0  0  0
 22 24  1  0  0  0  0
 31 34  1  0  0  0  0
  8 11  1  0  0  0  0
 40 41  1  0  0  0  0
 18 21  1  0  0  0  0
 30 31  1  0  0  0  0
  7  8  1  0  0  0  0
 17 18  1  0  0  0  0
  3  4  1  0  0  0  0
  3  5  1  0  0  0  0
  3  6  1  0  0  0  0
 34 37  1  0  0  0  0
 34 38  1  0  0  0  0
 34 39  1  0  0  0  0
 11 14  1  0  0  0  0
 11 15  1  0  0  0  0
 11 16  1  0  0  0  0
 41 43  1  0  0  0  0
 41 44  1  0  0  0  0
 41 45  1  0  0  0  0
 21 27  1  0  0  0  0
 21 28  1  0  0  0  0
 31 36  1  0  0  0  0
  8 13  1  0  0  0  0
 18 26  1  0  0  0  0
 40 42  1  0  0  0  0
  7 12  1  0  0  0  0
 30 35  1  0  0  0  0
 17 25  1  0  0  0  0
 24 29  1  0  0  0  0
M  END
$$$$

  -OEChem-05262214473D

 45 44  0     1  0  0  0  0  0999 V2000
   -2.2987    4.1032   -0.3022 C   0  0  0  0  0  0  0  0  0  0  0  0
   -1.8049    3.7117   -1.3532 O   0  0  0  0  0  0  0  0  0  0  0  0
   -3.0791    5.3755   -0.2846 C   0  0  0  0  0  0  0  0  0  0  0  0
   -2.4478    6.2532   -0.0717 H   0  0  0  0  0  0  0  0  0  0  0  0
   -3.5571    5.5891   -1.2541 H   0  0  0  0  0  0  0  0  0  0  0  0
   -3.8940    5.4184    0.4556 H   0  0  0  0  0  0  0  0  0  0  0  0
   -2.2137    3.4712    0.9275 N   0  0  0  0  0  0  0  0  0  0  0  0
   -1.5102    2.2327    1.1338 C   0  0  2  0  0  0  0  0  0  0  0  0
   -1.3539    1.5497   -0.2184 C   0  0  0  0  0  0  0  0  0  0  0  0
   -2.0852    1.7861   -1.1778 O   0  0  0  0  0  0  0  0  0  0  0  0
   -2.2477    1.3342    2.1145 C   0  0  0  0  0  0  0  0  0  0  0  0
   -2.6724    3.9052    1.7265 H   0  0  0  0  0  0  0  0  0  0  0  0
   -0.5220    2.4922    1.5290 H   0  0  0  0  0  0  0  0  0  0  0  0
   -3.2400    1.0636    1.7358 H   0  0  0  0  0  0  0  0  0  0  0  0
   -1.6970    0.4046    2.2923 H   0  0  0  0  0  0  0  0  0  0  0  0
   -2.3854    1.8384    3.0772 H   0  0  0  0  0  0  0  0  0  0  0  0
   -0.3283    0.6116   -0.2182 N   0  0  0  0  0  0  0  0  0  0  0  0
    0.0090   -0.1762   -1.3759 C   0  0  2  0  0  0  0  0  0  0  0  0
   -1.2202   -0.9907   -1.7588 C   0  0  0  0  0  0  0  0  0  0  0  0
   -1.5938   -1.1323   -2.9214 O   0  0  0  0  0  0  0  0  0  0  0  0
    1.2050   -1.0885   -1.1164 C   0  0  0  0  0  0  0  0  0  0  0  0
    2.4773   -0.2922   -0.9607 C   0  0  0  0  0  0  0  0  0  0  0  0
    2.6790    0.7877   -1.5008 O   0  0  0  0  0  0  0  0  0  0  0  0
    3.3862   -0.9119   -0.1679 O   0  0  0  0  0  0  0  0  0  0  0  0
    0.2381    0.4970    0.6194 H   0  0  0  0  0  0  0  0  0  0  0  0
    0.2274    0.5370   -2.1797 H   0  0  0  0  0  0  0  0  0  0  0  0
    1.0752   -1.6569   -0.1868 H   0  0  0  0  0  0  0  0  0  0  0  0
    1.3372   -1.8385   -1.9056 H   0  0  0  0  0  0  0  0  0  0  0  0
    4.2327   -0.4294   -0.0529 H   0  0  0  0  0  0  0  0  0  0  0  0
   -1.8220   -1.5793   -0.6554 N   0  0  0  0  0  0  0  0  0  0  0  0
   -2.9966   -2.4131   -0.7605 C   0  0  2  0  0  0  0  0  0  0  0  0
   -2.6049   -3.6865   -1.4985 C   0  0  0  0  0  0  0  0  0  0  0  0
   -1.6294   -3.7571   -2.2431 O   0  0  0  0  0  0  0  0  0  0  0  0
   -4.1244   -1.6918   -1.4820 C   0  0  0  0  0  0  0  0  0  0  0  0
   -1.4201   -1.4171    0.2633 H   0  0  0  0  0  0  0  0  0  0  0  0
   -3.3005   -2.6618    0.2621 H   0  0  0  0  0  0  0  0  0  0  0  0
   -3.8384   -1.4345   -2.5084 H   0  0  0  0  0  0  0  0  0  0  0  0
   -5.0234   -2.3147   -1.5357 H   0  0  0  0  0  0  0  0  0  0  0  0
   -4.3846   -0.7611   -0.9663 H   0  0  0  0  0  0  0  0  0  0  0  0
   -3.4975   -4.7225   -1.2617 N   0  0  0  0  0  0  0  0  0  0  0  0
   -3.3508   -6.0297   -1.8581 C   0  0  0  0  0  0  0  0  0  0  0  0
   -4.2679   -4.5803   -0.6151 H   0  0  0  0  0  0  0  0  0  0  0  0
   -3.9211   -6.0706   -2.7978 H   0  0  0  0  0  0  0  0  0  0  0  0
   -2.2876   -6.2204   -2.0660 H   0  0  0  0  0  0  0  0  0  0  0  0
   -3.7316   -6.7938   -1.1646 H   0  0  0  0  0  0  0  0  0  0  0  0
  1  3  1  0  0  0  0
  1  7  1  0  0  0  0
  1  2  2  0  0  0  0
 31 32  1  0  0  0  0
 32 40  1  0  0  0  0
 32 33  2  0  0  0  0
  8  9  1  0  0  0  0
  9 17  1  0  0  0  0
  9 10  2  0  0  0  0
 18 19  1  0  0  0  0
 19 30  1  0  0  0  0
 19 20  2  0  0  0  0
 21 22  1  0  0  0  0
 22 23  2  0  0  0  0
 22 24  1  0  0  0  0
 31 34  1  0  0  0  0
  8 11  1  0  0  0  0
 40 41  1  0  0  0  0
 18 21  1  0  0  0  0
 30 31  1  0  0  0  0
  7  8  1  0  0  0  0
 17 18  1  0  0  0  0
  3  4  1  0  0  0  0
  3  5  1  0  0  0  0
  3  6  1  0  0  0  0
 34 37  1  0  0  0  0
 34 38  1  0  0  0  0
 34 39  1  0  0  0  0
 11 14  1  0  0  0  0
 11 15  1  0  0  0  0
 11 16  1  0  0  0  0
 41 43  1  0  0  0  0
 41 44  1  0  0  0  0
 41 45  1  0  0  0  0
 21 27  1  0  0  0  0
 21 28  1  0  0  0  0
 31 36  1  0  0  0  0
  8 13  1  0  0  0  0
 18 26  1  0  0  0  0
 40 42  1  0  0  0  0
  7 12  1  0  0  0  0
 30 35  1  0  0  0  0
 17 25  1  0  0  0  0
 24 29  1  0  0  0  0
M  END
$$$$

  -OEChem-05262214473D

 45 44  0     1  0  0  0  0  0999 V2000
   -2.2987    4.1032   -0.3022 C   0  0  0  0  0  0  0  0  0  0  0  0
   -1.8049    3.7117   -1.3532 O   0  0  0  0  0  0  0  0  0  0  0  0
   -3.0791    5.3755   -0.2846 C   0  0  0  0  0  0  0  0  0  0  0  0
   -2.4478    6.2532   -0.0717 H   0  0  0  0  0  0  0  0  0  0  0  0
   -3.5571    5.5891   -1.2541 H   0  0  0  0  0  0  0  0  0  0  0  0
   -3.8940    5.4184    0.4556 H   0  0  0  0  0  0  0  0  0  0  0  0
   -2.2137    3.4712    0.9275 N   0  0  0  0  0  0  0  0  0  0  0  0
   -1.5102    2.2327    1.1338 C   0  0  2  0  0  0  0  0  0  0  0  0
   -1.3539    1.5497   -0.2184 C   0  0  0  0  0  0  0  0  0  0  0  0
   -2.0852    1.7861   -1.1778 O   0  0  0  0  0  0  0  0  0  0  0  0
   -2.2477    1.3342    2.1145 C   0  0  0  0  0  0  0  0  0  0  0  0
   -2.6724    3.9052    1.7265 H   0  0  0  0  0  0  0  0  0  0  0  0
   -0.5220    2.4922    1.5290 H   0  0  0  0  0  0  0  0  0  0  0  0
   -3.2400    1.0636    1.7358 H   0  0  0  0  0  0  0  0  0  0  0  0
   -1.6970    0.4046    2.2923 H   0  0  0  0  0  0  0  0  0  0  0  0
   -2.3854    1.8384    3.0772 H   0  0  0  0  0  0  0  0  0  0  0  0
   -0.3283    0.6116   -0.2182 N   0  0  0  0  0  0  0  0  0  0  0  0
    0.0090   -0.1762   -1.3759 C   0  0  2  0  0  0  0  0  0  0  0  0
   -1.2202   -0.9907   -1.7588 C   0  0  0  0  0  0  0  0  0  0  0  0
   -1.4478   -1.3581   -2.9096 O   0  0  0  0  0  0  0  0  0  0  0  0
    1.2050   -1.0885   -1.1164 C   0  0  0  0  0  0  0  0  0  0  0  0
    2.4773   -0.2922   -0.9607 C   0  0  0  0  0  0  0  0  0  0  0  0
    2.6790    0.7877   -1.5008 O   0  0  0  0  0  0  0  0  0  0  0  0
    3.3862   -0.9119   -0.1679 O   0  0  0  0  0  0  0  0  0  0  0  0
    0.2381    0.4970    0.6194 H   0  0  0  0  0  0  0  0  0  0  0  0
    0.2274    0.5370   -2.1797 H   0  0  0  0  0  0  0  0  0  0  0  0
    1.0752   -1.6569   -0.1868 H   0  0  0  0  0  0  0  0  0  0  0  0
    1.3372   -1.8385   -1.9056 H   0  0  0  0  0  0  0  0  0  0  0  0
    4.2327   -0.4294   -0.0529 H   0  0  0  0  0  0  0  0  0  0  0  0
   -2.0068   -1.2992   -0.6578 N   0  0  0  0  0  0  0  0  0  0  0  0
   -3.2202   -2.0760   -0.7600 C   0  0  2  0  0  0  0  0  0  0  0  0
   -2.8377   -3.4956   -1.1574 C   0  0  0  0  0  0  0  0  0  0  0  0
   -1.7815   -3.7726   -1.7220 O   0  0  0  0  0  0  0  0  0  0  0  0
   -4.1822   -1.4694   -1.7696 C   0  0  0  0  0  0  0  0  0  0  0  0
   -1.7176   -0.9651    0.2568 H   0  0  0  0  0  0  0  0  0  0  0  0
   -3.6747   -2.0850    0.2367 H   0  0  0  0  0  0  0  0  0  0  0  0
   -3.7441   -1.4518   -2.7742 H   0  0  0  0  0  0  0  0  0  0  0  0
   -5.1131   -2.0433   -1.8249 H   0  0  0  0  0  0  0  0  0  0  0  0
   -4.4329   -0.4382   -1.4982 H   0  0  0  0  0  0  0  0  0  0  0  0
   -3.8334   -4.4109   -0.8462 N   0  0  0  0  0  0  0  0  0  0  0  0
   -3.7143   -5.8209   -1.1353 C   0  0  0  0  0  0  0  0  0  0  0  0
   -4.6683   -4.0954   -0.3612 H   0  0  0  0  0  0  0  0  0  0  0  0
   -4.1576   -6.0327   -2.1195 H   0  0  0  0  0  0  0  0  0  0  0  0
   -2.6516   -6.1050   -1.1431 H   0  0  0  0  0  0  0  0  0  0  0  0
   -4.2427   -6.3993   -0.3631 H   0  0  0  0  0  0  0  0  0  0  0  0
  1  3  1  0  0  0  0
  1  7  1  0  0  0  0
  1  2  2  0  0  0  0
 31 32  1  0  0  0  0
 32 40  1  0  0  0  0
 32 33  2  0  0  0  0
  8  9  1  0  0  0  0
  9 17  1  0  0  0  0
  9 10  2  0  0  0  0
 18 19  1  0  0  0  0
 19 30  1  0  0  0  0
 19 20  2  0  0  0  0
 21 22  1  0  0  0  0
 22 23  2  0  0  0  0
 22 24  1  0  0  0  0
 31 34  1  0  0  0  0
  8 11  1  0  0  0  0
 40 41  1  0  0  0  0
 18 21  1  0  0  0  0
 30 31  1  0  0  0  0
  7  8  1  0  0  0  0
 17 18  1  0  0  0  0
  3  4  1  0  0  0  0
  3  5  1  0  0  0  0
  3  6  1  0  0  0  0
 34 37  1  0  0  0  0
 34 38  1  0  0  0  0
 34 39  1  0  0  0  0
 11 14  1  0  0  0  0
 11 15  1  0  0  0  0
 11 16  1  0  0  0  0
 41 43  1  0  0  0  0
 41 44  1  0  0  0  0
 41 45  1  0  0  0  0
 21 27  1  0  0  0  0
 21 28  1  0  0  0  0
 31 36  1  0  0  0  0
  8 13  1  0  0  0  0
 18 26  1  0  0  0  0
 40 42  1  0  0  0  0
  7 12  1  0  0  0  0
 30 35  1  0  0  0  0
 17 25  1  0  0  0  0
 24 29  1  0  0  0  0
M  END
$$$$

  -OEChem-05262214473D

 45 44  0     1  0  0  0  0  0999 V2000
   -2.2987    4.1032   -0.3022 C   0  0  0  0  0  0  0  0  0  0  0  0
   -1.8049    3.7117   -1.3532 O   0  0  0  0  0  0  0  0  0  0  0  0
   -3.0791    5.3755   -0.2846 C   0  0  0  0  0  0  0  0  0  0  0  0
   -2.4478    6.2532   -0.0717 H   0  0  0  0  0  0  0  0  0  0  0  0
   -3.5571    5.5891   -1.2541 H   0  0  0  0  0  0  0  0  0  0  0  0
   -3.8940    5.4184    0.4556 H   0  0  0  0  0  0  0  0  0  0  0  0
   -2.2137    3.4712    0.9275 N   0  0  0  0  0  0  0  0  0  0  0  0
   -1.5102    2.2327    1.1338 C   0  0  2  0  0  0  0  0  0  0  0  0
   -1.3539    1.5497   -0.2184 C   0  0  0  0  0  0  0  0  0  0  0  0
   -2.0852    1.7861   -1.1778 O   0  0  0  0  0  0  0  0  0  0  0  0
   -2.2477    1.3342    2.1145 C   0  0  0  0  0  0  0  0  0  0  0  0
   -2.6724    3.9052    1.7265 H   0  0  0  0  0  0  0  0  0  0  0  0
   -0.5220    2.4922    1.5290 H   0  0  0  0  0  0  0  0  0  0  0  0
   -3.2400    1.0636    1.7358 H   0  0  0  0  0  0  0  0  0  0  0  0
   -1.6970    0.4046    2.2923 H   0  0  0  0  0  0  0  0  0  0  0  0
   -2.3854    1.8384    3.0772 H   0  0  0  0  0  0  0  0  0  0  0  0
   -0.3283    0.6116   -0.2182 N   0  0  0  0  0  0  0  0  0  0  0  0
    0.0090   -0.1762   -1.3759 C   0  0  2  0  0  0  0  0  0  0  0  0
   -1.2202   -0.9907   -1.7588 C   0  0  0  0  0  0  0  0  0  0  0  0
   -1.3232   -1.5833   -2.8309 O   0  0  0  0  0  0  0  0  0  0  0  0
    1.2050   -1.0885   -1.1164 C   0  0  0  0  0  0  0  0  0  0  0  0
    2.4773   -0.2922   -0.9607 C   0  0  0  0  0  0  0  0  0  0  0  0
    2.6790    0.7877   -1.5008 O   0  0  0  0  0  0  0  0  0  0  0  0
    3.3862   -0.9119   -0.1679 O   0  0  0  0  0  0  0  0  0  0  0  0
    0.2381    0.4970    0.6194 H   0  0  0  0  0  0  0  0  0  0  0  0
    0.2274    0.5370   -2.1797 H   0  0  0  0  0  0  0  0  0  0  0  0
    1.0752   -1.6569   -0.1868 H   0  0  0  0  0  0  0  0  0  0  0  0
    1.3372   -1.8385   -1.9056 H   0  0  0  0  0  0  0  0  0  0  0  0
    4.2327   -0.4294   -0.0529 H   0  0  0  0  0  0  0  0  0  0  0  0
   -2.1668   -1.0171   -0.7443 N   0  0  0  0  0  0  0  0  0  0  0  0
   -3.4142   -1.7357   -0.8607 C   0  0  2  0  0  0  0  0  0  0  0  0
   -3.0973   -3.2248   -0.9000 C   0  0  0  0  0  0  0  0  0  0  0  0
   -2.0015   -3.6688   -1.2366 O   0  0  0  0  0  0  0  0  0  0  0  0
   -4.1837   -1.3109   -2.1018 C   0  0  0  0  0  0  0  0  0  0  0  0
   -1.9746   -0.5106    0.1150 H   0  0  0  0  0  0  0  0  0  0  0  0
   -3.9951   -1.5089    0.0399 H   0  0  0  0  0  0  0  0  0  0  0  0
   -3.6174   -1.5302   -3.0143 H   0  0  0  0  0  0  0  0  0  0  0  0
   -5.1421   -1.8357   -2.1734 H   0  0  0  0  0  0  0  0  0  0  0  0
   -4.3849   -0.2343   -2.0861 H   0  0  0  0  0  0  0  0  0  0  0  0
   -4.1951   -4.0013   -0.5564 N   0  0  0  0  0  0  0  0  0  0  0  0
   -4.1518   -5.4447   -0.5310 C   0  0  0  0  0  0  0  0  0  0  0  0
   -5.0586   -3.5479   -0.2726 H   0  0  0  0  0  0  0  0  0  0  0  0
   -4.4773   -5.8390   -1.5049 H   0  0  0  0  0  0  0  0  0  0  0  0
   -3.1234   -5.7770   -0.3262 H   0  0  0  0  0  0  0  0  0  0  0  0
   -4.8216   -5.8176    0.2579 H   0  0  0  0  0  0  0  0  0  0  0  0
  1  3  1  0  0  0  0
  1  7  1  0  0  0  0
  1  2  2  0  0  0  0
 31 32  1  0  0  0  0
 32 40  1  0  0  0  0
 32 33  2  0  0  0  0
  8  9  1  0  0  0  0
  9 17  1  0  0  0  0
  9 10  2  0  0  0  0
 18 19  1  0  0  0  0
 19 30  1  0  0  0  0
 19 20  2  0  0  0  0
 21 22  1  0  0  0  0
 22 23  2  0  0  0  0
 22 24  1  0  0  0  0
 31 34  1  0  0  0  0
  8 11  1  0  0  0  0
 40 41  1  0  0  0  0
 18 21  1  0  0  0  0
 30 31  1  0  0  0  0
  7  8  1  0  0  0  0
 17 18  1  0  0  0  0
  3  4  1  0  0  0  0
  3  5  1  0  0  0  0
  3  6  1  0  0  0  0
 34 37  1  0  0  0  0
 34 38  1  0  0  0  0
 34 39  1  0  0  0  0
 11 14  1  0  0  0  0
 11 15  1  0  0  0  0
 11 16  1  0  0  0  0
 41 43  1  0  0  0  0
 41 44  1  0  0  0  0
 41 45  1  0  0  0  0
 21 27  1  0  0  0  0
 21 28  1  0  0  0  0
 31 36  1  0  0  0  0
  8 13  1  0  0  0  0
 18 26  1  0  0  0  0
 40 42  1  0  0  0  0
  7 12  1  0  0  0  0
 30 35  1  0  0  0  0
 17 25  1  0  0  0  0
 24 29  1  0  0  0  0
M  END
$$$$

  -OEChem-05262214473D

 45 44  0     1  0  0  0  0  0999 V2000
   -2.2987    4.1032   -0.3022 C   0  0  0  0  0  0  0  0  0  0  0  0
   -1.8049    3.7117   -1.3532 O   0  0  0  0  0  0  0  0  0  0  0  0
   -3.0791    5.3755   -0.2846 C   0  0  0  0  0  0  0  0  0  0  0  0
   -2.4478    6.2532   -0.0717 H   0  0  0  0  0  0  0  0  0  0  0  0
   -3.5571    5.5891   -1.2541 H   0  0  0  0  0  0  0  0  0  0  0  0
   -3.8940    5.4184    0.4556 H   0  0  0  0  0  0  0  0  0  0  0  0
   -2.2137    3.4712    0.9275 N   0  0  0  0  0  0  0  0  0  0  0  0
   -1.5102    2.2327    1.1338 C   0  0  2  0  0  0  0  0  0  0  0  0
   -1.3539    1.5497   -0.2184 C   0  0  0  0  0  0  0  0  0  0  0  0
   -2.0852    1.7861   -1.1778 O   0  0  0  0  0  0  0  0  0  0  0  0
   -2.2477    1.3342    2.1145 C   0  0  0  0  0  0  0  0  0  0  0  0
   -2.6724    3.9052    1.7265 H   0  0  0  0  0  0  0  0  0  0  0  0
   -0.5220    2.4922    1.5290 H   0  0  0  0  0  0  0  0  0  0  0  0
   -3.2400    1.0636    1.7358 H   0  0  0  0  0  0  0  0  0  0  0  0
   -1.6970    0.4046    2.2923 H   0  0  0  0  0  0  0  0  0  0  0  0
   -2.3854    1.8384    3.0772 H   0  0  0  0  0  0  0  0  0  0  0  0
   -0.3283    0.6116   -0.2182 N   0  0  0  0  0  0  0  0  0  0  0  0
    0.0090   -0.1762   -1.3759 C   0  0  2  0  0  0  0  0  0  0  0  0
   -1.2202   -0.9907   -1.7588 C   0  0  0  0  0  0  0  0  0  0  0  0
   -1.2283   -1.7925   -2.6906 O   0  0  0  0  0  0  0  0  0  0  0  0
    1.2050   -1.0885   -1.1164 C   0  0  0  0  0  0  0  0  0  0  0  0
    2.4773   -0.2922   -0.9607 C   0  0  0  0  0  0  0  0  0  0  0  0
    2.6790    0.7877   -1.5008 O   0  0  0  0  0  0  0  0  0  0  0  0
    3.3862   -0.9119   -0.1679 O   0  0  0  0  0  0  0  0  0  0  0  0
    0.2381    0.4970    0.6194 H   0  0  0  0  0  0  0  0  0  0  0  0
    0.2274    0.5370   -2.1797 H   0  0  0  0  0  0  0  0  0  0  0  0
    1.0752   -1.6569   -0.1868 H   0  0  0  0  0  0  0  0  0  0  0  0
    1.3372   -1.8385   -1.9056 H   0  0  0  0  0  0  0  0  0  0  0  0
    4.2327   -0.4294   -0.0529 H   0  0  0  0  0  0  0  0  0  0  0  0
   -2.2910   -0.7523   -0.9088 N   0  0  0  0  0  0  0  0  0  0  0  0
   -3.5656   -1.4154   -1.0560 C   0  0  2  0  0  0  0  0  0  0  0  0
   -3.3660   -2.8926   -0.7438 C   0  0  0  0  0  0  0  0  0  0  0  0
   -2.2745   -3.4528   -0.8198 O   0  0  0  0  0  0  0  0  0  0  0  0
   -4.1289   -1.2270   -2.4560 C   0  0  0  0  0  0  0  0  0  0  0  0
   -2.1736   -0.0844   -0.1525 H   0  0  0  0  0  0  0  0  0  0  0  0
   -4.2399   -0.9727   -0.3148 H   0  0  0  0  0  0  0  0  0  0  0  0
   -3.4669   -1.6642   -3.2123 H   0  0  0  0  0  0  0  0  0  0  0  0
   -5.1083   -1.7061   -2.5574 H   0  0  0  0  0  0  0  0  0  0  0  0
   -4.2439   -0.1631   -2.6899 H   0  0  0  0  0  0  0  0  0  0  0  0
   -4.5579   -3.5216   -0.4121 N   0  0  0  0  0  0  0  0  0  0  0  0
   -4.6336   -4.9266   -0.0863 C   0  0  0  0  0  0  0  0  0  0  0  0
   -5.4123   -2.9752   -0.3554 H   0  0  0  0  0  0  0  0  0  0  0  0
   -4.8587   -5.5028   -0.9959 H   0  0  0  0  0  0  0  0  0  0  0  0
   -3.6709   -5.2590    0.3292 H   0  0  0  0  0  0  0  0  0  0  0  0
   -5.4289   -5.0884    0.6562 H   0  0  0  0  0  0  0  0  0  0  0  0
  1  3  1  0  0  0  0
  1  7  1  0  0  0  0
  1  2  2  0  0  0  0
 31 32  1  0  0  0  0
 32 40  1  0  0  0  0
 32 33  2  0  0  0  0
  8  9  1  0  0  0  0
  9 17  1  0  0  0  0
  9 10  2  0  0  0  0
 18 19  1  0  0  0  0
 19 30  1  0  0  0  0
 19 20  2  0  0  0  0
 21 22  1  0  0  0  0
 22 23  2  0  0  0  0
 22 24  1  0  0  0  0
 31 34  1  0  0  0  0
  8 11  1  0  0  0  0
 40 41  1  0  0  0  0
 18 21  1  0  0  0  0
 30 31  1  0  0  0  0
  7  8  1  0  0  0  0
 17 18  1  0  0  0  0
  3  4  1  0  0  0  0
  3  5  1  0  0  0  0
  3  6  1  0  0  0  0
 34 37  1  0  0  0  0
 34 38  1  0  0  0  0
 34 39  1  0  0  0  0
 11 14  1  0  0  0  0
 11 15  1  0  0  0  0
 11 16  1  0  0  0  0
 41 43  1  0  0  0  0
 41 44  1  0  0  0  0
 41 45  1  0  0  0  0
 21 27  1  0  0  0  0
 21 28  1  0  0  0  0
 31 36  1  0  0  0  0
  8 13  1  0  0  0  0
 18 26  1  0  0  0  0
 40 42  1  0  0  0  0
  7 12  1  0  0  0  0
 30 35  1  0  0  0  0
 17 25  1  0  0  0  0
 24 29  1  0  0  0  0
M  END
$$$$

  -OEChem-05262214473D

 45 44  0     1  0  0  0  0  0999 V2000
   -2.2987    4.1032   -0.3022 C   0  0  0  0  0  0  0  0  0  0  0  0
   -1.8049    3.7117   -1.3532 O   0  0  0  0  0  0  0  0  0  0  0  0
   -3.0791    5.3755   -0.2846 C   0  0  0  0  0  0  0  0  0  0  0  0
   -2.4478    6.2532   -0.0717 H   0  0  0  0  0  0  0  0  0  0  0  0
   -3.5571    5.5891   -1.2541 H   0  0  0  0  0  0  0  0  0  0  0  0
   -3.8940    5.4184    0.4556 H   0  0  0  0  0  0  0  0  0  0  0  0
   -2.2137    3.4712    0.9275 N   0  0  0  0  0  0  0  0  0  0  0  0
   -1.5102    2.2327    1.1338 C   0  0  2  0  0  0  0  0  0  0  0  0
   -1.3539    1.5497   -0.2184 C   0  0  0  0  0  0  0  0  0  0  0  0
   -2.0852    1.7861   -1.1778 O   0  0  0  0  0  0  0  0  0  0  0  0
   -2.2477    1.3342    2.1145 C   0  0  0  0  0  0  0  0  0  0  0  0
   -2.6724    3.9052    1.7265 H   0  0  0  0  0  0  0  0  0  0  0  0
   -0.5220    2.4922    1.5290 H   0  0  0  0  0  0  0  0  0  0  0  0
   -3.2400    1.0636    1.7358 H   0  0  0  0  0  0  0  0  0  0  0  0
   -1.6970    0.4046    2.2923 H   0  0  0  0  0  0  0  0  0  0  0  0
   -2.3854    1.8384    3.0772 H   0  0  0  0  0  0  0  0  0  0  0  0
   -0.3283    0.6116   -0.2182 N   0  0  0  0  0  0  0  0  0  0  0  0
    0.0090   -0.1762   -1.3759 C   0  0  2  0  0  0  0  0  0  0  0  0
   -1.2202   -0.9907   -1.7588 C   0  0  0  0  0  0  0  0  0  0  0  0
   -1.1696   -1.9714   -2.4983 O   0  0  0  0  0  0  0  0  0  0  0  0
    1.2050   -1.0885   -1.1164 C   0  0  0  0  0  0  0  0  0  0  0  0
    2.4773   -0.2922   -0.9607 C   0  0  0  0  0  0  0  0  0  0  0  0
    2.6790    0.7877   -1.5008 O   0  0  0  0  0  0  0  0  0  0  0  0
    3.3862   -0.9119   -0.1679 O   0  0  0  0  0  0  0  0  0  0  0  0
    0.2381    0.4970    0.6194 H   0  0  0  0  0  0  0  0  0  0  0  0
    0.2274    0.5370   -2.1797 H   0  0  0  0  0  0  0  0  0  0  0  0
    1.0752   -1.6569   -0.1868 H   0  0  0  0  0  0  0  0  0  0  0  0
    1.3372   -1.8385   -1.9056 H   0  0  0  0  0  0  0  0  0  0  0  0
    4.2327   -0.4294   -0.0529 H   0  0  0  0  0  0  0  0  0  0  0  0
   -2.3710   -0.5228   -1.1402 N   0  0  0  0  0  0  0  0  0  0  0  0
   -3.6640   -1.1370   -1.3324 C   0  0  2  0  0  0  0  0  0  0  0  0
   -3.6257   -2.5217   -0.6995 C   0  0  0  0  0  0  0  0  0  0  0  0
   -2.5818   -3.1394   -0.5000 O   0  0  0  0  0  0  0  0  0  0  0  0
   -4.0215   -1.2236   -2.8080 C   0  0  0  0  0  0  0  0  0  0  0  0
   -2.3012    0.2844   -0.5274 H   0  0  0  0  0  0  0  0  0  0  0  0
   -4.3924   -0.5129   -0.8033 H   0  0  0  0  0  0  0  0  0  0  0  0
   -3.3028   -1.8449   -3.3547 H   0  0  0  0  0  0  0  0  0  0  0  0
   -5.0142   -1.6633   -2.9506 H   0  0  0  0  0  0  0  0  0  0  0  0
   -4.0195   -0.2297   -3.2685 H   0  0  0  0  0  0  0  0  0  0  0  0
   -4.8971   -3.0045   -0.4230 N   0  0  0  0  0  0  0  0  0  0  0  0
   -5.1268   -4.3020    0.1683 C   0  0  0  0  0  0  0  0  0  0  0  0
   -5.7052   -2.4163   -0.6039 H   0  0  0  0  0  0  0  0  0  0  0  0
   -5.2756   -5.0470   -0.6273 H   0  0  0  0  0  0  0  0  0  0  0  0
   -4.2566   -4.5861    0.7783 H   0  0  0  0  0  0  0  0  0  0  0  0
   -6.0232   -4.2614    0.8046 H   0  0  0  0  0  0  0  0  0  0  0  0
  1  3  1  0  0  0  0
  1  7  1  0  0  0  0
  1  2  2  0  0  0  0
 31 32  1  0  0  0  0
 32 40  1  0  0  0  0
 32 33  2  0  0  0  0
  8  9  1  0  0  0  0
  9 17  1  0  0  0  0
  9 10  2  0  0  0  0
 18 19  1  0  0  0  0
 19 30  1  0  0  0  0
 19 20  2  0  0  0  0
 21 22  1  0  0  0  0
 22 23  2  0  0  0  0
 22 24  1  0  0  0  0
 31 34  1  0  0  0  0
  8 11  1  0  0  0  0
 40 41  1  0  0  0  0
 18 21  1  0  0  0  0
 30 31  1  0  0  0  0
  7  8  1  0  0  0  0
 17 18  1  0  0  0  0
  3  4  1  0  0  0  0
  3  5  1  0  0  0  0
  3  6  1  0  0  0  0
 34 37  1  0  0  0  0
 34 38  1  0  0  0  0
 34 39  1  0  0  0  0
 11 14  1  0  0  0  0
 11 15  1  0  0  0  0
 11 16  1  0  0  0  0
 41 43  1  0  0  0  0
 41 44  1  0  0  0  0
 41 45  1  0  0  0  0
 21 27  1  0  0  0  0
 21 28  1  0  0  0  0
 31 36  1  0  0  0  0
  8 13  1  0  0  0  0
 18 26  1  0  0  0  0
 40 42  1  0  0  0  0
  7 12  1  0  0  0  0
 30 35  1  0  0  0  0
 17 25  1  0  0  0  0
 24 29  1  0  0  0  0
M  END
$$$$

  -OEChem-05262214473D

 45 44  0     1  0  0  0  0  0999 V2000
   -2.2987    4.1032   -0.3022 C   0  0  0  0  0  0  0  0  0  0  0  0
   -1.8049    3.7117   -1.3532 O   0  0  0  0  0  0  0  0  0  0  0  0
   -3.0791    5.3755   -0.2846 C   0  0  0  0  0  0  0  0  0  0  0  0
   -2.4478    6.2532   -0.0717 H   0  0  0  0  0  0  0  0  0  0  0  0
   -3.5571    5.5891   -1.2541 H   0  0  0  0  0  0  0  0  0  0  0  0
   -3.8940    5.4184    0.4556 H   0  0  0  0  0  0  0  0  0  0  0  0
   -2.2137    3.4712    0.9275 N   0  0  0  0  0  0  0  0  0  0  0  0
   -1.5102    2.2327    1.1338 C   0  0  2  0  0  0  0  0  0  0  0  0
   -1.3539    1.5497   -0.2184 C   0  0  0  0  0  0  0  0  0  0  0  0
   -2.0852    1.7861   -1.1778 O   0  0  0  0  0  0  0  0  0  0  0  0
   -2.2477    1.3342    2.1145 C   0  0  0  0  0  0  0  0  0  0  0  0
   -2.6724    3.9052    1.7265 H   0  0  0  0  0  0  0  0  0  0  0  0
   -0.5220    2.4922    1.5290 H   0  0  0  0  0  0  0  0  0  0  0  0
   -3.2400    1.0636    1.7358 H   0  0  0  0  0  0  0  0  0  0  0  0
   -1.6970    0.4046    2.2923 H   0  0  0  0  0  0  0  0  0  0  0  0
   -2.3854    1.8384    3.0772 H   0  0  0  0  0  0  0  0  0  0  0  0
   -0.3283    0.6116   -0.2182 N   0  0  0  0  0  0  0  0  0  0  0  0
    0.0090   -0.1762   -1.3759 C   0  0  2  0  0  0  0  0  0  0  0  0
   -1.2202   -0.9907   -1.7588 C   0  0  0  0  0  0  0  0  0  0  0  0
   -1.1512   -2.1079   -2.2670 O   0  0  0  0  0  0  0  0  0  0  0  0
    1.2050   -1.0885   -1.1164 C   0  0  0  0  0  0  0  0  0  0  0  0
    2.4773   -0.2922   -0.9607 C   0  0  0  0  0  0  0  0  0  0  0  0
    2.6790    0.7877   -1.5008 O   0  0  0  0  0  0  0  0  0  0  0  0
    3.3862   -0.9119   -0.1679 O   0  0  0  0  0  0  0  0  0  0  0  0
    0.2381    0.4970    0.6194 H   0  0  0  0  0  0  0  0  0  0  0  0
    0.2274    0.5370   -2.1797 H   0  0  0  0  0  0  0  0  0  0  0  0
    1.0752   -1.6569   -0.1868 H   0  0  0  0  0  0  0  0  0  0  0  0
    1.3372   -1.8385   -1.9056 H   0  0  0  0  0  0  0  0  0  0  0  0
    4.2327   -0.4294   -0.0529 H   0  0  0  0  0  0  0  0  0  0  0  0
   -2.4014   -0.3442   -1.4227 N   0  0  0  0  0  0  0  0  0  0  0  0
   -3.7026   -0.9193   -1.6712 C   0  0  2  0  0  0  0  0  0  0  0  0
   -3.8584   -2.1372   -0.7701 C   0  0  0  0  0  0  0  0  0  0  0  0
   -2.9024   -2.7499   -0.2992 O   0  0  0  0  0  0  0  0  0  0  0  0
   -3.8689   -1.3007   -3.1340 C   0  0  0  0  0  0  0  0  0  0  0  0
   -2.3485    0.5706   -0.9842 H   0  0  0  0  0  0  0  0  0  0  0  0
   -4.4422   -0.1609   -1.3922 H   0  0  0  0  0  0  0  0  0  0  0  0
   -3.1364   -2.0598   -3.4319 H   0  0  0  0  0  0  0  0  0  0  0  0
   -4.8660   -1.7102   -3.3264 H   0  0  0  0  0  0  0  0  0  0  0  0
   -3.7271   -0.4294   -3.7824 H   0  0  0  0  0  0  0  0  0  0  0  0
   -5.1896   -2.4853   -0.5885 N   0  0  0  0  0  0  0  0  0  0  0  0
   -5.5978   -3.6135    0.2155 C   0  0  0  0  0  0  0  0  0  0  0  0
   -5.9174   -1.9093   -1.0012 H   0  0  0  0  0  0  0  0  0  0  0  0
   -5.6996   -4.5026   -0.4241 H   0  0  0  0  0  0  0  0  0  0  0  0
   -4.8408   -3.8042    0.9905 H   0  0  0  0  0  0  0  0  0  0  0  0
   -6.5639   -3.3929    0.6930 H   0  0  0  0  0  0  0  0  0  0  0  0
  1  3  1  0  0  0  0
  1  7  1  0  0  0  0
  1  2  2  0  0  0  0
 31 32  1  0  0  0  0
 32 40  1  0  0  0  0
 32 33  2  0  0  0  0
  8  9  1  0  0  0  0
  9 17  1  0  0  0  0
  9 10  2  0  0  0  0
 18 19  1  0  0  0  0
 19 30  1  0  0  0  0
 19 20  2  0  0  0  0
 21 22  1  0  0  0  0
 22 23  2  0  0  0  0
 22 24  1  0  0  0  0
 31 34  1  0  0  0  0
  8 11  1  0  0  0  0
 40 41  1  0  0  0  0
 18 21  1  0  0  0  0
 30 31  1  0  0  0  0
  7  8  1  0  0  0  0
 17 18  1  0  0  0  0
  3  4  1  0  0  0  0
  3  5  1  0  0  0  0
  3  6  1  0  0  0  0
 34 37  1  0  0  0  0
 34 38  1  0  0  0  0
 34 39  1  0  0  0  0
 11 14  1  0  0  0  0
 11 15  1  0  0  0  0
 11 16  1  0  0  0  0
 41 43  1  0  0  0  0
 41 44  1  0  0  0  0
 41 45  1  0  0  0  0
 21 27  1  0  0  0  0
 21 28  1  0  0  0  0
 31 36  1  0  0  0  0
  8 13  1  0  0  0  0
 18 26  1  0  0  0  0
 40 42  1  0  0  0  0
  7 12  1  0  0  0  0
 30 35  1  0  0  0  0
 17 25  1  0  0  0  0
 24 29  1  0  0  0  0
M  END
$$$$

  -OEChem-05262214473D

 45 44  0     1  0  0  0  0  0999 V2000
   -2.2987    4.1032   -0.3022 C   0  0  0  0  0  0  0  0  0  0  0  0
   -1.8049    3.7117   -1.3532 O   0  0  0  0  0  0  0  0  0  0  0  0
   -3.0791    5.3755   -0.2846 C   0  0  0  0  0  0  0  0  0  0  0  0
   -2.4478    6.2532   -0.0717 H   0  0  0  0  0  0  0  0  0  0  0  0
   -3.5571    5.5891   -1.2541 H   0  0  0  0  0  0  0  0  0  0  0  0
   -3.8940    5.4184    0.4556 H   0  0  0  0  0  0  0  0  0  0  0  0
   -2.2137    3.4712    0.9275 N   0  0  0  0  0  0  0  0  0  0  0  0
   -1.5102    2.2327    1.1338 C   0  0  2  0  0  0  0  0  0  0  0  0
   -1.3539    1.5497   -0.2184 C   0  0  0  0  0  0  0  0  0  0  0  0
   -2.0852    1.7861   -1.1778 O   0  0  0  0  0  0  0  0  0  0  0  0
   -2.2477    1.3342    2.1145 C   0  0  0  0  0  0  0  0  0  0  0  0
   -2.6724    3.9052    1.7265 H   0  0  0  0  0  0  0  0  0  0  0  0
   -0.5220    2.4922    1.5290 H   0  0  0  0  0  0  0  0  0  0  0  0
   -3.2400    1.0636    1.7358 H   0  0  0  0  0  0  0  0  0  0  0  0
   -1.6970    0.4046    2.2923 H   0  0  0  0  0  0  0  0  0  0  0  0
   -2.3854    1.8384    3.0772 H   0  0  0  0  0  0  0  0  0  0  0  0
   -0.3283    0.6116   -0.2182 N   0  0  0  0  0  0  0  0  0  0  0  0
    0.0090   -0.1762   -1.3759 C   0  0  2  0  0  0  0  0  0  0  0  0
   -1.2202   -0.9907   -1.7588 C   0  0  0  0  0  0  0  0  0  0  0  0
   -1.1743   -2.1927   -2.0126 O   0  0  0  0  0  0  0  0  0  0  0  0
    1.2050   -1.0885   -1.1164 C   0  0  0  0  0  0  0  0  0  0  0  0
    2.4773   -0.2922   -0.9607 C   0  0  0  0  0  0  0  0  0  0  0  0
    2.6790    0.7877   -1.5008 O   0  0  0  0  0  0  0  0  0  0  0  0
    3.3862   -0.9119   -0.1679 O   0  0  0  0  0  0  0  0  0  0  0  0
    0.2381    0.4970    0.6194 H   0  0  0  0  0  0  0  0  0  0  0  0
    0.2274    0.5370   -2.1797 H   0  0  0  0  0  0  0  0  0  0  0  0
    1.0752   -1.6569   -0.1868 H   0  0  0  0  0  0  0  0  0  0  0  0
    1.3372   -1.8385   -1.9056 H   0  0  0  0  0  0  0  0  0  0  0  0
    4.2327   -0.4294   -0.0529 H   0  0  0  0  0  0  0  0  0  0  0  0
   -2.3799   -0.2287   -1.7371 N   0  0  0  0  0  0  0  0  0  0  0  0
   -3.6790   -0.7774   -2.0492 C   0  0  2  0  0  0  0  0  0  0  0  0
   -4.0485   -1.7654   -0.9507 C   0  0  0  0  0  0  0  0  0  0  0  0
   -3.2146   -2.3109   -0.2309 O   0  0  0  0  0  0  0  0  0  0  0  0
   -3.6813   -1.4532   -3.4115 C   0  0  0  0  0  0  0  0  0  0  0  0
   -2.3124    0.7547   -1.4918 H   0  0  0  0  0  0  0  0  0  0  0  0
   -4.3859    0.0594   -2.0415 H   0  0  0  0  0  0  0  0  0  0  0  0
   -2.9789   -2.2943   -3.4385 H   0  0  0  0  0  0  0  0  0  0  0  0
   -4.6740   -1.8436   -3.6591 H   0  0  0  0  0  0  0  0  0  0  0  0
   -3.3865   -0.7487   -4.1967 H   0  0  0  0  0  0  0  0  0  0  0  0
   -5.4154   -1.9992   -0.8973 N   0  0  0  0  0  0  0  0  0  0  0  0
   -6.0145   -2.9078    0.0522 C   0  0  0  0  0  0  0  0  0  0  0  0
   -6.0344   -1.4887   -1.5202 H   0  0  0  0  0  0  0  0  0  0  0  0
   -6.1019   -3.9067   -0.4002 H   0  0  0  0  0  0  0  0  0  0  0  0
   -5.3836   -2.9667    0.9514 H   0  0  0  0  0  0  0  0  0  0  0  0
   -7.0142   -2.5420    0.3291 H   0  0  0  0  0  0  0  0  0  0  0  0
  1  3  1  0  0  0  0
  1  7  1  0  0  0  0
  1  2  2  0  0  0  0
 31 32  1  0  0  0  0
 32 40  1  0  0  0  0
 32 33  2  0  0  0  0
  8  9  1  0  0  0  0
  9 17  1  0  0  0  0
  9 10  2  0  0  0  0
 18 19  1  0  0  0  0
 19 30  1  0  0  0  0
 19 20  2  0  0  0  0
 21 22  1  0  0  0  0
 22 23  2  0  0  0  0
 22 24  1  0  0  0  0
 31 34  1  0  0  0  0
  8 11  1  0  0  0  0
 40 41  1  0  0  0  0
 18 21  1  0  0  0  0
 30 31  1  0  0  0  0
  7  8  1  0  0  0  0
 17 18  1  0  0  0  0
  3  4  1  0  0  0  0
  3  5  1  0  0  0  0
  3  6  1  0  0  0  0
 34 37  1  0  0  0  0
 34 38  1  0  0  0  0
 34 39  1  0  0  0  0
 11 14  1  0  0  0  0
 11 15  1  0  0  0  0
 11 16  1  0  0  0  0
 41 43  1  0  0  0  0
 41 44  1  0  0  0  0
 41 45  1  0  0  0  0
 21 27  1  0  0  0  0
 21 28  1  0  0  0  0
 31 36  1  0  0  0  0
  8 13  1  0  0  0  0
 18 26  1  0  0  0  0
 40 42  1  0  0  0  0
  7 12  1  0  0  0  0
 30 35  1  0  0  0  0
 17 25  1  0  0  0  0
 24 29  1  0  0  0  0
M  END
$$$$

  -OEChem-05262214473D

 45 44  0     1  0  0  0  0  0999 V2000
   -2.2987    4.1032   -0.3022 C   0  0  0  0  0  0  0  0  0  0  0  0
   -1.8049    3.7117   -1.3532 O   0  0  0  0  0  0  0  0  0  0  0  0
   -3.0791    5.3755   -0.2846 C   0  0  0  0  0  0  0  0  0  0  0  0
   -2.4478    6.2532   -0.0717 H   0  0  0  0  0  0  0  0  0  0  0  0
   -3.5571    5.5891   -1.2541 H   0  0  0  0  0  0  0  0  0  0  0  0
   -3.8940    5.4184    0.4556 H   0  0  0  0  0  0  0  0  0  0  0  0
   -2.2137    3.4712    0.9275 N   0  0  0  0  0  0  0  0  0  0  0  0
   -1.5102    2.2327    1.1338 C   0  0  2  0  0  0  0  0  0  0  0  0
   -1.3539    1.5497   -0.2184 C   0  0  0  0  0  0  0  0  0  0  0  0
   -2.0852    1.7861   -1.1778 O   0  0  0  0  0  0  0  0  0  0  0  0
   -2.2477    1.3342    2.1145 C   0  0  0  0  0  0  0  0  0  0  0  0
   -2.6724    3.9052    1.7265 H   0  0  0  0  0  0  0  0  0  0  0  0
   -0.5220    2.4922    1.5290 H   0  0  0  0  0  0  0  0  0  0  0  0
   -3.2400    1.0636    1.7358 H   0  0  0  0  0  0  0  0  0  0  0  0
   -1.6970    0.4046    2.2923 H   0  0  0  0  0  0  0  0  0  0  0  0
   -2.3854    1.8384    3.0772 H   0  0  0  0  0  0  0  0  0  0  0  0
   -0.3283    0.6116   -0.2182 N   0  0  0  0  0  0  0  0  0  0  0  0
    0.0090   -0.1762   -1.3759 C   0  0  2  0  0  0  0  0  0  0  0  0
   -1.2202   -0.9907   -1.7588 C   0  0  0  0  0  0  0  0  0  0  0  0
   -1.2374   -2.2199   -1.7523 O   0  0  0  0  0  0  0  0  0  0  0  0
    1.2050   -1.0885   -1.1164 C   0  0  0  0  0  0  0  0  0  0  0  0
    2.4773   -0.2922   -0.9607 C   0  0  0  0  0  0  0  0  0  0  0  0
    2.6790    0.7877   -1.5008 O   0  0  0  0  0  0  0  0  0  0  0  0
    3.3862   -0.9119   -0.1679 O   0  0  0  0  0  0  0  0  0  0  0  0
    0.2381    0.4970    0.6194 H   0  0  0  0  0  0  0  0  0  0  0  0
    0.2274    0.5370   -2.1797 H   0  0  0  0  0  0  0  0  0  0  0  0
    1.0752   -1.6569   -0.1868 H   0  0  0  0  0  0  0  0  0  0  0  0
    1.3372   -1.8385   -1.9056 H   0  0  0  0  0  0  0  0  0  0  0  0
    4.2327   -0.4294   -0.0529 H   0  0  0  0  0  0  0  0  0  0  0  0
   -2.3082   -0.1842   -2.0619 N   0  0  0  0  0  0  0  0  0  0  0  0
   -3.5945   -0.7207   -2.4408 C   0  0  2  0  0  0  0  0  0  0  0  0
   -4.1828   -1.4317   -1.2292 C   0  0  0  0  0  0  0  0  0  0  0  0
   -3.4970   -1.8522   -0.2997 O   0  0  0  0  0  0  0  0  0  0  0  0
   -3.4717   -1.6707   -3.6219 C   0  0  0  0  0  0  0  0  0  0  0  0
   -2.1953    0.8242   -2.0154 H   0  0  0  0  0  0  0  0  0  0  0  0
   -4.2273    0.1330   -2.7069 H   0  0  0  0  0  0  0  0  0  0  0  0
   -2.8412   -2.5325   -3.3741 H   0  0  0  0  0  0  0  0  0  0  0  0
   -4.4511   -2.0544   -3.9260 H   0  0  0  0  0  0  0  0  0  0  0  0
   -3.0209   -1.1657   -4.4830 H   0  0  0  0  0  0  0  0  0  0  0  0
   -5.5592   -1.5796   -1.3283 N   0  0  0  0  0  0  0  0  0  0  0  0
   -6.3484   -2.2333   -0.3105 C   0  0  0  0  0  0  0  0  0  0  0  0
   -6.0483   -1.1832   -2.1255 H   0  0  0  0  0  0  0  0  0  0  0  0
   -6.4550   -3.2999   -0.5572 H   0  0  0  0  0  0  0  0  0  0  0  0
   -5.8480   -2.1306    0.6636 H   0  0  0  0  0  0  0  0  0  0  0  0
   -7.3435   -1.7669   -0.2625 H   0  0  0  0  0  0  0  0  0  0  0  0
  1  3  1  0  0  0  0
  1  7  1  0  0  0  0
  1  2  2  0  0  0  0
 31 32  1  0  0  0  0
 32 40  1  0  0  0  0
 32 33  2  0  0  0  0
  8  9  1  0  0  0  0
  9 17  1  0  0  0  0
  9 10  2  0  0  0  0
 18 19  1  0  0  0  0
 19 30  1  0  0  0  0
 19 20  2  0  0  0  0
 21 22  1  0  0  0  0
 22 23  2  0  0  0  0
 22 24  1  0  0  0  0
 31 34  1  0  0  0  0
  8 11  1  0  0  0  0
 40 41  1  0  0  0  0
 18 21  1  0  0  0  0
 30 31  1  0  0  0  0
  7  8  1  0  0  0  0
 17 18  1  0  0  0  0
  3  4  1  0  0  0  0
  3  5  1  0  0  0  0
  3  6  1  0  0  0  0
 34 37  1  0  0  0  0
 34 38  1  0  0  0  0
 34 39  1  0  0  0  0
 11 14  1  0  0  0  0
 11 15  1  0  0  0  0
 11 16  1  0  0  0  0
 41 43  1  0  0  0  0
 41 44  1  0  0  0  0
 41 45  1  0  0  0  0
 21 27  1  0  0  0  0
 21 28  1  0  0  0  0
 31 36  1  0  0  0  0
  8 13  1  0  0  0  0
 18 26  1  0  0  0  0
 40 42  1  0  0  0  0
  7 12  1  0  0  0  0
 30 35  1  0  0  0  0
 17 25  1  0  0  0  0
 24 29  1  0  0  0  0
M  END
$$$$

  -OEChem-05262214473D

 45 44  0     1  0  0  0  0  0999 V2000
   -2.2987    4.1032   -0.3022 C   0  0  0  0  0  0  0  0  0  0  0  0
   -1.8049    3.7117   -1.3532 O   0  0  0  0  0  0  0  0  0  0  0  0
   -3.0791    5.3755   -0.2846 C   0  0  0  0  0  0  0  0  0  0  0  0
   -2.4478    6.2532   -0.0717 H   0  0  0  0  0  0  0  0  0  0  0  0
   -3.5571    5.5891   -1.2541 H   0  0  0  0  0  0  0  0  0  0  0  0
   -3.8940    5.4184    0.4556 H   0  0  0  0  0  0  0  0  0  0  0  0
   -2.2137    3.4712    0.9275 N   0  0  0  0  0  0  0  0  0  0  0  0
   -1.5102    2.2327    1.1338 C   0  0  2  0  0  0  0  0  0  0  0  0
   -1.3539    1.5497   -0.2184 C   0  0  0  0  0  0  0  0  0  0  0  0
   -2.0852    1.7861   -1.1778 O   0  0  0  0  0  0  0  0  0  0  0  0
   -2.2477    1.3342    2.1145 C   0  0  0  0  0  0  0  0  0  0  0  0
   -2.6724    3.9052    1.7265 H   0  0  0  0  0  0  0  0  0  0  0  0
   -0.5220    2.4922    1.5290 H   0  0  0  0  0  0  0  0  0  0  0  0
   -3.2400    1.0636    1.7358 H   0  0  0  0  0  0  0  0  0  0  0  0
   -1.6970    0.4046    2.2923 H   0  0  0  0  0  0  0  0  0  0  0  0
   -2.3854    1.8384    3.0772 H   0  0  0  0  0  0  0  0  0  0  0  0
   -0.3283    0.6116   -0.2182 N   0  0  0  0  0  0  0  0  0  0  0  0
    0.0090   -0.1762   -1.3759 C   0  0  2  0  0  0  0  0  0  0  0  0
   -1.2202   -0.9907   -1.7588 C   0  0  0  0  0  0  0  0  0  0  0  0
   -1.3361   -2.1877   -1.5040 O   0  0  0  0  0  0  0  0  0  0  0  0
    1.2050   -1.0885   -1.1164 C   0  0  0  0  0  0  0  0  0  0  0  0
    2.4773   -0.2922   -0.9607 C   0  0  0  0  0  0  0  0  0  0  0  0
    2.6790    0.7877   -1.5008 O   0  0  0  0  0  0  0  0  0  0  0  0
    3.3862   -0.9119   -0.1679 O   0  0  0  0  0  0  0  0  0  0  0  0
    0.2381    0.4970    0.6194 H   0  0  0  0  0  0  0  0  0  0  0  0
    0.2274    0.5370   -2.1797 H   0  0  0  0  0  0  0  0  0  0  0  0
    1.0752   -1.6569   -0.1868 H   0  0  0  0  0  0  0  0  0  0  0  0
    1.3372   -1.8385   -1.9056 H   0  0  0  0  0  0  0  0  0  0  0  0
    4.2327   -0.4294   -0.0529 H   0  0  0  0  0  0  0  0  0  0  0  0
   -2.1911   -0.2137   -2.3750 N   0  0  0  0  0  0  0  0  0  0  0  0
   -3.4551   -0.7532   -2.8191 C   0  0  2  0  0  0  0  0  0  0  0  0
   -4.2524   -1.1587   -1.5864 C   0  0  0  0  0  0  0  0  0  0  0  0
   -3.7305   -1.4052   -0.5011 O   0  0  0  0  0  0  0  0  0  0  0  0
   -3.2542   -1.9384   -3.7506 C   0  0  0  0  0  0  0  0  0  0  0  0
   -2.0052    0.7744   -2.5196 H   0  0  0  0  0  0  0  0  0  0  0  0
   -3.9773    0.0548   -3.3430 H   0  0  0  0  0  0  0  0  0  0  0  0
   -2.7325   -2.7580   -3.2432 H   0  0  0  0  0  0  0  0  0  0  0  0
   -4.2127   -2.3283   -4.1089 H   0  0  0  0  0  0  0  0  0  0  0  0
   -2.6553   -1.6521   -4.6219 H   0  0  0  0  0  0  0  0  0  0  0  0
   -5.6112   -1.2548   -1.8522 N   0  0  0  0  0  0  0  0  0  0  0  0
   -6.5769   -1.6357   -0.8480 C   0  0  0  0  0  0  0  0  0  0  0  0
   -5.9580   -1.0136   -2.7759 H   0  0  0  0  0  0  0  0  0  0  0  0
   -6.7349   -2.7237   -0.8844 H   0  0  0  0  0  0  0  0  0  0  0  0
   -6.2023   -1.3528    0.1468 H   0  0  0  0  0  0  0  0  0  0  0  0
   -7.5293   -1.1203   -1.0413 H   0  0  0  0  0  0  0  0  0  0  0  0
  1  3  1  0  0  0  0
  1  7  1  0  0  0  0
  1  2  2  0  0  0  0
 31 32  1  0  0  0  0
 32 40  1  0  0  0  0
 32 33  2  0  0  0  0
  8  9  1  0  0  0  0
  9 17  1  0  0  0  0
  9 10  2  0  0  0  0
 18 19  1  0  0  0  0
 19 30  1  0  0  0  0
 19 20  2  0  0  0  0
 21 22  1  0  0  0  0
 22 23  2  0  0  0  0
 22 24  1  0  0  0  0
 31 34  1  0  0  0  0
  8 11  1  0  0  0  0
 40 41  1  0  0  0  0
 18 21  1  0  0  0  0
 30 31  1  0  0  0  0
  7  8  1  0  0  0  0
 17 18  1  0  0  0  0
  3  4  1  0  0  0  0
  3  5  1  0  0  0  0
  3  6  1  0  0  0  0
 34 37  1  0  0  0  0
 34 38  1  0  0  0  0
 34 39  1  0  0  0  0
 11 14  1  0  0  0  0
 11 15  1  0  0  0  0
 11 16  1  0  0  0  0
 41 43  1  0  0  0  0
 41 44  1  0  0  0  0
 41 45  1  0  0  0  0
 21 27  1  0  0  0  0
 21 28  1  0  0  0  0
 31 36  1  0  0  0  0
  8 13  1  0  0  0  0
 18 26  1  0  0  0  0
 40 42  1  0  0  0  0
  7 12  1  0  0  0  0
 30 35  1  0  0  0  0
 17 25  1  0  0  0  0
 24 29  1  0  0  0  0
M  END
$$$$

  -OEChem-05262214473D

 45 44  0     1  0  0  0  0  0999 V2000
   -2.2987    4.1032   -0.3022 C   0  0  0  0  0  0  0  0  0  0  0  0
   -1.8049    3.7117   -1.3532 O   0  0  0  0  0  0  0  0  0  0  0  0
   -3.0791    5.3755   -0.2846 C   0  0  0  0  0  0  0  0  0  0  0  0
   -2.4478    6.2532   -0.0717 H   0  0  0  0  0  0  0  0  0  0  0  0
   -3.5571    5.5891   -1.2541 H   0  0  0  0  0  0  0  0  0  0  0  0
   -3.8940    5.4184    0.4556 H   0  0  0  0  0  0  0  0  0  0  0  0
   -2.2137    3.4712    0.9275 N   0  0  0  0  0  0  0  0  0  0  0  0
   -1.5102    2.2327    1.1338 C   0  0  2  0  0  0  0  0  0  0  0  0
   -1.3539    1.5497   -0.2184 C   0  0  0  0  0  0  0  0  0  0  0  0
   -2.0852    1.7861   -1.1778 O   0  0  0  0  0  0  0  0  0  0  0  0
   -2.2477    1.3342    2.1145 C   0  0  0  0  0  0  0  0  0  0  0  0
   -2.6724    3.9052    1.7265 H   0  0  0  0  0  0  0  0  0  0  0  0
   -0.5220    2.4922    1.5290 H   0  0  0  0  0  0  0  0  0  0  0  0
   -3.2400    1.0636    1.7358 H   0  0  0  0  0  0  0  0  0  0  0  0
   -1.6970    0.4046    2.2923 H   0  0  0  0  0  0  0  0  0  0  0  0
   -2.3854    1.8384    3.0772 H   0  0  0  0  0  0  0  0  0  0  0  0
   -0.3283    0.6116   -0.2182 N   0  0  0  0  0  0  0  0  0  0  0  0
    0.0090   -0.1762   -1.3759 C   0  0  2  0  0  0  0  0  0  0  0  0
   -1.2202   -0.9907   -1.7588 C   0  0  0  0  0  0  0  0  0  0  0  0
   -1.4637   -2.0984   -1.2845 O   0  0  0  0  0  0  0  0  0  0  0  0
    1.2050   -1.0885   -1.1164 C   0  0  0  0  0  0  0  0  0  0  0  0
    2.4773   -0.2922   -0.9607 C   0  0  0  0  0  0  0  0  0  0  0  0
    2.6790    0.7877   -1.5008 O   0  0  0  0  0  0  0  0  0  0  0  0
    3.3862   -0.9119   -0.1679 O   0  0  0  0  0  0  0  0  0  0  0  0
    0.2381    0.4970    0.6194 H   0  0  0  0  0  0  0  0  0  0  0  0
    0.2274    0.5370   -2.1797 H   0  0  0  0  0  0  0  0  0  0  0  0
    1.0752   -1.6569   -0.1868 H   0  0  0  0  0  0  0  0  0  0  0  0
    1.3372   -1.8385   -1.9056 H   0  0  0  0  0  0  0  0  0  0  0  0
    4.2327   -0.4294   -0.0529 H   0  0  0  0  0  0  0  0  0  0  0  0
   -2.0366   -0.3152   -2.6551 N   0  0  0  0  0  0  0  0  0  0  0  0
   -3.2702   -0.8727   -3.1584 C   0  0  2  0  0  0  0  0  0  0  0  0
   -4.2524   -0.9651   -1.9982 C   0  0  0  0  0  0  0  0  0  0  0  0
   -3.8990   -1.0003   -0.8213 O   0  0  0  0  0  0  0  0  0  0  0  0
   -3.0438   -2.2379   -3.7890 C   0  0  0  0  0  0  0  0  0  0  0  0
   -1.7551    0.6086   -2.9699 H   0  0  0  0  0  0  0  0  0  0  0  0
   -3.6529   -0.1699   -3.9065 H   0  0  0  0  0  0  0  0  0  0  0  0
   -2.6604   -2.9556   -3.0545 H   0  0  0  0  0  0  0  0  0  0  0  0
   -3.9748   -2.6466   -4.1954 H   0  0  0  0  0  0  0  0  0  0  0  0
   -2.3146   -2.1748   -4.6039 H   0  0  0  0  0  0  0  0  0  0  0  0
   -5.5678   -1.0472   -2.4332 N   0  0  0  0  0  0  0  0  0  0  0  0
   -6.6844   -1.1558   -1.5236 C   0  0  0  0  0  0  0  0  0  0  0  0
   -5.7698   -0.9915   -3.4271 H   0  0  0  0  0  0  0  0  0  0  0  0
   -6.9225   -2.2172   -1.3596 H   0  0  0  0  0  0  0  0  0  0  0  0
   -6.4224   -0.6864   -0.5639 H   0  0  0  0  0  0  0  0  0  0  0  0
   -7.5590   -0.6463   -1.9543 H   0  0  0  0  0  0  0  0  0  0  0  0
  1  3  1  0  0  0  0
  1  7  1  0  0  0  0
  1  2  2  0  0  0  0
 31 32  1  0  0  0  0
 32 40  1  0  0  0  0
 32 33  2  0  0  0  0
  8  9  1  0  0  0  0
  9 17  1  0  0  0  0
  9 10  2  0  0  0  0
 18 19  1  0  0  0  0
 19 30  1  0  0  0  0
 19 20  2  0  0  0  0
 21 22  1  0  0  0  0
 22 23  2  0  0  0  0
 22 24  1  0  0  0  0
 31 34  1  0  0  0  0
  8 11  1  0  0  0  0
 40 41  1  0  0  0  0
 18 21  1  0  0  0  0
 30 31  1  0  0  0  0
  7  8  1  0  0  0  0
 17 18  1  0  0  0  0
  3  4  1  0  0  0  0
  3  5  1  0  0  0  0
  3  6  1  0  0  0  0
 34 37  1  0  0  0  0
 34 38  1  0  0  0  0
 34 39  1  0  0  0  0
 11 14  1  0  0  0  0
 11 15  1  0  0  0  0
 11 16  1  0  0  0  0
 41 43  1  0  0  0  0
 41 44  1  0  0  0  0
 41 45  1  0  0  0  0
 21 27  1  0  0  0  0
 21 28  1  0  0  0  0
 31 36  1  0  0  0  0
  8 13  1  0  0  0  0
 18 26  1  0  0  0  0
 40 42  1  0  0  0  0
  7 12  1  0  0  0  0
 30 35  1  0  0  0  0
 17 25  1  0  0  0  0
 24 29  1  0  0  0  0
M  END
$$$$

  -OEChem-05262214473D

 45 44  0     1  0  0  0  0  0999 V2000
   -2.2987    4.1032   -0.3022 C   0  0  0  0  0  0  0  0  0  0  0  0
   -1.8049    3.7117   -1.3532 O   0  0  0  0  0  0  0  0  0  0  0  0
   -3.0791    5.3755   -0.2846 C   0  0  0  0  0  0  0  0  0  0  0  0
   -2.4478    6.2532   -0.0717 H   0  0  0  0  0  0  0  0  0  0  0  0
   -3.5571    5.5891   -1.2541 H   0  0  0  0  0  0  0  0  0  0  0  0
   -3.8940    5.4184    0.4556 H   0  0  0  0  0  0  0  0  0  0  0  0
   -2.2137    3.4712    0.9275 N   0  0  0  0  0  0  0  0  0  0  0  0
   -1.5102    2.2327    1.1338 C   0  0  2  0  0  0  0  0  0  0  0  0
   -1.3539    1.5497   -0.2184 C   0  0  0  0  0  0  0  0  0  0  0  0
   -2.0852    1.7861   -1.1778 O   0  0  0  0  0  0  0  0  0  0  0  0
   -2.2477    1.3342    2.1145 C   0  0  0  0  0  0  0  0  0  0  0  0
   -2.6724    3.9052    1.7265 H   0  0  0  0  0  0  0  0  0  0  0  0
   -0.5220    2.4922    1.5290 H   0  0  0  0  0  0  0  0  0  0  0  0
   -3.2400    1.0636    1.7358 H   0  0  0  0  0  0  0  0  0  0  0  0
   -1.6970    0.4046    2.2923 H   0  0  0  0  0  0  0  0  0  0  0  0
   -2.3854    1.8384    3.0772 H   0  0  0  0  0  0  0  0  0  0  0  0
   -0.3283    0.6116   -0.2182 N   0  0  0  0  0  0  0  0  0  0  0  0
    0.0090   -0.1762   -1.3759 C   0  0  2  0  0  0  0  0  0  0  0  0
   -1.2202   -0.9907   -1.7588 C   0  0  0  0  0  0  0  0  0  0  0  0
   -1.6115   -1.9579   -1.1088 O   0  0  0  0  0  0  0  0  0  0  0  0
    1.2050   -1.0885   -1.1164 C   0  0  0  0  0  0  0  0  0  0  0  0
    2.4773   -0.2922   -0.9607 C   0  0  0  0  0  0  0  0  0  0  0  0
    2.6790    0.7877   -1.5008 O   0  0  0  0  0  0  0  0  0  0  0  0
    3.3862   -0.9119   -0.1679 O   0  0  0  0  0  0  0  0  0  0  0  0
    0.2381    0.4970    0.6194 H   0  0  0  0  0  0  0  0  0  0  0  0
    0.2274    0.5370   -2.1797 H   0  0  0  0  0  0  0  0  0  0  0  0
    1.0752   -1.6569   -0.1868 H   0  0  0  0  0  0  0  0  0  0  0  0
    1.3372   -1.8385   -1.9056 H   0  0  0  0  0  0  0  0  0  0  0  0
    4.2327   -0.4294   -0.0529 H   0  0  0  0  0  0  0  0  0  0  0  0
   -1.8552   -0.4818   -2.8831 N   0  0  0  0  0  0  0  0  0  0  0  0
   -3.0524   -1.0710   -3.4357 C   0  0  2  0  0  0  0  0  0  0  0  0
   -4.1828   -0.8641   -2.4363 C   0  0  0  0  0  0  0  0  0  0  0  0
   -3.9912   -0.6651   -1.2385 O   0  0  0  0  0  0  0  0  0  0  0  0
   -2.8547   -2.5490   -3.7344 C   0  0  0  0  0  0  0  0  0  0  0  0
   -1.4620    0.3382   -3.3356 H   0  0  0  0  0  0  0  0  0  0  0  0
   -3.2761   -0.5257   -4.3590 H   0  0  0  0  0  0  0  0  0  0  0  0
   -2.6296   -3.1118   -2.8211 H   0  0  0  0  0  0  0  0  0  0  0  0
   -3.7538   -2.9876   -4.1796 H   0  0  0  0  0  0  0  0  0  0  0  0
   -2.0221   -2.6980   -4.4303 H   0  0  0  0  0  0  0  0  0  0  0  0
   -5.4319   -0.9708   -3.0317 N   0  0  0  0  0  0  0  0  0  0  0  0
   -6.6635   -0.8264   -2.2912 C   0  0  0  0  0  0  0  0  0  0  0  0
   -5.4964   -1.1184   -4.0346 H   0  0  0  0  0  0  0  0  0  0  0  0
   -7.0050   -1.8149   -1.9502 H   0  0  0  0  0  0  0  0  0  0  0  0
   -6.4934   -0.1768   -1.4200 H   0  0  0  0  0  0  0  0  0  0  0  0
   -7.4304   -0.3772   -2.9393 H   0  0  0  0  0  0  0  0  0  0  0  0
  1  3  1  0  0  0  0
  1  7  1  0  0  0  0
  1  2  2  0  0  0  0
 31 32  1  0  0  0  0
 32 40  1  0  0  0  0
 32 33  2  0  0  0  0
  8  9  1  0  0  0  0
  9 17  1  0  0  0  0
  9 10  2  0  0  0  0
 18 19  1  0  0  0  0
 19 30  1  0  0  0  0
 19 20  2  0  0  0  0
 21 22  1  0  0  0  0
 22 23  2  0  0  0  0
 22 24  1  0  0  0  0
 31 34  1  0  0  0  0
  8 11  1  0  0  0  0
 40 41  1  0  0  0  0
 18 21  1  0  0  0  0
 30 31  1  0  0  0  0
  7  8  1  0  0  0  0
 17 18  1  0  0  0  0
  3  4  1  0  0  0  0
  3  5  1  0  0  0  0
  3  6  1  0  0  0  0
 34 37  1  0  0  0  0
 34 38  1  0  0  0  0
 34 39  1  0  0  0  0
 11 14  1  0  0  0  0
 11 15  1  0  0  0  0
 11 16  1  0  0  0  0
 41 43  1  0  0  0  0
 41 44  1  0  0  0  0
 41 45  1  0  0  0  0
 21 27  1  0  0  0  0
 21 28  1  0  0  0  0
 31 36  1  0  0  0  0
  8 13  1  0  0  0  0
 18 26  1  0  0  0  0
 40 42  1  0  0  0  0
  7 12  1  0  0  0  0
 30 35  1  0  0  0  0
 17 25  1  0  0  0  0
 24 29  1  0  0  0  0
M  END
$$$$

  -OEChem-05262214473D

 45 44  0     1  0  0  0  0  0999 V2000
   -2.2987    4.1032   -0.3022 C   0  0  0  0  0  0  0  0  0  0  0  0
   -1.8049    3.7117   -1.3532 O   0  0  0  0  0  0  0  0  0  0  0  0
   -3.0791    5.3755   -0.2846 C   0  0  0  0  0  0  0  0  0  0  0  0
   -2.4478    6.2532   -0.0717 H   0  0  0  0  0  0  0  0  0  0  0  0
   -3.5571    5.5891   -1.2541 H   0  0  0  0  0  0  0  0  0  0  0  0
   -3.8940    5.4184    0.4556 H   0  0  0  0  0  0  0  0  0  0  0  0
   -2.2137    3.4712    0.9275 N   0  0  0  0  0  0  0  0  0  0  0  0
   -1.5102    2.2327    1.1338 C   0  0  2  0  0  0  0  0  0  0  0  0
   -1.3539    1.5497   -0.2184 C   0  0  0  0  0  0  0  0  0  0  0  0
   -2.0852    1.7861   -1.1778 O   0  0  0  0  0  0  0  0  0  0  0  0
   -2.2477    1.3342    2.1145 C   0  0  0  0  0  0  0  0  0  0  0  0
   -2.6724    3.9052    1.7265 H   0  0  0  0  0  0  0  0  0  0  0  0
   -0.5220    2.4922    1.5290 H   0  0  0  0  0  0  0  0  0  0  0  0
   -3.2400    1.0636    1.7358 H   0  0  0  0  0  0  0  0  0  0  0  0
   -1.6970    0.4046    2.2923 H   0  0  0  0  0  0  0  0  0  0  0  0
   -2.3854    1.8384    3.0772 H   0  0  0  0  0  0  0  0  0  0  0  0
   -0.3283    0.6116   -0.2182 N   0  0  0  0  0  0  0  0  0  0  0  0
    0.0090   -0.1762   -1.3759 C   0  0  2  0  0  0  0  0  0  0  0  0
   -1.2202   -0.9907   -1.7588 C   0  0  0  0  0  0  0  0  0  0  0  0
   -1.7694   -1.7760   -0.9888 O   0  0  0  0  0  0  0  0  0  0  0  0
    1.2050   -1.0885   -1.1164 C   0  0  0  0  0  0  0  0  0  0  0  0
    2.4773   -0.2922   -0.9607 C   0  0  0  0  0  0  0  0  0  0  0  0
    2.6790    0.7877   -1.5008 O   0  0  0  0  0  0  0  0  0  0  0  0
    3.3862   -0.9119   -0.1679 O   0  0  0  0  0  0  0  0  0  0  0  0
    0.2381    0.4970    0.6194 H   0  0  0  0  0  0  0  0  0  0  0  0
    0.2274    0.5370   -2.1797 H   0  0  0  0  0  0  0  0  0  0  0  0
    1.0752   -1.6569   -0.1868 H   0  0  0  0  0  0  0  0  0  0  0  0
    1.3372   -1.8385   -1.9056 H   0  0  0  0  0  0  0  0  0  0  0  0
    4.2327   -0.4294   -0.0529 H   0  0  0  0  0  0  0  0  0  0  0  0
   -1.6592   -0.7022   -3.0434 N   0  0  0  0  0  0  0  0  0  0  0  0
   -2.8166   -1.3347   -3.6319 C   0  0  2  0  0  0  0  0  0  0  0  0
   -4.0485   -0.8626   -2.8709 C   0  0  0  0  0  0  0  0  0  0  0  0
   -4.0006   -0.4224   -1.7241 O   0  0  0  0  0  0  0  0  0  0  0  0
   -2.6999   -2.8504   -3.5905 C   0  0  0  0  0  0  0  0  0  0  0  0
   -1.1458   -0.0185   -3.5918 H   0  0  0  0  0  0  0  0  0  0  0  0
   -2.8728   -0.9884   -4.6697 H   0  0  0  0  0  0  0  0  0  0  0  0
   -2.6424   -3.2159   -2.5587 H   0  0  0  0  0  0  0  0  0  0  0  0
   -3.5647   -3.3280   -4.0626 H   0  0  0  0  0  0  0  0  0  0  0  0
   -1.7975   -3.1862   -4.1128 H   0  0  0  0  0  0  0  0  0  0  0  0
   -5.2129   -1.0308   -3.6070 N   0  0  0  0  0  0  0  0  0  0  0  0
   -6.5157   -0.6699   -3.0986 C   0  0  0  0  0  0  0  0  0  0  0  0
   -5.1566   -1.3856   -4.5571 H   0  0  0  0  0  0  0  0  0  0  0  0
   -6.9768   -1.5444   -2.6162 H   0  0  0  0  0  0  0  0  0  0  0  0
   -6.4103    0.1413   -2.3631 H   0  0  0  0  0  0  0  0  0  0  0  0
   -7.1524   -0.3313   -3.9292 H   0  0  0  0  0  0  0  0  0  0  0  0
  1  3  1  0  0  0  0
  1  7  1  0  0  0  0
  1  2  2  0  0  0  0
 31 32  1  0  0  0  0
 32 40  1  0  0  0  0
 32 33  2  0  0  0  0
  8  9  1  0  0  0  0
  9 17  1  0  0  0  0
  9 10  2  0  0  0  0
 18 19  1  0  0  0  0
 19 30  1  0  0  0  0
 19 20  2  0  0  0  0
 21 22  1  0  0  0  0
 22 23  2  0  0  0  0
 22 24  1  0  0  0  0
 31 34  1  0  0  0  0
  8 11  1  0  0  0  0
 40 41  1  0  0  0  0
 18 21  1  0  0  0  0
 30 31  1  0  0  0  0
  7  8  1  0  0  0  0
 17 18  1  0  0  0  0
  3  4  1  0  0  0  0
  3  5  1  0  0  0  0
  3  6  1  0  0  0  0
 34 37  1  0  0  0  0
 34 38  1  0  0  0  0
 34 39  1  0  0  0  0
 11 14  1  0  0  0  0
 11 15  1  0  0  0  0
 11 16  1  0  0  0  0
 41 43  1  0  0  0  0
 41 44  1  0  0  0  0
 41 45  1  0  0  0  0
 21 27  1  0  0  0  0
 21 28  1  0  0  0  0
 31 36  1  0  0  0  0
  8 13  1  0  0  0  0
 18 26  1  0  0  0  0
 40 42  1  0  0  0  0
  7 12  1  0  0  0  0
 30 35  1  0  0  0  0
 17 25  1  0  0  0  0
 24 29  1  0  0  0  0
M  END
$$$$

  -OEChem-05262214473D

 45 44  0     1  0  0  0  0  0999 V2000
   -2.2987    4.1032   -0.3022 C   0  0  0  0  0  0  0  0  0  0  0  0
   -1.8049    3.7117   -1.3532 O   0  0  0  0  0  0  0  0  0  0  0  0
   -3.0791    5.3755   -0.2846 C   0  0  0  0  0  0  0  0  0  0  0  0
   -2.4478    6.2532   -0.0717 H   0  0  0  0  0  0  0  0  0  0  0  0
   -3.5571    5.5891   -1.2541 H   0  0  0  0  0  0  0  0  0  0  0  0
   -3.8940    5.4184    0.4556 H   0  0  0  0  0  0  0  0  0  0  0  0
   -2.2137    3.4712    0.9275 N   0  0  0  0  0  0  0  0  0  0  0  0
   -1.5102    2.2327    1.1338 C   0  0  2  0  0  0  0  0  0  0  0  0
   -1.3539    1.5497   -0.2184 C   0  0  0  0  0  0  0  0  0  0  0  0
   -2.0852    1.7861   -1.1778 O   0  0  0  0  0  0  0  0  0  0  0  0
   -2.2477    1.3342    2.1145 C   0  0  0  0  0  0  0  0  0  0  0  0
   -2.6724    3.9052    1.7265 H   0  0  0  0  0  0  0  0  0  0  0  0
   -0.5220    2.4922    1.5290 H   0  0  0  0  0  0  0  0  0  0  0  0
   -3.2400    1.0636    1.7358 H   0  0  0  0  0  0  0  0  0  0  0  0
   -1.6970    0.4046    2.2923 H   0  0  0  0  0  0  0  0  0  0  0  0
   -2.3854    1.8384    3.0772 H   0  0  0  0  0  0  0  0  0  0  0  0
   -0.3283    0.6116   -0.2182 N   0  0  0  0  0  0  0  0  0  0  0  0
    0.0090   -0.1762   -1.3759 C   0  0  2  0  0  0  0  0  0  0  0  0
   -1.2202   -0.9907   -1.7588 C   0  0  0  0  0  0  0  0  0  0  0  0
   -1.9267   -1.5649   -0.9328 O   0  0  0  0  0  0  0  0  0  0  0  0
    1.2050   -1.0885   -1.1164 C   0  0  0  0  0  0  0  0  0  0  0  0
    2.4773   -0.2922   -0.9607 C   0  0  0  0  0  0  0  0  0  0  0  0
    2.6790    0.7877   -1.5008 O   0  0  0  0  0  0  0  0  0  0  0  0
    3.3862   -0.9119   -0.1679 O   0  0  0  0  0  0  0  0  0  0  0  0
    0.2381    0.4970    0.6194 H   0  0  0  0  0  0  0  0  0  0  0  0
    0.2274    0.5370   -2.1797 H   0  0  0  0  0  0  0  0  0  0  0  0
    1.0752   -1.6569   -0.1868 H   0  0  0  0  0  0  0  0  0  0  0  0
    1.3372   -1.8385   -1.9056 H   0  0  0  0  0  0  0  0  0  0  0  0
    4.2327   -0.4294   -0.0529 H   0  0  0  0  0  0  0  0  0  0  0  0
   -1.4621   -0.9612   -3.1251 N   0  0  0  0  0  0  0  0  0  0  0  0
   -2.5788   -1.6456   -3.7338 C   0  0  2  0  0  0  0  0  0  0  0  0
   -3.8584   -0.9606   -3.2725 C   0  0  0  0  0  0  0  0  0  0  0  0
   -3.9268   -0.2888   -2.2453 O   0  0  0  0  0  0  0  0  0  0  0  0
   -2.5898   -3.1215   -3.3671 C   0  0  0  0  0  0  0  0  0  0  0  0
   -0.8282   -0.4371   -3.7211 H   0  0  0  0  0  0  0  0  0  0  0  0
   -2.4703   -1.5264   -4.8173 H   0  0  0  0  0  0  0  0  0  0  0  0
   -2.6978   -3.2608   -2.2853 H   0  0  0  0  0  0  0  0  0  0  0  0
   -3.4204   -3.6447   -3.8523 H   0  0  0  0  0  0  0  0  0  0  0  0
   -1.6563   -3.6060   -3.6731 H   0  0  0  0  0  0  0  0  0  0  0  0
   -4.9257   -1.2232   -4.1199 N   0  0  0  0  0  0  0  0  0  0  0  0
   -6.2510   -0.6969   -3.8907 C   0  0  0  0  0  0  0  0  0  0  0  0
   -4.7734   -1.7749   -4.9591 H   0  0  0  0  0  0  0  0  0  0  0  0
   -6.8397   -1.4240   -3.3121 H   0  0  0  0  0  0  0  0  0  0  0  0
   -6.1789    0.2461   -3.3290 H   0  0  0  0  0  0  0  0  0  0  0  0
   -6.7440   -0.5118   -4.8564 H   0  0  0  0  0  0  0  0  0  0  0  0
  1  3  1  0  0  0  0
  1  7  1  0  0  0  0
  1  2  2  0  0  0  0
 31 32  1  0  0  0  0
 32 40  1  0  0  0  0
 32 33  2  0  0  0  0
  8  9  1  0  0  0  0
  9 17  1  0  0  0  0
  9 10  2  0  0  0  0
 18 19  1  0  0  0  0
 19 30  1  0  0  0  0
 19 20  2  0  0  0  0
 21 22  1  0  0  0  0
 22 23  2  0  0  0  0
 22 24  1  0  0  0  0
 31 34  1  0  0  0  0
  8 11  1  0  0  0  0
 40 41  1  0  0  0  0
 18 21  1  0  0  0  0
 30 31  1  0  0  0  0
  7  8  1  0  0  0  0
 17 18  1  0  0  0  0
  3  4  1  0  0  0  0
  3  5  1  0  0  0  0
  3  6  1  0  0  0  0
 34 37  1  0  0  0  0
 34 38  1  0  0  0  0
 34 39  1  0  0  0  0
 11 14  1  0  0  0  0
 11 15  1  0  0  0  0
 11 16  1  0  0  0  0
 41 43  1  0  0  0  0
 41 44  1  0  0  0  0
 41 45  1  0  0  0  0
 21 27  1  0  0  0  0
 21 28  1  0  0  0  0
 31 36  1  0  0  0  0
  8 13  1  0  0  0  0
 18 26  1  0  0  0  0
 40 42  1  0  0  0  0
  7 12  1  0  0  0  0
 30 35  1  0  0  0  0
 17 25  1  0  0  0  0
 24 29  1  0  0  0  0
M  END
$$$$

  -OEChem-05262214473D

 45 44  0     1  0  0  0  0  0999 V2000
   -2.2987    4.1032   -0.3022 C   0  0  0  0  0  0  0  0  0  0  0  0
   -1.8049    3.7117   -1.3532 O   0  0  0  0  0  0  0  0  0  0  0  0
   -3.0791    5.3755   -0.2846 C   0  0  0  0  0  0  0  0  0  0  0  0
   -2.4478    6.2532   -0.0717 H   0  0  0  0  0  0  0  0  0  0  0  0
   -3.5571    5.5891   -1.2541 H   0  0  0  0  0  0  0  0  0  0  0  0
   -3.8940    5.4184    0.4556 H   0  0  0  0  0  0  0  0  0  0  0  0
   -2.2137    3.4712    0.9275 N   0  0  0  0  0  0  0  0  0  0  0  0
   -1.5102    2.2327    1.1338 C   0  0  2  0  0  0  0  0  0  0  0  0
   -1.3539    1.5497   -0.2184 C   0  0  0  0  0  0  0  0  0  0  0  0
   -2.0852    1.7861   -1.1778 O   0  0  0  0  0  0  0  0  0  0  0  0
   -2.2477    1.3342    2.1145 C   0  0  0  0  0  0  0  0  0  0  0  0
   -2.6724    3.9052    1.7265 H   0  0  0  0  0  0  0  0  0  0  0  0
   -0.5220    2.4922    1.5290 H   0  0  0  0  0  0  0  0  0  0  0  0
   -3.2400    1.0636    1.7358 H   0  0  0  0  0  0  0  0  0  0  0  0
   -1.6970    0.4046    2.2923 H   0  0  0  0  0  0  0  0  0  0  0  0
   -2.3854    1.8384    3.0772 H   0  0  0  0  0  0  0  0  0  0  0  0
   -0.3283    0.6116   -0.2182 N   0  0  0  0  0  0  0  0  0  0  0  0
    0.0090   -0.1762   -1.3759 C   0  0  2  0  0  0  0  0  0  0  0  0
   -1.2202   -0.9907   -1.7588 C   0  0  0  0  0  0  0  0  0  0  0  0
   -2.0727   -1.3390   -0.9445 O   0  0  0  0  0  0  0  0  0  0  0  0
    1.2050   -1.0885   -1.1164 C   0  0  0  0  0  0  0  0  0  0  0  0
    2.4773   -0.2922   -0.9607 C   0  0  0  0  0  0  0  0  0  0  0  0
    2.6790    0.7877   -1.5008 O   0  0  0  0  0  0  0  0  0  0  0  0
    3.3862   -0.9119   -0.1679 O   0  0  0  0  0  0  0  0  0  0  0  0
    0.2381    0.4970    0.6194 H   0  0  0  0  0  0  0  0  0  0  0  0
    0.2274    0.5370   -2.1797 H   0  0  0  0  0  0  0  0  0  0  0  0
    1.0752   -1.6569   -0.1868 H   0  0  0  0  0  0  0  0  0  0  0  0
    1.3372   -1.8385   -1.9056 H   0  0  0  0  0  0  0  0  0  0  0  0
    4.2327   -0.4294   -0.0529 H   0  0  0  0  0  0  0  0  0  0  0  0
   -1.2773   -1.2413   -3.1227 N   0  0  0  0  0  0  0  0  0  0  0  0
   -2.3553   -1.9827   -3.7344 C   0  0  2  0  0  0  0  0  0  0  0  0
   -3.6257   -1.1515   -3.6136 C   0  0  0  0  0  0  0  0  0  0  0  0
   -3.7747   -0.2734   -2.7663 O   0  0  0  0  0  0  0  0  0  0  0  0
   -2.5320   -3.3439   -3.0796 C   0  0  0  0  0  0  0  0  0  0  0  0
   -0.5307   -0.8890   -3.7146 H   0  0  0  0  0  0  0  0  0  0  0  0
   -2.0961   -2.1031   -4.7919 H   0  0  0  0  0  0  0  0  0  0  0  0
   -2.7921   -3.2435   -2.0195 H   0  0  0  0  0  0  0  0  0  0  0  0
   -3.3307   -3.9160   -3.5631 H   0  0  0  0  0  0  0  0  0  0  0  0
   -1.6081   -3.9289   -3.1412 H   0  0  0  0  0  0  0  0  0  0  0  0
   -4.5898   -1.5348   -4.5354 N   0  0  0  0  0  0  0  0  0  0  0  0
   -5.8875   -0.9057   -4.6135 C   0  0  0  0  0  0  0  0  0  0  0  0
   -4.3730   -2.2598   -5.2129 H   0  0  0  0  0  0  0  0  0  0  0  0
   -6.6033   -1.4619   -3.9904 H   0  0  0  0  0  0  0  0  0  0  0  0
   -5.8148    0.1307   -4.2519 H   0  0  0  0  0  0  0  0  0  0  0  0
   -6.2329   -0.9063   -5.6579 H   0  0  0  0  0  0  0  0  0  0  0  0
  1  3  1  0  0  0  0
  1  7  1  0  0  0  0
  1  2  2  0  0  0  0
 31 32  1  0  0  0  0
 32 40  1  0  0  0  0
 32 33  2  0  0  0  0
  8  9  1  0  0  0  0
  9 17  1  0  0  0  0
  9 10  2  0  0  0  0
 18 19  1  0  0  0  0
 19 30  1  0  0  0  0
 19 20  2  0  0  0  0
 21 22  1  0  0  0  0
 22 23  2  0  0  0  0
 22 24  1  0  0  0  0
 31 34  1  0  0  0  0
  8 11  1  0  0  0  0
 40 41  1  0  0  0  0
 18 21  1  0  0  0  0
 30 31  1  0  0  0  0
  7  8  1  0  0  0  0
 17 18  1  0  0  0  0
  3  4  1  0  0  0  0
  3  5  1  0  0  0  0
  3  6  1  0  0  0  0
 34 37  1  0  0  0  0
 34 38  1  0  0  0  0
 34 39  1  0  0  0  0
 11 14  1  0  0  0  0
 11 15  1  0  0  0  0
 11 16  1  0  0  0  0
 41 43  1  0  0  0  0
 41 44  1  0  0  0  0
 41 45  1  0  0  0  0
 21 27  1  0  0  0  0
 21 28  1  0  0  0  0
 31 36  1  0  0  0  0
  8 13  1  0  0  0  0
 18 26  1  0  0  0  0
 40 42  1  0  0  0  0
  7 12  1  0  0  0  0
 30 35  1  0  0  0  0
 17 25  1  0  0  0  0
 24 29  1  0  0  0  0
M  END
$$$$

  -OEChem-05262214473D

 45 44  0     1  0  0  0  0  0999 V2000
   -2.2987    4.1032   -0.3022 C   0  0  0  0  0  0  0  0  0  0  0  0
   -1.8049    3.7117   -1.3532 O   0  0  0  0  0  0  0  0  0  0  0  0
   -3.0791    5.3755   -0.2846 C   0  0  0  0  0  0  0  0  0  0  0  0
   -2.4478    6.2532   -0.0717 H   0  0  0  0  0  0  0  0  0  0  0  0
   -3.5571    5.5891   -1.2541 H   0  0  0  0  0  0  0  0  0  0  0  0
   -3.8940    5.4184    0.4556 H   0  0  0  0  0  0  0  0  0  0  0  0
   -2.2137    3.4712    0.9275 N   0  0  0  0  0  0  0  0  0  0  0  0
   -1.5102    2.2327    1.1338 C   0  0  2  0  0  0  0  0  0  0  0  0
   -1.3539    1.5497   -0.2184 C   0  0  0  0  0  0  0  0  0  0  0  0
   -2.0852    1.7861   -1.1778 O   0  0  0  0  0  0  0  0  0  0  0  0
   -2.2477    1.3342    2.1145 C   0  0  0  0  0  0  0  0  0  0  0  0
   -2.6724    3.9052    1.7265 H   0  0  0  0  0  0  0  0  0  0  0  0
   -0.5220    2.4922    1.5290 H   0  0  0  0  0  0  0  0  0  0  0  0
   -3.2400    1.0636    1.7358 H   0  0  0  0  0  0  0  0  0  0  0  0
   -1.6970    0.4046    2.2923 H   0  0  0  0  0  0  0  0  0  0  0  0
   -2.3854    1.8384    3.0772 H   0  0  0  0  0  0  0  0  0  0  0  0
   -0.3283    0.6116   -0.2182 N   0  0  0  0  0  0  0  0  0  0  0  0
    0.0090   -0.1762   -1.3759 C   0  0  2  0  0  0  0  0  0  0  0  0
   -1.2202   -0.9907   -1.7588 C   0  0  0  0  0  0  0  0  0  0  0  0
   -2.1974   -1.1138   -1.0232 O   0  0  0  0  0  0  0  0  0  0  0  0
    1.2050   -1.0885   -1.1164 C   0  0  0  0  0  0  0  0  0  0  0  0
    2.4773   -0.2922   -0.9607 C   0  0  0  0  0  0  0  0  0  0  0  0
    2.6790    0.7877   -1.5008 O   0  0  0  0  0  0  0  0  0  0  0  0
    3.3862   -0.9119   -0.1679 O   0  0  0  0  0  0  0  0  0  0  0  0
    0.2381    0.4970    0.6194 H   0  0  0  0  0  0  0  0  0  0  0  0
    0.2274    0.5370   -2.1797 H   0  0  0  0  0  0  0  0  0  0  0  0
    1.0752   -1.6569   -0.1868 H   0  0  0  0  0  0  0  0  0  0  0  0
    1.3372   -1.8385   -1.9056 H   0  0  0  0  0  0  0  0  0  0  0  0
    4.2327   -0.4294   -0.0529 H   0  0  0  0  0  0  0  0  0  0  0  0
   -1.1173   -1.5234   -3.0362 N   0  0  0  0  0  0  0  0  0  0  0  0
   -2.1612   -2.3230   -3.6336 C   0  0  2  0  0  0  0  0  0  0  0  0
   -3.3660   -1.4222   -3.8710 C   0  0  0  0  0  0  0  0  0  0  0  0
   -3.5547   -0.3772   -3.2518 O   0  0  0  0  0  0  0  0  0  0  0  0
   -2.5305   -3.5024   -2.7474 C   0  0  0  0  0  0  0  0  0  0  0  0
   -0.2737   -1.3436   -3.5727 H   0  0  0  0  0  0  0  0  0  0  0  0
   -1.7757   -2.6792   -4.5951 H   0  0  0  0  0  0  0  0  0  0  0  0
   -2.9188   -3.1652   -1.7794 H   0  0  0  0  0  0  0  0  0  0  0  0
   -3.3017   -4.1236   -3.2146 H   0  0  0  0  0  0  0  0  0  0  0  0
   -1.6561   -4.1329   -2.5533 H   0  0  0  0  0  0  0  0  0  0  0  0
   -4.2281   -1.9444   -4.8252 N   0  0  0  0  0  0  0  0  0  0  0  0
   -5.4499   -1.2819   -5.2178 C   0  0  0  0  0  0  0  0  0  0  0  0
   -3.9827   -2.8073   -5.3015 H   0  0  0  0  0  0  0  0  0  0  0  0
   -6.2835   -1.6556   -4.6050 H   0  0  0  0  0  0  0  0  0  0  0  0
   -5.3430   -0.1973   -5.0689 H   0  0  0  0  0  0  0  0  0  0  0  0
   -5.6540   -1.4880   -6.2789 H   0  0  0  0  0  0  0  0  0  0  0  0
  1  3  1  0  0  0  0
  1  7  1  0  0  0  0
  1  2  2  0  0  0  0
 31 32  1  0  0  0  0
 32 40  1  0  0  0  0
 32 33  2  0  0  0  0
  8  9  1  0  0  0  0
  9 17  1  0  0  0  0
  9 10  2  0  0  0  0
 18 19  1  0  0  0  0
 19 30  1  0  0  0  0
 19 20  2  0  0  0  0
 21 22  1  0  0  0  0
 22 23  2  0  0  0  0
 22 24  1  0  0  0  0
 31 34  1  0  0  0  0
  8 11  1  0  0  0  0
 40 41  1  0  0  0  0
 18 21  1  0  0  0  0
 30 31  1  0  0  0  0
  7  8  1  0  0  0  0
 17 18  1  0  0  0  0
  3  4  1  0  0  0  0
  3  5  1  0  0  0  0
  3  6  1  0  0  0  0
 34 37  1  0  0  0  0
 34 38  1  0  0  0  0
 34 39  1  0  0  0  0
 11 14  1  0  0  0  0
 11 15  1  0  0  0  0
 11 16  1  0  0  0  0
 41 43  1  0  0  0  0
 41 44  1  0  0  0  0
 41 45  1  0  0  0  0
 21 27  1  0  0  0  0
 21 28  1  0  0  0  0
 31 36  1  0  0  0  0
  8 13  1  0  0  0  0
 18 26  1  0  0  0  0
 40 42  1  0  0  0  0
  7 12  1  0  0  0  0
 30 35  1  0  0  0  0
 17 25  1  0  0  0  0
 24 29  1  0  0  0  0
M  END
$$$$

  -OEChem-05262214473D

 45 44  0     1  0  0  0  0  0999 V2000
   -2.2987    4.1032   -0.3022 C   0  0  0  0  0  0  0  0  0  0  0  0
   -1.8049    3.7117   -1.3532 O   0  0  0  0  0  0  0  0  0  0  0  0
   -3.0791    5.3755   -0.2846 C   0  0  0  0  0  0  0  0  0  0  0  0
   -2.4478    6.2532   -0.0717 H   0  0  0  0  0  0  0  0  0  0  0  0
   -3.5571    5.5891   -1.2541 H   0  0  0  0  0  0  0  0  0  0  0  0
   -3.8940    5.4184    0.4556 H   0  0  0  0  0  0  0  0  0  0  0  0
   -2.2137    3.4712    0.9275 N   0  0  0  0  0  0  0  0  0  0  0  0
   -1.5102    2.2327    1.1338 C   0  0  2  0  0  0  0  0  0  0  0  0
   -1.3539    1.5497   -0.2184 C   0  0  0  0  0  0  0  0  0  0  0  0
   -2.0852    1.7861   -1.1778 O   0  0  0  0  0  0  0  0  0  0  0  0
   -2.2477    1.3342    2.1145 C   0  0  0  0  0  0  0  0  0  0  0  0
   -2.6724    3.9052    1.7265 H   0  0  0  0  0  0  0  0  0  0  0  0
   -0.5220    2.4922    1.5290 H   0  0  0  0  0  0  0  0  0  0  0  0
   -3.2400    1.0636    1.7358 H   0  0  0  0  0  0  0  0  0  0  0  0
   -1.6970    0.4046    2.2923 H   0  0  0  0  0  0  0  0  0  0  0  0
   -2.3854    1.8384    3.0772 H   0  0  0  0  0  0  0  0  0  0  0  0
   -0.3283    0.6116   -0.2182 N   0  0  0  0  0  0  0  0  0  0  0  0
    0.0090   -0.1762   -1.3759 C   0  0  2  0  0  0  0  0  0  0  0  0
   -1.2898   -0.6927   -1.9819 C   0  0  0  0  0  0  0  0  0  0  0  0
   -2.3980   -0.4082   -1.5322 O   0  0  0  0  0  0  0  0  0  0  0  0
    0.9423   -1.3325   -1.0268 C   0  0  0  0  0  0  0  0  0  0  0  0
    2.3127   -0.8326   -0.6409 C   0  0  0  0  0  0  0  0  0  0  0  0
    2.8078    0.2033   -1.0656 O   0  0  0  0  0  0  0  0  0  0  0  0
    2.9489   -1.6667    0.2183 O   0  0  0  0  0  0  0  0  0  0  0  0
    0.2381    0.4970    0.6194 H   0  0  0  0  0  0  0  0  0  0  0  0
    0.4846    0.5103   -2.0866 H   0  0  0  0  0  0  0  0  0  0  0  0
    0.5633   -1.9022   -0.1690 H   0  0  0  0  0  0  0  0  0  0  0  0
    1.0343   -2.0567   -1.8453 H   0  0  0  0  0  0  0  0  0  0  0  0
    3.8494   -1.3808    0.4828 H   0  0  0  0  0  0  0  0  0  0  0  0
   -1.0677   -1.4687   -3.1109 N   0  0  0  0  0  0  0  0  0  0  0  0
   -2.1420   -2.0615   -3.8728 C   0  0  2  0  0  0  0  0  0  0  0  0
   -2.9263   -0.9360   -4.5343 C   0  0  0  0  0  0  0  0  0  0  0  0
   -2.9214    0.2203   -4.1172 O   0  0  0  0  0  0  0  0  0  0  0  0
   -3.0456   -2.9074   -2.9893 C   0  0  0  0  0  0  0  0  0  0  0  0
   -0.1110   -1.6259   -3.4137 H   0  0  0  0  0  0  0  0  0  0  0  0
   -1.6763   -2.6851   -4.6437 H   0  0  0  0  0  0  0  0  0  0  0  0
   -3.5212   -2.2998   -2.2107 H   0  0  0  0  0  0  0  0  0  0  0  0
   -3.8428   -3.3792   -3.5733 H   0  0  0  0  0  0  0  0  0  0  0  0
   -2.4743   -3.6981   -2.4911 H   0  0  0  0  0  0  0  0  0  0  0  0
   -3.6665   -1.3836   -5.6197 N   0  0  0  0  0  0  0  0  0  0  0  0
   -4.5042   -0.5085   -6.4061 C   0  0  0  0  0  0  0  0  0  0  0  0
   -3.5956   -2.3555   -5.9062 H   0  0  0  0  0  0  0  0  0  0  0  0
   -5.5284   -0.5224   -6.0050 H   0  0  0  0  0  0  0  0  0  0  0  0
   -4.1071    0.5163   -6.3619 H   0  0  0  0  0  0  0  0  0  0  0  0
   -4.5150   -0.8528   -7.4508 H   0  0  0  0  0  0  0  0  0  0  0  0
  1  3  1  0  0  0  0
  1  7  1  0  0  0  0
  1  2  2  0  0  0  0
 31 32  1  0  0  0  0
 32 40  1  0  0  0  0
 32 33  2  0  0  0  0
  8  9  1  0  0  0  0
  9 17  1  0  0  0  0
  9 10  2  0  0  0  0
 18 19  1  0  0  0  0
 19 30  1  0  0  0  0
 19 20  2  0  0  0  0
 21 22  1  0  0  0  0
 22 23  2  0  0  0  0
 22 24  1  0  0  0  0
 31 34  1  0  0  0  0
  8 11  1  0  0  0  0
 40 41  1  0  0  0  0
 18 21  1  0  0  0  0
 30 31  1  0  0  0  0
  7  8  1  0  0  0  0
 17 18  1  0  0  0  0
  3  4  1  0  0  0  0
  3  5  1  0  0  0  0
  3  6  1  0  0  0  0
 34 37  1  0  0  0  0
 34 38  1  0  0  0  0
 34 39  1  0  0  0  0
 11 14  1  0  0  0  0
 11 15  1  0  0  0  0
 11 16  1  0  0  0  0
 41 43  1  0  0  0  0
 41 44  1  0  0  0  0
 41 45  1  0  0  0  0
 21 27  1  0  0  0  0
 21 28  1  0  0  0  0
 31 36  1  0  0  0  0
  8 13  1  0  0  0  0
 18 26  1  0  0  0  0
 40 42  1  0  0  0  0
  7 12  1  0  0  0  0
 30 35  1  0  0  0  0
 17 25  1  0  0  0  0
 24 29  1  0  0  0  0
M  END
$$$$

  -OEChem-05262214473D

 45 44  0     1  0  0  0  0  0999 V2000
   -2.2987    4.1032   -0.3022 C   0  0  0  0  0  0  0  0  0  0  0  0
   -1.8049    3.7117   -1.3532 O   0  0  0  0  0  0  0  0  0  0  0  0
   -3.0791    5.3755   -0.2846 C   0  0  0  0  0  0  0  0  0  0  0  0
   -2.4478    6.2532   -0.0717 H   0  0  0  0  0  0  0  0  0  0  0  0
   -3.5571    5.5891   -1.2541 H   0  0  0  0  0  0  0  0  0  0  0  0
   -3.8940    5.4184    0.4556 H   0  0  0  0  0  0  0  0  0  0  0  0
   -2.2137    3.4712    0.9275 N   0  0  0  0  0  0  0  0  0  0  0  0
   -1.5102    2.2327    1.1338 C   0  0  2  0  0  0  0  0  0  0  0  0
   -1.3539    1.5497   -0.2184 C   0  0  0  0  0  0  0  0  0  0  0  0
   -2.0852    1.7861   -1.1778 O   0  0  0  0  0  0  0  0  0  0  0  0
   -2.2477    1.3342    2.1145 C   0  0  0  0  0  0  0  0  0  0  0  0
   -2.6724    3.9052    1.7265 H   0  0  0  0  0  0  0  0  0  0  0  0
   -0.5220    2.4922    1.5290 H   0  0  0  0  0  0  0  0  0  0  0  0
   -3.2400    1.0636    1.7358 H   0  0  0  0  0  0  0  0  0  0  0  0
   -1.6970    0.4046    2.2923 H   0  0  0  0  0  0  0  0  0  0  0  0
   -2.3854    1.8384    3.0772 H   0  0  0  0  0  0  0  0  0  0  0  0
   -0.3283    0.6116   -0.2182 N   0  0  0  0  0  0  0  0  0  0  0  0
    0.0090   -0.1762   -1.3759 C   0  0  2  0  0  0  0  0  0  0  0  0
   -1.2898   -0.6927   -1.9819 C   0  0  0  0  0  0  0  0  0  0  0  0
   -2.3898   -0.2123   -1.7166 O   0  0  0  0  0  0  0  0  0  0  0  0
    0.9423   -1.3325   -1.0268 C   0  0  0  0  0  0  0  0  0  0  0  0
    2.3127   -0.8326   -0.6409 C   0  0  0  0  0  0  0  0  0  0  0  0
    2.8078    0.2033   -1.0656 O   0  0  0  0  0  0  0  0  0  0  0  0
    2.9489   -1.6667    0.2183 O   0  0  0  0  0  0  0  0  0  0  0  0
    0.2381    0.4970    0.6194 H   0  0  0  0  0  0  0  0  0  0  0  0
    0.4846    0.5103   -2.0866 H   0  0  0  0  0  0  0  0  0  0  0  0
    0.5633   -1.9022   -0.1690 H   0  0  0  0  0  0  0  0  0  0  0  0
    1.0343   -2.0567   -1.8453 H   0  0  0  0  0  0  0  0  0  0  0  0
    3.8494   -1.3808    0.4828 H   0  0  0  0  0  0  0  0  0  0  0  0
   -1.0713   -1.7202   -2.8889 N   0  0  0  0  0  0  0  0  0  0  0  0
   -2.1444   -2.3668   -3.6074 C   0  0  2  0  0  0  0  0  0  0  0  0
   -2.7440   -1.3513   -4.5711 C   0  0  0  0  0  0  0  0  0  0  0  0
   -2.6405   -0.1363   -4.4152 O   0  0  0  0  0  0  0  0  0  0  0  0
   -3.2024   -2.9041   -2.6562 C   0  0  0  0  0  0  0  0  0  0  0  0
   -0.1181   -2.0301   -3.0540 H   0  0  0  0  0  0  0  0  0  0  0  0
   -1.6947   -3.1886   -4.1753 H   0  0  0  0  0  0  0  0  0  0  0  0
   -3.6642   -2.0951   -2.0785 H   0  0  0  0  0  0  0  0  0  0  0  0
   -4.0008   -3.4189   -3.2007 H   0  0  0  0  0  0  0  0  0  0  0  0
   -2.7635   -3.6119   -1.9448 H   0  0  0  0  0  0  0  0  0  0  0  0
   -3.4451   -1.9609   -5.6021 N   0  0  0  0  0  0  0  0  0  0  0  0
   -4.1164   -1.2114   -6.6382 C   0  0  0  0  0  0  0  0  0  0  0  0
   -3.4627   -2.9746   -5.6634 H   0  0  0  0  0  0  0  0  0  0  0  0
   -5.1632   -1.0391   -6.3473 H   0  0  0  0  0  0  0  0  0  0  0  0
   -3.6108   -0.2444   -6.7773 H   0  0  0  0  0  0  0  0  0  0  0  0
   -4.0864   -1.7796   -7.5796 H   0  0  0  0  0  0  0  0  0  0  0  0
  1  3  1  0  0  0  0
  1  7  1  0  0  0  0
  1  2  2  0  0  0  0
 31 32  1  0  0  0  0
 32 40  1  0  0  0  0
 32 33  2  0  0  0  0
  8  9  1  0  0  0  0
  9 17  1  0  0  0  0
  9 10  2  0  0  0  0
 18 19  1  0  0  0  0
 19 30  1  0  0  0  0
 19 20  2  0  0  0  0
 21 22  1  0  0  0  0
 22 23  2  0  0  0  0
 22 24  1  0  0  0  0
 31 34  1  0  0  0  0
  8 11  1  0  0  0  0
 40 41  1  0  0  0  0
 18 21  1  0  0  0  0
 30 31  1  0  0  0  0
  7  8  1  0  0  0  0
 17 18  1  0  0  0  0
  3  4  1  0  0  0  0
  3  5  1  0  0  0  0
  3  6  1  0  0  0  0
 34 37  1  0  0  0  0
 34 38  1  0  0  0  0
 34 39  1  0  0  0  0
 11 14  1  0  0  0  0
 11 15  1  0  0  0  0
 11 16  1  0  0  0  0
 41 43  1  0  0  0  0
 41 44  1  0  0  0  0
 41 45  1  0  0  0  0
 21 27  1  0  0  0  0
 21 28  1  0  0  0  0
 31 36  1  0  0  0  0
  8 13  1  0  0  0  0
 18 26  1  0  0  0  0
 40 42  1  0  0  0  0
  7 12  1  0  0  0  0
 30 35  1  0  0  0  0
 17 25  1  0  0  0  0
 24 29  1  0  0  0  0
M  END
$$$$

  -OEChem-05262214473D

 45 44  0     1  0  0  0  0  0999 V2000
   -2.2987    4.1032   -0.3022 C   0  0  0  0  0  0  0  0  0  0  0  0
   -1.8049    3.7117   -1.3532 O   0  0  0  0  0  0  0  0  0  0  0  0
   -3.0791    5.3755   -0.2846 C   0  0  0  0  0  0  0  0  0  0  0  0
   -2.4478    6.2532   -0.0717 H   0  0  0  0  0  0  0  0  0  0  0  0
   -3.5571    5.5891   -1.2541 H   0  0  0  0  0  0  0  0  0  0  0  0
   -3.8940    5.4184    0.4556 H   0  0  0  0  0  0  0  0  0  0  0  0
   -2.2137    3.4712    0.9275 N   0  0  0  0  0  0  0  0  0  0  0  0
   -1.5102    2.2327    1.1338 C   0  0  2  0  0  0  0  0  0  0  0  0
   -1.3539    1.5497   -0.2184 C   0  0  0  0  0  0  0  0  0  0  0  0
   -2.0852    1.7861   -1.1778 O   0  0  0  0  0  0  0  0  0  0  0  0
   -2.2477    1.3342    2.1145 C   0  0  0  0  0  0  0  0  0  0  0  0
   -2.6724    3.9052    1.7265 H   0  0  0  0  0  0  0  0  0  0  0  0
   -0.5220    2.4922    1.5290 H   0  0  0  0  0  0  0  0  0  0  0  0
   -3.2400    1.0636    1.7358 H   0  0  0  0  0  0  0  0  0  0  0  0
   -1.6970    0.4046    2.2923 H   0  0  0  0  0  0  0  0  0  0  0  0
   -2.3854    1.8384    3.0772 H   0  0  0  0  0  0  0  0  0  0  0  0
   -0.3283    0.6116   -0.2182 N   0  0  0  0  0  0  0  0  0  0  0  0
    0.0090   -0.1762   -1.3759 C   0  0  2  0  0  0  0  0  0  0  0  0
   -1.2898   -0.6927   -1.9819 C   0  0  0  0  0  0  0  0  0  0  0  0
   -2.3456   -0.0646   -1.9373 O   0  0  0  0  0  0  0  0  0  0  0  0
    0.9423   -1.3325   -1.0268 C   0  0  0  0  0  0  0  0  0  0  0  0
    2.3127   -0.8326   -0.6409 C   0  0  0  0  0  0  0  0  0  0  0  0
    2.8078    0.2033   -1.0656 O   0  0  0  0  0  0  0  0  0  0  0  0
    2.9489   -1.6667    0.2183 O   0  0  0  0  0  0  0  0  0  0  0  0
    0.2381    0.4970    0.6194 H   0  0  0  0  0  0  0  0  0  0  0  0
    0.4846    0.5103   -2.0866 H   0  0  0  0  0  0  0  0  0  0  0  0
    0.5633   -1.9022   -0.1690 H   0  0  0  0  0  0  0  0  0  0  0  0
    1.0343   -2.0567   -1.8453 H   0  0  0  0  0  0  0  0  0  0  0  0
    3.8494   -1.3808    0.4828 H   0  0  0  0  0  0  0  0  0  0  0  0
   -1.1202   -1.9139   -2.6192 N   0  0  0  0  0  0  0  0  0  0  0  0
   -2.2015   -2.6029   -3.2840 C   0  0  2  0  0  0  0  0  0  0  0  0
   -2.6075   -1.7792   -4.4989 C   0  0  0  0  0  0  0  0  0  0  0  0
   -2.3798   -0.5755   -4.5998 O   0  0  0  0  0  0  0  0  0  0  0  0
   -3.3826   -2.8112   -2.3490 C   0  0  0  0  0  0  0  0  0  0  0  0
   -0.1982   -2.3403   -2.6180 H   0  0  0  0  0  0  0  0  0  0  0  0
   -1.8054   -3.5697   -3.6133 H   0  0  0  0  0  0  0  0  0  0  0  0
   -3.7930   -1.8535   -2.0086 H   0  0  0  0  0  0  0  0  0  0  0  0
   -4.1903   -3.3588   -2.8460 H   0  0  0  0  0  0  0  0  0  0  0  0
   -3.0819   -3.3782   -1.4615 H   0  0  0  0  0  0  0  0  0  0  0  0
   -3.2923   -2.5374   -5.4383 N   0  0  0  0  0  0  0  0  0  0  0  0
   -3.7939   -1.9814   -6.6733 C   0  0  0  0  0  0  0  0  0  0  0  0
   -3.4194   -3.5327   -5.2805 H   0  0  0  0  0  0  0  0  0  0  0  0
   -4.8336   -1.6513   -6.5319 H   0  0  0  0  0  0  0  0  0  0  0  0
   -3.1733   -1.1220   -6.9671 H   0  0  0  0  0  0  0  0  0  0  0  0
   -3.7565   -2.7473   -7.4620 H   0  0  0  0  0  0  0  0  0  0  0  0
  1  3  1  0  0  0  0
  1  7  1  0  0  0  0
  1  2  2  0  0  0  0
 31 32  1  0  0  0  0
 32 40  1  0  0  0  0
 32 33  2  0  0  0  0
  8  9  1  0  0  0  0
  9 17  1  0  0  0  0
  9 10  2  0  0  0  0
 18 19  1  0  0  0  0
 19 30  1  0  0  0  0
 19 20  2  0  0  0  0
 21 22  1  0  0  0  0
 22 23  2  0  0  0  0
 22 24  1  0  0  0  0
 31 34  1  0  0  0  0
  8 11  1  0  0  0  0
 40 41  1  0  0  0  0
 18 21  1  0  0  0  0
 30 31  1  0  0  0  0
  7  8  1  0  0  0  0
 17 18  1  0  0  0  0
  3  4  1  0  0  0  0
  3  5  1  0  0  0  0
  3  6  1  0  0  0  0
 34 37  1  0  0  0  0
 34 38  1  0  0  0  0
 34 39  1  0  0  0  0
 11 14  1  0  0  0  0
 11 15  1  0  0  0  0
 11 16  1  0  0  0  0
 41 43  1  0  0  0  0
 41 44  1  0  0  0  0
 41 45  1  0  0  0  0
 21 27  1  0  0  0  0
 21 28  1  0  0  0  0
 31 36  1  0  0  0  0
  8 13  1  0  0  0  0
 18 26  1  0  0  0  0
 40 42  1  0  0  0  0
  7 12  1  0  0  0  0
 30 35  1  0  0  0  0
 17 25  1  0  0  0  0
 24 29  1  0  0  0  0
M  END
$$$$

  -OEChem-05262214473D

 45 44  0     1  0  0  0  0  0999 V2000
   -2.2987    4.1032   -0.3022 C   0  0  0  0  0  0  0  0  0  0  0  0
   -1.8049    3.7117   -1.3532 O   0  0  0  0  0  0  0  0  0  0  0  0
   -3.0791    5.3755   -0.2846 C   0  0  0  0  0  0  0  0  0  0  0  0
   -2.4478    6.2532   -0.0717 H   0  0  0  0  0  0  0  0  0  0  0  0
   -3.5571    5.5891   -1.2541 H   0  0  0  0  0  0  0  0  0  0  0  0
   -3.8940    5.4184    0.4556 H   0  0  0  0  0  0  0  0  0  0  0  0
   -2.2137    3.4712    0.9275 N   0  0  0  0  0  0  0  0  0  0  0  0
   -1.5102    2.2327    1.1338 C   0  0  2  0  0  0  0  0  0  0  0  0
   -1.3539    1.5497   -0.2184 C   0  0  0  0  0  0  0  0  0  0  0  0
   -2.0852    1.7861   -1.1778 O   0  0  0  0  0  0  0  0  0  0  0  0
   -2.2477    1.3342    2.1145 C   0  0  0  0  0  0  0  0  0  0  0  0
   -2.6724    3.9052    1.7265 H   0  0  0  0  0  0  0  0  0  0  0  0
   -0.5220    2.4922    1.5290 H   0  0  0  0  0  0  0  0  0  0  0  0
   -3.2400    1.0636    1.7358 H   0  0  0  0  0  0  0  0  0  0  0  0
   -1.6970    0.4046    2.2923 H   0  0  0  0  0  0  0  0  0  0  0  0
   -2.3854    1.8384    3.0772 H   0  0  0  0  0  0  0  0  0  0  0  0
   -0.3283    0.6116   -0.2182 N   0  0  0  0  0  0  0  0  0  0  0  0
    0.0090   -0.1762   -1.3759 C   0  0  2  0  0  0  0  0  0  0  0  0
   -1.2898   -0.6927   -1.9819 C   0  0  0  0  0  0  0  0  0  0  0  0
   -2.2683    0.0248   -2.1791 O   0  0  0  0  0  0  0  0  0  0  0  0
    0.9423   -1.3325   -1.0268 C   0  0  0  0  0  0  0  0  0  0  0  0
    2.3127   -0.8326   -0.6409 C   0  0  0  0  0  0  0  0  0  0  0  0
    2.8078    0.2033   -1.0656 O   0  0  0  0  0  0  0  0  0  0  0  0
    2.9489   -1.6667    0.2183 O   0  0  0  0  0  0  0  0  0  0  0  0
    0.2381    0.4970    0.6194 H   0  0  0  0  0  0  0  0  0  0  0  0
    0.4846    0.5103   -2.0866 H   0  0  0  0  0  0  0  0  0  0  0  0
    0.5633   -1.9022   -0.1690 H   0  0  0  0  0  0  0  0  0  0  0  0
    1.0343   -2.0567   -1.8453 H   0  0  0  0  0  0  0  0  0  0  0  0
    3.8494   -1.3808    0.4828 H   0  0  0  0  0  0  0  0  0  0  0  0
   -1.2109   -2.0364   -2.3202 N   0  0  0  0  0  0  0  0  0  0  0  0
   -2.3092   -2.7537   -2.9244 C   0  0  2  0  0  0  0  0  0  0  0  0
   -2.5260   -2.1907   -4.3228 C   0  0  0  0  0  0  0  0  0  0  0  0
   -2.1569   -1.0672   -4.6583 O   0  0  0  0  0  0  0  0  0  0  0  0
   -3.5742   -2.6351   -2.0886 C   0  0  0  0  0  0  0  0  0  0  0  0
   -0.3458   -2.5355   -2.1353 H   0  0  0  0  0  0  0  0  0  0  0  0
   -2.0008   -3.8024   -2.9961 H   0  0  0  0  0  0  0  0  0  0  0  0
   -3.8986   -1.5914   -2.0056 H   0  0  0  0  0  0  0  0  0  0  0  0
   -4.3982   -3.2030   -2.5332 H   0  0  0  0  0  0  0  0  0  0  0  0
   -3.4078   -3.0132   -1.0741 H   0  0  0  0  0  0  0  0  0  0  0  0
   -3.2184   -3.0739   -5.1394 N   0  0  0  0  0  0  0  0  0  0  0  0
   -3.5585   -2.7661   -6.5090 C   0  0  0  0  0  0  0  0  0  0  0  0
   -3.4686   -3.9918   -4.7838 H   0  0  0  0  0  0  0  0  0  0  0  0
   -4.5621   -2.3173   -6.5461 H   0  0  0  0  0  0  0  0  0  0  0  0
   -2.8243   -2.0566   -6.9184 H   0  0  0  0  0  0  0  0  0  0  0  0
   -3.5478   -3.6900   -7.1058 H   0  0  0  0  0  0  0  0  0  0  0  0
  1  3  1  0  0  0  0
  1  7  1  0  0  0  0
  1  2  2  0  0  0  0
 31 32  1  0  0  0  0
 32 40  1  0  0  0  0
 32 33  2  0  0  0  0
  8  9  1  0  0  0  0
  9 17  1  0  0  0  0
  9 10  2  0  0  0  0
 18 19  1  0  0  0  0
 19 30  1  0  0  0  0
 19 20  2  0  0  0  0
 21 22  1  0  0  0  0
 22 23  2  0  0  0  0
 22 24  1  0  0  0  0
 31 34  1  0  0  0  0
  8 11  1  0  0  0  0
 40 41  1  0  0  0  0
 18 21  1  0  0  0  0
 30 31  1  0  0  0  0
  7  8  1  0  0  0  0
 17 18  1  0  0  0  0
  3  4  1  0  0  0  0
  3  5  1  0  0  0  0
  3  6  1  0  0  0  0
 34 37  1  0  0  0  0
 34 38  1  0  0  0  0
 34 39  1  0  0  0  0
 11 14  1  0  0  0  0
 11 15  1  0  0  0  0
 11 16  1  0  0  0  0
 41 43  1  0  0  0  0
 41 44  1  0  0  0  0
 41 45  1  0  0  0  0
 21 27  1  0  0  0  0
 21 28  1  0  0  0  0
 31 36  1  0  0  0  0
  8 13  1  0  0  0  0
 18 26  1  0  0  0  0
 40 42  1  0  0  0  0
  7 12  1  0  0  0  0
 30 35  1  0  0  0  0
 17 25  1  0  0  0  0
 24 29  1  0  0  0  0
M  END
$$$$

  -OEChem-05262214473D

 45 44  0     1  0  0  0  0  0999 V2000
   -2.2987    4.1032   -0.3022 C   0  0  0  0  0  0  0  0  0  0  0  0
   -1.8049    3.7117   -1.3532 O   0  0  0  0  0  0  0  0  0  0  0  0
   -3.0791    5.3755   -0.2846 C   0  0  0  0  0  0  0  0  0  0  0  0
   -2.4478    6.2532   -0.0717 H   0  0  0  0  0  0  0  0  0  0  0  0
   -3.5571    5.5891   -1.2541 H   0  0  0  0  0  0  0  0  0  0  0  0
   -3.8940    5.4184    0.4556 H   0  0  0  0  0  0  0  0  0  0  0  0
   -2.2137    3.4712    0.9275 N   0  0  0  0  0  0  0  0  0  0  0  0
   -1.5102    2.2327    1.1338 C   0  0  2  0  0  0  0  0  0  0  0  0
   -1.3539    1.5497   -0.2184 C   0  0  0  0  0  0  0  0  0  0  0  0
   -2.0852    1.7861   -1.1778 O   0  0  0  0  0  0  0  0  0  0  0  0
   -2.2477    1.3342    2.1145 C   0  0  0  0  0  0  0  0  0  0  0  0
   -2.6724    3.9052    1.7265 H   0  0  0  0  0  0  0  0  0  0  0  0
   -0.5220    2.4922    1.5290 H   0  0  0  0  0  0  0  0  0  0  0  0
   -3.2400    1.0636    1.7358 H   0  0  0  0  0  0  0  0  0  0  0  0
   -1.6970    0.4046    2.2923 H   0  0  0  0  0  0  0  0  0  0  0  0
   -2.3854    1.8384    3.0772 H   0  0  0  0  0  0  0  0  0  0  0  0
   -0.3283    0.6116   -0.2182 N   0  0  0  0  0  0  0  0  0  0  0  0
    0.0090   -0.1762   -1.3759 C   0  0  2  0  0  0  0  0  0  0  0  0
   -1.2898   -0.6927   -1.9819 C   0  0  0  0  0  0  0  0  0  0  0  0
   -2.1632    0.0499   -2.4256 O   0  0  0  0  0  0  0  0  0  0  0  0
    0.9423   -1.3325   -1.0268 C   0  0  0  0  0  0  0  0  0  0  0  0
    2.3127   -0.8326   -0.6409 C   0  0  0  0  0  0  0  0  0  0  0  0
    2.8078    0.2033   -1.0656 O   0  0  0  0  0  0  0  0  0  0  0  0
    2.9489   -1.6667    0.2183 O   0  0  0  0  0  0  0  0  0  0  0  0
    0.2381    0.4970    0.6194 H   0  0  0  0  0  0  0  0  0  0  0  0
    0.4846    0.5103   -2.0866 H   0  0  0  0  0  0  0  0  0  0  0  0
    0.5633   -1.9022   -0.1690 H   0  0  0  0  0  0  0  0  0  0  0  0
    1.0343   -2.0567   -1.8453 H   0  0  0  0  0  0  0  0  0  0  0  0
    3.8494   -1.3808    0.4828 H   0  0  0  0  0  0  0  0  0  0  0  0
   -1.3375   -2.0794   -2.0123 N   0  0  0  0  0  0  0  0  0  0  0  0
   -2.4604   -2.8090   -2.5533 C   0  0  2  0  0  0  0  0  0  0  0  0
   -2.5052   -2.5577   -4.0548 C   0  0  0  0  0  0  0  0  0  0  0  0
   -1.9872   -1.5780   -4.5867 O   0  0  0  0  0  0  0  0  0  0  0  0
   -3.7639   -2.3879   -1.8927 C   0  0  0  0  0  0  0  0  0  0  0  0
   -0.5508   -2.6024   -1.6390 H   0  0  0  0  0  0  0  0  0  0  0  0
   -2.2677   -3.8709   -2.3657 H   0  0  0  0  0  0  0  0  0  0  0  0
   -3.9739   -1.3268   -2.0698 H   0  0  0  0  0  0  0  0  0  0  0  0
   -4.6104   -2.9620   -2.2837 H   0  0  0  0  0  0  0  0  0  0  0  0
   -3.7190   -2.5415   -0.8091 H   0  0  0  0  0  0  0  0  0  0  0  0
   -3.2285   -3.5337   -4.7259 N   0  0  0  0  0  0  0  0  0  0  0  0
   -3.4263   -3.5120   -6.1564 C   0  0  0  0  0  0  0  0  0  0  0  0
   -3.6070   -4.3206   -4.2070 H   0  0  0  0  0  0  0  0  0  0  0  0
   -4.3672   -2.9918   -6.3892 H   0  0  0  0  0  0  0  0  0  0  0  0
   -2.5878   -2.9845   -6.6345 H   0  0  0  0  0  0  0  0  0  0  0  0
   -3.4745   -4.5436   -6.5355 H   0  0  0  0  0  0  0  0  0  0  0  0
  1  3  1  0  0  0  0
  1  7  1  0  0  0  0
  1  2  2  0  0  0  0
 31 32  1  0  0  0  0
 32 40  1  0  0  0  0
 32 33  2  0  0  0  0
  8  9  1  0  0  0  0
  9 17  1  0  0  0  0
  9 10  2  0  0  0  0
 18 19  1  0  0  0  0
 19 30  1  0  0  0  0
 19 20  2  0  0  0  0
 21 22  1  0  0  0  0
 22 23  2  0  0  0  0
 22 24  1  0  0  0  0
 31 34  1  0  0  0  0
  8 11  1  0  0  0  0
 40 41  1  0  0  0  0
 18 21  1  0  0  0  0
 30 31  1  0  0  0  0
  7  8  1  0  0  0  0
 17 18  1  0  0  0  0
  3  4  1  0  0  0  0
  3  5  1  0  0  0  0
  3  6  1  0  0  0  0
 34 37  1  0  0  0  0
 34 38  1  0  0  0  0
 34 39  1  0  0  0  0
 11 14  1  0  0  0  0
 11 15  1  0  0  0  0
 11 16  1  0  0  0  0
 41 43  1  0  0  0  0
 41 44  1  0  0  0  0
 41 45  1  0  0  0  0
 21 27  1  0  0  0  0
 21 28  1  0  0  0  0
 31 36  1  0  0  0  0
  8 13  1  0  0  0  0
 18 26  1  0  0  0  0
 40 42  1  0  0  0  0
  7 12  1  0  0  0  0
 30 35  1  0  0  0  0
 17 25  1  0  0  0  0
 24 29  1  0  0  0  0
M  END
$$$$

  -OEChem-05262214473D

 45 44  0     1  0  0  0  0  0999 V2000
   -2.2987    4.1032   -0.3022 C   0  0  0  0  0  0  0  0  0  0  0  0
   -1.8049    3.7117   -1.3532 O   0  0  0  0  0  0  0  0  0  0  0  0
   -3.0791    5.3755   -0.2846 C   0  0  0  0  0  0  0  0  0  0  0  0
   -2.4478    6.2532   -0.0717 H   0  0  0  0  0  0  0  0  0  0  0  0
   -3.5571    5.5891   -1.2541 H   0  0  0  0  0  0  0  0  0  0  0  0
   -3.8940    5.4184    0.4556 H   0  0  0  0  0  0  0  0  0  0  0  0
   -2.2137    3.4712    0.9275 N   0  0  0  0  0  0  0  0  0  0  0  0
   -1.5102    2.2327    1.1338 C   0  0  2  0  0  0  0  0  0  0  0  0
   -1.3539    1.5497   -0.2184 C   0  0  0  0  0  0  0  0  0  0  0  0
   -2.0852    1.7861   -1.1778 O   0  0  0  0  0  0  0  0  0  0  0  0
   -2.2477    1.3342    2.1145 C   0  0  0  0  0  0  0  0  0  0  0  0
   -2.6724    3.9052    1.7265 H   0  0  0  0  0  0  0  0  0  0  0  0
   -0.5220    2.4922    1.5290 H   0  0  0  0  0  0  0  0  0  0  0  0
   -3.2400    1.0636    1.7358 H   0  0  0  0  0  0  0  0  0  0  0  0
   -1.6970    0.4046    2.2923 H   0  0  0  0  0  0  0  0  0  0  0  0
   -2.3854    1.8384    3.0772 H   0  0  0  0  0  0  0  0  0  0  0  0
   -0.3283    0.6116   -0.2182 N   0  0  0  0  0  0  0  0  0  0  0  0
    0.0090   -0.1762   -1.3759 C   0  0  2  0  0  0  0  0  0  0  0  0
   -1.2898   -0.6927   -1.9819 C   0  0  0  0  0  0  0  0  0  0  0  0
   -2.0375    0.0088   -2.6601 O   0  0  0  0  0  0  0  0  0  0  0  0
    0.9423   -1.3325   -1.0268 C   0  0  0  0  0  0  0  0  0  0  0  0
    2.3127   -0.8326   -0.6409 C   0  0  0  0  0  0  0  0  0  0  0  0
    2.8078    0.2033   -1.0656 O   0  0  0  0  0  0  0  0  0  0  0  0
    2.9489   -1.6667    0.2183 O   0  0  0  0  0  0  0  0  0  0  0  0
    0.2381    0.4970    0.6194 H   0  0  0  0  0  0  0  0  0  0  0  0
    0.4846    0.5103   -2.0866 H   0  0  0  0  0  0  0  0  0  0  0  0
    0.5633   -1.9022   -0.1690 H   0  0  0  0  0  0  0  0  0  0  0  0
    1.0343   -2.0567   -1.8453 H   0  0  0  0  0  0  0  0  0  0  0  0
    3.8494   -1.3808    0.4828 H   0  0  0  0  0  0  0  0  0  0  0  0
   -1.4911   -2.0400   -1.7166 N   0  0  0  0  0  0  0  0  0  0  0  0
   -2.6447   -2.7649   -2.1960 C   0  0  2  0  0  0  0  0  0  0  0  0
   -2.5463   -2.8553   -3.7131 C   0  0  0  0  0  0  0  0  0  0  0  0
   -1.8821   -2.0731   -4.3900 O   0  0  0  0  0  0  0  0  0  0  0  0
   -3.9389   -2.0863   -1.7747 C   0  0  0  0  0  0  0  0  0  0  0  0
   -0.7992   -2.5364   -1.1629 H   0  0  0  0  0  0  0  0  0  0  0  0
   -2.5879   -3.7705   -1.7652 H   0  0  0  0  0  0  0  0  0  0  0  0
   -4.0137   -1.0775   -2.1968 H   0  0  0  0  0  0  0  0  0  0  0  0
   -4.8125   -2.6524   -2.1145 H   0  0  0  0  0  0  0  0  0  0  0  0
   -3.9943   -1.9954   -0.6845 H   0  0  0  0  0  0  0  0  0  0  0  0
   -3.3219   -3.8856   -4.2259 N   0  0  0  0  0  0  0  0  0  0  0  0
   -3.4064   -4.1684   -5.6397 C   0  0  0  0  0  0  0  0  0  0  0  0
   -3.8252   -4.4966   -3.5894 H   0  0  0  0  0  0  0  0  0  0  0  0
   -4.2621   -3.6286   -6.0716 H   0  0  0  0  0  0  0  0  0  0  0  0
   -2.4798   -3.8425   -6.1348 H   0  0  0  0  0  0  0  0  0  0  0  0
   -3.5416   -5.2497   -5.7898 H   0  0  0  0  0  0  0  0  0  0  0  0
  1  3  1  0  0  0  0
  1  7  1  0  0  0  0
  1  2  2  0  0  0  0
 31 32  1  0  0  0  0
 32 40  1  0  0  0  0
 32 33  2  0  0  0  0
  8  9  1  0  0  0  0
  9 17  1  0  0  0  0
  9 10  2  0  0  0  0
 18 19  1  0  0  0  0
 19 30  1  0  0  0  0
 19 20  2  0  0  0  0
 21 22  1  0  0  0  0
 22 23  2  0  0  0  0
 22 24  1  0  0  0  0
 31 34  1  0  0  0  0
  8 11  1  0  0  0  0
 40 41  1  0  0  0  0
 18 21  1  0  0  0  0
 30 31  1  0  0  0  0
  7  8  1  0  0  0  0
 17 18  1  0  0  0  0
  3  4  1  0  0  0  0
  3  5  1  0  0  0  0
  3  6  1  0  0  0  0
 34 37  1  0  0  0  0
 34 38  1  0  0  0  0
 34 39  1  0  0  0  0
 11 14  1  0  0  0  0
 11 15  1  0  0  0  0
 11 16  1  0  0  0  0
 41 43  1  0  0  0  0
 41 44  1  0  0  0  0
 41 45  1  0  0  0  0
 21 27  1  0  0  0  0
 21 28  1  0  0  0  0
 31 36  1  0  0  0  0
  8 13  1  0  0  0  0
 18 26  1  0  0  0  0
 40 42  1  0  0  0  0
  7 12  1  0  0  0  0
 30 35  1  0  0  0  0
 17 25  1  0  0  0  0
 24 29  1  0  0  0  0
M  END
$$$$

  -OEChem-05262214473D

 45 44  0     1  0  0  0  0  0999 V2000
   -2.2987    4.1032   -0.3022 C   0  0  0  0  0  0  0  0  0  0  0  0
   -1.8049    3.7117   -1.3532 O   0  0  0  0  0  0  0  0  0  0  0  0
   -3.0791    5.3755   -0.2846 C   0  0  0  0  0  0  0  0  0  0  0  0
   -2.4478    6.2532   -0.0717 H   0  0  0  0  0  0  0  0  0  0  0  0
   -3.5571    5.5891   -1.2541 H   0  0  0  0  0  0  0  0  0  0  0  0
   -3.8940    5.4184    0.4556 H   0  0  0  0  0  0  0  0  0  0  0  0
   -2.2137    3.4712    0.9275 N   0  0  0  0  0  0  0  0  0  0  0  0
   -1.5102    2.2327    1.1338 C   0  0  2  0  0  0  0  0  0  0  0  0
   -1.3539    1.5497   -0.2184 C   0  0  0  0  0  0  0  0  0  0  0  0
   -2.0852    1.7861   -1.1778 O   0  0  0  0  0  0  0  0  0  0  0  0
   -2.2477    1.3342    2.1145 C   0  0  0  0  0  0  0  0  0  0  0  0
   -2.6724    3.9052    1.7265 H   0  0  0  0  0  0  0  0  0  0  0  0
   -0.5220    2.4922    1.5290 H   0  0  0  0  0  0  0  0  0  0  0  0
   -3.2400    1.0636    1.7358 H   0  0  0  0  0  0  0  0  0  0  0  0
   -1.6970    0.4046    2.2923 H   0  0  0  0  0  0  0  0  0  0  0  0
   -2.3854    1.8384    3.0772 H   0  0  0  0  0  0  0  0  0  0  0  0
   -0.3283    0.6116   -0.2182 N   0  0  0  0  0  0  0  0  0  0  0  0
    0.0090   -0.1762   -1.3759 C   0  0  2  0  0  0  0  0  0  0  0  0
   -1.2898   -0.6927   -1.9819 C   0  0  0  0  0  0  0  0  0  0  0  0
   -1.8997   -0.0955   -2.8664 O   0  0  0  0  0  0  0  0  0  0  0  0
    0.9423   -1.3325   -1.0268 C   0  0  0  0  0  0  0  0  0  0  0  0
    2.3127   -0.8326   -0.6409 C   0  0  0  0  0  0  0  0  0  0  0  0
    2.8078    0.2033   -1.0656 O   0  0  0  0  0  0  0  0  0  0  0  0
    2.9489   -1.6667    0.2183 O   0  0  0  0  0  0  0  0  0  0  0  0
    0.2381    0.4970    0.6194 H   0  0  0  0  0  0  0  0  0  0  0  0
    0.4846    0.5103   -2.0866 H   0  0  0  0  0  0  0  0  0  0  0  0
    0.5633   -1.9022   -0.1690 H   0  0  0  0  0  0  0  0  0  0  0  0
    1.0343   -2.0567   -1.8453 H   0  0  0  0  0  0  0  0  0  0  0  0
    3.8494   -1.3808    0.4828 H   0  0  0  0  0  0  0  0  0  0  0  0
   -1.6615   -1.9209   -1.4531 N   0  0  0  0  0  0  0  0  0  0  0  0
   -2.8495   -2.6244   -1.8767 C   0  0  2  0  0  0  0  0  0  0  0  0
   -2.6466   -3.0630   -3.3210 C   0  0  0  0  0  0  0  0  0  0  0  0
   -1.8488   -2.5187   -4.0815 O   0  0  0  0  0  0  0  0  0  0  0  0
   -4.0872   -1.7510   -1.7426 C   0  0  0  0  0  0  0  0  0  0  0  0
   -1.0741   -2.3420   -0.7393 H   0  0  0  0  0  0  0  0  0  0  0  0
   -2.9395   -3.5080   -1.2353 H   0  0  0  0  0  0  0  0  0  0  0  0
   -4.0154   -0.8607   -2.3780 H   0  0  0  0  0  0  0  0  0  0  0  0
   -4.9907   -2.2951   -2.0371 H   0  0  0  0  0  0  0  0  0  0  0  0
   -4.2149   -1.4121   -0.7089 H   0  0  0  0  0  0  0  0  0  0  0  0
   -3.4921   -4.1056   -3.6735 N   0  0  0  0  0  0  0  0  0  0  0  0
   -3.5001   -4.6904   -4.9941 C   0  0  0  0  0  0  0  0  0  0  0  0
   -4.1082   -4.5079   -2.9732 H   0  0  0  0  0  0  0  0  0  0  0  0
   -4.2540   -4.1845   -5.6151 H   0  0  0  0  0  0  0  0  0  0  0  0
   -2.5076   -4.5722   -5.4533 H   0  0  0  0  0  0  0  0  0  0  0  0
   -3.7446   -5.7603   -4.9196 H   0  0  0  0  0  0  0  0  0  0  0  0
  1  3  1  0  0  0  0
  1  7  1  0  0  0  0
  1  2  2  0  0  0  0
 31 32  1  0  0  0  0
 32 40  1  0  0  0  0
 32 33  2  0  0  0  0
  8  9  1  0  0  0  0
  9 17  1  0  0  0  0
  9 10  2  0  0  0  0
 18 19  1  0  0  0  0
 19 30  1  0  0  0  0
 19 20  2  0  0  0  0
 21 22  1  0  0  0  0
 22 23  2  0  0  0  0
 22 24  1  0  0  0  0
 31 34  1  0  0  0  0
  8 11  1  0  0  0  0
 40 41  1  0  0  0  0
 18 21  1  0  0  0  0
 30 31  1  0  0  0  0
  7  8  1  0  0  0  0
 17 18  1  0  0  0  0
  3  4  1  0  0  0  0
  3  5  1  0  0  0  0
  3  6  1  0  0  0  0
 34 37  1  0  0  0  0
 34 38  1  0  0  0  0
 34 39  1  0  0  0  0
 11 14  1  0  0  0  0
 11 15  1  0  0  0  0
 11 16  1  0  0  0  0
 41 43  1  0  0  0  0
 41 44  1  0  0  0  0
 41 45  1  0  0  0  0
 21 27  1  0  0  0  0
 21 28  1  0  0  0  0
 31 36  1  0  0  0  0
  8 13  1  0  0  0  0
 18 26  1  0  0  0  0
 40 42  1  0  0  0  0
  7 12  1  0  0  0  0
 30 35  1  0  0  0  0
 17 25  1  0  0  0  0
 24 29  1  0  0  0  0
M  END
$$$$

  -OEChem-05262214473D

 45 44  0     1  0  0  0  0  0999 V2000
   -2.2987    4.1032   -0.3022 C   0  0  0  0  0  0  0  0  0  0  0  0
   -1.8049    3.7117   -1.3532 O   0  0  0  0  0  0  0  0  0  0  0  0
   -3.0791    5.3755   -0.2846 C   0  0  0  0  0  0  0  0  0  0  0  0
   -2.4478    6.2532   -0.0717 H   0  0  0  0  0  0  0  0  0  0  0  0
   -3.5571    5.5891   -1.2541 H   0  0  0  0  0  0  0  0  0  0  0  0
   -3.8940    5.4184    0.4556 H   0  0  0  0  0  0  0  0  0  0  0  0
   -2.2137    3.4712    0.9275 N   0  0  0  0  0  0  0  0  0  0  0  0
   -1.5102    2.2327    1.1338 C   0  0  2  0  0  0  0  0  0  0  0  0
   -1.3539    1.5497   -0.2184 C   0  0  0  0  0  0  0  0  0  0  0  0
   -2.0852    1.7861   -1.1778 O   0  0  0  0  0  0  0  0  0  0  0  0
   -2.2477    1.3342    2.1145 C   0  0  0  0  0  0  0  0  0  0  0  0
   -2.6724    3.9052    1.7265 H   0  0  0  0  0  0  0  0  0  0  0  0
   -0.5220    2.4922    1.5290 H   0  0  0  0  0  0  0  0  0  0  0  0
   -3.2400    1.0636    1.7358 H   0  0  0  0  0  0  0  0  0  0  0  0
   -1.6970    0.4046    2.2923 H   0  0  0  0  0  0  0  0  0  0  0  0
   -2.3854    1.8384    3.0772 H   0  0  0  0  0  0  0  0  0  0  0  0
   -0.3283    0.6116   -0.2182 N   0  0  0  0  0  0  0  0  0  0  0  0
    0.0090   -0.1762   -1.3759 C   0  0  2  0  0  0  0  0  0  0  0  0
   -1.2898   -0.6927   -1.9819 C   0  0  0  0  0  0  0  0  0  0  0  0
   -1.7593   -0.2559   -3.0307 O   0  0  0  0  0  0  0  0  0  0  0  0
    0.9423   -1.3325   -1.0268 C   0  0  0  0  0  0  0  0  0  0  0  0
    2.3127   -0.8326   -0.6409 C   0  0  0  0  0  0  0  0  0  0  0  0
    2.8078    0.2033   -1.0656 O   0  0  0  0  0  0  0  0  0  0  0  0
    2.9489   -1.6667    0.2183 O   0  0  0  0  0  0  0  0  0  0  0  0
    0.2381    0.4970    0.6194 H   0  0  0  0  0  0  0  0  0  0  0  0
    0.4846    0.5103   -2.0866 H   0  0  0  0  0  0  0  0  0  0  0  0
    0.5633   -1.9022   -0.1690 H   0  0  0  0  0  0  0  0  0  0  0  0
    1.0343   -2.0567   -1.8453 H   0  0  0  0  0  0  0  0  0  0  0  0
    3.8494   -1.3808    0.4828 H   0  0  0  0  0  0  0  0  0  0  0  0
   -1.8368   -1.7301   -1.2398 N   0  0  0  0  0  0  0  0  0  0  0  0
   -3.0610   -2.3973   -1.6172 C   0  0  2  0  0  0  0  0  0  0  0  0
   -2.7994   -3.1668   -2.9052 C   0  0  0  0  0  0  0  0  0  0  0  0
   -1.8896   -2.8846   -3.6822 O   0  0  0  0  0  0  0  0  0  0  0  0
   -4.1988   -1.4047   -1.7986 C   0  0  0  0  0  0  0  0  0  0  0  0
   -1.3569   -2.0325   -0.3972 H   0  0  0  0  0  0  0  0  0  0  0  0
   -3.2986   -3.1013   -0.8123 H   0  0  0  0  0  0  0  0  0  0  0  0
   -3.9788   -0.6911   -2.6010 H   0  0  0  0  0  0  0  0  0  0  0  0
   -5.1328   -1.9147   -2.0568 H   0  0  0  0  0  0  0  0  0  0  0  0
   -4.3658   -0.8313   -0.8804 H   0  0  0  0  0  0  0  0  0  0  0  0
   -3.7278   -4.1786   -3.1063 N   0  0  0  0  0  0  0  0  0  0  0  0
   -3.7010   -5.0426   -4.2634 C   0  0  0  0  0  0  0  0  0  0  0  0
   -4.4368   -4.3537   -2.4004 H   0  0  0  0  0  0  0  0  0  0  0  0
   -4.3435   -4.6216   -5.0508 H   0  0  0  0  0  0  0  0  0  0  0  0
   -2.6694   -5.1237   -4.6365 H   0  0  0  0  0  0  0  0  0  0  0  0
   -4.0695   -6.0407   -3.9842 H   0  0  0  0  0  0  0  0  0  0  0  0
  1  3  1  0  0  0  0
  1  7  1  0  0  0  0
  1  2  2  0  0  0  0
 31 32  1  0  0  0  0
 32 40  1  0  0  0  0
 32 33  2  0  0  0  0
  8  9  1  0  0  0  0
  9 17  1  0  0  0  0
  9 10  2  0  0  0  0
 18 19  1  0  0  0  0
 19 30  1  0  0  0  0
 19 20  2  0  0  0  0
 21 22  1  0  0  0  0
 22 23  2  0  0  0  0
 22 24  1  0  0  0  0
 31 34  1  0  0  0  0
  8 11  1  0  0  0  0
 40 41  1  0  0  0  0
 18 21  1  0  0  0  0
 30 31  1  0  0  0  0
  7  8  1  0  0  0  0
 17 18  1  0  0  0  0
  3  4  1  0  0  0  0
  3  5  1  0  0  0  0
  3  6  1  0  0  0  0
 34 37  1  0  0  0  0
 34 38  1  0  0  0  0
 34 39  1  0  0  0  0
 11 14  1  0  0  0  0
 11 15  1  0  0  0  0
 11 16  1  0  0  0  0
 41 43  1  0  0  0  0
 41 44  1  0  0  0  0
 41 45  1  0  0  0  0
 21 27  1  0  0  0  0
 21 28  1  0  0  0  0
 31 36  1  0  0  0  0
  8 13  1  0  0  0  0
 18 26  1  0  0  0  0
 40 42  1  0  0  0  0
  7 12  1  0  0  0  0
 30 35  1  0  0  0  0
 17 25  1  0  0  0  0
 24 29  1  0  0  0  0
M  END
$$$$

  -OEChem-05262214473D

 45 44  0     1  0  0  0  0  0999 V2000
   -2.2987    4.1032   -0.3022 C   0  0  0  0  0  0  0  0  0  0  0  0
   -1.8049    3.7117   -1.3532 O   0  0  0  0  0  0  0  0  0  0  0  0
   -3.0791    5.3755   -0.2846 C   0  0  0  0  0  0  0  0  0  0  0  0
   -2.4478    6.2532   -0.0717 H   0  0  0  0  0  0  0  0  0  0  0  0
   -3.5571    5.5891   -1.2541 H   0  0  0  0  0  0  0  0  0  0  0  0
   -3.8940    5.4184    0.4556 H   0  0  0  0  0  0  0  0  0  0  0  0
   -2.2137    3.4712    0.9275 N   0  0  0  0  0  0  0  0  0  0  0  0
   -1.5102    2.2327    1.1338 C   0  0  2  0  0  0  0  0  0  0  0  0
   -1.3539    1.5497   -0.2184 C   0  0  0  0  0  0  0  0  0  0  0  0
   -2.0852    1.7861   -1.1778 O   0  0  0  0  0  0  0  0  0  0  0  0
   -2.2477    1.3342    2.1145 C   0  0  0  0  0  0  0  0  0  0  0  0
   -2.6724    3.9052    1.7265 H   0  0  0  0  0  0  0  0  0  0  0  0
   -0.5220    2.4922    1.5290 H   0  0  0  0  0  0  0  0  0  0  0  0
   -3.2400    1.0636    1.7358 H   0  0  0  0  0  0  0  0  0  0  0  0
   -1.6970    0.4046    2.2923 H   0  0  0  0  0  0  0  0  0  0  0  0
   -2.3854    1.8384    3.0772 H   0  0  0  0  0  0  0  0  0  0  0  0
   -0.3283    0.6116   -0.2182 N   0  0  0  0  0  0  0  0  0  0  0  0
    0.0090   -0.1762   -1.3759 C   0  0  2  0  0  0  0  0  0  0  0  0
   -1.2898   -0.6927   -1.9819 C   0  0  0  0  0  0  0  0  0  0  0  0
   -1.6257   -0.4616   -3.1416 O   0  0  0  0  0  0  0  0  0  0  0  0
    0.9423   -1.3325   -1.0268 C   0  0  0  0  0  0  0  0  0  0  0  0
    2.3127   -0.8326   -0.6409 C   0  0  0  0  0  0  0  0  0  0  0  0
    2.8078    0.2033   -1.0656 O   0  0  0  0  0  0  0  0  0  0  0  0
    2.9489   -1.6667    0.2183 O   0  0  0  0  0  0  0  0  0  0  0  0
    0.2381    0.4970    0.6194 H   0  0  0  0  0  0  0  0  0  0  0  0
    0.4846    0.5103   -2.0866 H   0  0  0  0  0  0  0  0  0  0  0  0
    0.5633   -1.9022   -0.1690 H   0  0  0  0  0  0  0  0  0  0  0  0
    1.0343   -2.0567   -1.8453 H   0  0  0  0  0  0  0  0  0  0  0  0
    3.8494   -1.3808    0.4828 H   0  0  0  0  0  0  0  0  0  0  0  0
   -2.0053   -1.4808   -1.0913 N   0  0  0  0  0  0  0  0  0  0  0  0
   -3.2645   -2.0988   -1.4353 C   0  0  2  0  0  0  0  0  0  0  0  0
   -2.9941   -3.1596   -2.4941 C   0  0  0  0  0  0  0  0  0  0  0  0
   -2.0018   -3.1456   -3.2195 O   0  0  0  0  0  0  0  0  0  0  0  0
   -4.2660   -1.0711   -1.9389 C   0  0  0  0  0  0  0  0  0  0  0  0
   -1.6281   -1.6289   -0.1598 H   0  0  0  0  0  0  0  0  0  0  0  0
   -3.6407   -2.5782   -0.5249 H   0  0  0  0  0  0  0  0  0  0  0  0
   -3.9064   -0.5802   -2.8506 H   0  0  0  0  0  0  0  0  0  0  0  0
   -5.2291   -1.5369   -2.1722 H   0  0  0  0  0  0  0  0  0  0  0  0
   -4.4368   -0.2926   -1.1875 H   0  0  0  0  0  0  0  0  0  0  0  0
   -4.0126   -4.0998   -2.5630 N   0  0  0  0  0  0  0  0  0  0  0  0
   -3.9954   -5.2008   -3.4976 C   0  0  0  0  0  0  0  0  0  0  0  0
   -4.7886   -4.0446   -1.9099 H   0  0  0  0  0  0  0  0  0  0  0  0
   -4.5244   -4.9101   -4.4172 H   0  0  0  0  0  0  0  0  0  0  0  0
   -2.9541   -5.4596   -3.7400 H   0  0  0  0  0  0  0  0  0  0  0  0
   -4.4944   -6.0716   -3.0474 H   0  0  0  0  0  0  0  0  0  0  0  0
  1  3  1  0  0  0  0
  1  7  1  0  0  0  0
  1  2  2  0  0  0  0
 31 32  1  0  0  0  0
 32 40  1  0  0  0  0
 32 33  2  0  0  0  0
  8  9  1  0  0  0  0
  9 17  1  0  0  0  0
  9 10  2  0  0  0  0
 18 19  1  0  0  0  0
 19 30  1  0  0  0  0
 19 20  2  0  0  0  0
 21 22  1  0  0  0  0
 22 23  2  0  0  0  0
 22 24  1  0  0  0  0
 31 34  1  0  0  0  0
  8 11  1  0  0  0  0
 40 41  1  0  0  0  0
 18 21  1  0  0  0  0
 30 31  1  0  0  0  0
  7  8  1  0  0  0  0
 17 18  1  0  0  0  0
  3  4  1  0  0  0  0
  3  5  1  0  0  0  0
  3  6  1  0  0  0  0
 34 37  1  0  0  0  0
 34 38  1  0  0  0  0
 34 39  1  0  0  0  0
 11 14  1  0  0  0  0
 11 15  1  0  0  0  0
 11 16  1  0  0  0  0
 41 43  1  0  0  0  0
 41 44  1  0  0  0  0
 41 45  1  0  0  0  0
 21 27  1  0  0  0  0
 21 28  1  0  0  0  0
 31 36  1  0  0  0  0
  8 13  1  0  0  0  0
 18 26  1  0  0  0  0
 40 42  1  0  0  0  0
  7 12  1  0  0  0  0
 30 35  1  0  0  0  0
 17 25  1  0  0  0  0
 24 29  1  0  0  0  0
M  END
$$$$

  -OEChem-05262214473D

 45 44  0     1  0  0  0  0  0999 V2000
   -2.2987    4.1032   -0.3022 C   0  0  0  0  0  0  0  0  0  0  0  0
   -1.8049    3.7117   -1.3532 O   0  0  0  0  0  0  0  0  0  0  0  0
   -3.0791    5.3755   -0.2846 C   0  0  0  0  0  0  0  0  0  0  0  0
   -2.4478    6.2532   -0.0717 H   0  0  0  0  0  0  0  0  0  0  0  0
   -3.5571    5.5891   -1.2541 H   0  0  0  0  0  0  0  0  0  0  0  0
   -3.8940    5.4184    0.4556 H   0  0  0  0  0  0  0  0  0  0  0  0
   -2.2137    3.4712    0.9275 N   0  0  0  0  0  0  0  0  0  0  0  0
   -1.5102    2.2327    1.1338 C   0  0  2  0  0  0  0  0  0  0  0  0
   -1.3539    1.5497   -0.2184 C   0  0  0  0  0  0  0  0  0  0  0  0
   -2.0852    1.7861   -1.1778 O   0  0  0  0  0  0  0  0  0  0  0  0
   -2.2477    1.3342    2.1145 C   0  0  0  0  0  0  0  0  0  0  0  0
   -2.6724    3.9052    1.7265 H   0  0  0  0  0  0  0  0  0  0  0  0
   -0.5220    2.4922    1.5290 H   0  0  0  0  0  0  0  0  0  0  0  0
   -3.2400    1.0636    1.7358 H   0  0  0  0  0  0  0  0  0  0  0  0
   -1.6970    0.4046    2.2923 H   0  0  0  0  0  0  0  0  0  0  0  0
   -2.3854    1.8384    3.0772 H   0  0  0  0  0  0  0  0  0  0  0  0
   -0.3283    0.6116   -0.2182 N   0  0  0  0  0  0  0  0  0  0  0  0
    0.0090   -0.1762   -1.3759 C   0  0  2  0  0  0  0  0  0  0  0  0
   -1.2898   -0.6927   -1.9819 C   0  0  0  0  0  0  0  0  0  0  0  0
   -1.5082   -0.6985   -3.1916 O   0  0  0  0  0  0  0  0  0  0  0  0
    0.9423   -1.3325   -1.0268 C   0  0  0  0  0  0  0  0  0  0  0  0
    2.3127   -0.8326   -0.6409 C   0  0  0  0  0  0  0  0  0  0  0  0
    2.8078    0.2033   -1.0656 O   0  0  0  0  0  0  0  0  0  0  0  0
    2.9489   -1.6667    0.2183 O   0  0  0  0  0  0  0  0  0  0  0  0
    0.2381    0.4970    0.6194 H   0  0  0  0  0  0  0  0  0  0  0  0
    0.4846    0.5103   -2.0866 H   0  0  0  0  0  0  0  0  0  0  0  0
    0.5633   -1.9022   -0.1690 H   0  0  0  0  0  0  0  0  0  0  0  0
    1.0343   -2.0567   -1.8453 H   0  0  0  0  0  0  0  0  0  0  0  0
    3.8494   -1.3808    0.4828 H   0  0  0  0  0  0  0  0  0  0  0  0
   -2.1554   -1.1898   -1.0176 N   0  0  0  0  0  0  0  0  0  0  0  0
   -3.4464   -1.7494   -1.3433 C   0  0  2  0  0  0  0  0  0  0  0  0
   -3.2175   -3.0419   -2.1156 C   0  0  0  0  0  0  0  0  0  0  0  0
   -2.1775   -3.2841   -2.7247 O   0  0  0  0  0  0  0  0  0  0  0  0
   -4.2842   -0.7729   -2.1539 C   0  0  0  0  0  0  0  0  0  0  0  0
   -1.8694   -1.1587   -0.0434 H   0  0  0  0  0  0  0  0  0  0  0  0
   -3.9425   -1.9742   -0.3928 H   0  0  0  0  0  0  0  0  0  0  0  0
   -3.8032   -0.5357   -3.1098 H   0  0  0  0  0  0  0  0  0  0  0  0
   -5.2732   -1.1875   -2.3756 H   0  0  0  0  0  0  0  0  0  0  0  0
   -4.4228    0.1673   -1.6093 H   0  0  0  0  0  0  0  0  0  0  0  0
   -4.3273   -3.8744   -2.0806 N   0  0  0  0  0  0  0  0  0  0  0  0
   -4.3633   -5.1543   -2.7488 C   0  0  0  0  0  0  0  0  0  0  0  0
   -5.1396   -3.6015   -1.5352 H   0  0  0  0  0  0  0  0  0  0  0  0
   -4.7845   -5.0303   -3.7573 H   0  0  0  0  0  0  0  0  0  0  0  0
   -3.3424   -5.5569   -2.8249 H   0  0  0  0  0  0  0  0  0  0  0  0
   -4.9902   -5.8510   -2.1729 H   0  0  0  0  0  0  0  0  0  0  0  0
  1  3  1  0  0  0  0
  1  7  1  0  0  0  0
  1  2  2  0  0  0  0
 31 32  1  0  0  0  0
 32 40  1  0  0  0  0
 32 33  2  0  0  0  0
  8  9  1  0  0  0  0
  9 17  1  0  0  0  0
  9 10  2  0  0  0  0
 18 19  1  0  0  0  0
 19 30  1  0  0  0  0
 19 20  2  0  0  0  0
 21 22  1  0  0  0  0
 22 23  2  0  0  0  0
 22 24  1  0  0  0  0
 31 34  1  0  0  0  0
  8 11  1  0  0  0  0
 40 41  1  0  0  0  0
 18 21  1  0  0  0  0
 30 31  1  0  0  0  0
  7  8  1  0  0  0  0
 17 18  1  0  0  0  0
  3  4  1  0  0  0  0
  3  5  1  0  0  0  0
  3  6  1  0  0  0  0
 34 37  1  0  0  0  0
 34 38  1  0  0  0  0
 34 39  1  0  0  0  0
 11 14  1  0  0  0  0
 11 15  1  0  0  0  0
 11 16  1  0  0  0  0
 41 43  1  0  0  0  0
 41 44  1  0  0  0  0
 41 45  1  0  0  0  0
 21 27  1  0  0  0  0
 21 28  1  0  0  0  0
 31 36  1  0  0  0  0
  8 13  1  0  0  0  0
 18 26  1  0  0  0  0
 40 42  1  0  0  0  0
  7 12  1  0  0  0  0
 30 35  1  0  0  0  0
 17 25  1  0  0  0  0
 24 29  1  0  0  0  0
M  END
$$$$

  -OEChem-05262214473D

 45 44  0     1  0  0  0  0  0999 V2000
   -2.2987    4.1032   -0.3022 C   0  0  0  0  0  0  0  0  0  0  0  0
   -1.8049    3.7117   -1.3532 O   0  0  0  0  0  0  0  0  0  0  0  0
   -3.0791    5.3755   -0.2846 C   0  0  0  0  0  0  0  0  0  0  0  0
   -2.4478    6.2532   -0.0717 H   0  0  0  0  0  0  0  0  0  0  0  0
   -3.5571    5.5891   -1.2541 H   0  0  0  0  0  0  0  0  0  0  0  0
   -3.8940    5.4184    0.4556 H   0  0  0  0  0  0  0  0  0  0  0  0
   -2.2137    3.4712    0.9275 N   0  0  0  0  0  0  0  0  0  0  0  0
   -1.5102    2.2327    1.1338 C   0  0  2  0  0  0  0  0  0  0  0  0
   -1.3539    1.5497   -0.2184 C   0  0  0  0  0  0  0  0  0  0  0  0
   -2.0852    1.7861   -1.1778 O   0  0  0  0  0  0  0  0  0  0  0  0
   -2.2477    1.3342    2.1145 C   0  0  0  0  0  0  0  0  0  0  0  0
   -2.6724    3.9052    1.7265 H   0  0  0  0  0  0  0  0  0  0  0  0
   -0.5220    2.4922    1.5290 H   0  0  0  0  0  0  0  0  0  0  0  0
   -3.2400    1.0636    1.7358 H   0  0  0  0  0  0  0  0  0  0  0  0
   -1.6970    0.4046    2.2923 H   0  0  0  0  0  0  0  0  0  0  0  0
   -2.3854    1.8384    3.0772 H   0  0  0  0  0  0  0  0  0  0  0  0
   -0.3283    0.6116   -0.2182 N   0  0  0  0  0  0  0  0  0  0  0  0
    0.0090   -0.1762   -1.3759 C   0  0  2  0  0  0  0  0  0  0  0  0
   -1.2898   -0.6927   -1.9819 C   0  0  0  0  0  0  0  0  0  0  0  0
   -1.4146   -0.9505   -3.1774 O   0  0  0  0  0  0  0  0  0  0  0  0
    0.9423   -1.3325   -1.0268 C   0  0  0  0  0  0  0  0  0  0  0  0
    2.3127   -0.8326   -0.6409 C   0  0  0  0  0  0  0  0  0  0  0  0
    2.8078    0.2033   -1.0656 O   0  0  0  0  0  0  0  0  0  0  0  0
    2.9489   -1.6667    0.2183 O   0  0  0  0  0  0  0  0  0  0  0  0
    0.2381    0.4970    0.6194 H   0  0  0  0  0  0  0  0  0  0  0  0
    0.4846    0.5103   -2.0866 H   0  0  0  0  0  0  0  0  0  0  0  0
    0.5633   -1.9022   -0.1690 H   0  0  0  0  0  0  0  0  0  0  0  0
    1.0343   -2.0567   -1.8453 H   0  0  0  0  0  0  0  0  0  0  0  0
    3.8494   -1.3808    0.4828 H   0  0  0  0  0  0  0  0  0  0  0  0
   -2.2769   -0.8770   -1.0238 N   0  0  0  0  0  0  0  0  0  0  0  0
   -3.5942   -1.3729   -1.3474 C   0  0  2  0  0  0  0  0  0  0  0  0
   -3.4543   -2.8217   -1.7956 C   0  0  0  0  0  0  0  0  0  0  0  0
   -2.4050   -3.2906   -2.2317 O   0  0  0  0  0  0  0  0  0  0  0  0
   -4.2523   -0.5304   -2.4290 C   0  0  0  0  0  0  0  0  0  0  0  0
   -2.0642   -0.6541   -0.0559 H   0  0  0  0  0  0  0  0  0  0  0  0
   -4.1834   -1.3307   -0.4249 H   0  0  0  0  0  0  0  0  0  0  0  0
   -3.6761   -0.5605   -3.3610 H   0  0  0  0  0  0  0  0  0  0  0  0
   -5.2619   -0.8904   -2.6529 H   0  0  0  0  0  0  0  0  0  0  0  0
   -4.3251    0.5170   -2.1169 H   0  0  0  0  0  0  0  0  0  0  0  0
   -4.6505   -3.5179   -1.6919 N   0  0  0  0  0  0  0  0  0  0  0  0
   -4.7795   -4.9063   -2.0680 C   0  0  0  0  0  0  0  0  0  0  0  0
   -5.4660   -3.0547   -1.3018 H   0  0  0  0  0  0  0  0  0  0  0  0
   -5.1060   -4.9740   -3.1163 H   0  0  0  0  0  0  0  0  0  0  0  0
   -3.8078   -5.4089   -1.9536 H   0  0  0  0  0  0  0  0  0  0  0  0
   -5.5230   -5.3939   -1.4204 H   0  0  0  0  0  0  0  0  0  0  0  0
  1  3  1  0  0  0  0
  1  7  1  0  0  0  0
  1  2  2  0  0  0  0
 31 32  1  0  0  0  0
 32 40  1  0  0  0  0
 32 33  2  0  0  0  0
  8  9  1  0  0  0  0
  9 17  1  0  0  0  0
  9 10  2  0  0  0  0
 18 19  1  0  0  0  0
 19 30  1  0  0  0  0
 19 20  2  0  0  0  0
 21 22  1  0  0  0  0
 22 23  2  0  0  0  0
 22 24  1  0  0  0  0
 31 34  1  0  0  0  0
  8 11  1  0  0  0  0
 40 41  1  0  0  0  0
 18 21  1  0  0  0  0
 30 31  1  0  0  0  0
  7  8  1  0  0  0  0
 17 18  1  0  0  0  0
  3  4  1  0  0  0  0
  3  5  1  0  0  0  0
  3  6  1  0  0  0  0
 34 37  1  0  0  0  0
 34 38  1  0  0  0  0
 34 39  1  0  0  0  0
 11 14  1  0  0  0  0
 11 15  1  0  0  0  0
 11 16  1  0  0  0  0
 41 43  1  0  0  0  0
 41 44  1  0  0  0  0
 41 45  1  0  0  0  0
 21 27  1  0  0  0  0
 21 28  1  0  0  0  0
 31 36  1  0  0  0  0
  8 13  1  0  0  0  0
 18 26  1  0  0  0  0
 40 42  1  0  0  0  0
  7 12  1  0  0  0  0
 30 35  1  0  0  0  0
 17 25  1  0  0  0  0
 24 29  1  0  0  0  0
M  END
$$$$

  -OEChem-05262214473D

 45 44  0     1  0  0  0  0  0999 V2000
   -2.2987    4.1032   -0.3022 C   0  0  0  0  0  0  0  0  0  0  0  0
   -1.8049    3.7117   -1.3532 O   0  0  0  0  0  0  0  0  0  0  0  0
   -3.0791    5.3755   -0.2846 C   0  0  0  0  0  0  0  0  0  0  0  0
   -2.4478    6.2532   -0.0717 H   0  0  0  0  0  0  0  0  0  0  0  0
   -3.5571    5.5891   -1.2541 H   0  0  0  0  0  0  0  0  0  0  0  0
   -3.8940    5.4184    0.4556 H   0  0  0  0  0  0  0  0  0  0  0  0
   -2.2137    3.4712    0.9275 N   0  0  0  0  0  0  0  0  0  0  0  0
   -1.5102    2.2327    1.1338 C   0  0  2  0  0  0  0  0  0  0  0  0
   -1.3539    1.5497   -0.2184 C   0  0  0  0  0  0  0  0  0  0  0  0
   -2.0852    1.7861   -1.1778 O   0  0  0  0  0  0  0  0  0  0  0  0
   -2.2477    1.3342    2.1145 C   0  0  0  0  0  0  0  0  0  0  0  0
   -2.6724    3.9052    1.7265 H   0  0  0  0  0  0  0  0  0  0  0  0
   -0.5220    2.4922    1.5290 H   0  0  0  0  0  0  0  0  0  0  0  0
   -3.2400    1.0636    1.7358 H   0  0  0  0  0  0  0  0  0  0  0  0
   -1.6970    0.4046    2.2923 H   0  0  0  0  0  0  0  0  0  0  0  0
   -2.3854    1.8384    3.0772 H   0  0  0  0  0  0  0  0  0  0  0  0
   -0.3283    0.6116   -0.2182 N   0  0  0  0  0  0  0  0  0  0  0  0
    0.0090   -0.1762   -1.3759 C   0  0  2  0  0  0  0  0  0  0  0  0
   -1.2898   -0.6927   -1.9819 C   0  0  0  0  0  0  0  0  0  0  0  0
   -1.3515   -1.2004   -3.0998 O   0  0  0  0  0  0  0  0  0  0  0  0
    0.9423   -1.3325   -1.0268 C   0  0  0  0  0  0  0  0  0  0  0  0
    2.3127   -0.8326   -0.6409 C   0  0  0  0  0  0  0  0  0  0  0  0
    2.8078    0.2033   -1.0656 O   0  0  0  0  0  0  0  0  0  0  0  0
    2.9489   -1.6667    0.2183 O   0  0  0  0  0  0  0  0  0  0  0  0
    0.2381    0.4970    0.6194 H   0  0  0  0  0  0  0  0  0  0  0  0
    0.4846    0.5103   -2.0866 H   0  0  0  0  0  0  0  0  0  0  0  0
    0.5633   -1.9022   -0.1690 H   0  0  0  0  0  0  0  0  0  0  0  0
    1.0343   -2.0567   -1.8453 H   0  0  0  0  0  0  0  0  0  0  0  0
    3.8494   -1.3808    0.4828 H   0  0  0  0  0  0  0  0  0  0  0  0
   -2.3615   -0.5637   -1.1095 N   0  0  0  0  0  0  0  0  0  0  0  0
   -3.6978   -0.9949   -1.4475 C   0  0  2  0  0  0  0  0  0  0  0  0
   -3.6885   -2.5140   -1.5559 C   0  0  0  0  0  0  0  0  0  0  0  0
   -2.6687   -3.1647   -1.7740 O   0  0  0  0  0  0  0  0  0  0  0  0
   -4.1723   -0.3602   -2.7454 C   0  0  0  0  0  0  0  0  0  0  0  0
   -2.1994   -0.1493   -0.1964 H   0  0  0  0  0  0  0  0  0  0  0  0
   -4.3471   -0.6913   -0.6191 H   0  0  0  0  0  0  0  0  0  0  0  0
   -3.5339   -0.6529   -3.5870 H   0  0  0  0  0  0  0  0  0  0  0  0
   -5.1961   -0.6657   -2.9854 H   0  0  0  0  0  0  0  0  0  0  0  0
   -4.1501    0.7327   -2.6758 H   0  0  0  0  0  0  0  0  0  0  0  0
   -4.9600   -3.0544   -1.4236 N   0  0  0  0  0  0  0  0  0  0  0  0
   -5.2158   -4.4737   -1.5017 C   0  0  0  0  0  0  0  0  0  0  0  0
   -5.7454   -2.4415   -1.2257 H   0  0  0  0  0  0  0  0  0  0  0  0
   -5.4670   -4.7451   -2.5377 H   0  0  0  0  0  0  0  0  0  0  0  0
   -4.3185   -5.0259   -1.1855 H   0  0  0  0  0  0  0  0  0  0  0  0
   -6.0567   -4.7315   -0.8411 H   0  0  0  0  0  0  0  0  0  0  0  0
  1  3  1  0  0  0  0
  1  7  1  0  0  0  0
  1  2  2  0  0  0  0
 31 32  1  0  0  0  0
 32 40  1  0  0  0  0
 32 33  2  0  0  0  0
  8  9  1  0  0  0  0
  9 17  1  0  0  0  0
  9 10  2  0  0  0  0
 18 19  1  0  0  0  0
 19 30  1  0  0  0  0
 19 20  2  0  0  0  0
 21 22  1  0  0  0  0
 22 23  2  0  0  0  0
 22 24  1  0  0  0  0
 31 34  1  0  0  0  0
  8 11  1  0  0  0  0
 40 41  1  0  0  0  0
 18 21  1  0  0  0  0
 30 31  1  0  0  0  0
  7  8  1  0  0  0  0
 17 18  1  0  0  0  0
  3  4  1  0  0  0  0
  3  5  1  0  0  0  0
  3  6  1  0  0  0  0
 34 37  1  0  0  0  0
 34 38  1  0  0  0  0
 34 39  1  0  0  0  0
 11 14  1  0  0  0  0
 11 15  1  0  0  0  0
 11 16  1  0  0  0  0
 41 43  1  0  0  0  0
 41 44  1  0  0  0  0
 41 45  1  0  0  0  0
 21 27  1  0  0  0  0
 21 28  1  0  0  0  0
 31 36  1  0  0  0  0
  8 13  1  0  0  0  0
 18 26  1  0  0  0  0
 40 42  1  0  0  0  0
  7 12  1  0  0  0  0
 30 35  1  0  0  0  0
 17 25  1  0  0  0  0
 24 29  1  0  0  0  0
M  END
$$$$

  -OEChem-05262214473D

 45 44  0     1  0  0  0  0  0999 V2000
   -2.2987    4.1032   -0.3022 C   0  0  0  0  0  0  0  0  0  0  0  0
   -1.8049    3.7117   -1.3532 O   0  0  0  0  0  0  0  0  0  0  0  0
   -3.0791    5.3755   -0.2846 C   0  0  0  0  0  0  0  0  0  0  0  0
   -2.4478    6.2532   -0.0717 H   0  0  0  0  0  0  0  0  0  0  0  0
   -3.5571    5.5891   -1.2541 H   0  0  0  0  0  0  0  0  0  0  0  0
   -3.8940    5.4184    0.4556 H   0  0  0  0  0  0  0  0  0  0  0  0
   -2.2137    3.4712    0.9275 N   0  0  0  0  0  0  0  0  0  0  0  0
   -1.5102    2.2327    1.1338 C   0  0  2  0  0  0  0  0  0  0  0  0
   -1.3539    1.5497   -0.2184 C   0  0  0  0  0  0  0  0  0  0  0  0
   -2.0852    1.7861   -1.1778 O   0  0  0  0  0  0  0  0  0  0  0  0
   -2.2477    1.3342    2.1145 C   0  0  0  0  0  0  0  0  0  0  0  0
   -2.6724    3.9052    1.7265 H   0  0  0  0  0  0  0  0  0  0  0  0
   -0.5220    2.4922    1.5290 H   0  0  0  0  0  0  0  0  0  0  0  0
   -3.2400    1.0636    1.7358 H   0  0  0  0  0  0  0  0  0  0  0  0
   -1.6970    0.4046    2.2923 H   0  0  0  0  0  0  0  0  0  0  0  0
   -2.3854    1.8384    3.0772 H   0  0  0  0  0  0  0  0  0  0  0  0
   -0.3283    0.6116   -0.2182 N   0  0  0  0  0  0  0  0  0  0  0  0
    0.0090   -0.1762   -1.3759 C   0  0  2  0  0  0  0  0  0  0  0  0
   -1.2898   -0.6927   -1.9819 C   0  0  0  0  0  0  0  0  0  0  0  0
   -1.3230   -1.4312   -2.9642 O   0  0  0  0  0  0  0  0  0  0  0  0
    0.9423   -1.3325   -1.0268 C   0  0  0  0  0  0  0  0  0  0  0  0
    2.3127   -0.8326   -0.6409 C   0  0  0  0  0  0  0  0  0  0  0  0
    2.8078    0.2033   -1.0656 O   0  0  0  0  0  0  0  0  0  0  0  0
    2.9489   -1.6667    0.2183 O   0  0  0  0  0  0  0  0  0  0  0  0
    0.2381    0.4970    0.6194 H   0  0  0  0  0  0  0  0  0  0  0  0
    0.4846    0.5103   -2.0866 H   0  0  0  0  0  0  0  0  0  0  0  0
    0.5633   -1.9022   -0.1690 H   0  0  0  0  0  0  0  0  0  0  0  0
    1.0343   -2.0567   -1.8453 H   0  0  0  0  0  0  0  0  0  0  0  0
    3.8494   -1.3808    0.4828 H   0  0  0  0  0  0  0  0  0  0  0  0
   -2.4034   -0.2713   -1.2688 N   0  0  0  0  0  0  0  0  0  0  0  0
   -3.7502   -0.6412   -1.6367 C   0  0  2  0  0  0  0  0  0  0  0  0
   -3.9041   -2.1398   -1.4129 C   0  0  0  0  0  0  0  0  0  0  0  0
   -2.9505   -2.9149   -1.3828 O   0  0  0  0  0  0  0  0  0  0  0  0
   -4.0498   -0.2738   -3.0816 C   0  0  0  0  0  0  0  0  0  0  0  0
   -2.2657    0.3212   -0.4553 H   0  0  0  0  0  0  0  0  0  0  0  0
   -4.4223   -0.0997   -0.9621 H   0  0  0  0  0  0  0  0  0  0  0  0
   -3.3862   -0.8067   -3.7724 H   0  0  0  0  0  0  0  0  0  0  0  0
   -5.0803   -0.5288   -3.3504 H   0  0  0  0  0  0  0  0  0  0  0  0
   -3.9098    0.7997   -3.2479 H   0  0  0  0  0  0  0  0  0  0  0  0
   -5.2347   -2.5157   -1.2938 N   0  0  0  0  0  0  0  0  0  0  0  0
   -5.6424   -3.8860   -1.0884 C   0  0  0  0  0  0  0  0  0  0  0  0
   -5.9588   -1.8035   -1.3120 H   0  0  0  0  0  0  0  0  0  0  0  0
   -5.8429   -4.3591   -2.0610 H   0  0  0  0  0  0  0  0  0  0  0  0
   -4.8398   -4.4338   -0.5729 H   0  0  0  0  0  0  0  0  0  0  0  0
   -6.5549   -3.9089   -0.4746 H   0  0  0  0  0  0  0  0  0  0  0  0
  1  3  1  0  0  0  0
  1  7  1  0  0  0  0
  1  2  2  0  0  0  0
 31 32  1  0  0  0  0
 32 40  1  0  0  0  0
 32 33  2  0  0  0  0
  8  9  1  0  0  0  0
  9 17  1  0  0  0  0
  9 10  2  0  0  0  0
 18 19  1  0  0  0  0
 19 30  1  0  0  0  0
 19 20  2  0  0  0  0
 21 22  1  0  0  0  0
 22 23  2  0  0  0  0
 22 24  1  0  0  0  0
 31 34  1  0  0  0  0
  8 11  1  0  0  0  0
 40 41  1  0  0  0  0
 18 21  1  0  0  0  0
 30 31  1  0  0  0  0
  7  8  1  0  0  0  0
 17 18  1  0  0  0  0
  3  4  1  0  0  0  0
  3  5  1  0  0  0  0
  3  6  1  0  0  0  0
 34 37  1  0  0  0  0
 34 38  1  0  0  0  0
 34 39  1  0  0  0  0
 11 14  1  0  0  0  0
 11 15  1  0  0  0  0
 11 16  1  0  0  0  0
 41 43  1  0  0  0  0
 41 44  1  0  0  0  0
 41 45  1  0  0  0  0
 21 27  1  0  0  0  0
 21 28  1  0  0  0  0
 31 36  1  0  0  0  0
  8 13  1  0  0  0  0
 18 26  1  0  0  0  0
 40 42  1  0  0  0  0
  7 12  1  0  0  0  0
 30 35  1  0  0  0  0
 17 25  1  0  0  0  0
 24 29  1  0  0  0  0
M  END
$$$$

  -OEChem-05262214473D

 45 44  0     1  0  0  0  0  0999 V2000
   -2.2987    4.1032   -0.3022 C   0  0  0  0  0  0  0  0  0  0  0  0
   -1.8049    3.7117   -1.3532 O   0  0  0  0  0  0  0  0  0  0  0  0
   -3.0791    5.3755   -0.2846 C   0  0  0  0  0  0  0  0  0  0  0  0
   -2.4478    6.2532   -0.0717 H   0  0  0  0  0  0  0  0  0  0  0  0
   -3.5571    5.5891   -1.2541 H   0  0  0  0  0  0  0  0  0  0  0  0
   -3.8940    5.4184    0.4556 H   0  0  0  0  0  0  0  0  0  0  0  0
   -2.2137    3.4712    0.9275 N   0  0  0  0  0  0  0  0  0  0  0  0
   -1.5102    2.2327    1.1338 C   0  0  2  0  0  0  0  0  0  0  0  0
   -1.3539    1.5497   -0.2184 C   0  0  0  0  0  0  0  0  0  0  0  0
   -2.0852    1.7861   -1.1778 O   0  0  0  0  0  0  0  0  0  0  0  0
   -2.2477    1.3342    2.1145 C   0  0  0  0  0  0  0  0  0  0  0  0
   -2.6724    3.9052    1.7265 H   0  0  0  0  0  0  0  0  0  0  0  0
   -0.5220    2.4922    1.5290 H   0  0  0  0  0  0  0  0  0  0  0  0
   -3.2400    1.0636    1.7358 H   0  0  0  0  0  0  0  0  0  0  0  0
   -1.6970    0.4046    2.2923 H   0  0  0  0  0  0  0  0  0  0  0  0
   -2.3854    1.8384    3.0772 H   0  0  0  0  0  0  0  0  0  0  0  0
   -0.3283    0.6116   -0.2182 N   0  0  0  0  0  0  0  0  0  0  0  0
    0.0090   -0.1762   -1.3759 C   0  0  2  0  0  0  0  0  0  0  0  0
   -1.2898   -0.6927   -1.9819 C   0  0  0  0  0  0  0  0  0  0  0  0
   -1.3312   -1.6270   -2.7797 O   0  0  0  0  0  0  0  0  0  0  0  0
    0.9423   -1.3325   -1.0268 C   0  0  0  0  0  0  0  0  0  0  0  0
    2.3127   -0.8326   -0.6409 C   0  0  0  0  0  0  0  0  0  0  0  0
    2.8078    0.2033   -1.0656 O   0  0  0  0  0  0  0  0  0  0  0  0
    2.9489   -1.6667    0.2183 O   0  0  0  0  0  0  0  0  0  0  0  0
    0.2381    0.4970    0.6194 H   0  0  0  0  0  0  0  0  0  0  0  0
    0.4846    0.5103   -2.0866 H   0  0  0  0  0  0  0  0  0  0  0  0
    0.5633   -1.9022   -0.1690 H   0  0  0  0  0  0  0  0  0  0  0  0
    1.0343   -2.0567   -1.8453 H   0  0  0  0  0  0  0  0  0  0  0  0
    3.8494   -1.3808    0.4828 H   0  0  0  0  0  0  0  0  0  0  0  0
   -2.3998   -0.0197   -1.4909 N   0  0  0  0  0  0  0  0  0  0  0  0
   -3.7478   -0.3359   -1.9020 C   0  0  2  0  0  0  0  0  0  0  0  0
   -4.0864   -1.7246   -1.3761 C   0  0  0  0  0  0  0  0  0  0  0  0
   -3.2314   -2.5583   -1.0847 O   0  0  0  0  0  0  0  0  0  0  0  0
   -3.8931   -0.2772   -3.4147 C   0  0  0  0  0  0  0  0  0  0  0  0
   -2.2585    0.7253   -0.8151 H   0  0  0  0  0  0  0  0  0  0  0  0
   -4.4040    0.4038   -1.4305 H   0  0  0  0  0  0  0  0  0  0  0  0
   -3.2432   -1.0114   -3.9046 H   0  0  0  0  0  0  0  0  0  0  0  0
   -4.9222   -0.4891   -3.7229 H   0  0  0  0  0  0  0  0  0  0  0  0
   -3.6206    0.7135   -3.7942 H   0  0  0  0  0  0  0  0  0  0  0  0
   -5.4561   -1.9385   -1.3114 N   0  0  0  0  0  0  0  0  0  0  0  0
   -6.0302   -3.1832   -0.8563 C   0  0  0  0  0  0  0  0  0  0  0  0
   -6.0916   -1.1844   -1.5549 H   0  0  0  0  0  0  0  0  0  0  0  0
   -6.2081   -3.8424   -1.7187 H   0  0  0  0  0  0  0  0  0  0  0  0
   -5.3361   -3.6731   -0.1575 H   0  0  0  0  0  0  0  0  0  0  0  0
   -6.9835   -2.9822   -0.3458 H   0  0  0  0  0  0  0  0  0  0  0  0
  1  3  1  0  0  0  0
  1  7  1  0  0  0  0
  1  2  2  0  0  0  0
 31 32  1  0  0  0  0
 32 40  1  0  0  0  0
 32 33  2  0  0  0  0
  8  9  1  0  0  0  0
  9 17  1  0  0  0  0
  9 10  2  0  0  0  0
 18 19  1  0  0  0  0
 19 30  1  0  0  0  0
 19 20  2  0  0  0  0
 21 22  1  0  0  0  0
 22 23  2  0  0  0  0
 22 24  1  0  0  0  0
 31 34  1  0  0  0  0
  8 11  1  0  0  0  0
 40 41  1  0  0  0  0
 18 21  1  0  0  0  0
 30 31  1  0  0  0  0
  7  8  1  0  0  0  0
 17 18  1  0  0  0  0
  3  4  1  0  0  0  0
  3  5  1  0  0  0  0
  3  6  1  0  0  0  0
 34 37  1  0  0  0  0
 34 38  1  0  0  0  0
 34 39  1  0  0  0  0
 11 14  1  0  0  0  0
 11 15  1  0  0  0  0
 11 16  1  0  0  0  0
 41 43  1  0  0  0  0
 41 44  1  0  0  0  0
 41 45  1  0  0  0  0
 21 27  1  0  0  0  0
 21 28  1  0  0  0  0
 31 36  1  0  0  0  0
  8 13  1  0  0  0  0
 18 26  1  0  0  0  0
 40 42  1  0  0  0  0
  7 12  1  0  0  0  0
 30 35  1  0  0  0  0
 17 25  1  0  0  0  0
 24 29  1  0  0  0  0
M  END
$$$$

  -OEChem-05262214473D

 45 44  0     1  0  0  0  0  0999 V2000
   -2.2987    4.1032   -0.3022 C   0  0  0  0  0  0  0  0  0  0  0  0
   -1.8049    3.7117   -1.3532 O   0  0  0  0  0  0  0  0  0  0  0  0
   -3.0791    5.3755   -0.2846 C   0  0  0  0  0  0  0  0  0  0  0  0
   -2.4478    6.2532   -0.0717 H   0  0  0  0  0  0  0  0  0  0  0  0
   -3.5571    5.5891   -1.2541 H   0  0  0  0  0  0  0  0  0  0  0  0
   -3.8940    5.4184    0.4556 H   0  0  0  0  0  0  0  0  0  0  0  0
   -2.2137    3.4712    0.9275 N   0  0  0  0  0  0  0  0  0  0  0  0
   -1.5102    2.2327    1.1338 C   0  0  2  0  0  0  0  0  0  0  0  0
   -1.3539    1.5497   -0.2184 C   0  0  0  0  0  0  0  0  0  0  0  0
   -2.0852    1.7861   -1.1778 O   0  0  0  0  0  0  0  0  0  0  0  0
   -2.2477    1.3342    2.1145 C   0  0  0  0  0  0  0  0  0  0  0  0
   -2.6724    3.9052    1.7265 H   0  0  0  0  0  0  0  0  0  0  0  0
   -0.5220    2.4922    1.5290 H   0  0  0  0  0  0  0  0  0  0  0  0
   -3.2400    1.0636    1.7358 H   0  0  0  0  0  0  0  0  0  0  0  0
   -1.6970    0.4046    2.2923 H   0  0  0  0  0  0  0  0  0  0  0  0
   -2.3854    1.8384    3.0772 H   0  0  0  0  0  0  0  0  0  0  0  0
   -0.3283    0.6116   -0.2182 N   0  0  0  0  0  0  0  0  0  0  0  0
    0.0090   -0.1762   -1.3759 C   0  0  2  0  0  0  0  0  0  0  0  0
   -1.2898   -0.6927   -1.9819 C   0  0  0  0  0  0  0  0  0  0  0  0
   -1.3754   -1.7747   -2.5591 O   0  0  0  0  0  0  0  0  0  0  0  0
    0.9423   -1.3325   -1.0268 C   0  0  0  0  0  0  0  0  0  0  0  0
    2.3127   -0.8326   -0.6409 C   0  0  0  0  0  0  0  0  0  0  0  0
    2.8078    0.2033   -1.0656 O   0  0  0  0  0  0  0  0  0  0  0  0
    2.9489   -1.6667    0.2183 O   0  0  0  0  0  0  0  0  0  0  0  0
    0.2381    0.4970    0.6194 H   0  0  0  0  0  0  0  0  0  0  0  0
    0.4846    0.5103   -2.0866 H   0  0  0  0  0  0  0  0  0  0  0  0
    0.5633   -1.9022   -0.1690 H   0  0  0  0  0  0  0  0  0  0  0  0
    1.0343   -2.0567   -1.8453 H   0  0  0  0  0  0  0  0  0  0  0  0
    3.8494   -1.3808    0.4828 H   0  0  0  0  0  0  0  0  0  0  0  0
   -2.3510    0.1739   -1.7606 N   0  0  0  0  0  0  0  0  0  0  0  0
   -3.6907   -0.0998   -2.2255 C   0  0  2  0  0  0  0  0  0  0  0  0
   -4.2229   -1.2966   -1.4483 C   0  0  0  0  0  0  0  0  0  0  0  0
   -3.4921   -2.1192   -0.9002 O   0  0  0  0  0  0  0  0  0  0  0  0
   -3.7128   -0.3701   -3.7219 C   0  0  0  0  0  0  0  0  0  0  0  0
   -2.1784    1.0356   -1.2511 H   0  0  0  0  0  0  0  0  0  0  0  0
   -4.2933    0.7849   -1.9925 H   0  0  0  0  0  0  0  0  0  0  0  0
   -3.1144   -1.2530   -3.9746 H   0  0  0  0  0  0  0  0  0  0  0  0
   -4.7328   -0.5492   -4.0777 H   0  0  0  0  0  0  0  0  0  0  0  0
   -3.3022    0.4799   -4.2775 H   0  0  0  0  0  0  0  0  0  0  0  0
   -5.6089   -1.3619   -1.4752 N   0  0  0  0  0  0  0  0  0  0  0  0
   -6.3527   -2.4132   -0.8213 C   0  0  0  0  0  0  0  0  0  0  0  0
   -6.1349   -0.6263   -1.9377 H   0  0  0  0  0  0  0  0  0  0  0  0
   -6.5377   -3.2302   -1.5341 H   0  0  0  0  0  0  0  0  0  0  0  0
   -5.7737   -2.7955    0.0323 H   0  0  0  0  0  0  0  0  0  0  0  0
   -7.3134   -2.0144   -0.4634 H   0  0  0  0  0  0  0  0  0  0  0  0
  1  3  1  0  0  0  0
  1  7  1  0  0  0  0
  1  2  2  0  0  0  0
 31 32  1  0  0  0  0
 32 40  1  0  0  0  0
 32 33  2  0  0  0  0
  8  9  1  0  0  0  0
  9 17  1  0  0  0  0
  9 10  2  0  0  0  0
 18 19  1  0  0  0  0
 19 30  1  0  0  0  0
 19 20  2  0  0  0  0
 21 22  1  0  0  0  0
 22 23  2  0  0  0  0
 22 24  1  0  0  0  0
 31 34  1  0  0  0  0
  8 11  1  0  0  0  0
 40 41  1  0  0  0  0
 18 21  1  0  0  0  0
 30 31  1  0  0  0  0
  7  8  1  0  0  0  0
 17 18  1  0  0  0  0
  3  4  1  0  0  0  0
  3  5  1  0  0  0  0
  3  6  1  0  0  0  0
 34 37  1  0  0  0  0
 34 38  1  0  0  0  0
 34 39  1  0  0  0  0
 11 14  1  0  0  0  0
 11 15  1  0  0  0  0
 11 16  1  0  0  0  0
 41 43  1  0  0  0  0
 41 44  1  0  0  0  0
 41 45  1  0  0  0  0
 21 27  1  0  0  0  0
 21 28  1  0  0  0  0
 31 36  1  0  0  0  0
  8 13  1  0  0  0  0
 18 26  1  0  0  0  0
 40 42  1  0  0  0  0
  7 12  1  0  0  0  0
 30 35  1  0  0  0  0
 17 25  1  0  0  0  0
 24 29  1  0  0  0  0
M  END
$$$$

  -OEChem-05262214473D

 45 44  0     1  0  0  0  0  0999 V2000
   -2.2987    4.1032   -0.3022 C   0  0  0  0  0  0  0  0  0  0  0  0
   -1.8049    3.7117   -1.3532 O   0  0  0  0  0  0  0  0  0  0  0  0
   -3.0791    5.3755   -0.2846 C   0  0  0  0  0  0  0  0  0  0  0  0
   -2.4478    6.2532   -0.0717 H   0  0  0  0  0  0  0  0  0  0  0  0
   -3.5571    5.5891   -1.2541 H   0  0  0  0  0  0  0  0  0  0  0  0
   -3.8940    5.4184    0.4556 H   0  0  0  0  0  0  0  0  0  0  0  0
   -2.2137    3.4712    0.9275 N   0  0  0  0  0  0  0  0  0  0  0  0
   -1.5102    2.2327    1.1338 C   0  0  2  0  0  0  0  0  0  0  0  0
   -1.3539    1.5497   -0.2184 C   0  0  0  0  0  0  0  0  0  0  0  0
   -2.0852    1.7861   -1.1778 O   0  0  0  0  0  0  0  0  0  0  0  0
   -2.2477    1.3342    2.1145 C   0  0  0  0  0  0  0  0  0  0  0  0
   -2.6724    3.9052    1.7265 H   0  0  0  0  0  0  0  0  0  0  0  0
   -0.5220    2.4922    1.5290 H   0  0  0  0  0  0  0  0  0  0  0  0
   -3.2400    1.0636    1.7358 H   0  0  0  0  0  0  0  0  0  0  0  0
   -1.6970    0.4046    2.2923 H   0  0  0  0  0  0  0  0  0  0  0  0
   -2.3854    1.8384    3.0772 H   0  0  0  0  0  0  0  0  0  0  0  0
   -0.3283    0.6116   -0.2182 N   0  0  0  0  0  0  0  0  0  0  0  0
    0.0090   -0.1762   -1.3759 C   0  0  2  0  0  0  0  0  0  0  0  0
   -1.2898   -0.6927   -1.9819 C   0  0  0  0  0  0  0  0  0  0  0  0
   -1.4527   -1.8641   -2.3173 O   0  0  0  0  0  0  0  0  0  0  0  0
    0.9423   -1.3325   -1.0268 C   0  0  0  0  0  0  0  0  0  0  0  0
    2.3127   -0.8326   -0.6409 C   0  0  0  0  0  0  0  0  0  0  0  0
    2.8078    0.2033   -1.0656 O   0  0  0  0  0  0  0  0  0  0  0  0
    2.9489   -1.6667    0.2183 O   0  0  0  0  0  0  0  0  0  0  0  0
    0.2381    0.4970    0.6194 H   0  0  0  0  0  0  0  0  0  0  0  0
    0.4846    0.5103   -2.0866 H   0  0  0  0  0  0  0  0  0  0  0  0
    0.5633   -1.9022   -0.1690 H   0  0  0  0  0  0  0  0  0  0  0  0
    1.0343   -2.0567   -1.8453 H   0  0  0  0  0  0  0  0  0  0  0  0
    3.8494   -1.3808    0.4828 H   0  0  0  0  0  0  0  0  0  0  0  0
   -2.2602    0.2964   -2.0596 N   0  0  0  0  0  0  0  0  0  0  0  0
   -3.5830    0.0510   -2.5850 C   0  0  2  0  0  0  0  0  0  0  0  0
   -4.3043   -0.8851   -1.6244 C   0  0  0  0  0  0  0  0  0  0  0  0
   -3.7149   -1.6275   -0.8417 O   0  0  0  0  0  0  0  0  0  0  0  0
   -3.5213   -0.5461   -3.9823 C   0  0  0  0  0  0  0  0  0  0  0  0
   -2.0309    1.2308   -1.7337 H   0  0  0  0  0  0  0  0  0  0  0  0
   -4.0978    1.0176   -2.6097 H   0  0  0  0  0  0  0  0  0  0  0  0
   -3.0088   -1.5150   -3.9776 H   0  0  0  0  0  0  0  0  0  0  0  0
   -4.5249   -0.7050   -4.3905 H   0  0  0  0  0  0  0  0  0  0  0  0
   -2.9762    0.1148   -4.6648 H   0  0  0  0  0  0  0  0  0  0  0  0
   -5.6828   -0.8255   -1.7740 N   0  0  0  0  0  0  0  0  0  0  0  0
   -6.5881   -1.6285   -0.9856 C   0  0  0  0  0  0  0  0  0  0  0  0
   -6.0857   -0.1672   -2.4344 H   0  0  0  0  0  0  0  0  0  0  0  0
   -6.8092   -2.5642   -1.5199 H   0  0  0  0  0  0  0  0  0  0  0  0
   -6.1226   -1.8609   -0.0164 H   0  0  0  0  0  0  0  0  0  0  0  0
   -7.5222   -1.0717   -0.8196 H   0  0  0  0  0  0  0  0  0  0  0  0
  1  3  1  0  0  0  0
  1  7  1  0  0  0  0
  1  2  2  0  0  0  0
 31 32  1  0  0  0  0
 32 40  1  0  0  0  0
 32 33  2  0  0  0  0
  8  9  1  0  0  0  0
  9 17  1  0  0  0  0
  9 10  2  0  0  0  0
 18 19  1  0  0  0  0
 19 30  1  0  0  0  0
 19 20  2  0  0  0  0
 21 22  1  0  0  0  0
 22 23  2  0  0  0  0
 22 24  1  0  0  0  0
 31 34  1  0  0  0  0
  8 11  1  0  0  0  0
 40 41  1  0  0  0  0
 18 21  1  0  0  0  0
 30 31  1  0  0  0  0
  7  8  1  0  0  0  0
 17 18  1  0  0  0  0
  3  4  1  0  0  0  0
  3  5  1  0  0  0  0
  3  6  1  0  0  0  0
 34 37  1  0  0  0  0
 34 38  1  0  0  0  0
 34 39  1  0  0  0  0
 11 14  1  0  0  0  0
 11 15  1  0  0  0  0
 11 16  1  0  0  0  0
 41 43  1  0  0  0  0
 41 44  1  0  0  0  0
 41 45  1  0  0  0  0
 21 27  1  0  0  0  0
 21 28  1  0  0  0  0
 31 36  1  0  0  0  0
  8 13  1  0  0  0  0
 18 26  1  0  0  0  0
 40 42  1  0  0  0  0
  7 12  1  0  0  0  0
 30 35  1  0  0  0  0
 17 25  1  0  0  0  0
 24 29  1  0  0  0  0
M  END
$$$$

  -OEChem-05262214473D

 45 44  0     1  0  0  0  0  0999 V2000
   -2.2987    4.1032   -0.3022 C   0  0  0  0  0  0  0  0  0  0  0  0
   -1.8049    3.7117   -1.3532 O   0  0  0  0  0  0  0  0  0  0  0  0
   -3.0791    5.3755   -0.2846 C   0  0  0  0  0  0  0  0  0  0  0  0
   -2.4478    6.2532   -0.0717 H   0  0  0  0  0  0  0  0  0  0  0  0
   -3.5571    5.5891   -1.2541 H   0  0  0  0  0  0  0  0  0  0  0  0
   -3.8940    5.4184    0.4556 H   0  0  0  0  0  0  0  0  0  0  0  0
   -2.2137    3.4712    0.9275 N   0  0  0  0  0  0  0  0  0  0  0  0
   -1.5102    2.2327    1.1338 C   0  0  2  0  0  0  0  0  0  0  0  0
   -1.3539    1.5497   -0.2184 C   0  0  0  0  0  0  0  0  0  0  0  0
   -2.0852    1.7861   -1.1778 O   0  0  0  0  0  0  0  0  0  0  0  0
   -2.2477    1.3342    2.1145 C   0  0  0  0  0  0  0  0  0  0  0  0
   -2.6724    3.9052    1.7265 H   0  0  0  0  0  0  0  0  0  0  0  0
   -0.5220    2.4922    1.5290 H   0  0  0  0  0  0  0  0  0  0  0  0
   -3.2400    1.0636    1.7358 H   0  0  0  0  0  0  0  0  0  0  0  0
   -1.6970    0.4046    2.2923 H   0  0  0  0  0  0  0  0  0  0  0  0
   -2.3854    1.8384    3.0772 H   0  0  0  0  0  0  0  0  0  0  0  0
   -0.3283    0.6116   -0.2182 N   0  0  0  0  0  0  0  0  0  0  0  0
    0.0090   -0.1762   -1.3759 C   0  0  2  0  0  0  0  0  0  0  0  0
   -1.2898   -0.6927   -1.9819 C   0  0  0  0  0  0  0  0  0  0  0  0
   -1.5577   -1.8892   -2.0707 O   0  0  0  0  0  0  0  0  0  0  0  0
    0.9423   -1.3325   -1.0268 C   0  0  0  0  0  0  0  0  0  0  0  0
    2.3127   -0.8326   -0.6409 C   0  0  0  0  0  0  0  0  0  0  0  0
    2.8078    0.2033   -1.0656 O   0  0  0  0  0  0  0  0  0  0  0  0
    2.9489   -1.6667    0.2183 O   0  0  0  0  0  0  0  0  0  0  0  0
    0.2381    0.4970    0.6194 H   0  0  0  0  0  0  0  0  0  0  0  0
    0.4846    0.5103   -2.0866 H   0  0  0  0  0  0  0  0  0  0  0  0
    0.5633   -1.9022   -0.1690 H   0  0  0  0  0  0  0  0  0  0  0  0
    1.0343   -2.0567   -1.8453 H   0  0  0  0  0  0  0  0  0  0  0  0
    3.8494   -1.3808    0.4828 H   0  0  0  0  0  0  0  0  0  0  0  0
   -2.1337    0.3394   -2.3674 N   0  0  0  0  0  0  0  0  0  0  0  0
   -3.4318    0.1062   -2.9561 C   0  0  2  0  0  0  0  0  0  0  0  0
   -4.3252   -0.5181   -1.8924 C   0  0  0  0  0  0  0  0  0  0  0  0
   -3.8847   -1.1167   -0.9133 O   0  0  0  0  0  0  0  0  0  0  0  0
   -3.3316   -0.7933   -4.1782 C   0  0  0  0  0  0  0  0  0  0  0  0
   -1.8259    1.2977   -2.2300 H   0  0  0  0  0  0  0  0  0  0  0  0
   -3.8309    1.0860   -3.2400 H   0  0  0  0  0  0  0  0  0  0  0  0
   -2.9335   -1.7797   -3.9134 H   0  0  0  0  0  0  0  0  0  0  0  0
   -4.3126   -0.9460   -4.6400 H   0  0  0  0  0  0  0  0  0  0  0  0
   -2.6650   -0.3568   -4.9298 H   0  0  0  0  0  0  0  0  0  0  0  0
   -5.6727   -0.3656   -2.1875 N   0  0  0  0  0  0  0  0  0  0  0  0
   -6.7203   -0.8825   -1.3381 C   0  0  0  0  0  0  0  0  0  0  0  0
   -5.9473    0.1615   -3.0112 H   0  0  0  0  0  0  0  0  0  0  0  0
   -7.0041   -1.8898   -1.6768 H   0  0  0  0  0  0  0  0  0  0  0  0
   -6.3591   -0.9330   -0.3003 H   0  0  0  0  0  0  0  0  0  0  0  0
   -7.5954   -0.2182   -1.3899 H   0  0  0  0  0  0  0  0  0  0  0  0
  1  3  1  0  0  0  0
  1  7  1  0  0  0  0
  1  2  2  0  0  0  0
 31 32  1  0  0  0  0
 32 40  1  0  0  0  0
 32 33  2  0  0  0  0
  8  9  1  0  0  0  0
  9 17  1  0  0  0  0
  9 10  2  0  0  0  0
 18 19  1  0  0  0  0
 19 30  1  0  0  0  0
 19 20  2  0  0  0  0
 21 22  1  0  0  0  0
 22 23  2  0  0  0  0
 22 24  1  0  0  0  0
 31 34  1  0  0  0  0
  8 11  1  0  0  0  0
 40 41  1  0  0  0  0
 18 21  1  0  0  0  0
 30 31  1  0  0  0  0
  7  8  1  0  0  0  0
 17 18  1  0  0  0  0
  3  4  1  0  0  0  0
  3  5  1  0  0  0  0
  3  6  1  0  0  0  0
 34 37  1  0  0  0  0
 34 38  1  0  0  0  0
 34 39  1  0  0  0  0
 11 14  1  0  0  0  0
 11 15  1  0  0  0  0
 11 16  1  0  0  0  0
 41 43  1  0  0  0  0
 41 44  1  0  0  0  0
 41 45  1  0  0  0  0
 21 27  1  0  0  0  0
 21 28  1  0  0  0  0
 31 36  1  0  0  0  0
  8 13  1  0  0  0  0
 18 26  1  0  0  0  0
 40 42  1  0  0  0  0
  7 12  1  0  0  0  0
 30 35  1  0  0  0  0
 17 25  1  0  0  0  0
 24 29  1  0  0  0  0
M  END
$$$$

  -OEChem-05262214473D

 45 44  0     1  0  0  0  0  0999 V2000
   -2.2987    4.1032   -0.3022 C   0  0  0  0  0  0  0  0  0  0  0  0
   -1.8049    3.7117   -1.3532 O   0  0  0  0  0  0  0  0  0  0  0  0
   -3.0791    5.3755   -0.2846 C   0  0  0  0  0  0  0  0  0  0  0  0
   -2.4478    6.2532   -0.0717 H   0  0  0  0  0  0  0  0  0  0  0  0
   -3.5571    5.5891   -1.2541 H   0  0  0  0  0  0  0  0  0  0  0  0
   -3.8940    5.4184    0.4556 H   0  0  0  0  0  0  0  0  0  0  0  0
   -2.2137    3.4712    0.9275 N   0  0  0  0  0  0  0  0  0  0  0  0
   -1.5102    2.2327    1.1338 C   0  0  2  0  0  0  0  0  0  0  0  0
   -1.3539    1.5497   -0.2184 C   0  0  0  0  0  0  0  0  0  0  0  0
   -2.0852    1.7861   -1.1778 O   0  0  0  0  0  0  0  0  0  0  0  0
   -2.2477    1.3342    2.1145 C   0  0  0  0  0  0  0  0  0  0  0  0
   -2.6724    3.9052    1.7265 H   0  0  0  0  0  0  0  0  0  0  0  0
   -0.5220    2.4922    1.5290 H   0  0  0  0  0  0  0  0  0  0  0  0
   -3.2400    1.0636    1.7358 H   0  0  0  0  0  0  0  0  0  0  0  0
   -1.6970    0.4046    2.2923 H   0  0  0  0  0  0  0  0  0  0  0  0
   -2.3854    1.8384    3.0772 H   0  0  0  0  0  0  0  0  0  0  0  0
   -0.3283    0.6116   -0.2182 N   0  0  0  0  0  0  0  0  0  0  0  0
    0.0090   -0.1762   -1.3759 C   0  0  2  0  0  0  0  0  0  0  0  0
   -1.2898   -0.6927   -1.9819 C   0  0  0  0  0  0  0  0  0  0  0  0
   -1.6834   -1.8482   -1.8363 O   0  0  0  0  0  0  0  0  0  0  0  0
    0.9423   -1.3325   -1.0268 C   0  0  0  0  0  0  0  0  0  0  0  0
    2.3127   -0.8326   -0.6409 C   0  0  0  0  0  0  0  0  0  0  0  0
    2.8078    0.2033   -1.0656 O   0  0  0  0  0  0  0  0  0  0  0  0
    2.9489   -1.6667    0.2183 O   0  0  0  0  0  0  0  0  0  0  0  0
    0.2381    0.4970    0.6194 H   0  0  0  0  0  0  0  0  0  0  0  0
    0.4846    0.5103   -2.0866 H   0  0  0  0  0  0  0  0  0  0  0  0
    0.5633   -1.9022   -0.1690 H   0  0  0  0  0  0  0  0  0  0  0  0
    1.0343   -2.0567   -1.8453 H   0  0  0  0  0  0  0  0  0  0  0  0
    3.8494   -1.3808    0.4828 H   0  0  0  0  0  0  0  0  0  0  0  0
   -1.9800    0.3000   -2.6632 N   0  0  0  0  0  0  0  0  0  0  0  0
   -3.2475    0.0621   -3.3135 C   0  0  2  0  0  0  0  0  0  0  0  0
   -4.2841   -0.2206   -2.2341 C   0  0  0  0  0  0  0  0  0  0  0  0
   -3.9898   -0.6216   -1.1100 O   0  0  0  0  0  0  0  0  0  0  0  0
   -3.1566   -1.0949   -4.2962 C   0  0  0  0  0  0  0  0  0  0  0  0
   -1.5775    1.2317   -2.7062 H   0  0  0  0  0  0  0  0  0  0  0  0
   -3.5108    0.9856   -3.8406 H   0  0  0  0  0  0  0  0  0  0  0  0
   -2.8937   -2.0289   -3.7863 H   0  0  0  0  0  0  0  0  0  0  0  0
   -4.1106   -1.2556   -4.8092 H   0  0  0  0  0  0  0  0  0  0  0  0
   -2.3897   -0.9029   -5.0544 H   0  0  0  0  0  0  0  0  0  0  0  0
   -5.5794   -0.0137   -2.6875 N   0  0  0  0  0  0  0  0  0  0  0  0
   -6.7402   -0.2262   -1.8548 C   0  0  0  0  0  0  0  0  0  0  0  0
   -5.7292    0.3376   -3.6288 H   0  0  0  0  0  0  0  0  0  0  0  0
   -7.1092   -1.2529   -1.9944 H   0  0  0  0  0  0  0  0  0  0  0  0
   -6.4672   -0.0750   -0.8000 H   0  0  0  0  0  0  0  0  0  0  0  0
   -7.5283    0.4880   -2.1356 H   0  0  0  0  0  0  0  0  0  0  0  0
  1  3  1  0  0  0  0
  1  7  1  0  0  0  0
  1  2  2  0  0  0  0
 31 32  1  0  0  0  0
 32 40  1  0  0  0  0
 32 33  2  0  0  0  0
  8  9  1  0  0  0  0
  9 17  1  0  0  0  0
  9 10  2  0  0  0  0
 18 19  1  0  0  0  0
 19 30  1  0  0  0  0
 19 20  2  0  0  0  0
 21 22  1  0  0  0  0
 22 23  2  0  0  0  0
 22 24  1  0  0  0  0
 31 34  1  0  0  0  0
  8 11  1  0  0  0  0
 40 41  1  0  0  0  0
 18 21  1  0  0  0  0
 30 31  1  0  0  0  0
  7  8  1  0  0  0  0
 17 18  1  0  0  0  0
  3  4  1  0  0  0  0
  3  5  1  0  0  0  0
  3  6  1  0  0  0  0
 34 37  1  0  0  0  0
 34 38  1  0  0  0  0
 34 39  1  0  0  0  0
 11 14  1  0  0  0  0
 11 15  1  0  0  0  0
 11 16  1  0  0  0  0
 41 43  1  0  0  0  0
 41 44  1  0  0  0  0
 41 45  1  0  0  0  0
 21 27  1  0  0  0  0
 21 28  1  0  0  0  0
 31 36  1  0  0  0  0
  8 13  1  0  0  0  0
 18 26  1  0  0  0  0
 40 42  1  0  0  0  0
  7 12  1  0  0  0  0
 30 35  1  0  0  0  0
 17 25  1  0  0  0  0
 24 29  1  0  0  0  0
M  END
$$$$

  -OEChem-05262214473D

 45 44  0     1  0  0  0  0  0999 V2000
   -2.2987    4.1032   -0.3022 C   0  0  0  0  0  0  0  0  0  0  0  0
   -1.8049    3.7117   -1.3532 O   0  0  0  0  0  0  0  0  0  0  0  0
   -3.0791    5.3755   -0.2846 C   0  0  0  0  0  0  0  0  0  0  0  0
   -2.4478    6.2532   -0.0717 H   0  0  0  0  0  0  0  0  0  0  0  0
   -3.5571    5.5891   -1.2541 H   0  0  0  0  0  0  0  0  0  0  0  0
   -3.8940    5.4184    0.4556 H   0  0  0  0  0  0  0  0  0  0  0  0
   -2.2137    3.4712    0.9275 N   0  0  0  0  0  0  0  0  0  0  0  0
   -1.5102    2.2327    1.1338 C   0  0  2  0  0  0  0  0  0  0  0  0
   -1.3539    1.5497   -0.2184 C   0  0  0  0  0  0  0  0  0  0  0  0
   -2.0852    1.7861   -1.1778 O   0  0  0  0  0  0  0  0  0  0  0  0
   -2.2477    1.3342    2.1145 C   0  0  0  0  0  0  0  0  0  0  0  0
   -2.6724    3.9052    1.7265 H   0  0  0  0  0  0  0  0  0  0  0  0
   -0.5220    2.4922    1.5290 H   0  0  0  0  0  0  0  0  0  0  0  0
   -3.2400    1.0636    1.7358 H   0  0  0  0  0  0  0  0  0  0  0  0
   -1.6970    0.4046    2.2923 H   0  0  0  0  0  0  0  0  0  0  0  0
   -2.3854    1.8384    3.0772 H   0  0  0  0  0  0  0  0  0  0  0  0
   -0.3283    0.6116   -0.2182 N   0  0  0  0  0  0  0  0  0  0  0  0
    0.0090   -0.1762   -1.3759 C   0  0  2  0  0  0  0  0  0  0  0  0
   -1.2898   -0.6927   -1.9819 C   0  0  0  0  0  0  0  0  0  0  0  0
   -1.8212   -1.7439   -1.6299 O   0  0  0  0  0  0  0  0  0  0  0  0
    0.9423   -1.3325   -1.0268 C   0  0  0  0  0  0  0  0  0  0  0  0
    2.3127   -0.8326   -0.6409 C   0  0  0  0  0  0  0  0  0  0  0  0
    2.8078    0.2033   -1.0656 O   0  0  0  0  0  0  0  0  0  0  0  0
    2.9489   -1.6667    0.2183 O   0  0  0  0  0  0  0  0  0  0  0  0
    0.2381    0.4970    0.6194 H   0  0  0  0  0  0  0  0  0  0  0  0
    0.4846    0.5103   -2.0866 H   0  0  0  0  0  0  0  0  0  0  0  0
    0.5633   -1.9022   -0.1690 H   0  0  0  0  0  0  0  0  0  0  0  0
    1.0343   -2.0567   -1.8453 H   0  0  0  0  0  0  0  0  0  0  0  0
    3.8494   -1.3808    0.4828 H   0  0  0  0  0  0  0  0  0  0  0  0
   -1.8097    0.1809   -2.9267 N   0  0  0  0  0  0  0  0  0  0  0  0
   -3.0426   -0.0783   -3.6328 C   0  0  2  0  0  0  0  0  0  0  0  0
   -4.1837   -0.0128   -2.6262 C   0  0  0  0  0  0  0  0  0  0  0  0
   -4.0230   -0.1759   -1.4185 O   0  0  0  0  0  0  0  0  0  0  0  0
   -3.0083   -1.4303   -4.3283 C   0  0  0  0  0  0  0  0  0  0  0  0
   -1.3025    1.0373   -3.1298 H   0  0  0  0  0  0  0  0  0  0  0  0
   -3.1592    0.7231   -4.3705 H   0  0  0  0  0  0  0  0  0  0  0  0
   -2.8920   -2.2457   -3.6051 H   0  0  0  0  0  0  0  0  0  0  0  0
   -3.9324   -1.6129   -4.8866 H   0  0  0  0  0  0  0  0  0  0  0  0
   -2.1691   -1.4863   -5.0301 H   0  0  0  0  0  0  0  0  0  0  0  0
   -5.4091    0.2063   -3.2400 N   0  0  0  0  0  0  0  0  0  0  0  0
   -6.6465    0.2959   -2.5005 C   0  0  0  0  0  0  0  0  0  0  0  0
   -5.4462    0.3489   -4.2450 H   0  0  0  0  0  0  0  0  0  0  0  0
   -7.1173   -0.6970   -2.4509 H   0  0  0  0  0  0  0  0  0  0  0  0
   -6.4394    0.6547   -1.4815 H   0  0  0  0  0  0  0  0  0  0  0  0
   -7.3254    0.9986   -3.0058 H   0  0  0  0  0  0  0  0  0  0  0  0
  1  3  1  0  0  0  0
  1  7  1  0  0  0  0
  1  2  2  0  0  0  0
 31 32  1  0  0  0  0
 32 40  1  0  0  0  0
 32 33  2  0  0  0  0
  8  9  1  0  0  0  0
  9 17  1  0  0  0  0
  9 10  2  0  0  0  0
 18 19  1  0  0  0  0
 19 30  1  0  0  0  0
 19 20  2  0  0  0  0
 21 22  1  0  0  0  0
 22 23  2  0  0  0  0
 22 24  1  0  0  0  0
 31 34  1  0  0  0  0
  8 11  1  0  0  0  0
 40 41  1  0  0  0  0
 18 21  1  0  0  0  0
 30 31  1  0  0  0  0
  7  8  1  0  0  0  0
 17 18  1  0  0  0  0
  3  4  1  0  0  0  0
  3  5  1  0  0  0  0
  3  6  1  0  0  0  0
 34 37  1  0  0  0  0
 34 38  1  0  0  0  0
 34 39  1  0  0  0  0
 11 14  1  0  0  0  0
 11 15  1  0  0  0  0
 11 16  1  0  0  0  0
 41 43  1  0  0  0  0
 41 44  1  0  0  0  0
 41 45  1  0  0  0  0
 21 27  1  0  0  0  0
 21 28  1  0  0  0  0
 31 36  1  0  0  0  0
  8 13  1  0  0  0  0
 18 26  1  0  0  0  0
 40 42  1  0  0  0  0
  7 12  1  0  0  0  0
 30 35  1  0  0  0  0
 17 25  1  0  0  0  0
 24 29  1  0  0  0  0
M  END
$$$$

  -OEChem-05262214473D

 45 44  0     1  0  0  0  0  0999 V2000
   -2.2987    4.1032   -0.3022 C   0  0  0  0  0  0  0  0  0  0  0  0
   -1.8049    3.7117   -1.3532 O   0  0  0  0  0  0  0  0  0  0  0  0
   -3.0791    5.3755   -0.2846 C   0  0  0  0  0  0  0  0  0  0  0  0
   -2.4478    6.2532   -0.0717 H   0  0  0  0  0  0  0  0  0  0  0  0
   -3.5571    5.5891   -1.2541 H   0  0  0  0  0  0  0  0  0  0  0  0
   -3.8940    5.4184    0.4556 H   0  0  0  0  0  0  0  0  0  0  0  0
   -2.2137    3.4712    0.9275 N   0  0  0  0  0  0  0  0  0  0  0  0
   -1.5102    2.2327    1.1338 C   0  0  2  0  0  0  0  0  0  0  0  0
   -1.3539    1.5497   -0.2184 C   0  0  0  0  0  0  0  0  0  0  0  0
   -2.0852    1.7861   -1.1778 O   0  0  0  0  0  0  0  0  0  0  0  0
   -2.2477    1.3342    2.1145 C   0  0  0  0  0  0  0  0  0  0  0  0
   -2.6724    3.9052    1.7265 H   0  0  0  0  0  0  0  0  0  0  0  0
   -0.5220    2.4922    1.5290 H   0  0  0  0  0  0  0  0  0  0  0  0
   -3.2400    1.0636    1.7358 H   0  0  0  0  0  0  0  0  0  0  0  0
   -1.6970    0.4046    2.2923 H   0  0  0  0  0  0  0  0  0  0  0  0
   -2.3854    1.8384    3.0772 H   0  0  0  0  0  0  0  0  0  0  0  0
   -0.3283    0.6116   -0.2182 N   0  0  0  0  0  0  0  0  0  0  0  0
    0.0090   -0.1762   -1.3759 C   0  0  2  0  0  0  0  0  0  0  0  0
   -1.2898   -0.6927   -1.9819 C   0  0  0  0  0  0  0  0  0  0  0  0
   -1.9617   -1.5834   -1.4657 O   0  0  0  0  0  0  0  0  0  0  0  0
    0.9423   -1.3325   -1.0268 C   0  0  0  0  0  0  0  0  0  0  0  0
    2.3127   -0.8326   -0.6409 C   0  0  0  0  0  0  0  0  0  0  0  0
    2.8078    0.2033   -1.0656 O   0  0  0  0  0  0  0  0  0  0  0  0
    2.9489   -1.6667    0.2183 O   0  0  0  0  0  0  0  0  0  0  0  0
    0.2381    0.4970    0.6194 H   0  0  0  0  0  0  0  0  0  0  0  0
    0.4846    0.5103   -2.0866 H   0  0  0  0  0  0  0  0  0  0  0  0
    0.5633   -1.9022   -0.1690 H   0  0  0  0  0  0  0  0  0  0  0  0
    1.0343   -2.0567   -1.8453 H   0  0  0  0  0  0  0  0  0  0  0  0
    3.8494   -1.3808    0.4828 H   0  0  0  0  0  0  0  0  0  0  0  0
   -1.6343   -0.0098   -3.1400 N   0  0  0  0  0  0  0  0  0  0  0  0
   -2.8312   -0.3055   -3.8922 C   0  0  2  0  0  0  0  0  0  0  0  0
   -4.0310    0.0910   -3.0420 C   0  0  0  0  0  0  0  0  0  0  0  0
   -3.9822    0.1899   -1.8177 O   0  0  0  0  0  0  0  0  0  0  0  0
   -2.8967   -1.7765   -4.2723 C   0  0  0  0  0  0  0  0  0  0  0  0
   -1.0198    0.7277   -3.4719 H   0  0  0  0  0  0  0  0  0  0  0  0
   -2.8001    0.3164   -4.7935 H   0  0  0  0  0  0  0  0  0  0  0  0
   -2.9286   -2.4154   -3.3821 H   0  0  0  0  0  0  0  0  0  0  0  0
   -3.7903   -1.9933   -4.8669 H   0  0  0  0  0  0  0  0  0  0  0  0
   -2.0182   -2.0671   -4.8585 H   0  0  0  0  0  0  0  0  0  0  0  0
   -5.1735    0.2793   -3.8072 N   0  0  0  0  0  0  0  0  0  0  0  0
   -6.4456    0.6480   -3.2311 C   0  0  0  0  0  0  0  0  0  0  0  0
   -5.1175    0.1947   -4.8178 H   0  0  0  0  0  0  0  0  0  0  0  0
   -7.0278   -0.2599   -3.0152 H   0  0  0  0  0  0  0  0  0  0  0  0
   -6.2775    1.2062   -2.2983 H   0  0  0  0  0  0  0  0  0  0  0  0
   -7.0004    1.2789   -3.9412 H   0  0  0  0  0  0  0  0  0  0  0  0
  1  3  1  0  0  0  0
  1  7  1  0  0  0  0
  1  2  2  0  0  0  0
 31 32  1  0  0  0  0
 32 40  1  0  0  0  0
 32 33  2  0  0  0  0
  8  9  1  0  0  0  0
  9 17  1  0  0  0  0
  9 10  2  0  0  0  0
 18 19  1  0  0  0  0
 19 30  1  0  0  0  0
 19 20  2  0  0  0  0
 21 22  1  0  0  0  0
 22 23  2  0  0  0  0
 22 24  1  0  0  0  0
 31 34  1  0  0  0  0
  8 11  1  0  0  0  0
 40 41  1  0  0  0  0
 18 21  1  0  0  0  0
 30 31  1  0  0  0  0
  7  8  1  0  0  0  0
 17 18  1  0  0  0  0
  3  4  1  0  0  0  0
  3  5  1  0  0  0  0
  3  6  1  0  0  0  0
 34 37  1  0  0  0  0
 34 38  1  0  0  0  0
 34 39  1  0  0  0  0
 11 14  1  0  0  0  0
 11 15  1  0  0  0  0
 11 16  1  0  0  0  0
 41 43  1  0  0  0  0
 41 44  1  0  0  0  0
 41 45  1  0  0  0  0
 21 27  1  0  0  0  0
 21 28  1  0  0  0  0
 31 36  1  0  0  0  0
  8 13  1  0  0  0  0
 18 26  1  0  0  0  0
 40 42  1  0  0  0  0
  7 12  1  0  0  0  0
 30 35  1  0  0  0  0
 17 25  1  0  0  0  0
 24 29  1  0  0  0  0
M  END
$$$$

  -OEChem-05262214473D

 45 44  0     1  0  0  0  0  0999 V2000
   -2.2987    4.1032   -0.3022 C   0  0  0  0  0  0  0  0  0  0  0  0
   -1.8049    3.7117   -1.3532 O   0  0  0  0  0  0  0  0  0  0  0  0
   -3.0791    5.3755   -0.2846 C   0  0  0  0  0  0  0  0  0  0  0  0
   -2.4478    6.2532   -0.0717 H   0  0  0  0  0  0  0  0  0  0  0  0
   -3.5571    5.5891   -1.2541 H   0  0  0  0  0  0  0  0  0  0  0  0
   -3.8940    5.4184    0.4556 H   0  0  0  0  0  0  0  0  0  0  0  0
   -2.2137    3.4712    0.9275 N   0  0  0  0  0  0  0  0  0  0  0  0
   -1.5102    2.2327    1.1338 C   0  0  2  0  0  0  0  0  0  0  0  0
   -1.3539    1.5497   -0.2184 C   0  0  0  0  0  0  0  0  0  0  0  0
   -2.0852    1.7861   -1.1778 O   0  0  0  0  0  0  0  0  0  0  0  0
   -2.2477    1.3342    2.1145 C   0  0  0  0  0  0  0  0  0  0  0  0
   -2.6724    3.9052    1.7265 H   0  0  0  0  0  0  0  0  0  0  0  0
   -0.5220    2.4922    1.5290 H   0  0  0  0  0  0  0  0  0  0  0  0
   -3.2400    1.0636    1.7358 H   0  0  0  0  0  0  0  0  0  0  0  0
   -1.6970    0.4046    2.2923 H   0  0  0  0  0  0  0  0  0  0  0  0
   -2.3854    1.8384    3.0772 H   0  0  0  0  0  0  0  0  0  0  0  0
   -0.3283    0.6116   -0.2182 N   0  0  0  0  0  0  0  0  0  0  0  0
    0.0090   -0.1762   -1.3759 C   0  0  2  0  0  0  0  0  0  0  0  0
   -1.2898   -0.6927   -1.9819 C   0  0  0  0  0  0  0  0  0  0  0  0
   -2.0952   -1.3777   -1.3547 O   0  0  0  0  0  0  0  0  0  0  0  0
    0.9423   -1.3325   -1.0268 C   0  0  0  0  0  0  0  0  0  0  0  0
    2.3127   -0.8326   -0.6409 C   0  0  0  0  0  0  0  0  0  0  0  0
    2.8078    0.2033   -1.0656 O   0  0  0  0  0  0  0  0  0  0  0  0
    2.9489   -1.6667    0.2183 O   0  0  0  0  0  0  0  0  0  0  0  0
    0.2381    0.4970    0.6194 H   0  0  0  0  0  0  0  0  0  0  0  0
    0.4846    0.5103   -2.0866 H   0  0  0  0  0  0  0  0  0  0  0  0
    0.5633   -1.9022   -0.1690 H   0  0  0  0  0  0  0  0  0  0  0  0
    1.0343   -2.0567   -1.8453 H   0  0  0  0  0  0  0  0  0  0  0  0
    3.8494   -1.3808    0.4828 H   0  0  0  0  0  0  0  0  0  0  0  0
   -1.4658   -0.2592   -3.2885 N   0  0  0  0  0  0  0  0  0  0  0  0
   -2.6277   -0.6039   -4.0742 C   0  0  2  0  0  0  0  0  0  0  0  0
   -3.8363    0.0838   -3.4531 C   0  0  0  0  0  0  0  0  0  0  0  0
   -3.8701    0.4509   -2.2805 O   0  0  0  0  0  0  0  0  0  0  0  0
   -2.8295   -2.1101   -4.1320 C   0  0  0  0  0  0  0  0  0  0  0  0
   -0.7486    0.3241   -3.7092 H   0  0  0  0  0  0  0  0  0  0  0  0
   -2.4579   -0.2067   -5.0808 H   0  0  0  0  0  0  0  0  0  0  0  0
   -3.0010   -2.5262   -3.1325 H   0  0  0  0  0  0  0  0  0  0  0  0
   -3.6939   -2.3711   -4.7514 H   0  0  0  0  0  0  0  0  0  0  0  0
   -1.9473   -2.6058   -4.5514 H   0  0  0  0  0  0  0  0  0  0  0  0
   -4.8886    0.2005   -4.3505 N   0  0  0  0  0  0  0  0  0  0  0  0
   -6.1512    0.8062   -3.9970 C   0  0  0  0  0  0  0  0  0  0  0  0
   -4.7657   -0.1145   -5.3083 H   0  0  0  0  0  0  0  0  0  0  0  0
   -6.8469    0.0285   -3.6488 H   0  0  0  0  0  0  0  0  0  0  0  0
   -5.9928    1.5421   -3.1948 H   0  0  0  0  0  0  0  0  0  0  0  0
   -6.5755    1.3099   -4.8780 H   0  0  0  0  0  0  0  0  0  0  0  0
  1  3  1  0  0  0  0
  1  7  1  0  0  0  0
  1  2  2  0  0  0  0
 31 32  1  0  0  0  0
 32 40  1  0  0  0  0
 32 33  2  0  0  0  0
  8  9  1  0  0  0  0
  9 17  1  0  0  0  0
  9 10  2  0  0  0  0
 18 19  1  0  0  0  0
 19 30  1  0  0  0  0
 19 20  2  0  0  0  0
 21 22  1  0  0  0  0
 22 23  2  0  0  0  0
 22 24  1  0  0  0  0
 31 34  1  0  0  0  0
  8 11  1  0  0  0  0
 40 41  1  0  0  0  0
 18 21  1  0  0  0  0
 30 31  1  0  0  0  0
  7  8  1  0  0  0  0
 17 18  1  0  0  0  0
  3  4  1  0  0  0  0
  3  5  1  0  0  0  0
  3  6  1  0  0  0  0
 34 37  1  0  0  0  0
 34 38  1  0  0  0  0
 34 39  1  0  0  0  0
 11 14  1  0  0  0  0
 11 15  1  0  0  0  0
 11 16  1  0  0  0  0
 41 43  1  0  0  0  0
 41 44  1  0  0  0  0
 41 45  1  0  0  0  0
 21 27  1  0  0  0  0
 21 28  1  0  0  0  0
 31 36  1  0  0  0  0
  8 13  1  0  0  0  0
 18 26  1  0  0  0  0
 40 42  1  0  0  0  0
  7 12  1  0  0  0  0
 30 35  1  0  0  0  0
 17 25  1  0  0  0  0
 24 29  1  0  0  0  0
M  END
$$$$

  -OEChem-05262214473D

 45 44  0     1  0  0  0  0  0999 V2000
   -2.2987    4.1032   -0.3022 C   0  0  0  0  0  0  0  0  0  0  0  0
   -1.8049    3.7117   -1.3532 O   0  0  0  0  0  0  0  0  0  0  0  0
   -3.0791    5.3755   -0.2846 C   0  0  0  0  0  0  0  0  0  0  0  0
   -2.4478    6.2532   -0.0717 H   0  0  0  0  0  0  0  0  0  0  0  0
   -3.5571    5.5891   -1.2541 H   0  0  0  0  0  0  0  0  0  0  0  0
   -3.8940    5.4184    0.4556 H   0  0  0  0  0  0  0  0  0  0  0  0
   -2.2137    3.4712    0.9275 N   0  0  0  0  0  0  0  0  0  0  0  0
   -1.5102    2.2327    1.1338 C   0  0  2  0  0  0  0  0  0  0  0  0
   -1.3539    1.5497   -0.2184 C   0  0  0  0  0  0  0  0  0  0  0  0
   -2.0852    1.7861   -1.1778 O   0  0  0  0  0  0  0  0  0  0  0  0
   -2.2477    1.3342    2.1145 C   0  0  0  0  0  0  0  0  0  0  0  0
   -2.6724    3.9052    1.7265 H   0  0  0  0  0  0  0  0  0  0  0  0
   -0.5220    2.4922    1.5290 H   0  0  0  0  0  0  0  0  0  0  0  0
   -3.2400    1.0636    1.7358 H   0  0  0  0  0  0  0  0  0  0  0  0
   -1.6970    0.4046    2.2923 H   0  0  0  0  0  0  0  0  0  0  0  0
   -2.3854    1.8384    3.0772 H   0  0  0  0  0  0  0  0  0  0  0  0
   -0.3283    0.6116   -0.2182 N   0  0  0  0  0  0  0  0  0  0  0  0
    0.0090   -0.1762   -1.3759 C   0  0  2  0  0  0  0  0  0  0  0  0
   -1.2898   -0.6927   -1.9819 C   0  0  0  0  0  0  0  0  0  0  0  0
   -2.2128   -1.1408   -1.3047 O   0  0  0  0  0  0  0  0  0  0  0  0
    0.9423   -1.3325   -1.0268 C   0  0  0  0  0  0  0  0  0  0  0  0
    2.3127   -0.8326   -0.6409 C   0  0  0  0  0  0  0  0  0  0  0  0
    2.8078    0.2033   -1.0656 O   0  0  0  0  0  0  0  0  0  0  0  0
    2.9489   -1.6667    0.2183 O   0  0  0  0  0  0  0  0  0  0  0  0
    0.2381    0.4970    0.6194 H   0  0  0  0  0  0  0  0  0  0  0  0
    0.4846    0.5103   -2.0866 H   0  0  0  0  0  0  0  0  0  0  0  0
    0.5633   -1.9022   -0.1690 H   0  0  0  0  0  0  0  0  0  0  0  0
    1.0343   -2.0567   -1.8453 H   0  0  0  0  0  0  0  0  0  0  0  0
    3.8494   -1.3808    0.4828 H   0  0  0  0  0  0  0  0  0  0  0  0
   -1.3157   -0.5502   -3.3622 N   0  0  0  0  0  0  0  0  0  0  0  0
   -2.4458   -0.9533   -4.1662 C   0  0  2  0  0  0  0  0  0  0  0  0
   -3.6129   -0.0339   -3.8316 C   0  0  0  0  0  0  0  0  0  0  0  0
   -3.6943    0.5894   -2.7752 O   0  0  0  0  0  0  0  0  0  0  0  0
   -2.8112   -2.4084   -3.9170 C   0  0  0  0  0  0  0  0  0  0  0  0
   -0.5073   -0.1460   -3.8257 H   0  0  0  0  0  0  0  0  0  0  0  0
   -2.1561   -0.8106   -5.2130 H   0  0  0  0  0  0  0  0  0  0  0  0
   -3.1042   -2.5708   -2.8733 H   0  0  0  0  0  0  0  0  0  0  0  0
   -3.6499   -2.7205   -4.5481 H   0  0  0  0  0  0  0  0  0  0  0  0
   -1.9612   -3.0656   -4.1297 H   0  0  0  0  0  0  0  0  0  0  0  0
   -4.5739   -0.0249   -4.8329 N   0  0  0  0  0  0  0  0  0  0  0  0
   -5.7833    0.7598   -4.7458 C   0  0  0  0  0  0  0  0  0  0  0  0
   -4.4147   -0.5575   -5.6830 H   0  0  0  0  0  0  0  0  0  0  0  0
   -6.5868    0.1487   -4.3087 H   0  0  0  0  0  0  0  0  0  0  0  0
   -5.6045    1.6394   -4.1099 H   0  0  0  0  0  0  0  0  0  0  0  0
   -6.0798    1.0893   -5.7525 H   0  0  0  0  0  0  0  0  0  0  0  0
  1  3  1  0  0  0  0
  1  7  1  0  0  0  0
  1  2  2  0  0  0  0
 31 32  1  0  0  0  0
 32 40  1  0  0  0  0
 32 33  2  0  0  0  0
  8  9  1  0  0  0  0
  9 17  1  0  0  0  0
  9 10  2  0  0  0  0
 18 19  1  0  0  0  0
 19 30  1  0  0  0  0
 19 20  2  0  0  0  0
 21 22  1  0  0  0  0
 22 23  2  0  0  0  0
 22 24  1  0  0  0  0
 31 34  1  0  0  0  0
  8 11  1  0  0  0  0
 40 41  1  0  0  0  0
 18 21  1  0  0  0  0
 30 31  1  0  0  0  0
  7  8  1  0  0  0  0
 17 18  1  0  0  0  0
  3  4  1  0  0  0  0
  3  5  1  0  0  0  0
  3  6  1  0  0  0  0
 34 37  1  0  0  0  0
 34 38  1  0  0  0  0
 34 39  1  0  0  0  0
 11 14  1  0  0  0  0
 11 15  1  0  0  0  0
 11 16  1  0  0  0  0
 41 43  1  0  0  0  0
 41 44  1  0  0  0  0
 41 45  1  0  0  0  0
 21 27  1  0  0  0  0
 21 28  1  0  0  0  0
 31 36  1  0  0  0  0
  8 13  1  0  0  0  0
 18 26  1  0  0  0  0
 40 42  1  0  0  0  0
  7 12  1  0  0  0  0
 30 35  1  0  0  0  0
 17 25  1  0  0  0  0
 24 29  1  0  0  0  0
M  END
$$$$

  -OEChem-05262214473D

 45 44  0     1  0  0  0  0  0999 V2000
   -2.2987    4.1032   -0.3022 C   0  0  0  0  0  0  0  0  0  0  0  0
   -1.8049    3.7117   -1.3532 O   0  0  0  0  0  0  0  0  0  0  0  0
   -3.0791    5.3755   -0.2846 C   0  0  0  0  0  0  0  0  0  0  0  0
   -2.4478    6.2532   -0.0717 H   0  0  0  0  0  0  0  0  0  0  0  0
   -3.5571    5.5891   -1.2541 H   0  0  0  0  0  0  0  0  0  0  0  0
   -3.8940    5.4184    0.4556 H   0  0  0  0  0  0  0  0  0  0  0  0
   -2.2137    3.4712    0.9275 N   0  0  0  0  0  0  0  0  0  0  0  0
   -1.5102    2.2327    1.1338 C   0  0  2  0  0  0  0  0  0  0  0  0
   -1.3539    1.5497   -0.2184 C   0  0  0  0  0  0  0  0  0  0  0  0
   -2.0852    1.7861   -1.1778 O   0  0  0  0  0  0  0  0  0  0  0  0
   -2.2477    1.3342    2.1145 C   0  0  0  0  0  0  0  0  0  0  0  0
   -2.6724    3.9052    1.7265 H   0  0  0  0  0  0  0  0  0  0  0  0
   -0.5220    2.4922    1.5290 H   0  0  0  0  0  0  0  0  0  0  0  0
   -3.2400    1.0636    1.7358 H   0  0  0  0  0  0  0  0  0  0  0  0
   -1.6970    0.4046    2.2923 H   0  0  0  0  0  0  0  0  0  0  0  0
   -2.3854    1.8384    3.0772 H   0  0  0  0  0  0  0  0  0  0  0  0
   -0.3283    0.6116   -0.2182 N   0  0  0  0  0  0  0  0  0  0  0  0
    0.0090   -0.1762   -1.3759 C   0  0  2  0  0  0  0  0  0  0  0  0
   -1.2898   -0.6927   -1.9819 C   0  0  0  0  0  0  0  0  0  0  0  0
   -2.3063   -0.8888   -1.3190 O   0  0  0  0  0  0  0  0  0  0  0  0
    0.9423   -1.3325   -1.0268 C   0  0  0  0  0  0  0  0  0  0  0  0
    2.3127   -0.8326   -0.6409 C   0  0  0  0  0  0  0  0  0  0  0  0
    2.8078    0.2033   -1.0656 O   0  0  0  0  0  0  0  0  0  0  0  0
    2.9489   -1.6667    0.2183 O   0  0  0  0  0  0  0  0  0  0  0  0
    0.2381    0.4970    0.6194 H   0  0  0  0  0  0  0  0  0  0  0  0
    0.4846    0.5103   -2.0866 H   0  0  0  0  0  0  0  0  0  0  0  0
    0.5633   -1.9022   -0.1690 H   0  0  0  0  0  0  0  0  0  0  0  0
    1.0343   -2.0567   -1.8453 H   0  0  0  0  0  0  0  0  0  0  0  0
    3.8494   -1.3808    0.4828 H   0  0  0  0  0  0  0  0  0  0  0  0
   -1.1943   -0.8630   -3.3559 N   0  0  0  0  0  0  0  0  0  0  0  0
   -2.2980   -1.3299   -4.1620 C   0  0  2  0  0  0  0  0  0  0  0  0
   -3.3761   -0.2541   -4.1516 C   0  0  0  0  0  0  0  0  0  0  0  0
   -3.4669    0.5959   -3.2683 O   0  0  0  0  0  0  0  0  0  0  0  0
   -2.8432   -2.6508   -3.6419 C   0  0  0  0  0  0  0  0  0  0  0  0
   -0.3124   -0.6507   -3.8132 H   0  0  0  0  0  0  0  0  0  0  0  0
   -1.9152   -1.4542   -5.1809 H   0  0  0  0  0  0  0  0  0  0  0  0
   -3.2313   -2.5460   -2.6221 H   0  0  0  0  0  0  0  0  0  0  0  0
   -3.6611   -3.0176   -4.2707 H   0  0  0  0  0  0  0  0  0  0  0  0
   -2.0590   -3.4153   -3.6221 H   0  0  0  0  0  0  0  0  0  0  0  0
   -4.2508   -0.3815   -5.2215 N   0  0  0  0  0  0  0  0  0  0  0  0
   -5.3670    0.5118   -5.4265 C   0  0  0  0  0  0  0  0  0  0  0  0
   -4.0884   -1.1043   -5.9164 H   0  0  0  0  0  0  0  0  0  0  0  0
   -6.2653    0.0924   -4.9497 H   0  0  0  0  0  0  0  0  0  0  0  0
   -5.1391    1.4914   -4.9812 H   0  0  0  0  0  0  0  0  0  0  0  0
   -5.5469    0.6322   -6.5050 H   0  0  0  0  0  0  0  0  0  0  0  0
  1  3  1  0  0  0  0
  1  7  1  0  0  0  0
  1  2  2  0  0  0  0
 31 32  1  0  0  0  0
 32 40  1  0  0  0  0
 32 33  2  0  0  0  0
  8  9  1  0  0  0  0
  9 17  1  0  0  0  0
  9 10  2  0  0  0  0
 18 19  1  0  0  0  0
 19 30  1  0  0  0  0
 19 20  2  0  0  0  0
 21 22  1  0  0  0  0
 22 23  2  0  0  0  0
 22 24  1  0  0  0  0
 31 34  1  0  0  0  0
  8 11  1  0  0  0  0
 40 41  1  0  0  0  0
 18 21  1  0  0  0  0
 30 31  1  0  0  0  0
  7  8  1  0  0  0  0
 17 18  1  0  0  0  0
  3  4  1  0  0  0  0
  3  5  1  0  0  0  0
  3  6  1  0  0  0  0
 34 37  1  0  0  0  0
 34 38  1  0  0  0  0
 34 39  1  0  0  0  0
 11 14  1  0  0  0  0
 11 15  1  0  0  0  0
 11 16  1  0  0  0  0
 41 43  1  0  0  0  0
 41 44  1  0  0  0  0
 41 45  1  0  0  0  0
 21 27  1  0  0  0  0
 21 28  1  0  0  0  0
 31 36  1  0  0  0  0
  8 13  1  0  0  0  0
 18 26  1  0  0  0  0
 40 42  1  0  0  0  0
  7 12  1  0  0  0  0
 30 35  1  0  0  0  0
 17 25  1  0  0  0  0
 24 29  1  0  0  0  0
M  END
$$$$

  -OEChem-05262214473D

 45 44  0     1  0  0  0  0  0999 V2000
   -2.2987    4.1032   -0.3022 C   0  0  0  0  0  0  0  0  0  0  0  0
   -1.8049    3.7117   -1.3532 O   0  0  0  0  0  0  0  0  0  0  0  0
   -3.0791    5.3755   -0.2846 C   0  0  0  0  0  0  0  0  0  0  0  0
   -2.4478    6.2532   -0.0717 H   0  0  0  0  0  0  0  0  0  0  0  0
   -3.5571    5.5891   -1.2541 H   0  0  0  0  0  0  0  0  0  0  0  0
   -3.8940    5.4184    0.4556 H   0  0  0  0  0  0  0  0  0  0  0  0
   -2.2137    3.4712    0.9275 N   0  0  0  0  0  0  0  0  0  0  0  0
   -1.5102    2.2327    1.1338 C   0  0  2  0  0  0  0  0  0  0  0  0
   -1.3539    1.5497   -0.2184 C   0  0  0  0  0  0  0  0  0  0  0  0
   -2.0852    1.7861   -1.1778 O   0  0  0  0  0  0  0  0  0  0  0  0
   -2.2477    1.3342    2.1145 C   0  0  0  0  0  0  0  0  0  0  0  0
   -2.6724    3.9052    1.7265 H   0  0  0  0  0  0  0  0  0  0  0  0
   -0.5220    2.4922    1.5290 H   0  0  0  0  0  0  0  0  0  0  0  0
   -3.2400    1.0636    1.7358 H   0  0  0  0  0  0  0  0  0  0  0  0
   -1.6970    0.4046    2.2923 H   0  0  0  0  0  0  0  0  0  0  0  0
   -2.3854    1.8384    3.0772 H   0  0  0  0  0  0  0  0  0  0  0  0
   -0.3283    0.6116   -0.2182 N   0  0  0  0  0  0  0  0  0  0  0  0
    0.0090   -0.1762   -1.3759 C   0  0  2  0  0  0  0  0  0  0  0  0
   -1.2898   -0.6927   -1.9819 C   0  0  0  0  0  0  0  0  0  0  0  0
   -2.3695   -0.6389   -1.3966 O   0  0  0  0  0  0  0  0  0  0  0  0
    0.9423   -1.3325   -1.0268 C   0  0  0  0  0  0  0  0  0  0  0  0
    2.3127   -0.8326   -0.6409 C   0  0  0  0  0  0  0  0  0  0  0  0
    2.8078    0.2033   -1.0656 O   0  0  0  0  0  0  0  0  0  0  0  0
    2.9489   -1.6667    0.2183 O   0  0  0  0  0  0  0  0  0  0  0  0
    0.2381    0.4970    0.6194 H   0  0  0  0  0  0  0  0  0  0  0  0
    0.4846    0.5103   -2.0866 H   0  0  0  0  0  0  0  0  0  0  0  0
    0.5633   -1.9022   -0.1690 H   0  0  0  0  0  0  0  0  0  0  0  0
    1.0343   -2.0567   -1.8453 H   0  0  0  0  0  0  0  0  0  0  0  0
    3.8494   -1.3808    0.4828 H   0  0  0  0  0  0  0  0  0  0  0  0
   -1.1097   -1.1763   -3.2703 N   0  0  0  0  0  0  0  0  0  0  0  0
   -2.1944   -1.7078   -4.0620 C   0  0  2  0  0  0  0  0  0  0  0  0
   -3.1419   -0.5618   -4.3913 C   0  0  0  0  0  0  0  0  0  0  0  0
   -3.2032    0.4700   -3.7260 O   0  0  0  0  0  0  0  0  0  0  0  0
   -2.9231   -2.8211   -3.3255 C   0  0  0  0  0  0  0  0  0  0  0  0
   -0.1773   -1.1554   -3.6727 H   0  0  0  0  0  0  0  0  0  0  0  0
   -1.7515   -2.0936   -4.9867 H   0  0  0  0  0  0  0  0  0  0  0  0
   -3.3735   -2.4536   -2.3962 H   0  0  0  0  0  0  0  0  0  0  0  0
   -3.7269   -3.2423   -3.9382 H   0  0  0  0  0  0  0  0  0  0  0  0
   -2.2340   -3.6311   -3.0632 H   0  0  0  0  0  0  0  0  0  0  0  0
   -3.9413   -0.8449   -5.4899 N   0  0  0  0  0  0  0  0  0  0  0  0
   -4.9308    0.0792   -5.9928 C   0  0  0  0  0  0  0  0  0  0  0  0
   -3.8090   -1.7176   -5.9925 H   0  0  0  0  0  0  0  0  0  0  0  0
   -5.9043   -0.1365   -5.5283 H   0  0  0  0  0  0  0  0  0  0  0  0
   -4.6284    1.1084   -5.7493 H   0  0  0  0  0  0  0  0  0  0  0  0
   -5.0132   -0.0302   -7.0843 H   0  0  0  0  0  0  0  0  0  0  0  0
  1  3  1  0  0  0  0
  1  7  1  0  0  0  0
  1  2  2  0  0  0  0
 31 32  1  0  0  0  0
 32 40  1  0  0  0  0
 32 33  2  0  0  0  0
  8  9  1  0  0  0  0
  9 17  1  0  0  0  0
  9 10  2  0  0  0  0
 18 19  1  0  0  0  0
 19 30  1  0  0  0  0
 19 20  2  0  0  0  0
 21 22  1  0  0  0  0
 22 23  2  0  0  0  0
 22 24  1  0  0  0  0
 31 34  1  0  0  0  0
  8 11  1  0  0  0  0
 40 41  1  0  0  0  0
 18 21  1  0  0  0  0
 30 31  1  0  0  0  0
  7  8  1  0  0  0  0
 17 18  1  0  0  0  0
  3  4  1  0  0  0  0
  3  5  1  0  0  0  0
  3  6  1  0  0  0  0
 34 37  1  0  0  0  0
 34 38  1  0  0  0  0
 34 39  1  0  0  0  0
 11 14  1  0  0  0  0
 11 15  1  0  0  0  0
 11 16  1  0  0  0  0
 41 43  1  0  0  0  0
 41 44  1  0  0  0  0
 41 45  1  0  0  0  0
 21 27  1  0  0  0  0
 21 28  1  0  0  0  0
 31 36  1  0  0  0  0
  8 13  1  0  0  0  0
 18 26  1  0  0  0  0
 40 42  1  0  0  0  0
  7 12  1  0  0  0  0
 30 35  1  0  0  0  0
 17 25  1  0  0  0  0
 24 29  1  0  0  0  0
M  END
$$$$

  -OEChem-05262214473D

 45 44  0     1  0  0  0  0  0999 V2000
   -2.2987    4.1032   -0.3022 C   0  0  0  0  0  0  0  0  0  0  0  0
   -1.8049    3.7117   -1.3532 O   0  0  0  0  0  0  0  0  0  0  0  0
   -3.0791    5.3755   -0.2846 C   0  0  0  0  0  0  0  0  0  0  0  0
   -2.4478    6.2532   -0.0717 H   0  0  0  0  0  0  0  0  0  0  0  0
   -3.5571    5.5891   -1.2541 H   0  0  0  0  0  0  0  0  0  0  0  0
   -3.8940    5.4184    0.4556 H   0  0  0  0  0  0  0  0  0  0  0  0
   -2.2137    3.4712    0.9275 N   0  0  0  0  0  0  0  0  0  0  0  0
   -1.5102    2.2327    1.1338 C   0  0  2  0  0  0  0  0  0  0  0  0
   -1.3539    1.5497   -0.2184 C   0  0  0  0  0  0  0  0  0  0  0  0
   -2.0852    1.7861   -1.1778 O   0  0  0  0  0  0  0  0  0  0  0  0
   -2.2477    1.3342    2.1145 C   0  0  0  0  0  0  0  0  0  0  0  0
   -2.6724    3.9052    1.7265 H   0  0  0  0  0  0  0  0  0  0  0  0
   -0.5220    2.4922    1.5290 H   0  0  0  0  0  0  0  0  0  0  0  0
   -3.2400    1.0636    1.7358 H   0  0  0  0  0  0  0  0  0  0  0  0
   -1.6970    0.4046    2.2923 H   0  0  0  0  0  0  0  0  0  0  0  0
   -2.3854    1.8384    3.0772 H   0  0  0  0  0  0  0  0  0  0  0  0
   -0.3283    0.6116   -0.2182 N   0  0  0  0  0  0  0  0  0  0  0  0
    0.0090   -0.1762   -1.3759 C   0  0  2  0  0  0  0  0  0  0  0  0
   -1.2635   -0.3769   -2.1892 C   0  0  0  0  0  0  0  0  0  0  0  0
   -2.3445    0.1157   -1.8732 O   0  0  0  0  0  0  0  0  0  0  0  0
    0.6251   -1.5191   -0.9923 C   0  0  0  0  0  0  0  0  0  0  0  0
    1.9961   -1.3397   -0.3880 C   0  0  0  0  0  0  0  0  0  0  0  0
    2.7490   -0.4143   -0.6624 O   0  0  0  0  0  0  0  0  0  0  0  0
    2.3147   -2.3282    0.4838 O   0  0  0  0  0  0  0  0  0  0  0  0
    0.2381    0.4970    0.6194 H   0  0  0  0  0  0  0  0  0  0  0  0
    0.7143    0.4253   -1.9619 H   0  0  0  0  0  0  0  0  0  0  0  0
    0.0154   -2.0338   -0.2390 H   0  0  0  0  0  0  0  0  0  0  0  0
    0.6878   -2.2082   -1.8432 H   0  0  0  0  0  0  0  0  0  0  0  0
    3.2053   -2.2525    0.8884 H   0  0  0  0  0  0  0  0  0  0  0  0
   -1.0395   -1.1300   -3.3332 N   0  0  0  0  0  0  0  0  0  0  0  0
   -2.0872   -1.4458   -4.2759 C   0  0  2  0  0  0  0  0  0  0  0  0
   -2.5191   -0.1504   -4.9504 C   0  0  0  0  0  0  0  0  0  0  0  0
   -2.3406    0.9582   -4.4502 O   0  0  0  0  0  0  0  0  0  0  0  0
   -3.2647   -2.1198   -3.5891 C   0  0  0  0  0  0  0  0  0  0  0  0
   -0.1008   -1.4729   -3.5149 H   0  0  0  0  0  0  0  0  0  0  0  0
   -1.6494   -2.1182   -5.0217 H   0  0  0  0  0  0  0  0  0  0  0  0
   -3.7164   -1.4612   -2.8383 H   0  0  0  0  0  0  0  0  0  0  0  0
   -4.0459   -2.3844   -4.3094 H   0  0  0  0  0  0  0  0  0  0  0  0
   -2.9465   -3.0357   -3.0794 H   0  0  0  0  0  0  0  0  0  0  0  0
   -3.1660   -0.3805   -6.1565 N   0  0  0  0  0  0  0  0  0  0  0  0
   -3.6821    0.6874   -6.9806 C   0  0  0  0  0  0  0  0  0  0  0  0
   -3.2529   -1.3312   -6.5035 H   0  0  0  0  0  0  0  0  0  0  0  0
   -4.7355    0.8731   -6.7237 H   0  0  0  0  0  0  0  0  0  0  0  0
   -3.0957    1.6015   -6.8057 H   0  0  0  0  0  0  0  0  0  0  0  0
   -3.6081    0.4013   -8.0401 H   0  0  0  0  0  0  0  0  0  0  0  0
  1  3  1  0  0  0  0
  1  7  1  0  0  0  0
  1  2  2  0  0  0  0
 31 32  1  0  0  0  0
 32 40  1  0  0  0  0
 32 33  2  0  0  0  0
  8  9  1  0  0  0  0
  9 17  1  0  0  0  0
  9 10  2  0  0  0  0
 18 19  1  0  0  0  0
 19 30  1  0  0  0  0
 19 20  2  0  0  0  0
 21 22  1  0  0  0  0
 22 23  2  0  0  0  0
 22 24  1  0  0  0  0
 31 34  1  0  0  0  0
  8 11  1  0  0  0  0
 40 41  1  0  0  0  0
 18 21  1  0  0  0  0
 30 31  1  0  0  0  0
  7  8  1  0  0  0  0
 17 18  1  0  0  0  0
  3  4  1  0  0  0  0
  3  5  1  0  0  0  0
  3  6  1  0  0  0  0
 34 37  1  0  0  0  0
 34 38  1  0  0  0  0
 34 39  1  0  0  0  0
 11 14  1  0  0  0  0
 11 15  1  0  0  0  0
 11 16  1  0  0  0  0
 41 43  1  0  0  0  0
 41 44  1  0  0  0  0
 41 45  1  0  0  0  0
 21 27  1  0  0  0  0
 21 28  1  0  0  0  0
 31 36  1  0  0  0  0
  8 13  1  0  0  0  0
 18 26  1  0  0  0  0
 40 42  1  0  0  0  0
  7 12  1  0  0  0  0
 30 35  1  0  0  0  0
 17 25  1  0  0  0  0
 24 29  1  0  0  0  0
M  END
$$$$

  -OEChem-05262214473D

 45 44  0     1  0  0  0  0  0999 V2000
   -2.2987    4.1032   -0.3022 C   0  0  0  0  0  0  0  0  0  0  0  0
   -1.8049    3.7117   -1.3532 O   0  0  0  0  0  0  0  0  0  0  0  0
   -3.0791    5.3755   -0.2846 C   0  0  0  0  0  0  0  0  0  0  0  0
   -2.4478    6.2532   -0.0717 H   0  0  0  0  0  0  0  0  0  0  0  0
   -3.5571    5.5891   -1.2541 H   0  0  0  0  0  0  0  0  0  0  0  0
   -3.8940    5.4184    0.4556 H   0  0  0  0  0  0  0  0  0  0  0  0
   -2.2137    3.4712    0.9275 N   0  0  0  0  0  0  0  0  0  0  0  0
   -1.5102    2.2327    1.1338 C   0  0  2  0  0  0  0  0  0  0  0  0
   -1.3539    1.5497   -0.2184 C   0  0  0  0  0  0  0  0  0  0  0  0
   -2.0852    1.7861   -1.1778 O   0  0  0  0  0  0  0  0  0  0  0  0
   -2.2477    1.3342    2.1145 C   0  0  0  0  0  0  0  0  0  0  0  0
   -2.6724    3.9052    1.7265 H   0  0  0  0  0  0  0  0  0  0  0  0
   -0.5220    2.4922    1.5290 H   0  0  0  0  0  0  0  0  0  0  0  0
   -3.2400    1.0636    1.7358 H   0  0  0  0  0  0  0  0  0  0  0  0
   -1.6970    0.4046    2.2923 H   0  0  0  0  0  0  0  0  0  0  0  0
   -2.3854    1.8384    3.0772 H   0  0  0  0  0  0  0  0  0  0  0  0
   -0.3283    0.6116   -0.2182 N   0  0  0  0  0  0  0  0  0  0  0  0
    0.0090   -0.1762   -1.3759 C   0  0  2  0  0  0  0  0  0  0  0  0
   -1.2635   -0.3769   -2.1892 C   0  0  0  0  0  0  0  0  0  0  0  0
   -2.2695    0.3136   -2.0394 O   0  0  0  0  0  0  0  0  0  0  0  0
    0.6251   -1.5191   -0.9923 C   0  0  0  0  0  0  0  0  0  0  0  0
    1.9961   -1.3397   -0.3880 C   0  0  0  0  0  0  0  0  0  0  0  0
    2.7490   -0.4143   -0.6624 O   0  0  0  0  0  0  0  0  0  0  0  0
    2.3147   -2.3282    0.4838 O   0  0  0  0  0  0  0  0  0  0  0  0
    0.2381    0.4970    0.6194 H   0  0  0  0  0  0  0  0  0  0  0  0
    0.7143    0.4253   -1.9619 H   0  0  0  0  0  0  0  0  0  0  0  0
    0.0154   -2.0338   -0.2390 H   0  0  0  0  0  0  0  0  0  0  0  0
    0.6878   -2.2082   -1.8432 H   0  0  0  0  0  0  0  0  0  0  0  0
    3.2053   -2.2525    0.8884 H   0  0  0  0  0  0  0  0  0  0  0  0
   -1.1271   -1.3849   -3.1333 N   0  0  0  0  0  0  0  0  0  0  0  0
   -2.1909   -1.7554   -4.0371 C   0  0  2  0  0  0  0  0  0  0  0  0
   -2.4218   -0.5927   -4.9934 C   0  0  0  0  0  0  0  0  0  0  0  0
   -2.0973    0.5641   -4.7337 O   0  0  0  0  0  0  0  0  0  0  0  0
   -3.4650   -2.0985   -3.2810 C   0  0  0  0  0  0  0  0  0  0  0  0
   -0.2433   -1.8822   -3.1910 H   0  0  0  0  0  0  0  0  0  0  0  0
   -1.8390   -2.6272   -4.5994 H   0  0  0  0  0  0  0  0  0  0  0  0
   -3.8327   -1.2371   -2.7116 H   0  0  0  0  0  0  0  0  0  0  0  0
   -4.2620   -2.4066   -3.9657 H   0  0  0  0  0  0  0  0  0  0  0  0
   -3.2897   -2.9150   -2.5723 H   0  0  0  0  0  0  0  0  0  0  0  0
   -3.0719   -0.9918   -6.1528 N   0  0  0  0  0  0  0  0  0  0  0  0
   -3.4156   -0.0704   -7.2106 C   0  0  0  0  0  0  0  0  0  0  0  0
   -3.2863   -1.9749   -6.2924 H   0  0  0  0  0  0  0  0  0  0  0  0
   -4.4367    0.3068   -7.0516 H   0  0  0  0  0  0  0  0  0  0  0  0
   -2.7088    0.7724   -7.2065 H   0  0  0  0  0  0  0  0  0  0  0  0
   -3.3630   -0.5885   -8.1795 H   0  0  0  0  0  0  0  0  0  0  0  0
  1  3  1  0  0  0  0
  1  7  1  0  0  0  0
  1  2  2  0  0  0  0
 31 32  1  0  0  0  0
 32 40  1  0  0  0  0
 32 33  2  0  0  0  0
  8  9  1  0  0  0  0
  9 17  1  0  0  0  0
  9 10  2  0  0  0  0
 18 19  1  0  0  0  0
 19 30  1  0  0  0  0
 19 20  2  0  0  0  0
 21 22  1  0  0  0  0
 22 23  2  0  0  0  0
 22 24  1  0  0  0  0
 31 34  1  0  0  0  0
  8 11  1  0  0  0  0
 40 41  1  0  0  0  0
 18 21  1  0  0  0  0
 30 31  1  0  0  0  0
  7  8  1  0  0  0  0
 17 18  1  0  0  0  0
  3  4  1  0  0  0  0
  3  5  1  0  0  0  0
  3  6  1  0  0  0  0
 34 37  1  0  0  0  0
 34 38  1  0  0  0  0
 34 39  1  0  0  0  0
 11 14  1  0  0  0  0
 11 15  1  0  0  0  0
 11 16  1  0  0  0  0
 41 43  1  0  0  0  0
 41 44  1  0  0  0  0
 41 45  1  0  0  0  0
 21 27  1  0  0  0  0
 21 28  1  0  0  0  0
 31 36  1  0  0  0  0
  8 13  1  0  0  0  0
 18 26  1  0  0  0  0
 40 42  1  0  0  0  0
  7 12  1  0  0  0  0
 30 35  1  0  0  0  0
 17 25  1  0  0  0  0
 24 29  1  0  0  0  0
M  END
$$$$

  -OEChem-05262214473D

 45 44  0     1  0  0  0  0  0999 V2000
   -2.2987    4.1032   -0.3022 C   0  0  0  0  0  0  0  0  0  0  0  0
   -1.8049    3.7117   -1.3532 O   0  0  0  0  0  0  0  0  0  0  0  0
   -3.0791    5.3755   -0.2846 C   0  0  0  0  0  0  0  0  0  0  0  0
   -2.4478    6.2532   -0.0717 H   0  0  0  0  0  0  0  0  0  0  0  0
   -3.5571    5.5891   -1.2541 H   0  0  0  0  0  0  0  0  0  0  0  0
   -3.8940    5.4184    0.4556 H   0  0  0  0  0  0  0  0  0  0  0  0
   -2.2137    3.4712    0.9275 N   0  0  0  0  0  0  0  0  0  0  0  0
   -1.5102    2.2327    1.1338 C   0  0  2  0  0  0  0  0  0  0  0  0
   -1.3539    1.5497   -0.2184 C   0  0  0  0  0  0  0  0  0  0  0  0
   -2.0852    1.7861   -1.1778 O   0  0  0  0  0  0  0  0  0  0  0  0
   -2.2477    1.3342    2.1145 C   0  0  0  0  0  0  0  0  0  0  0  0
   -2.6724    3.9052    1.7265 H   0  0  0  0  0  0  0  0  0  0  0  0
   -0.5220    2.4922    1.5290 H   0  0  0  0  0  0  0  0  0  0  0  0
   -3.2400    1.0636    1.7358 H   0  0  0  0  0  0  0  0  0  0  0  0
   -1.6970    0.4046    2.2923 H   0  0  0  0  0  0  0  0  0  0  0  0
   -2.3854    1.8384    3.0772 H   0  0  0  0  0  0  0  0  0  0  0  0
   -0.3283    0.6116   -0.2182 N   0  0  0  0  0  0  0  0  0  0  0  0
    0.0090   -0.1762   -1.3759 C   0  0  2  0  0  0  0  0  0  0  0  0
   -1.2635   -0.3769   -2.1892 C   0  0  0  0  0  0  0  0  0  0  0  0
   -2.1639    0.4584   -2.2403 O   0  0  0  0  0  0  0  0  0  0  0  0
    0.6251   -1.5191   -0.9923 C   0  0  0  0  0  0  0  0  0  0  0  0
    1.9961   -1.3397   -0.3880 C   0  0  0  0  0  0  0  0  0  0  0  0
    2.7490   -0.4143   -0.6624 O   0  0  0  0  0  0  0  0  0  0  0  0
    2.3147   -2.3282    0.4838 O   0  0  0  0  0  0  0  0  0  0  0  0
    0.2381    0.4970    0.6194 H   0  0  0  0  0  0  0  0  0  0  0  0
    0.7143    0.4253   -1.9619 H   0  0  0  0  0  0  0  0  0  0  0  0
    0.0154   -2.0338   -0.2390 H   0  0  0  0  0  0  0  0  0  0  0  0
    0.6878   -2.2082   -1.8432 H   0  0  0  0  0  0  0  0  0  0  0  0
    3.2053   -2.2525    0.8884 H   0  0  0  0  0  0  0  0  0  0  0  0
   -1.2537   -1.5759   -2.8881 N   0  0  0  0  0  0  0  0  0  0  0  0
   -2.3421   -1.9885   -3.7431 C   0  0  2  0  0  0  0  0  0  0  0  0
   -2.3875   -1.0428   -4.9361 C   0  0  0  0  0  0  0  0  0  0  0  0
   -1.9070    0.0885   -4.9139 O   0  0  0  0  0  0  0  0  0  0  0  0
   -3.6660   -1.9835   -2.9949 C   0  0  0  0  0  0  0  0  0  0  0  0
   -0.4485   -2.1880   -2.7945 H   0  0  0  0  0  0  0  0  0  0  0  0
   -2.1069   -3.0013   -4.0880 H   0  0  0  0  0  0  0  0  0  0  0  0
   -3.9185   -0.9771   -2.6416 H   0  0  0  0  0  0  0  0  0  0  0  0
   -4.4856   -2.3239   -3.6363 H   0  0  0  0  0  0  0  0  0  0  0  0
   -3.6218   -2.6414   -2.1202 H   0  0  0  0  0  0  0  0  0  0  0  0
   -3.0657   -1.5945   -6.0139 N   0  0  0  0  0  0  0  0  0  0  0  0
   -3.2551   -0.8889   -7.2598 C   0  0  0  0  0  0  0  0  0  0  0  0
   -3.4147   -2.5463   -5.9505 H   0  0  0  0  0  0  0  0  0  0  0  0
   -4.2151   -0.3524   -7.2357 H   0  0  0  0  0  0  0  0  0  0  0  0
   -2.4360   -0.1685   -7.4012 H   0  0  0  0  0  0  0  0  0  0  0  0
   -3.2582   -1.6085   -8.0918 H   0  0  0  0  0  0  0  0  0  0  0  0
  1  3  1  0  0  0  0
  1  7  1  0  0  0  0
  1  2  2  0  0  0  0
 31 32  1  0  0  0  0
 32 40  1  0  0  0  0
 32 33  2  0  0  0  0
  8  9  1  0  0  0  0
  9 17  1  0  0  0  0
  9 10  2  0  0  0  0
 18 19  1  0  0  0  0
 19 30  1  0  0  0  0
 19 20  2  0  0  0  0
 21 22  1  0  0  0  0
 22 23  2  0  0  0  0
 22 24  1  0  0  0  0
 31 34  1  0  0  0  0
  8 11  1  0  0  0  0
 40 41  1  0  0  0  0
 18 21  1  0  0  0  0
 30 31  1  0  0  0  0
  7  8  1  0  0  0  0
 17 18  1  0  0  0  0
  3  4  1  0  0  0  0
  3  5  1  0  0  0  0
  3  6  1  0  0  0  0
 34 37  1  0  0  0  0
 34 38  1  0  0  0  0
 34 39  1  0  0  0  0
 11 14  1  0  0  0  0
 11 15  1  0  0  0  0
 11 16  1  0  0  0  0
 41 43  1  0  0  0  0
 41 44  1  0  0  0  0
 41 45  1  0  0  0  0
 21 27  1  0  0  0  0
 21 28  1  0  0  0  0
 31 36  1  0  0  0  0
  8 13  1  0  0  0  0
 18 26  1  0  0  0  0
 40 42  1  0  0  0  0
  7 12  1  0  0  0  0
 30 35  1  0  0  0  0
 17 25  1  0  0  0  0
 24 29  1  0  0  0  0
M  END
$$$$

  -OEChem-05262214473D

 45 44  0     1  0  0  0  0  0999 V2000
   -2.2987    4.1032   -0.3022 C   0  0  0  0  0  0  0  0  0  0  0  0
   -1.8049    3.7117   -1.3532 O   0  0  0  0  0  0  0  0  0  0  0  0
   -3.0791    5.3755   -0.2846 C   0  0  0  0  0  0  0  0  0  0  0  0
   -2.4478    6.2532   -0.0717 H   0  0  0  0  0  0  0  0  0  0  0  0
   -3.5571    5.5891   -1.2541 H   0  0  0  0  0  0  0  0  0  0  0  0
   -3.8940    5.4184    0.4556 H   0  0  0  0  0  0  0  0  0  0  0  0
   -2.2137    3.4712    0.9275 N   0  0  0  0  0  0  0  0  0  0  0  0
   -1.5102    2.2327    1.1338 C   0  0  2  0  0  0  0  0  0  0  0  0
   -1.3539    1.5497   -0.2184 C   0  0  0  0  0  0  0  0  0  0  0  0
   -2.0852    1.7861   -1.1778 O   0  0  0  0  0  0  0  0  0  0  0  0
   -2.2477    1.3342    2.1145 C   0  0  0  0  0  0  0  0  0  0  0  0
   -2.6724    3.9052    1.7265 H   0  0  0  0  0  0  0  0  0  0  0  0
   -0.5220    2.4922    1.5290 H   0  0  0  0  0  0  0  0  0  0  0  0
   -3.2400    1.0636    1.7358 H   0  0  0  0  0  0  0  0  0  0  0  0
   -1.6970    0.4046    2.2923 H   0  0  0  0  0  0  0  0  0  0  0  0
   -2.3854    1.8384    3.0772 H   0  0  0  0  0  0  0  0  0  0  0  0
   -0.3283    0.6116   -0.2182 N   0  0  0  0  0  0  0  0  0  0  0  0
    0.0090   -0.1762   -1.3759 C   0  0  2  0  0  0  0  0  0  0  0  0
   -1.2635   -0.3769   -2.1892 C   0  0  0  0  0  0  0  0  0  0  0  0
   -2.0351    0.5403   -2.4620 O   0  0  0  0  0  0  0  0  0  0  0  0
    0.6251   -1.5191   -0.9923 C   0  0  0  0  0  0  0  0  0  0  0  0
    1.9961   -1.3397   -0.3880 C   0  0  0  0  0  0  0  0  0  0  0  0
    2.7490   -0.4143   -0.6624 O   0  0  0  0  0  0  0  0  0  0  0  0
    2.3147   -2.3282    0.4838 O   0  0  0  0  0  0  0  0  0  0  0  0
    0.2381    0.4970    0.6194 H   0  0  0  0  0  0  0  0  0  0  0  0
    0.7143    0.4253   -1.9619 H   0  0  0  0  0  0  0  0  0  0  0  0
    0.0154   -2.0338   -0.2390 H   0  0  0  0  0  0  0  0  0  0  0  0
    0.6878   -2.2082   -1.8432 H   0  0  0  0  0  0  0  0  0  0  0  0
    3.2053   -2.2525    0.8884 H   0  0  0  0  0  0  0  0  0  0  0  0
   -1.4107   -1.6898   -2.6143 N   0  0  0  0  0  0  0  0  0  0  0  0
   -2.5303   -2.1292   -3.4139 C   0  0  2  0  0  0  0  0  0  0  0  0
   -2.4186   -1.4698   -4.7822 C   0  0  0  0  0  0  0  0  0  0  0  0
   -1.7829   -0.4362   -4.9787 O   0  0  0  0  0  0  0  0  0  0  0  0
   -3.8541   -1.7829   -2.7502 C   0  0  0  0  0  0  0  0  0  0  0  0
   -0.7025   -2.3692   -2.3524 H   0  0  0  0  0  0  0  0  0  0  0  0
   -2.4348   -3.2151   -3.5223 H   0  0  0  0  0  0  0  0  0  0  0  0
   -3.9677   -0.6990   -2.6331 H   0  0  0  0  0  0  0  0  0  0  0  0
   -4.7014   -2.1419   -3.3436 H   0  0  0  0  0  0  0  0  0  0  0  0
   -3.9202   -2.2335   -1.7540 H   0  0  0  0  0  0  0  0  0  0  0  0
   -3.1476   -2.1475   -5.7493 N   0  0  0  0  0  0  0  0  0  0  0  0
   -3.2114   -1.7124   -7.1250 C   0  0  0  0  0  0  0  0  0  0  0  0
   -3.6294   -3.0066   -5.5011 H   0  0  0  0  0  0  0  0  0  0  0  0
   -4.0858   -1.0595   -7.2634 H   0  0  0  0  0  0  0  0  0  0  0  0
   -2.2958   -1.1571   -7.3766 H   0  0  0  0  0  0  0  0  0  0  0  0
   -3.3009   -2.5893   -7.7830 H   0  0  0  0  0  0  0  0  0  0  0  0
  1  3  1  0  0  0  0
  1  7  1  0  0  0  0
  1  2  2  0  0  0  0
 31 32  1  0  0  0  0
 32 40  1  0  0  0  0
 32 33  2  0  0  0  0
  8  9  1  0  0  0  0
  9 17  1  0  0  0  0
  9 10  2  0  0  0  0
 18 19  1  0  0  0  0
 19 30  1  0  0  0  0
 19 20  2  0  0  0  0
 21 22  1  0  0  0  0
 22 23  2  0  0  0  0
 22 24  1  0  0  0  0
 31 34  1  0  0  0  0
  8 11  1  0  0  0  0
 40 41  1  0  0  0  0
 18 21  1  0  0  0  0
 30 31  1  0  0  0  0
  7  8  1  0  0  0  0
 17 18  1  0  0  0  0
  3  4  1  0  0  0  0
  3  5  1  0  0  0  0
  3  6  1  0  0  0  0
 34 37  1  0  0  0  0
 34 38  1  0  0  0  0
 34 39  1  0  0  0  0
 11 14  1  0  0  0  0
 11 15  1  0  0  0  0
 11 16  1  0  0  0  0
 41 43  1  0  0  0  0
 41 44  1  0  0  0  0
 41 45  1  0  0  0  0
 21 27  1  0  0  0  0
 21 28  1  0  0  0  0
 31 36  1  0  0  0  0
  8 13  1  0  0  0  0
 18 26  1  0  0  0  0
 40 42  1  0  0  0  0
  7 12  1  0  0  0  0
 30 35  1  0  0  0  0
 17 25  1  0  0  0  0
 24 29  1  0  0  0  0
M  END
$$$$

  -OEChem-05262214473D

 45 44  0     1  0  0  0  0  0999 V2000
   -2.2987    4.1032   -0.3022 C   0  0  0  0  0  0  0  0  0  0  0  0
   -1.8049    3.7117   -1.3532 O   0  0  0  0  0  0  0  0  0  0  0  0
   -3.0791    5.3755   -0.2846 C   0  0  0  0  0  0  0  0  0  0  0  0
   -2.4478    6.2532   -0.0717 H   0  0  0  0  0  0  0  0  0  0  0  0
   -3.5571    5.5891   -1.2541 H   0  0  0  0  0  0  0  0  0  0  0  0
   -3.8940    5.4184    0.4556 H   0  0  0  0  0  0  0  0  0  0  0  0
   -2.2137    3.4712    0.9275 N   0  0  0  0  0  0  0  0  0  0  0  0
   -1.5102    2.2327    1.1338 C   0  0  2  0  0  0  0  0  0  0  0  0
   -1.3539    1.5497   -0.2184 C   0  0  0  0  0  0  0  0  0  0  0  0
   -2.0852    1.7861   -1.1778 O   0  0  0  0  0  0  0  0  0  0  0  0
   -2.2477    1.3342    2.1145 C   0  0  0  0  0  0  0  0  0  0  0  0
   -2.6724    3.9052    1.7265 H   0  0  0  0  0  0  0  0  0  0  0  0
   -0.5220    2.4922    1.5290 H   0  0  0  0  0  0  0  0  0  0  0  0
   -3.2400    1.0636    1.7358 H   0  0  0  0  0  0  0  0  0  0  0  0
   -1.6970    0.4046    2.2923 H   0  0  0  0  0  0  0  0  0  0  0  0
   -2.3854    1.8384    3.0772 H   0  0  0  0  0  0  0  0  0  0  0  0
   -0.3283    0.6116   -0.2182 N   0  0  0  0  0  0  0  0  0  0  0  0
    0.0090   -0.1762   -1.3759 C   0  0  2  0  0  0  0  0  0  0  0  0
   -1.2635   -0.3769   -2.1892 C   0  0  0  0  0  0  0  0  0  0  0  0
   -1.8919    0.5537   -2.6895 O   0  0  0  0  0  0  0  0  0  0  0  0
    0.6251   -1.5191   -0.9923 C   0  0  0  0  0  0  0  0  0  0  0  0
    1.9961   -1.3397   -0.3880 C   0  0  0  0  0  0  0  0  0  0  0  0
    2.7490   -0.4143   -0.6624 O   0  0  0  0  0  0  0  0  0  0  0  0
    2.3147   -2.3282    0.4838 O   0  0  0  0  0  0  0  0  0  0  0  0
    0.2381    0.4970    0.6194 H   0  0  0  0  0  0  0  0  0  0  0  0
    0.7143    0.4253   -1.9619 H   0  0  0  0  0  0  0  0  0  0  0  0
    0.0154   -2.0338   -0.2390 H   0  0  0  0  0  0  0  0  0  0  0  0
    0.6878   -2.2082   -1.8432 H   0  0  0  0  0  0  0  0  0  0  0  0
    3.2053   -2.2525    0.8884 H   0  0  0  0  0  0  0  0  0  0  0  0
   -1.5875   -1.7190   -2.3305 N   0  0  0  0  0  0  0  0  0  0  0  0
   -2.7428   -2.1679   -3.0719 C   0  0  2  0  0  0  0  0  0  0  0  0
   -2.5128   -1.8447   -4.5423 C   0  0  0  0  0  0  0  0  0  0  0  0
   -1.7332   -0.9741   -4.9237 O   0  0  0  0  0  0  0  0  0  0  0  0
   -4.0163   -1.5102   -2.5636 C   0  0  0  0  0  0  0  0  0  0  0  0
   -0.9879   -2.4136   -1.8949 H   0  0  0  0  0  0  0  0  0  0  0  0
   -2.8003   -3.2540   -2.9408 H   0  0  0  0  0  0  0  0  0  0  0  0
   -3.9772   -0.4217   -2.6867 H   0  0  0  0  0  0  0  0  0  0  0  0
   -4.8946   -1.8730   -3.1076 H   0  0  0  0  0  0  0  0  0  0  0  0
   -4.1645   -1.7191   -1.4986 H   0  0  0  0  0  0  0  0  0  0  0  0
   -3.3122   -2.6131   -5.3769 N   0  0  0  0  0  0  0  0  0  0  0  0
   -3.2876   -2.4847   -6.8152 C   0  0  0  0  0  0  0  0  0  0  0  0
   -3.9156   -3.3245   -4.9748 H   0  0  0  0  0  0  0  0  0  0  0  0
   -4.0577   -1.7664   -7.1330 H   0  0  0  0  0  0  0  0  0  0  0  0
   -2.2979   -2.1260   -7.1343 H   0  0  0  0  0  0  0  0  0  0  0  0
   -3.4882   -3.4640   -7.2741 H   0  0  0  0  0  0  0  0  0  0  0  0
  1  3  1  0  0  0  0
  1  7  1  0  0  0  0
  1  2  2  0  0  0  0
 31 32  1  0  0  0  0
 32 40  1  0  0  0  0
 32 33  2  0  0  0  0
  8  9  1  0  0  0  0
  9 17  1  0  0  0  0
  9 10  2  0  0  0  0
 18 19  1  0  0  0  0
 19 30  1  0  0  0  0
 19 20  2  0  0  0  0
 21 22  1  0  0  0  0
 22 23  2  0  0  0  0
 22 24  1  0  0  0  0
 31 34  1  0  0  0  0
  8 11  1  0  0  0  0
 40 41  1  0  0  0  0
 18 21  1  0  0  0  0
 30 31  1  0  0  0  0
  7  8  1  0  0  0  0
 17 18  1  0  0  0  0
  3  4  1  0  0  0  0
  3  5  1  0  0  0  0
  3  6  1  0  0  0  0
 34 37  1  0  0  0  0
 34 38  1  0  0  0  0
 34 39  1  0  0  0  0
 11 14  1  0  0  0  0
 11 15  1  0  0  0  0
 11 16  1  0  0  0  0
 41 43  1  0  0  0  0
 41 44  1  0  0  0  0
 41 45  1  0  0  0  0
 21 27  1  0  0  0  0
 21 28  1  0  0  0  0
 31 36  1  0  0  0  0
  8 13  1  0  0  0  0
 18 26  1  0  0  0  0
 40 42  1  0  0  0  0
  7 12  1  0  0  0  0
 30 35  1  0  0  0  0
 17 25  1  0  0  0  0
 24 29  1  0  0  0  0
M  END
$$$$

  -OEChem-05262214473D

 45 44  0     1  0  0  0  0  0999 V2000
   -2.2987    4.1032   -0.3022 C   0  0  0  0  0  0  0  0  0  0  0  0
   -1.8049    3.7117   -1.3532 O   0  0  0  0  0  0  0  0  0  0  0  0
   -3.0791    5.3755   -0.2846 C   0  0  0  0  0  0  0  0  0  0  0  0
   -2.4478    6.2532   -0.0717 H   0  0  0  0  0  0  0  0  0  0  0  0
   -3.5571    5.5891   -1.2541 H   0  0  0  0  0  0  0  0  0  0  0  0
   -3.8940    5.4184    0.4556 H   0  0  0  0  0  0  0  0  0  0  0  0
   -2.2137    3.4712    0.9275 N   0  0  0  0  0  0  0  0  0  0  0  0
   -1.5102    2.2327    1.1338 C   0  0  2  0  0  0  0  0  0  0  0  0
   -1.3539    1.5497   -0.2184 C   0  0  0  0  0  0  0  0  0  0  0  0
   -2.0852    1.7861   -1.1778 O   0  0  0  0  0  0  0  0  0  0  0  0
   -2.2477    1.3342    2.1145 C   0  0  0  0  0  0  0  0  0  0  0  0
   -2.6724    3.9052    1.7265 H   0  0  0  0  0  0  0  0  0  0  0  0
   -0.5220    2.4922    1.5290 H   0  0  0  0  0  0  0  0  0  0  0  0
   -3.2400    1.0636    1.7358 H   0  0  0  0  0  0  0  0  0  0  0  0
   -1.6970    0.4046    2.2923 H   0  0  0  0  0  0  0  0  0  0  0  0
   -2.3854    1.8384    3.0772 H   0  0  0  0  0  0  0  0  0  0  0  0
   -0.3283    0.6116   -0.2182 N   0  0  0  0  0  0  0  0  0  0  0  0
    0.0090   -0.1762   -1.3759 C   0  0  2  0  0  0  0  0  0  0  0  0
   -1.2635   -0.3769   -2.1892 C   0  0  0  0  0  0  0  0  0  0  0  0
   -1.7439    0.4977   -2.9072 O   0  0  0  0  0  0  0  0  0  0  0  0
    0.6251   -1.5191   -0.9923 C   0  0  0  0  0  0  0  0  0  0  0  0
    1.9961   -1.3397   -0.3880 C   0  0  0  0  0  0  0  0  0  0  0  0
    2.7490   -0.4143   -0.6624 O   0  0  0  0  0  0  0  0  0  0  0  0
    2.3147   -2.3282    0.4838 O   0  0  0  0  0  0  0  0  0  0  0  0
    0.2381    0.4970    0.6194 H   0  0  0  0  0  0  0  0  0  0  0  0
    0.7143    0.4253   -1.9619 H   0  0  0  0  0  0  0  0  0  0  0  0
    0.0154   -2.0338   -0.2390 H   0  0  0  0  0  0  0  0  0  0  0  0
    0.6878   -2.2082   -1.8432 H   0  0  0  0  0  0  0  0  0  0  0  0
    3.2053   -2.2525    0.8884 H   0  0  0  0  0  0  0  0  0  0  0  0
   -1.7720   -1.6614   -2.0561 N   0  0  0  0  0  0  0  0  0  0  0  0
   -2.9651   -2.1020   -2.7404 C   0  0  2  0  0  0  0  0  0  0  0  0
   -2.6637   -2.1419   -4.2327 C   0  0  0  0  0  0  0  0  0  0  0  0
   -1.7615   -1.4887   -4.7526 O   0  0  0  0  0  0  0  0  0  0  0  0
   -4.1417   -1.1841   -2.4478 C   0  0  0  0  0  0  0  0  0  0  0  0
   -1.2853   -2.3181   -1.4531 H   0  0  0  0  0  0  0  0  0  0  0  0
   -3.1786   -3.1153   -2.3831 H   0  0  0  0  0  0  0  0  0  0  0  0
   -3.9462   -0.1642   -2.7987 H   0  0  0  0  0  0  0  0  0  0  0  0
   -5.0522   -1.5355   -2.9444 H   0  0  0  0  0  0  0  0  0  0  0  0
   -4.3382   -1.1333   -1.3715 H   0  0  0  0  0  0  0  0  0  0  0  0
   -3.5483   -2.9596   -4.9221 N   0  0  0  0  0  0  0  0  0  0  0  0
   -3.4785   -3.1532   -6.3517 C   0  0  0  0  0  0  0  0  0  0  0  0
   -4.2540   -3.4781   -4.4075 H   0  0  0  0  0  0  0  0  0  0  0  0
   -4.1327   -2.4248   -6.8532 H   0  0  0  0  0  0  0  0  0  0  0  0
   -2.4420   -3.0093   -6.6909 H   0  0  0  0  0  0  0  0  0  0  0  0
   -3.8073   -4.1731   -6.5999 H   0  0  0  0  0  0  0  0  0  0  0  0
  1  3  1  0  0  0  0
  1  7  1  0  0  0  0
  1  2  2  0  0  0  0
 31 32  1  0  0  0  0
 32 40  1  0  0  0  0
 32 33  2  0  0  0  0
  8  9  1  0  0  0  0
  9 17  1  0  0  0  0
  9 10  2  0  0  0  0
 18 19  1  0  0  0  0
 19 30  1  0  0  0  0
 19 20  2  0  0  0  0
 21 22  1  0  0  0  0
 22 23  2  0  0  0  0
 22 24  1  0  0  0  0
 31 34  1  0  0  0  0
  8 11  1  0  0  0  0
 40 41  1  0  0  0  0
 18 21  1  0  0  0  0
 30 31  1  0  0  0  0
  7  8  1  0  0  0  0
 17 18  1  0  0  0  0
  3  4  1  0  0  0  0
  3  5  1  0  0  0  0
  3  6  1  0  0  0  0
 34 37  1  0  0  0  0
 34 38  1  0  0  0  0
 34 39  1  0  0  0  0
 11 14  1  0  0  0  0
 11 15  1  0  0  0  0
 11 16  1  0  0  0  0
 41 43  1  0  0  0  0
 41 44  1  0  0  0  0
 41 45  1  0  0  0  0
 21 27  1  0  0  0  0
 21 28  1  0  0  0  0
 31 36  1  0  0  0  0
  8 13  1  0  0  0  0
 18 26  1  0  0  0  0
 40 42  1  0  0  0  0
  7 12  1  0  0  0  0
 30 35  1  0  0  0  0
 17 25  1  0  0  0  0
 24 29  1  0  0  0  0
M  END
$$$$

  -OEChem-05262214473D

 45 44  0     1  0  0  0  0  0999 V2000
   -2.2987    4.1032   -0.3022 C   0  0  0  0  0  0  0  0  0  0  0  0
   -1.8049    3.7117   -1.3532 O   0  0  0  0  0  0  0  0  0  0  0  0
   -3.0791    5.3755   -0.2846 C   0  0  0  0  0  0  0  0  0  0  0  0
   -2.4478    6.2532   -0.0717 H   0  0  0  0  0  0  0  0  0  0  0  0
   -3.5571    5.5891   -1.2541 H   0  0  0  0  0  0  0  0  0  0  0  0
   -3.8940    5.4184    0.4556 H   0  0  0  0  0  0  0  0  0  0  0  0
   -2.2137    3.4712    0.9275 N   0  0  0  0  0  0  0  0  0  0  0  0
   -1.5102    2.2327    1.1338 C   0  0  2  0  0  0  0  0  0  0  0  0
   -1.3539    1.5497   -0.2184 C   0  0  0  0  0  0  0  0  0  0  0  0
   -2.0852    1.7861   -1.1778 O   0  0  0  0  0  0  0  0  0  0  0  0
   -2.2477    1.3342    2.1145 C   0  0  0  0  0  0  0  0  0  0  0  0
   -2.6724    3.9052    1.7265 H   0  0  0  0  0  0  0  0  0  0  0  0
   -0.5220    2.4922    1.5290 H   0  0  0  0  0  0  0  0  0  0  0  0
   -3.2400    1.0636    1.7358 H   0  0  0  0  0  0  0  0  0  0  0  0
   -1.6970    0.4046    2.2923 H   0  0  0  0  0  0  0  0  0  0  0  0
   -2.3854    1.8384    3.0772 H   0  0  0  0  0  0  0  0  0  0  0  0
   -0.3283    0.6116   -0.2182 N   0  0  0  0  0  0  0  0  0  0  0  0
    0.0090   -0.1762   -1.3759 C   0  0  2  0  0  0  0  0  0  0  0  0
   -1.2635   -0.3769   -2.1892 C   0  0  0  0  0  0  0  0  0  0  0  0
   -1.6012    0.3760   -3.1003 O   0  0  0  0  0  0  0  0  0  0  0  0
    0.6251   -1.5191   -0.9923 C   0  0  0  0  0  0  0  0  0  0  0  0
    1.9961   -1.3397   -0.3880 C   0  0  0  0  0  0  0  0  0  0  0  0
    2.7490   -0.4143   -0.6624 O   0  0  0  0  0  0  0  0  0  0  0  0
    2.3147   -2.3282    0.4838 O   0  0  0  0  0  0  0  0  0  0  0  0
    0.2381    0.4970    0.6194 H   0  0  0  0  0  0  0  0  0  0  0  0
    0.7143    0.4253   -1.9619 H   0  0  0  0  0  0  0  0  0  0  0  0
    0.0154   -2.0338   -0.2390 H   0  0  0  0  0  0  0  0  0  0  0  0
    0.6878   -2.2082   -1.8432 H   0  0  0  0  0  0  0  0  0  0  0  0
    3.2053   -2.2525    0.8884 H   0  0  0  0  0  0  0  0  0  0  0  0
   -1.9515   -1.5209   -1.8098 N   0  0  0  0  0  0  0  0  0  0  0  0
   -3.1820   -1.9360   -2.4420 C   0  0  2  0  0  0  0  0  0  0  0  0
   -2.8612   -2.3413   -3.8746 C   0  0  0  0  0  0  0  0  0  0  0  0
   -1.8657   -1.9448   -4.4770 O   0  0  0  0  0  0  0  0  0  0  0  0
   -4.2217   -0.8267   -2.4108 C   0  0  0  0  0  0  0  0  0  0  0  0
   -1.5745   -2.0893   -1.0571 H   0  0  0  0  0  0  0  0  0  0  0  0
   -3.5438   -2.8086   -1.8873 H   0  0  0  0  0  0  0  0  0  0  0  0
   -3.8769    0.0561   -2.9616 H   0  0  0  0  0  0  0  0  0  0  0  0
   -5.1633   -1.1525   -2.8650 H   0  0  0  0  0  0  0  0  0  0  0  0
   -4.4293   -0.5159   -1.3812 H   0  0  0  0  0  0  0  0  0  0  0  0
   -3.8396   -3.1633   -4.4160 N   0  0  0  0  0  0  0  0  0  0  0  0
   -3.7710   -3.6723   -5.7659 C   0  0  0  0  0  0  0  0  0  0  0  0
   -4.6214   -3.4572   -3.8378 H   0  0  0  0  0  0  0  0  0  0  0  0
   -4.3057   -2.9900   -6.4431 H   0  0  0  0  0  0  0  0  0  0  0  0
   -2.7184   -3.7467   -6.0765 H   0  0  0  0  0  0  0  0  0  0  0  0
   -4.2365   -4.6681   -5.8063 H   0  0  0  0  0  0  0  0  0  0  0  0
  1  3  1  0  0  0  0
  1  7  1  0  0  0  0
  1  2  2  0  0  0  0
 31 32  1  0  0  0  0
 32 40  1  0  0  0  0
 32 33  2  0  0  0  0
  8  9  1  0  0  0  0
  9 17  1  0  0  0  0
  9 10  2  0  0  0  0
 18 19  1  0  0  0  0
 19 30  1  0  0  0  0
 19 20  2  0  0  0  0
 21 22  1  0  0  0  0
 22 23  2  0  0  0  0
 22 24  1  0  0  0  0
 31 34  1  0  0  0  0
  8 11  1  0  0  0  0
 40 41  1  0  0  0  0
 18 21  1  0  0  0  0
 30 31  1  0  0  0  0
  7  8  1  0  0  0  0
 17 18  1  0  0  0  0
  3  4  1  0  0  0  0
  3  5  1  0  0  0  0
  3  6  1  0  0  0  0
 34 37  1  0  0  0  0
 34 38  1  0  0  0  0
 34 39  1  0  0  0  0
 11 14  1  0  0  0  0
 11 15  1  0  0  0  0
 11 16  1  0  0  0  0
 41 43  1  0  0  0  0
 41 44  1  0  0  0  0
 41 45  1  0  0  0  0
 21 27  1  0  0  0  0
 21 28  1  0  0  0  0
 31 36  1  0  0  0  0
  8 13  1  0  0  0  0
 18 26  1  0  0  0  0
 40 42  1  0  0  0  0
  7 12  1  0  0  0  0
 30 35  1  0  0  0  0
 17 25  1  0  0  0  0
 24 29  1  0  0  0  0
M  END
$$$$

  -OEChem-05262214473D

 45 44  0     1  0  0  0  0  0999 V2000
   -2.2987    4.1032   -0.3022 C   0  0  0  0  0  0  0  0  0  0  0  0
   -1.8049    3.7117   -1.3532 O   0  0  0  0  0  0  0  0  0  0  0  0
   -3.0791    5.3755   -0.2846 C   0  0  0  0  0  0  0  0  0  0  0  0
   -2.4478    6.2532   -0.0717 H   0  0  0  0  0  0  0  0  0  0  0  0
   -3.5571    5.5891   -1.2541 H   0  0  0  0  0  0  0  0  0  0  0  0
   -3.8940    5.4184    0.4556 H   0  0  0  0  0  0  0  0  0  0  0  0
   -2.2137    3.4712    0.9275 N   0  0  0  0  0  0  0  0  0  0  0  0
   -1.5102    2.2327    1.1338 C   0  0  2  0  0  0  0  0  0  0  0  0
   -1.3539    1.5497   -0.2184 C   0  0  0  0  0  0  0  0  0  0  0  0
   -2.0852    1.7861   -1.1778 O   0  0  0  0  0  0  0  0  0  0  0  0
   -2.2477    1.3342    2.1145 C   0  0  0  0  0  0  0  0  0  0  0  0
   -2.6724    3.9052    1.7265 H   0  0  0  0  0  0  0  0  0  0  0  0
   -0.5220    2.4922    1.5290 H   0  0  0  0  0  0  0  0  0  0  0  0
   -3.2400    1.0636    1.7358 H   0  0  0  0  0  0  0  0  0  0  0  0
   -1.6970    0.4046    2.2923 H   0  0  0  0  0  0  0  0  0  0  0  0
   -2.3854    1.8384    3.0772 H   0  0  0  0  0  0  0  0  0  0  0  0
   -0.3283    0.6116   -0.2182 N   0  0  0  0  0  0  0  0  0  0  0  0
    0.0090   -0.1762   -1.3759 C   0  0  2  0  0  0  0  0  0  0  0  0
   -1.2635   -0.3769   -2.1892 C   0  0  0  0  0  0  0  0  0  0  0  0
   -1.4737    0.1970   -3.2557 O   0  0  0  0  0  0  0  0  0  0  0  0
    0.6251   -1.5191   -0.9923 C   0  0  0  0  0  0  0  0  0  0  0  0
    1.9961   -1.3397   -0.3880 C   0  0  0  0  0  0  0  0  0  0  0  0
    2.7490   -0.4143   -0.6624 O   0  0  0  0  0  0  0  0  0  0  0  0
    2.3147   -2.3282    0.4838 O   0  0  0  0  0  0  0  0  0  0  0  0
    0.2381    0.4970    0.6194 H   0  0  0  0  0  0  0  0  0  0  0  0
    0.7143    0.4253   -1.9619 H   0  0  0  0  0  0  0  0  0  0  0  0
    0.0154   -2.0338   -0.2390 H   0  0  0  0  0  0  0  0  0  0  0  0
    0.6878   -2.2082   -1.8432 H   0  0  0  0  0  0  0  0  0  0  0  0
    3.2053   -2.2525    0.8884 H   0  0  0  0  0  0  0  0  0  0  0  0
   -2.1140   -1.3072   -1.6084 N   0  0  0  0  0  0  0  0  0  0  0  0
   -3.3787   -1.6812   -2.1971 C   0  0  2  0  0  0  0  0  0  0  0  0
   -3.0917   -2.4292   -3.4923 C   0  0  0  0  0  0  0  0  0  0  0  0
   -2.0388   -2.3114   -4.1157 O   0  0  0  0  0  0  0  0  0  0  0  0
   -4.2509   -0.4624   -2.4551 C   0  0  0  0  0  0  0  0  0  0  0  0
   -1.8357   -1.7427   -0.7339 H   0  0  0  0  0  0  0  0  0  0  0  0
   -3.8712   -2.3547   -1.4872 H   0  0  0  0  0  0  0  0  0  0  0  0
   -3.7739    0.2240   -3.1641 H   0  0  0  0  0  0  0  0  0  0  0  0
   -5.2205   -0.7501   -2.8749 H   0  0  0  0  0  0  0  0  0  0  0  0
   -4.4317    0.0909   -1.5272 H   0  0  0  0  0  0  0  0  0  0  0  0
   -4.1664   -3.2105   -3.8930 N   0  0  0  0  0  0  0  0  0  0  0  0
   -4.1453   -4.0067   -5.0978 C   0  0  0  0  0  0  0  0  0  0  0  0
   -4.9928   -3.2630   -3.3046 H   0  0  0  0  0  0  0  0  0  0  0  0
   -4.5648   -3.4234   -5.9308 H   0  0  0  0  0  0  0  0  0  0  0  0
   -3.1082   -4.2880   -5.3331 H   0  0  0  0  0  0  0  0  0  0  0  0
   -4.7465   -4.9154   -4.9473 H   0  0  0  0  0  0  0  0  0  0  0  0
  1  3  1  0  0  0  0
  1  7  1  0  0  0  0
  1  2  2  0  0  0  0
 31 32  1  0  0  0  0
 32 40  1  0  0  0  0
 32 33  2  0  0  0  0
  8  9  1  0  0  0  0
  9 17  1  0  0  0  0
  9 10  2  0  0  0  0
 18 19  1  0  0  0  0
 19 30  1  0  0  0  0
 19 20  2  0  0  0  0
 21 22  1  0  0  0  0
 22 23  2  0  0  0  0
 22 24  1  0  0  0  0
 31 34  1  0  0  0  0
  8 11  1  0  0  0  0
 40 41  1  0  0  0  0
 18 21  1  0  0  0  0
 30 31  1  0  0  0  0
  7  8  1  0  0  0  0
 17 18  1  0  0  0  0
  3  4  1  0  0  0  0
  3  5  1  0  0  0  0
  3  6  1  0  0  0  0
 34 37  1  0  0  0  0
 34 38  1  0  0  0  0
 34 39  1  0  0  0  0
 11 14  1  0  0  0  0
 11 15  1  0  0  0  0
 11 16  1  0  0  0  0
 41 43  1  0  0  0  0
 41 44  1  0  0  0  0
 41 45  1  0  0  0  0
 21 27  1  0  0  0  0
 21 28  1  0  0  0  0
 31 36  1  0  0  0  0
  8 13  1  0  0  0  0
 18 26  1  0  0  0  0
 40 42  1  0  0  0  0
  7 12  1  0  0  0  0
 30 35  1  0  0  0  0
 17 25  1  0  0  0  0
 24 29  1  0  0  0  0
M  END
$$$$

  -OEChem-05262214473D

 45 44  0     1  0  0  0  0  0999 V2000
   -2.2987    4.1032   -0.3022 C   0  0  0  0  0  0  0  0  0  0  0  0
   -1.8049    3.7117   -1.3532 O   0  0  0  0  0  0  0  0  0  0  0  0
   -3.0791    5.3755   -0.2846 C   0  0  0  0  0  0  0  0  0  0  0  0
   -2.4478    6.2532   -0.0717 H   0  0  0  0  0  0  0  0  0  0  0  0
   -3.5571    5.5891   -1.2541 H   0  0  0  0  0  0  0  0  0  0  0  0
   -3.8940    5.4184    0.4556 H   0  0  0  0  0  0  0  0  0  0  0  0
   -2.2137    3.4712    0.9275 N   0  0  0  0  0  0  0  0  0  0  0  0
   -1.5102    2.2327    1.1338 C   0  0  2  0  0  0  0  0  0  0  0  0
   -1.3539    1.5497   -0.2184 C   0  0  0  0  0  0  0  0  0  0  0  0
   -2.0852    1.7861   -1.1778 O   0  0  0  0  0  0  0  0  0  0  0  0
   -2.2477    1.3342    2.1145 C   0  0  0  0  0  0  0  0  0  0  0  0
   -2.6724    3.9052    1.7265 H   0  0  0  0  0  0  0  0  0  0  0  0
   -0.5220    2.4922    1.5290 H   0  0  0  0  0  0  0  0  0  0  0  0
   -3.2400    1.0636    1.7358 H   0  0  0  0  0  0  0  0  0  0  0  0
   -1.6970    0.4046    2.2923 H   0  0  0  0  0  0  0  0  0  0  0  0
   -2.3854    1.8384    3.0772 H   0  0  0  0  0  0  0  0  0  0  0  0
   -0.3283    0.6116   -0.2182 N   0  0  0  0  0  0  0  0  0  0  0  0
    0.0090   -0.1762   -1.3759 C   0  0  2  0  0  0  0  0  0  0  0  0
   -1.2635   -0.3769   -2.1892 C   0  0  0  0  0  0  0  0  0  0  0  0
   -1.3699   -0.0271   -3.3628 O   0  0  0  0  0  0  0  0  0  0  0  0
    0.6251   -1.5191   -0.9923 C   0  0  0  0  0  0  0  0  0  0  0  0
    1.9961   -1.3397   -0.3880 C   0  0  0  0  0  0  0  0  0  0  0  0
    2.7490   -0.4143   -0.6624 O   0  0  0  0  0  0  0  0  0  0  0  0
    2.3147   -2.3282    0.4838 O   0  0  0  0  0  0  0  0  0  0  0  0
    0.2381    0.4970    0.6194 H   0  0  0  0  0  0  0  0  0  0  0  0
    0.7143    0.4253   -1.9619 H   0  0  0  0  0  0  0  0  0  0  0  0
    0.0154   -2.0338   -0.2390 H   0  0  0  0  0  0  0  0  0  0  0  0
    0.6878   -2.2082   -1.8432 H   0  0  0  0  0  0  0  0  0  0  0  0
    3.2053   -2.2525    0.8884 H   0  0  0  0  0  0  0  0  0  0  0  0
   -2.2482   -1.0348   -1.4656 N   0  0  0  0  0  0  0  0  0  0  0  0
   -3.5419   -1.3549   -2.0223 C   0  0  2  0  0  0  0  0  0  0  0  0
   -3.3395   -2.3995   -3.1119 C   0  0  0  0  0  0  0  0  0  0  0  0
   -2.2689   -2.5635   -3.6934 O   0  0  0  0  0  0  0  0  0  0  0  0
   -4.2272   -0.1161   -2.5775 C   0  0  0  0  0  0  0  0  0  0  0  0
   -2.0512   -1.3020   -0.5056 H   0  0  0  0  0  0  0  0  0  0  0  0
   -4.1382   -1.7845   -1.2100 H   0  0  0  0  0  0  0  0  0  0  0  0
   -3.6443    0.3283   -3.3925 H   0  0  0  0  0  0  0  0  0  0  0  0
   -5.2197   -0.3555   -2.9734 H   0  0  0  0  0  0  0  0  0  0  0  0
   -4.3451    0.6458   -1.7995 H   0  0  0  0  0  0  0  0  0  0  0  0
   -4.5065   -3.0978   -3.3888 N   0  0  0  0  0  0  0  0  0  0  0  0
   -4.5758   -4.1335   -4.3930 C   0  0  0  0  0  0  0  0  0  0  0  0
   -5.3429   -2.9089   -2.8442 H   0  0  0  0  0  0  0  0  0  0  0  0
   -4.8925   -3.6955   -5.3510 H   0  0  0  0  0  0  0  0  0  0  0  0
   -3.5848   -4.5962   -4.5113 H   0  0  0  0  0  0  0  0  0  0  0  0
   -5.3026   -4.8981   -4.0814 H   0  0  0  0  0  0  0  0  0  0  0  0
  1  3  1  0  0  0  0
  1  7  1  0  0  0  0
  1  2  2  0  0  0  0
 31 32  1  0  0  0  0
 32 40  1  0  0  0  0
 32 33  2  0  0  0  0
  8  9  1  0  0  0  0
  9 17  1  0  0  0  0
  9 10  2  0  0  0  0
 18 19  1  0  0  0  0
 19 30  1  0  0  0  0
 19 20  2  0  0  0  0
 21 22  1  0  0  0  0
 22 23  2  0  0  0  0
 22 24  1  0  0  0  0
 31 34  1  0  0  0  0
  8 11  1  0  0  0  0
 40 41  1  0  0  0  0
 18 21  1  0  0  0  0
 30 31  1  0  0  0  0
  7  8  1  0  0  0  0
 17 18  1  0  0  0  0
  3  4  1  0  0  0  0
  3  5  1  0  0  0  0
  3  6  1  0  0  0  0
 34 37  1  0  0  0  0
 34 38  1  0  0  0  0
 34 39  1  0  0  0  0
 11 14  1  0  0  0  0
 11 15  1  0  0  0  0
 11 16  1  0  0  0  0
 41 43  1  0  0  0  0
 41 44  1  0  0  0  0
 41 45  1  0  0  0  0
 21 27  1  0  0  0  0
 21 28  1  0  0  0  0
 31 36  1  0  0  0  0
  8 13  1  0  0  0  0
 18 26  1  0  0  0  0
 40 42  1  0  0  0  0
  7 12  1  0  0  0  0
 30 35  1  0  0  0  0
 17 25  1  0  0  0  0
 24 29  1  0  0  0  0
M  END
$$$$

  -OEChem-05262214473D

 45 44  0     1  0  0  0  0  0999 V2000
   -2.2987    4.1032   -0.3022 C   0  0  0  0  0  0  0  0  0  0  0  0
   -1.8049    3.7117   -1.3532 O   0  0  0  0  0  0  0  0  0  0  0  0
   -3.0791    5.3755   -0.2846 C   0  0  0  0  0  0  0  0  0  0  0  0
   -2.4478    6.2532   -0.0717 H   0  0  0  0  0  0  0  0  0  0  0  0
   -3.5571    5.5891   -1.2541 H   0  0  0  0  0  0  0  0  0  0  0  0
   -3.8940    5.4184    0.4556 H   0  0  0  0  0  0  0  0  0  0  0  0
   -2.2137    3.4712    0.9275 N   0  0  0  0  0  0  0  0  0  0  0  0
   -1.5102    2.2327    1.1338 C   0  0  2  0  0  0  0  0  0  0  0  0
   -1.3539    1.5497   -0.2184 C   0  0  0  0  0  0  0  0  0  0  0  0
   -2.0852    1.7861   -1.1778 O   0  0  0  0  0  0  0  0  0  0  0  0
   -2.2477    1.3342    2.1145 C   0  0  0  0  0  0  0  0  0  0  0  0
   -2.6724    3.9052    1.7265 H   0  0  0  0  0  0  0  0  0  0  0  0
   -0.5220    2.4922    1.5290 H   0  0  0  0  0  0  0  0  0  0  0  0
   -3.2400    1.0636    1.7358 H   0  0  0  0  0  0  0  0  0  0  0  0
   -1.6970    0.4046    2.2923 H   0  0  0  0  0  0  0  0  0  0  0  0
   -2.3854    1.8384    3.0772 H   0  0  0  0  0  0  0  0  0  0  0  0
   -0.3283    0.6116   -0.2182 N   0  0  0  0  0  0  0  0  0  0  0  0
    0.0090   -0.1762   -1.3759 C   0  0  2  0  0  0  0  0  0  0  0  0
   -1.2635   -0.3769   -2.1892 C   0  0  0  0  0  0  0  0  0  0  0  0
   -1.2970   -0.2810   -3.4143 O   0  0  0  0  0  0  0  0  0  0  0  0
    0.6251   -1.5191   -0.9923 C   0  0  0  0  0  0  0  0  0  0  0  0
    1.9961   -1.3397   -0.3880 C   0  0  0  0  0  0  0  0  0  0  0  0
    2.7490   -0.4143   -0.6624 O   0  0  0  0  0  0  0  0  0  0  0  0
    2.3147   -2.3282    0.4838 O   0  0  0  0  0  0  0  0  0  0  0  0
    0.2381    0.4970    0.6194 H   0  0  0  0  0  0  0  0  0  0  0  0
    0.7143    0.4253   -1.9619 H   0  0  0  0  0  0  0  0  0  0  0  0
    0.0154   -2.0338   -0.2390 H   0  0  0  0  0  0  0  0  0  0  0  0
    0.6878   -2.2082   -1.8432 H   0  0  0  0  0  0  0  0  0  0  0  0
    3.2053   -2.2525    0.8884 H   0  0  0  0  0  0  0  0  0  0  0  0
   -2.3451   -0.7222   -1.3911 N   0  0  0  0  0  0  0  0  0  0  0  0
   -3.6603   -0.9795   -1.9296 C   0  0  2  0  0  0  0  0  0  0  0  0
   -3.5877   -2.2545   -2.7594 C   0  0  0  0  0  0  0  0  0  0  0  0
   -2.5405   -2.6840   -3.2389 O   0  0  0  0  0  0  0  0  0  0  0  0
   -4.1523    0.1887   -2.7699 C   0  0  0  0  0  0  0  0  0  0  0  0
   -2.2061   -0.7971   -0.3876 H   0  0  0  0  0  0  0  0  0  0  0  0
   -4.3269   -1.1369   -1.0746 H   0  0  0  0  0  0  0  0  0  0  0  0
   -3.4970    0.3617   -3.6313 H   0  0  0  0  0  0  0  0  0  0  0  0
   -5.1611    0.0041   -3.1539 H   0  0  0  0  0  0  0  0  0  0  0  0
   -4.1756    1.1110   -2.1795 H   0  0  0  0  0  0  0  0  0  0  0  0
   -4.8366   -2.8330   -2.9377 N   0  0  0  0  0  0  0  0  0  0  0  0
   -5.0331   -4.0442   -3.6994 C   0  0  0  0  0  0  0  0  0  0  0  0
   -5.6478   -2.4190   -2.4880 H   0  0  0  0  0  0  0  0  0  0  0  0
   -5.2663   -3.7877   -4.7434 H   0  0  0  0  0  0  0  0  0  0  0  0
   -4.1159   -4.6505   -3.6671 H   0  0  0  0  0  0  0  0  0  0  0  0
   -5.8669   -4.6174   -3.2678 H   0  0  0  0  0  0  0  0  0  0  0  0
  1  3  1  0  0  0  0
  1  7  1  0  0  0  0
  1  2  2  0  0  0  0
 31 32  1  0  0  0  0
 32 40  1  0  0  0  0
 32 33  2  0  0  0  0
  8  9  1  0  0  0  0
  9 17  1  0  0  0  0
  9 10  2  0  0  0  0
 18 19  1  0  0  0  0
 19 30  1  0  0  0  0
 19 20  2  0  0  0  0
 21 22  1  0  0  0  0
 22 23  2  0  0  0  0
 22 24  1  0  0  0  0
 31 34  1  0  0  0  0
  8 11  1  0  0  0  0
 40 41  1  0  0  0  0
 18 21  1  0  0  0  0
 30 31  1  0  0  0  0
  7  8  1  0  0  0  0
 17 18  1  0  0  0  0
  3  4  1  0  0  0  0
  3  5  1  0  0  0  0
  3  6  1  0  0  0  0
 34 37  1  0  0  0  0
 34 38  1  0  0  0  0
 34 39  1  0  0  0  0
 11 14  1  0  0  0  0
 11 15  1  0  0  0  0
 11 16  1  0  0  0  0
 41 43  1  0  0  0  0
 41 44  1  0  0  0  0
 41 45  1  0  0  0  0
 21 27  1  0  0  0  0
 21 28  1  0  0  0  0
 31 36  1  0  0  0  0
  8 13  1  0  0  0  0
 18 26  1  0  0  0  0
 40 42  1  0  0  0  0
  7 12  1  0  0  0  0
 30 35  1  0  0  0  0
 17 25  1  0  0  0  0
 24 29  1  0  0  0  0
M  END
$$$$

  -OEChem-05262214473D

 45 44  0     1  0  0  0  0  0999 V2000
   -2.2987    4.1032   -0.3022 C   0  0  0  0  0  0  0  0  0  0  0  0
   -1.8049    3.7117   -1.3532 O   0  0  0  0  0  0  0  0  0  0  0  0
   -3.0791    5.3755   -0.2846 C   0  0  0  0  0  0  0  0  0  0  0  0
   -2.4478    6.2532   -0.0717 H   0  0  0  0  0  0  0  0  0  0  0  0
   -3.5571    5.5891   -1.2541 H   0  0  0  0  0  0  0  0  0  0  0  0
   -3.8940    5.4184    0.4556 H   0  0  0  0  0  0  0  0  0  0  0  0
   -2.2137    3.4712    0.9275 N   0  0  0  0  0  0  0  0  0  0  0  0
   -1.5102    2.2327    1.1338 C   0  0  2  0  0  0  0  0  0  0  0  0
   -1.3539    1.5497   -0.2184 C   0  0  0  0  0  0  0  0  0  0  0  0
   -2.0852    1.7861   -1.1778 O   0  0  0  0  0  0  0  0  0  0  0  0
   -2.2477    1.3342    2.1145 C   0  0  0  0  0  0  0  0  0  0  0  0
   -2.6724    3.9052    1.7265 H   0  0  0  0  0  0  0  0  0  0  0  0
   -0.5220    2.4922    1.5290 H   0  0  0  0  0  0  0  0  0  0  0  0
   -3.2400    1.0636    1.7358 H   0  0  0  0  0  0  0  0  0  0  0  0
   -1.6970    0.4046    2.2923 H   0  0  0  0  0  0  0  0  0  0  0  0
   -2.3854    1.8384    3.0772 H   0  0  0  0  0  0  0  0  0  0  0  0
   -0.3283    0.6116   -0.2182 N   0  0  0  0  0  0  0  0  0  0  0  0
    0.0090   -0.1762   -1.3759 C   0  0  2  0  0  0  0  0  0  0  0  0
   -1.2635   -0.3769   -2.1892 C   0  0  0  0  0  0  0  0  0  0  0  0
   -1.2599   -0.5475   -3.4066 O   0  0  0  0  0  0  0  0  0  0  0  0
    0.6251   -1.5191   -0.9923 C   0  0  0  0  0  0  0  0  0  0  0  0
    1.9961   -1.3397   -0.3880 C   0  0  0  0  0  0  0  0  0  0  0  0
    2.7490   -0.4143   -0.6624 O   0  0  0  0  0  0  0  0  0  0  0  0
    2.3147   -2.3282    0.4838 O   0  0  0  0  0  0  0  0  0  0  0  0
    0.2381    0.4970    0.6194 H   0  0  0  0  0  0  0  0  0  0  0  0
    0.7143    0.4253   -1.9619 H   0  0  0  0  0  0  0  0  0  0  0  0
    0.0154   -2.0338   -0.2390 H   0  0  0  0  0  0  0  0  0  0  0  0
    0.6878   -2.2082   -1.8432 H   0  0  0  0  0  0  0  0  0  0  0  0
    3.2053   -2.2525    0.8884 H   0  0  0  0  0  0  0  0  0  0  0  0
   -2.3981   -0.3908   -1.3900 N   0  0  0  0  0  0  0  0  0  0  0  0
   -3.7261   -0.5803   -1.9252 C   0  0  2  0  0  0  0  0  0  0  0  0
   -3.8194   -2.0038   -2.4586 C   0  0  0  0  0  0  0  0  0  0  0  0
   -2.8349   -2.6645   -2.7830 O   0  0  0  0  0  0  0  0  0  0  0  0
   -4.0313    0.4311   -3.0190 C   0  0  0  0  0  0  0  0  0  0  0  0
   -2.2901   -0.2626   -0.3882 H   0  0  0  0  0  0  0  0  0  0  0  0
   -4.4243   -0.4561   -1.0903 H   0  0  0  0  0  0  0  0  0  0  0  0
   -3.3419    0.3219   -3.8642 H   0  0  0  0  0  0  0  0  0  0  0  0
   -5.0486    0.3044   -3.4039 H   0  0  0  0  0  0  0  0  0  0  0  0
   -3.9346    1.4547   -2.6413 H   0  0  0  0  0  0  0  0  0  0  0  0
   -5.1342   -2.4340   -2.5705 N   0  0  0  0  0  0  0  0  0  0  0  0
   -5.4862   -3.7448   -3.0644 C   0  0  0  0  0  0  0  0  0  0  0  0
   -5.8868   -1.8266   -2.2603 H   0  0  0  0  0  0  0  0  0  0  0  0
   -5.6608   -3.6937   -4.1492 H   0  0  0  0  0  0  0  0  0  0  0  0
   -4.6650   -4.4470   -2.8580 H   0  0  0  0  0  0  0  0  0  0  0  0
   -6.4009   -4.0924   -2.5619 H   0  0  0  0  0  0  0  0  0  0  0  0
  1  3  1  0  0  0  0
  1  7  1  0  0  0  0
  1  2  2  0  0  0  0
 31 32  1  0  0  0  0
 32 40  1  0  0  0  0
 32 33  2  0  0  0  0
  8  9  1  0  0  0  0
  9 17  1  0  0  0  0
  9 10  2  0  0  0  0
 18 19  1  0  0  0  0
 19 30  1  0  0  0  0
 19 20  2  0  0  0  0
 21 22  1  0  0  0  0
 22 23  2  0  0  0  0
 22 24  1  0  0  0  0
 31 34  1  0  0  0  0
  8 11  1  0  0  0  0
 40 41  1  0  0  0  0
 18 21  1  0  0  0  0
 30 31  1  0  0  0  0
  7  8  1  0  0  0  0
 17 18  1  0  0  0  0
  3  4  1  0  0  0  0
  3  5  1  0  0  0  0
  3  6  1  0  0  0  0
 34 37  1  0  0  0  0
 34 38  1  0  0  0  0
 34 39  1  0  0  0  0
 11 14  1  0  0  0  0
 11 15  1  0  0  0  0
 11 16  1  0  0  0  0
 41 43  1  0  0  0  0
 41 44  1  0  0  0  0
 41 45  1  0  0  0  0
 21 27  1  0  0  0  0
 21 28  1  0  0  0  0
 31 36  1  0  0  0  0
  8 13  1  0  0  0  0
 18 26  1  0  0  0  0
 40 42  1  0  0  0  0
  7 12  1  0  0  0  0
 30 35  1  0  0  0  0
 17 25  1  0  0  0  0
 24 29  1  0  0  0  0
M  END
$$$$

  -OEChem-05262214473D

 45 44  0     1  0  0  0  0  0999 V2000
   -2.2987    4.1032   -0.3022 C   0  0  0  0  0  0  0  0  0  0  0  0
   -1.8049    3.7117   -1.3532 O   0  0  0  0  0  0  0  0  0  0  0  0
   -3.0791    5.3755   -0.2846 C   0  0  0  0  0  0  0  0  0  0  0  0
   -2.4478    6.2532   -0.0717 H   0  0  0  0  0  0  0  0  0  0  0  0
   -3.5571    5.5891   -1.2541 H   0  0  0  0  0  0  0  0  0  0  0  0
   -3.8940    5.4184    0.4556 H   0  0  0  0  0  0  0  0  0  0  0  0
   -2.2137    3.4712    0.9275 N   0  0  0  0  0  0  0  0  0  0  0  0
   -1.5102    2.2327    1.1338 C   0  0  2  0  0  0  0  0  0  0  0  0
   -1.3539    1.5497   -0.2184 C   0  0  0  0  0  0  0  0  0  0  0  0
   -2.0852    1.7861   -1.1778 O   0  0  0  0  0  0  0  0  0  0  0  0
   -2.2477    1.3342    2.1145 C   0  0  0  0  0  0  0  0  0  0  0  0
   -2.6724    3.9052    1.7265 H   0  0  0  0  0  0  0  0  0  0  0  0
   -0.5220    2.4922    1.5290 H   0  0  0  0  0  0  0  0  0  0  0  0
   -3.2400    1.0636    1.7358 H   0  0  0  0  0  0  0  0  0  0  0  0
   -1.6970    0.4046    2.2923 H   0  0  0  0  0  0  0  0  0  0  0  0
   -2.3854    1.8384    3.0772 H   0  0  0  0  0  0  0  0  0  0  0  0
   -0.3283    0.6116   -0.2182 N   0  0  0  0  0  0  0  0  0  0  0  0
    0.0090   -0.1762   -1.3759 C   0  0  2  0  0  0  0  0  0  0  0  0
   -1.2635   -0.3769   -2.1892 C   0  0  0  0  0  0  0  0  0  0  0  0
   -1.2611   -0.8084   -3.3403 O   0  0  0  0  0  0  0  0  0  0  0  0
    0.6251   -1.5191   -0.9923 C   0  0  0  0  0  0  0  0  0  0  0  0
    1.9961   -1.3397   -0.3880 C   0  0  0  0  0  0  0  0  0  0  0  0
    2.7490   -0.4143   -0.6624 O   0  0  0  0  0  0  0  0  0  0  0  0
    2.3147   -2.3282    0.4838 O   0  0  0  0  0  0  0  0  0  0  0  0
    0.2381    0.4970    0.6194 H   0  0  0  0  0  0  0  0  0  0  0  0
    0.7143    0.4253   -1.9619 H   0  0  0  0  0  0  0  0  0  0  0  0
    0.0154   -2.0338   -0.2390 H   0  0  0  0  0  0  0  0  0  0  0  0
    0.6878   -2.2082   -1.8432 H   0  0  0  0  0  0  0  0  0  0  0  0
    3.2053   -2.2525    0.8884 H   0  0  0  0  0  0  0  0  0  0  0  0
   -2.4034   -0.0632   -1.4624 N   0  0  0  0  0  0  0  0  0  0  0  0
   -3.7346   -0.1848   -2.0095 C   0  0  2  0  0  0  0  0  0  0  0  0
   -4.0189   -1.6647   -2.2302 C   0  0  0  0  0  0  0  0  0  0  0  0
   -3.1321   -2.5065   -2.3569 O   0  0  0  0  0  0  0  0  0  0  0  0
   -3.8725    0.5947   -3.3080 C   0  0  0  0  0  0  0  0  0  0  0  0
   -2.2973    0.2653   -0.5071 H   0  0  0  0  0  0  0  0  0  0  0  0
   -4.4237    0.2117   -1.2559 H   0  0  0  0  0  0  0  0  0  0  0  0
   -3.1897    0.2118   -4.0752 H   0  0  0  0  0  0  0  0  0  0  0  0
   -4.8900    0.5249   -3.7065 H   0  0  0  0  0  0  0  0  0  0  0  0
   -3.6386    1.6536   -3.1535 H   0  0  0  0  0  0  0  0  0  0  0  0
   -5.3790   -1.9282   -2.3121 N   0  0  0  0  0  0  0  0  0  0  0  0
   -5.9041   -3.2557   -2.5312 C   0  0  0  0  0  0  0  0  0  0  0  0
   -6.0436   -1.1721   -2.1765 H   0  0  0  0  0  0  0  0  0  0  0  0
   -6.0492   -3.4199   -3.6091 H   0  0  0  0  0  0  0  0  0  0  0  0
   -5.1950   -3.9997   -2.1392 H   0  0  0  0  0  0  0  0  0  0  0  0
   -6.8682   -3.3589   -2.0117 H   0  0  0  0  0  0  0  0  0  0  0  0
  1  3  1  0  0  0  0
  1  7  1  0  0  0  0
  1  2  2  0  0  0  0
 31 32  1  0  0  0  0
 32 40  1  0  0  0  0
 32 33  2  0  0  0  0
  8  9  1  0  0  0  0
  9 17  1  0  0  0  0
  9 10  2  0  0  0  0
 18 19  1  0  0  0  0
 19 30  1  0  0  0  0
 19 20  2  0  0  0  0
 21 22  1  0  0  0  0
 22 23  2  0  0  0  0
 22 24  1  0  0  0  0
 31 34  1  0  0  0  0
  8 11  1  0  0  0  0
 40 41  1  0  0  0  0
 18 21  1  0  0  0  0
 30 31  1  0  0  0  0
  7  8  1  0  0  0  0
 17 18  1  0  0  0  0
  3  4  1  0  0  0  0
  3  5  1  0  0  0  0
  3  6  1  0  0  0  0
 34 37  1  0  0  0  0
 34 38  1  0  0  0  0
 34 39  1  0  0  0  0
 11 14  1  0  0  0  0
 11 15  1  0  0  0  0
 11 16  1  0  0  0  0
 41 43  1  0  0  0  0
 41 44  1  0  0  0  0
 41 45  1  0  0  0  0
 21 27  1  0  0  0  0
 21 28  1  0  0  0  0
 31 36  1  0  0  0  0
  8 13  1  0  0  0  0
 18 26  1  0  0  0  0
 40 42  1  0  0  0  0
  7 12  1  0  0  0  0
 30 35  1  0  0  0  0
 17 25  1  0  0  0  0
 24 29  1  0  0  0  0
M  END
$$$$

  -OEChem-05262214473D

 45 44  0     1  0  0  0  0  0999 V2000
   -2.2987    4.1032   -0.3022 C   0  0  0  0  0  0  0  0  0  0  0  0
   -1.8049    3.7117   -1.3532 O   0  0  0  0  0  0  0  0  0  0  0  0
   -3.0791    5.3755   -0.2846 C   0  0  0  0  0  0  0  0  0  0  0  0
   -2.4478    6.2532   -0.0717 H   0  0  0  0  0  0  0  0  0  0  0  0
   -3.5571    5.5891   -1.2541 H   0  0  0  0  0  0  0  0  0  0  0  0
   -3.8940    5.4184    0.4556 H   0  0  0  0  0  0  0  0  0  0  0  0
   -2.2137    3.4712    0.9275 N   0  0  0  0  0  0  0  0  0  0  0  0
   -1.5102    2.2327    1.1338 C   0  0  2  0  0  0  0  0  0  0  0  0
   -1.3539    1.5497   -0.2184 C   0  0  0  0  0  0  0  0  0  0  0  0
   -2.0852    1.7861   -1.1778 O   0  0  0  0  0  0  0  0  0  0  0  0
   -2.2477    1.3342    2.1145 C   0  0  0  0  0  0  0  0  0  0  0  0
   -2.6724    3.9052    1.7265 H   0  0  0  0  0  0  0  0  0  0  0  0
   -0.5220    2.4922    1.5290 H   0  0  0  0  0  0  0  0  0  0  0  0
   -3.2400    1.0636    1.7358 H   0  0  0  0  0  0  0  0  0  0  0  0
   -1.6970    0.4046    2.2923 H   0  0  0  0  0  0  0  0  0  0  0  0
   -2.3854    1.8384    3.0772 H   0  0  0  0  0  0  0  0  0  0  0  0
   -0.3283    0.6116   -0.2182 N   0  0  0  0  0  0  0  0  0  0  0  0
    0.0090   -0.1762   -1.3759 C   0  0  2  0  0  0  0  0  0  0  0  0
   -1.2635   -0.3769   -2.1892 C   0  0  0  0  0  0  0  0  0  0  0  0
   -1.3006   -1.0458   -3.2199 O   0  0  0  0  0  0  0  0  0  0  0  0
    0.6251   -1.5191   -0.9923 C   0  0  0  0  0  0  0  0  0  0  0  0
    1.9961   -1.3397   -0.3880 C   0  0  0  0  0  0  0  0  0  0  0  0
    2.7490   -0.4143   -0.6624 O   0  0  0  0  0  0  0  0  0  0  0  0
    2.3147   -2.3282    0.4838 O   0  0  0  0  0  0  0  0  0  0  0  0
    0.2381    0.4970    0.6194 H   0  0  0  0  0  0  0  0  0  0  0  0
    0.7143    0.4253   -1.9619 H   0  0  0  0  0  0  0  0  0  0  0  0
    0.0154   -2.0338   -0.2390 H   0  0  0  0  0  0  0  0  0  0  0  0
    0.6878   -2.2082   -1.8432 H   0  0  0  0  0  0  0  0  0  0  0  0
    3.2053   -2.2525    0.8884 H   0  0  0  0  0  0  0  0  0  0  0  0
   -2.3609    0.2384   -1.6034 N   0  0  0  0  0  0  0  0  0  0  0  0
   -3.6852    0.1802   -2.1767 C   0  0  2  0  0  0  0  0  0  0  0  0
   -4.1725   -1.2601   -2.0897 C   0  0  0  0  0  0  0  0  0  0  0  0
   -3.4119   -2.2207   -1.9897 O   0  0  0  0  0  0  0  0  0  0  0  0
   -3.6866    0.6684   -3.6170 C   0  0  0  0  0  0  0  0  0  0  0  0
   -2.2273    0.7504   -0.7363 H   0  0  0  0  0  0  0  0  0  0  0  0
   -4.3252    0.8207   -1.5602 H   0  0  0  0  0  0  0  0  0  0  0  0
   -3.0506    0.0388   -4.2500 H   0  0  0  0  0  0  0  0  0  0  0  0
   -4.6960    0.6505   -4.0411 H   0  0  0  0  0  0  0  0  0  0  0  0
   -3.3078    1.6941   -3.6812 H   0  0  0  0  0  0  0  0  0  0  0  0
   -5.5545   -1.3499   -2.1803 N   0  0  0  0  0  0  0  0  0  0  0  0
   -6.2584   -2.6103   -2.1361 C   0  0  0  0  0  0  0  0  0  0  0  0
   -6.1074   -0.5001   -2.2424 H   0  0  0  0  0  0  0  0  0  0  0  0
   -6.4049   -2.9851   -3.1598 H   0  0  0  0  0  0  0  0  0  0  0  0
   -5.6696   -3.3390   -1.5597 H   0  0  0  0  0  0  0  0  0  0  0  0
   -7.2370   -2.4668   -1.6547 H   0  0  0  0  0  0  0  0  0  0  0  0
  1  3  1  0  0  0  0
  1  7  1  0  0  0  0
  1  2  2  0  0  0  0
 31 32  1  0  0  0  0
 32 40  1  0  0  0  0
 32 33  2  0  0  0  0
  8  9  1  0  0  0  0
  9 17  1  0  0  0  0
  9 10  2  0  0  0  0
 18 19  1  0  0  0  0
 19 30  1  0  0  0  0
 19 20  2  0  0  0  0
 21 22  1  0  0  0  0
 22 23  2  0  0  0  0
 22 24  1  0  0  0  0
 31 34  1  0  0  0  0
  8 11  1  0  0  0  0
 40 41  1  0  0  0  0
 18 21  1  0  0  0  0
 30 31  1  0  0  0  0
  7  8  1  0  0  0  0
 17 18  1  0  0  0  0
  3  4  1  0  0  0  0
  3  5  1  0  0  0  0
  3  6  1  0  0  0  0
 34 37  1  0  0  0  0
 34 38  1  0  0  0  0
 34 39  1  0  0  0  0
 11 14  1  0  0  0  0
 11 15  1  0  0  0  0
 11 16  1  0  0  0  0
 41 43  1  0  0  0  0
 41 44  1  0  0  0  0
 41 45  1  0  0  0  0
 21 27  1  0  0  0  0
 21 28  1  0  0  0  0
 31 36  1  0  0  0  0
  8 13  1  0  0  0  0
 18 26  1  0  0  0  0
 40 42  1  0  0  0  0
  7 12  1  0  0  0  0
 30 35  1  0  0  0  0
 17 25  1  0  0  0  0
 24 29  1  0  0  0  0
M  END
$$$$

  -OEChem-05262214473D

 45 44  0     1  0  0  0  0  0999 V2000
   -2.2987    4.1032   -0.3022 C   0  0  0  0  0  0  0  0  0  0  0  0
   -1.8049    3.7117   -1.3532 O   0  0  0  0  0  0  0  0  0  0  0  0
   -3.0791    5.3755   -0.2846 C   0  0  0  0  0  0  0  0  0  0  0  0
   -2.4478    6.2532   -0.0717 H   0  0  0  0  0  0  0  0  0  0  0  0
   -3.5571    5.5891   -1.2541 H   0  0  0  0  0  0  0  0  0  0  0  0
   -3.8940    5.4184    0.4556 H   0  0  0  0  0  0  0  0  0  0  0  0
   -2.2137    3.4712    0.9275 N   0  0  0  0  0  0  0  0  0  0  0  0
   -1.5102    2.2327    1.1338 C   0  0  2  0  0  0  0  0  0  0  0  0
   -1.3539    1.5497   -0.2184 C   0  0  0  0  0  0  0  0  0  0  0  0
   -2.0852    1.7861   -1.1778 O   0  0  0  0  0  0  0  0  0  0  0  0
   -2.2477    1.3342    2.1145 C   0  0  0  0  0  0  0  0  0  0  0  0
   -2.6724    3.9052    1.7265 H   0  0  0  0  0  0  0  0  0  0  0  0
   -0.5220    2.4922    1.5290 H   0  0  0  0  0  0  0  0  0  0  0  0
   -3.2400    1.0636    1.7358 H   0  0  0  0  0  0  0  0  0  0  0  0
   -1.6970    0.4046    2.2923 H   0  0  0  0  0  0  0  0  0  0  0  0
   -2.3854    1.8384    3.0772 H   0  0  0  0  0  0  0  0  0  0  0  0
   -0.3283    0.6116   -0.2182 N   0  0  0  0  0  0  0  0  0  0  0  0
    0.0090   -0.1762   -1.3759 C   0  0  2  0  0  0  0  0  0  0  0  0
   -1.2635   -0.3769   -2.1892 C   0  0  0  0  0  0  0  0  0  0  0  0
   -1.3757   -1.2437   -3.0536 O   0  0  0  0  0  0  0  0  0  0  0  0
    0.6251   -1.5191   -0.9923 C   0  0  0  0  0  0  0  0  0  0  0  0
    1.9961   -1.3397   -0.3880 C   0  0  0  0  0  0  0  0  0  0  0  0
    2.7490   -0.4143   -0.6624 O   0  0  0  0  0  0  0  0  0  0  0  0
    2.3147   -2.3282    0.4838 O   0  0  0  0  0  0  0  0  0  0  0  0
    0.2381    0.4970    0.6194 H   0  0  0  0  0  0  0  0  0  0  0  0
    0.7143    0.4253   -1.9619 H   0  0  0  0  0  0  0  0  0  0  0  0
    0.0154   -2.0338   -0.2390 H   0  0  0  0  0  0  0  0  0  0  0  0
    0.6878   -2.2082   -1.8432 H   0  0  0  0  0  0  0  0  0  0  0  0
    3.2053   -2.2525    0.8884 H   0  0  0  0  0  0  0  0  0  0  0  0
   -2.2734    0.4934   -1.8033 N   0  0  0  0  0  0  0  0  0  0  0  0
   -3.5815    0.4898   -2.4155 C   0  0  2  0  0  0  0  0  0  0  0  0
   -4.2697   -0.8178   -2.0467 C   0  0  0  0  0  0  0  0  0  0  0  0
   -3.6552   -1.8265   -1.7062 O   0  0  0  0  0  0  0  0  0  0  0  0
   -3.4863    0.6470   -3.9251 C   0  0  0  0  0  0  0  0  0  0  0  0
   -2.0849    1.1598   -1.0602 H   0  0  0  0  0  0  0  0  0  0  0  0
   -4.1356    1.3297   -1.9825 H   0  0  0  0  0  0  0  0  0  0  0  0
   -2.9343   -0.1854   -4.3768 H   0  0  0  0  0  0  0  0  0  0  0  0
   -4.4798    0.6728   -4.3848 H   0  0  0  0  0  0  0  0  0  0  0  0
   -2.9646    1.5735   -4.1883 H   0  0  0  0  0  0  0  0  0  0  0  0
   -5.6485   -0.7386   -2.1840 N   0  0  0  0  0  0  0  0  0  0  0  0
   -6.5249   -1.8525   -1.9061 C   0  0  0  0  0  0  0  0  0  0  0  0
   -6.0740    0.1435   -2.4534 H   0  0  0  0  0  0  0  0  0  0  0  0
   -6.7038   -2.4188   -2.8320 H   0  0  0  0  0  0  0  0  0  0  0  0
   -6.0564   -2.5099   -1.1589 H   0  0  0  0  0  0  0  0  0  0  0  0
   -7.4822   -1.4770   -1.5154 H   0  0  0  0  0  0  0  0  0  0  0  0
  1  3  1  0  0  0  0
  1  7  1  0  0  0  0
  1  2  2  0  0  0  0
 31 32  1  0  0  0  0
 32 40  1  0  0  0  0
 32 33  2  0  0  0  0
  8  9  1  0  0  0  0
  9 17  1  0  0  0  0
  9 10  2  0  0  0  0
 18 19  1  0  0  0  0
 19 30  1  0  0  0  0
 19 20  2  0  0  0  0
 21 22  1  0  0  0  0
 22 23  2  0  0  0  0
 22 24  1  0  0  0  0
 31 34  1  0  0  0  0
  8 11  1  0  0  0  0
 40 41  1  0  0  0  0
 18 21  1  0  0  0  0
 30 31  1  0  0  0  0
  7  8  1  0  0  0  0
 17 18  1  0  0  0  0
  3  4  1  0  0  0  0
  3  5  1  0  0  0  0
  3  6  1  0  0  0  0
 34 37  1  0  0  0  0
 34 38  1  0  0  0  0
 34 39  1  0  0  0  0
 11 14  1  0  0  0  0
 11 15  1  0  0  0  0
 11 16  1  0  0  0  0
 41 43  1  0  0  0  0
 41 44  1  0  0  0  0
 41 45  1  0  0  0  0
 21 27  1  0  0  0  0
 21 28  1  0  0  0  0
 31 36  1  0  0  0  0
  8 13  1  0  0  0  0
 18 26  1  0  0  0  0
 40 42  1  0  0  0  0
  7 12  1  0  0  0  0
 30 35  1  0  0  0  0
 17 25  1  0  0  0  0
 24 29  1  0  0  0  0
M  END
$$$$

  -OEChem-05262214473D

 45 44  0     1  0  0  0  0  0999 V2000
   -2.2987    4.1032   -0.3022 C   0  0  0  0  0  0  0  0  0  0  0  0
   -1.8049    3.7117   -1.3532 O   0  0  0  0  0  0  0  0  0  0  0  0
   -3.0791    5.3755   -0.2846 C   0  0  0  0  0  0  0  0  0  0  0  0
   -2.4478    6.2532   -0.0717 H   0  0  0  0  0  0  0  0  0  0  0  0
   -3.5571    5.5891   -1.2541 H   0  0  0  0  0  0  0  0  0  0  0  0
   -3.8940    5.4184    0.4556 H   0  0  0  0  0  0  0  0  0  0  0  0
   -2.2137    3.4712    0.9275 N   0  0  0  0  0  0  0  0  0  0  0  0
   -1.5102    2.2327    1.1338 C   0  0  2  0  0  0  0  0  0  0  0  0
   -1.3539    1.5497   -0.2184 C   0  0  0  0  0  0  0  0  0  0  0  0
   -2.0852    1.7861   -1.1778 O   0  0  0  0  0  0  0  0  0  0  0  0
   -2.2477    1.3342    2.1145 C   0  0  0  0  0  0  0  0  0  0  0  0
   -2.6724    3.9052    1.7265 H   0  0  0  0  0  0  0  0  0  0  0  0
   -0.5220    2.4922    1.5290 H   0  0  0  0  0  0  0  0  0  0  0  0
   -3.2400    1.0636    1.7358 H   0  0  0  0  0  0  0  0  0  0  0  0
   -1.6970    0.4046    2.2923 H   0  0  0  0  0  0  0  0  0  0  0  0
   -2.3854    1.8384    3.0772 H   0  0  0  0  0  0  0  0  0  0  0  0
   -0.3283    0.6116   -0.2182 N   0  0  0  0  0  0  0  0  0  0  0  0
    0.0090   -0.1762   -1.3759 C   0  0  2  0  0  0  0  0  0  0  0  0
   -1.2635   -0.3769   -2.1892 C   0  0  0  0  0  0  0  0  0  0  0  0
   -1.4812   -1.3886   -2.8527 O   0  0  0  0  0  0  0  0  0  0  0  0
    0.6251   -1.5191   -0.9923 C   0  0  0  0  0  0  0  0  0  0  0  0
    1.9961   -1.3397   -0.3880 C   0  0  0  0  0  0  0  0  0  0  0  0
    2.7490   -0.4143   -0.6624 O   0  0  0  0  0  0  0  0  0  0  0  0
    2.3147   -2.3282    0.4838 O   0  0  0  0  0  0  0  0  0  0  0  0
    0.2381    0.4970    0.6194 H   0  0  0  0  0  0  0  0  0  0  0  0
    0.7143    0.4253   -1.9619 H   0  0  0  0  0  0  0  0  0  0  0  0
    0.0154   -2.0338   -0.2390 H   0  0  0  0  0  0  0  0  0  0  0  0
    0.6878   -2.2082   -1.8432 H   0  0  0  0  0  0  0  0  0  0  0  0
    3.2053   -2.2525    0.8884 H   0  0  0  0  0  0  0  0  0  0  0  0
   -2.1467    0.6843   -2.0485 N   0  0  0  0  0  0  0  0  0  0  0  0
   -3.4303    0.7229   -2.7095 C   0  0  2  0  0  0  0  0  0  0  0  0
   -4.3040   -0.3678   -2.1041 C   0  0  0  0  0  0  0  0  0  0  0  0
   -3.8454   -1.3509   -1.5260 O   0  0  0  0  0  0  0  0  0  0  0  0
   -3.2853    0.5321   -4.2112 C   0  0  0  0  0  0  0  0  0  0  0  0
   -1.8797    1.4655   -1.4567 H   0  0  0  0  0  0  0  0  0  0  0  0
   -3.8677    1.7038   -2.4939 H   0  0  0  0  0  0  0  0  0  0  0  0
   -2.8485   -0.4453   -4.4468 H   0  0  0  0  0  0  0  0  0  0  0  0
   -4.2562    0.5900   -4.7142 H   0  0  0  0  0  0  0  0  0  0  0  0
   -2.6325    1.2998   -4.6404 H   0  0  0  0  0  0  0  0  0  0  0  0
   -5.6548   -0.1359   -2.3229 N   0  0  0  0  0  0  0  0  0  0  0  0
   -6.6855   -1.0339   -1.8569 C   0  0  0  0  0  0  0  0  0  0  0  0
   -5.9456    0.7149   -2.7953 H   0  0  0  0  0  0  0  0  0  0  0  0
   -6.9254   -1.7597   -2.6479 H   0  0  0  0  0  0  0  0  0  0  0  0
   -6.3293   -1.5691   -0.9642 H   0  0  0  0  0  0  0  0  0  0  0  0
   -7.5870   -0.4570   -1.6031 H   0  0  0  0  0  0  0  0  0  0  0  0
  1  3  1  0  0  0  0
  1  7  1  0  0  0  0
  1  2  2  0  0  0  0
 31 32  1  0  0  0  0
 32 40  1  0  0  0  0
 32 33  2  0  0  0  0
  8  9  1  0  0  0  0
  9 17  1  0  0  0  0
  9 10  2  0  0  0  0
 18 19  1  0  0  0  0
 19 30  1  0  0  0  0
 19 20  2  0  0  0  0
 21 22  1  0  0  0  0
 22 23  2  0  0  0  0
 22 24  1  0  0  0  0
 31 34  1  0  0  0  0
  8 11  1  0  0  0  0
 40 41  1  0  0  0  0
 18 21  1  0  0  0  0
 30 31  1  0  0  0  0
  7  8  1  0  0  0  0
 17 18  1  0  0  0  0
  3  4  1  0  0  0  0
  3  5  1  0  0  0  0
  3  6  1  0  0  0  0
 34 37  1  0  0  0  0
 34 38  1  0  0  0  0
 34 39  1  0  0  0  0
 11 14  1  0  0  0  0
 11 15  1  0  0  0  0
 11 16  1  0  0  0  0
 41 43  1  0  0  0  0
 41 44  1  0  0  0  0
 41 45  1  0  0  0  0
 21 27  1  0  0  0  0
 21 28  1  0  0  0  0
 31 36  1  0  0  0  0
  8 13  1  0  0  0  0
 18 26  1  0  0  0  0
 40 42  1  0  0  0  0
  7 12  1  0  0  0  0
 30 35  1  0  0  0  0
 17 25  1  0  0  0  0
 24 29  1  0  0  0  0
M  END
$$$$

  -OEChem-05262214473D

 45 44  0     1  0  0  0  0  0999 V2000
   -2.2987    4.1032   -0.3022 C   0  0  0  0  0  0  0  0  0  0  0  0
   -1.8049    3.7117   -1.3532 O   0  0  0  0  0  0  0  0  0  0  0  0
   -3.0791    5.3755   -0.2846 C   0  0  0  0  0  0  0  0  0  0  0  0
   -2.4478    6.2532   -0.0717 H   0  0  0  0  0  0  0  0  0  0  0  0
   -3.5571    5.5891   -1.2541 H   0  0  0  0  0  0  0  0  0  0  0  0
   -3.8940    5.4184    0.4556 H   0  0  0  0  0  0  0  0  0  0  0  0
   -2.2137    3.4712    0.9275 N   0  0  0  0  0  0  0  0  0  0  0  0
   -1.5102    2.2327    1.1338 C   0  0  2  0  0  0  0  0  0  0  0  0
   -1.3539    1.5497   -0.2184 C   0  0  0  0  0  0  0  0  0  0  0  0
   -2.0852    1.7861   -1.1778 O   0  0  0  0  0  0  0  0  0  0  0  0
   -2.2477    1.3342    2.1145 C   0  0  0  0  0  0  0  0  0  0  0  0
   -2.6724    3.9052    1.7265 H   0  0  0  0  0  0  0  0  0  0  0  0
   -0.5220    2.4922    1.5290 H   0  0  0  0  0  0  0  0  0  0  0  0
   -3.2400    1.0636    1.7358 H   0  0  0  0  0  0  0  0  0  0  0  0
   -1.6970    0.4046    2.2923 H   0  0  0  0  0  0  0  0  0  0  0  0
   -2.3854    1.8384    3.0772 H   0  0  0  0  0  0  0  0  0  0  0  0
   -0.3283    0.6116   -0.2182 N   0  0  0  0  0  0  0  0  0  0  0  0
    0.0090   -0.1762   -1.3759 C   0  0  2  0  0  0  0  0  0  0  0  0
   -1.2635   -0.3769   -2.1892 C   0  0  0  0  0  0  0  0  0  0  0  0
   -1.6100   -1.4705   -2.6310 O   0  0  0  0  0  0  0  0  0  0  0  0
    0.6251   -1.5191   -0.9923 C   0  0  0  0  0  0  0  0  0  0  0  0
    1.9961   -1.3397   -0.3880 C   0  0  0  0  0  0  0  0  0  0  0  0
    2.7490   -0.4143   -0.6624 O   0  0  0  0  0  0  0  0  0  0  0  0
    2.3147   -2.3282    0.4838 O   0  0  0  0  0  0  0  0  0  0  0  0
    0.2381    0.4970    0.6194 H   0  0  0  0  0  0  0  0  0  0  0  0
    0.7143    0.4253   -1.9619 H   0  0  0  0  0  0  0  0  0  0  0  0
    0.0154   -2.0338   -0.2390 H   0  0  0  0  0  0  0  0  0  0  0  0
    0.6878   -2.2082   -1.8432 H   0  0  0  0  0  0  0  0  0  0  0  0
    3.2053   -2.2525    0.8884 H   0  0  0  0  0  0  0  0  0  0  0  0
   -1.9897    0.7983   -2.3223 N   0  0  0  0  0  0  0  0  0  0  0  0
   -3.2421    0.8636   -3.0387 C   0  0  2  0  0  0  0  0  0  0  0  0
   -4.2730    0.0592   -2.2579 C   0  0  0  0  0  0  0  0  0  0  0  0
   -3.9696   -0.8263   -1.4611 O   0  0  0  0  0  0  0  0  0  0  0  0
   -3.0972    0.3314   -4.4559 C   0  0  0  0  0  0  0  0  0  0  0  0
   -1.6257    1.6467   -1.8988 H   0  0  0  0  0  0  0  0  0  0  0  0
   -3.5399    1.9176   -3.0596 H   0  0  0  0  0  0  0  0  0  0  0  0
   -2.7993   -0.7234   -4.4552 H   0  0  0  0  0  0  0  0  0  0  0  0
   -4.0404    0.4080   -5.0069 H   0  0  0  0  0  0  0  0  0  0  0  0
   -2.3341    0.8919   -5.0066 H   0  0  0  0  0  0  0  0  0  0  0  0
   -5.5728    0.4171   -2.5876 N   0  0  0  0  0  0  0  0  0  0  0  0
   -6.7291   -0.2105   -1.9917 C   0  0  0  0  0  0  0  0  0  0  0  0
   -5.7309    1.1753   -3.2447 H   0  0  0  0  0  0  0  0  0  0  0  0
   -7.0546   -1.0526   -2.6201 H   0  0  0  0  0  0  0  0  0  0  0  0
   -6.4694   -0.5805   -0.9889 H   0  0  0  0  0  0  0  0  0  0  0  0
   -7.5443    0.5238   -1.9119 H   0  0  0  0  0  0  0  0  0  0  0  0
  1  3  1  0  0  0  0
  1  7  1  0  0  0  0
  1  2  2  0  0  0  0
 31 32  1  0  0  0  0
 32 40  1  0  0  0  0
 32 33  2  0  0  0  0
  8  9  1  0  0  0  0
  9 17  1  0  0  0  0
  9 10  2  0  0  0  0
 18 19  1  0  0  0  0
 19 30  1  0  0  0  0
 19 20  2  0  0  0  0
 21 22  1  0  0  0  0
 22 23  2  0  0  0  0
 22 24  1  0  0  0  0
 31 34  1  0  0  0  0
  8 11  1  0  0  0  0
 40 41  1  0  0  0  0
 18 21  1  0  0  0  0
 30 31  1  0  0  0  0
  7  8  1  0  0  0  0
 17 18  1  0  0  0  0
  3  4  1  0  0  0  0
  3  5  1  0  0  0  0
  3  6  1  0  0  0  0
 34 37  1  0  0  0  0
 34 38  1  0  0  0  0
 34 39  1  0  0  0  0
 11 14  1  0  0  0  0
 11 15  1  0  0  0  0
 11 16  1  0  0  0  0
 41 43  1  0  0  0  0
 41 44  1  0  0  0  0
 41 45  1  0  0  0  0
 21 27  1  0  0  0  0
 21 28  1  0  0  0  0
 31 36  1  0  0  0  0
  8 13  1  0  0  0  0
 18 26  1  0  0  0  0
 40 42  1  0  0  0  0
  7 12  1  0  0  0  0
 30 35  1  0  0  0  0
 17 25  1  0  0  0  0
 24 29  1  0  0  0  0
M  END
$$$$

  -OEChem-05262214473D

 45 44  0     1  0  0  0  0  0999 V2000
   -2.2987    4.1032   -0.3022 C   0  0  0  0  0  0  0  0  0  0  0  0
   -1.8049    3.7117   -1.3532 O   0  0  0  0  0  0  0  0  0  0  0  0
   -3.0791    5.3755   -0.2846 C   0  0  0  0  0  0  0  0  0  0  0  0
   -2.4478    6.2532   -0.0717 H   0  0  0  0  0  0  0  0  0  0  0  0
   -3.5571    5.5891   -1.2541 H   0  0  0  0  0  0  0  0  0  0  0  0
   -3.8940    5.4184    0.4556 H   0  0  0  0  0  0  0  0  0  0  0  0
   -2.2137    3.4712    0.9275 N   0  0  0  0  0  0  0  0  0  0  0  0
   -1.5102    2.2327    1.1338 C   0  0  2  0  0  0  0  0  0  0  0  0
   -1.3539    1.5497   -0.2184 C   0  0  0  0  0  0  0  0  0  0  0  0
   -2.0852    1.7861   -1.1778 O   0  0  0  0  0  0  0  0  0  0  0  0
   -2.2477    1.3342    2.1145 C   0  0  0  0  0  0  0  0  0  0  0  0
   -2.6724    3.9052    1.7265 H   0  0  0  0  0  0  0  0  0  0  0  0
   -0.5220    2.4922    1.5290 H   0  0  0  0  0  0  0  0  0  0  0  0
   -3.2400    1.0636    1.7358 H   0  0  0  0  0  0  0  0  0  0  0  0
   -1.6970    0.4046    2.2923 H   0  0  0  0  0  0  0  0  0  0  0  0
   -2.3854    1.8384    3.0772 H   0  0  0  0  0  0  0  0  0  0  0  0
   -0.3283    0.6116   -0.2182 N   0  0  0  0  0  0  0  0  0  0  0  0
    0.0090   -0.1762   -1.3759 C   0  0  2  0  0  0  0  0  0  0  0  0
   -1.2635   -0.3769   -2.1892 C   0  0  0  0  0  0  0  0  0  0  0  0
   -1.7533   -1.4838   -2.4036 O   0  0  0  0  0  0  0  0  0  0  0  0
    0.6251   -1.5191   -0.9923 C   0  0  0  0  0  0  0  0  0  0  0  0
    1.9961   -1.3397   -0.3880 C   0  0  0  0  0  0  0  0  0  0  0  0
    2.7490   -0.4143   -0.6624 O   0  0  0  0  0  0  0  0  0  0  0  0
    2.3147   -2.3282    0.4838 O   0  0  0  0  0  0  0  0  0  0  0  0
    0.2381    0.4970    0.6194 H   0  0  0  0  0  0  0  0  0  0  0  0
    0.7143    0.4253   -1.9619 H   0  0  0  0  0  0  0  0  0  0  0  0
    0.0154   -2.0338   -0.2390 H   0  0  0  0  0  0  0  0  0  0  0  0
    0.6878   -2.2082   -1.8432 H   0  0  0  0  0  0  0  0  0  0  0  0
    3.2053   -2.2525    0.8884 H   0  0  0  0  0  0  0  0  0  0  0  0
   -1.8129    0.8274   -2.6061 N   0  0  0  0  0  0  0  0  0  0  0  0
   -3.0296    0.9023   -3.3807 C   0  0  2  0  0  0  0  0  0  0  0  0
   -4.1788    0.4342   -2.4978 C   0  0  0  0  0  0  0  0  0  0  0  0
   -4.0193   -0.2883   -1.5162 O   0  0  0  0  0  0  0  0  0  0  0  0
   -2.9350    0.0587   -4.6425 C   0  0  0  0  0  0  0  0  0  0  0  0
   -1.3402    1.6911   -2.3563 H   0  0  0  0  0  0  0  0  0  0  0  0
   -3.1743    1.9565   -3.6411 H   0  0  0  0  0  0  0  0  0  0  0  0
   -2.7898   -1.0007   -4.4016 H   0  0  0  0  0  0  0  0  0  0  0  0
   -3.8472    0.1392   -5.2429 H   0  0  0  0  0  0  0  0  0  0  0  0
   -2.0898    0.3775   -5.2620 H   0  0  0  0  0  0  0  0  0  0  0  0
   -5.4082    0.8827   -2.9600 N   0  0  0  0  0  0  0  0  0  0  0  0
   -6.6529    0.5618   -2.3015 C   0  0  0  0  0  0  0  0  0  0  0  0
   -5.4447    1.4931   -3.7710 H   0  0  0  0  0  0  0  0  0  0  0  0
   -7.0827   -0.3457   -2.7506 H   0  0  0  0  0  0  0  0  0  0  0  0
   -6.4673    0.3885   -1.2312 H   0  0  0  0  0  0  0  0  0  0  0  0
   -7.3570    1.3985   -2.4207 H   0  0  0  0  0  0  0  0  0  0  0  0
  1  3  1  0  0  0  0
  1  7  1  0  0  0  0
  1  2  2  0  0  0  0
 31 32  1  0  0  0  0
 32 40  1  0  0  0  0
 32 33  2  0  0  0  0
  8  9  1  0  0  0  0
  9 17  1  0  0  0  0
  9 10  2  0  0  0  0
 18 19  1  0  0  0  0
 19 30  1  0  0  0  0
 19 20  2  0  0  0  0
 21 22  1  0  0  0  0
 22 23  2  0  0  0  0
 22 24  1  0  0  0  0
 31 34  1  0  0  0  0
  8 11  1  0  0  0  0
 40 41  1  0  0  0  0
 18 21  1  0  0  0  0
 30 31  1  0  0  0  0
  7  8  1  0  0  0  0
 17 18  1  0  0  0  0
  3  4  1  0  0  0  0
  3  5  1  0  0  0  0
  3  6  1  0  0  0  0
 34 37  1  0  0  0  0
 34 38  1  0  0  0  0
 34 39  1  0  0  0  0
 11 14  1  0  0  0  0
 11 15  1  0  0  0  0
 11 16  1  0  0  0  0
 41 43  1  0  0  0  0
 41 44  1  0  0  0  0
 41 45  1  0  0  0  0
 21 27  1  0  0  0  0
 21 28  1  0  0  0  0
 31 36  1  0  0  0  0
  8 13  1  0  0  0  0
 18 26  1  0  0  0  0
 40 42  1  0  0  0  0
  7 12  1  0  0  0  0
 30 35  1  0  0  0  0
 17 25  1  0  0  0  0
 24 29  1  0  0  0  0
M  END
$$$$

  -OEChem-05262214473D

 45 44  0     1  0  0  0  0  0999 V2000
   -2.2987    4.1032   -0.3022 C   0  0  0  0  0  0  0  0  0  0  0  0
   -1.8049    3.7117   -1.3532 O   0  0  0  0  0  0  0  0  0  0  0  0
   -3.0791    5.3755   -0.2846 C   0  0  0  0  0  0  0  0  0  0  0  0
   -2.4478    6.2532   -0.0717 H   0  0  0  0  0  0  0  0  0  0  0  0
   -3.5571    5.5891   -1.2541 H   0  0  0  0  0  0  0  0  0  0  0  0
   -3.8940    5.4184    0.4556 H   0  0  0  0  0  0  0  0  0  0  0  0
   -2.2137    3.4712    0.9275 N   0  0  0  0  0  0  0  0  0  0  0  0
   -1.5102    2.2327    1.1338 C   0  0  2  0  0  0  0  0  0  0  0  0
   -1.3539    1.5497   -0.2184 C   0  0  0  0  0  0  0  0  0  0  0  0
   -2.0852    1.7861   -1.1778 O   0  0  0  0  0  0  0  0  0  0  0  0
   -2.2477    1.3342    2.1145 C   0  0  0  0  0  0  0  0  0  0  0  0
   -2.6724    3.9052    1.7265 H   0  0  0  0  0  0  0  0  0  0  0  0
   -0.5220    2.4922    1.5290 H   0  0  0  0  0  0  0  0  0  0  0  0
   -3.2400    1.0636    1.7358 H   0  0  0  0  0  0  0  0  0  0  0  0
   -1.6970    0.4046    2.2923 H   0  0  0  0  0  0  0  0  0  0  0  0
   -2.3854    1.8384    3.0772 H   0  0  0  0  0  0  0  0  0  0  0  0
   -0.3283    0.6116   -0.2182 N   0  0  0  0  0  0  0  0  0  0  0  0
    0.0090   -0.1762   -1.3759 C   0  0  2  0  0  0  0  0  0  0  0  0
   -1.2635   -0.3769   -2.1892 C   0  0  0  0  0  0  0  0  0  0  0  0
   -1.9013   -1.4278   -2.1858 O   0  0  0  0  0  0  0  0  0  0  0  0
    0.6251   -1.5191   -0.9923 C   0  0  0  0  0  0  0  0  0  0  0  0
    1.9961   -1.3397   -0.3880 C   0  0  0  0  0  0  0  0  0  0  0  0
    2.7490   -0.4143   -0.6624 O   0  0  0  0  0  0  0  0  0  0  0  0
    2.3147   -2.3282    0.4838 O   0  0  0  0  0  0  0  0  0  0  0  0
    0.2381    0.4970    0.6194 H   0  0  0  0  0  0  0  0  0  0  0  0
    0.7143    0.4253   -1.9619 H   0  0  0  0  0  0  0  0  0  0  0  0
    0.0154   -2.0338   -0.2390 H   0  0  0  0  0  0  0  0  0  0  0  0
    0.6878   -2.2082   -1.8432 H   0  0  0  0  0  0  0  0  0  0  0  0
    3.2053   -2.2525    0.8884 H   0  0  0  0  0  0  0  0  0  0  0  0
   -1.6284    0.7698   -2.8805 N   0  0  0  0  0  0  0  0  0  0  0  0
   -2.8073    0.8364   -3.7122 C   0  0  2  0  0  0  0  0  0  0  0  0
   -4.0278    0.7314   -2.8074 C   0  0  0  0  0  0  0  0  0  0  0  0
   -3.9910    0.2262   -1.6873 O   0  0  0  0  0  0  0  0  0  0  0  0
   -2.8096   -0.2674   -4.7583 C   0  0  0  0  0  0  0  0  0  0  0  0
   -1.0428    1.5957   -2.7982 H   0  0  0  0  0  0  0  0  0  0  0  0
   -2.7960    1.8179   -4.1988 H   0  0  0  0  0  0  0  0  0  0  0  0
   -2.8208   -1.2582   -4.2896 H   0  0  0  0  0  0  0  0  0  0  0  0
   -3.6896   -0.1983   -5.4061 H   0  0  0  0  0  0  0  0  0  0  0  0
   -1.9161   -0.2083   -5.3892 H   0  0  0  0  0  0  0  0  0  0  0  0
   -5.1722    1.2291   -3.4147 N   0  0  0  0  0  0  0  0  0  0  0  0
   -6.4621    1.2303   -2.7650 C   0  0  0  0  0  0  0  0  0  0  0  0
   -5.1063    1.6468   -4.3383 H   0  0  0  0  0  0  0  0  0  0  0  0
   -7.0077    0.3128   -3.0304 H   0  0  0  0  0  0  0  0  0  0  0  0
   -6.3232    1.2718   -1.6746 H   0  0  0  0  0  0  0  0  0  0  0  0
   -7.0379    2.1076   -3.0949 H   0  0  0  0  0  0  0  0  0  0  0  0
  1  3  1  0  0  0  0
  1  7  1  0  0  0  0
  1  2  2  0  0  0  0
 31 32  1  0  0  0  0
 32 40  1  0  0  0  0
 32 33  2  0  0  0  0
  8  9  1  0  0  0  0
  9 17  1  0  0  0  0
  9 10  2  0  0  0  0
 18 19  1  0  0  0  0
 19 30  1  0  0  0  0
 19 20  2  0  0  0  0
 21 22  1  0  0  0  0
 22 23  2  0  0  0  0
 22 24  1  0  0  0  0
 31 34  1  0  0  0  0
  8 11  1  0  0  0  0
 40 41  1  0  0  0  0
 18 21  1  0  0  0  0
 30 31  1  0  0  0  0
  7  8  1  0  0  0  0
 17 18  1  0  0  0  0
  3  4  1  0  0  0  0
  3  5  1  0  0  0  0
  3  6  1  0  0  0  0
 34 37  1  0  0  0  0
 34 38  1  0  0  0  0
 34 39  1  0  0  0  0
 11 14  1  0  0  0  0
 11 15  1  0  0  0  0
 11 16  1  0  0  0  0
 41 43  1  0  0  0  0
 41 44  1  0  0  0  0
 41 45  1  0  0  0  0
 21 27  1  0  0  0  0
 21 28  1  0  0  0  0
 31 36  1  0  0  0  0
  8 13  1  0  0  0  0
 18 26  1  0  0  0  0
 40 42  1  0  0  0  0
  7 12  1  0  0  0  0
 30 35  1  0  0  0  0
 17 25  1  0  0  0  0
 24 29  1  0  0  0  0
M  END
$$$$

  -OEChem-05262214473D

 45 44  0     1  0  0  0  0  0999 V2000
   -2.2987    4.1032   -0.3022 C   0  0  0  0  0  0  0  0  0  0  0  0
   -1.8049    3.7117   -1.3532 O   0  0  0  0  0  0  0  0  0  0  0  0
   -3.0791    5.3755   -0.2846 C   0  0  0  0  0  0  0  0  0  0  0  0
   -2.4478    6.2532   -0.0717 H   0  0  0  0  0  0  0  0  0  0  0  0
   -3.5571    5.5891   -1.2541 H   0  0  0  0  0  0  0  0  0  0  0  0
   -3.8940    5.4184    0.4556 H   0  0  0  0  0  0  0  0  0  0  0  0
   -2.2137    3.4712    0.9275 N   0  0  0  0  0  0  0  0  0  0  0  0
   -1.5102    2.2327    1.1338 C   0  0  2  0  0  0  0  0  0  0  0  0
   -1.3539    1.5497   -0.2184 C   0  0  0  0  0  0  0  0  0  0  0  0
   -2.0852    1.7861   -1.1778 O   0  0  0  0  0  0  0  0  0  0  0  0
   -2.2477    1.3342    2.1145 C   0  0  0  0  0  0  0  0  0  0  0  0
   -2.6724    3.9052    1.7265 H   0  0  0  0  0  0  0  0  0  0  0  0
   -0.5220    2.4922    1.5290 H   0  0  0  0  0  0  0  0  0  0  0  0
   -3.2400    1.0636    1.7358 H   0  0  0  0  0  0  0  0  0  0  0  0
   -1.6970    0.4046    2.2923 H   0  0  0  0  0  0  0  0  0  0  0  0
   -2.3854    1.8384    3.0772 H   0  0  0  0  0  0  0  0  0  0  0  0
   -0.3283    0.6116   -0.2182 N   0  0  0  0  0  0  0  0  0  0  0  0
    0.0090   -0.1762   -1.3759 C   0  0  2  0  0  0  0  0  0  0  0  0
   -1.2635   -0.3769   -2.1892 C   0  0  0  0  0  0  0  0  0  0  0  0
   -2.0439   -1.3061   -1.9927 O   0  0  0  0  0  0  0  0  0  0  0  0
    0.6251   -1.5191   -0.9923 C   0  0  0  0  0  0  0  0  0  0  0  0
    1.9961   -1.3397   -0.3880 C   0  0  0  0  0  0  0  0  0  0  0  0
    2.7490   -0.4143   -0.6624 O   0  0  0  0  0  0  0  0  0  0  0  0
    2.3147   -2.3282    0.4838 O   0  0  0  0  0  0  0  0  0  0  0  0
    0.2381    0.4970    0.6194 H   0  0  0  0  0  0  0  0  0  0  0  0
    0.7143    0.4253   -1.9619 H   0  0  0  0  0  0  0  0  0  0  0  0
    0.0154   -2.0338   -0.2390 H   0  0  0  0  0  0  0  0  0  0  0  0
    0.6878   -2.2082   -1.8432 H   0  0  0  0  0  0  0  0  0  0  0  0
    3.2053   -2.2525    0.8884 H   0  0  0  0  0  0  0  0  0  0  0  0
   -1.4489    0.6294   -3.1268 N   0  0  0  0  0  0  0  0  0  0  0  0
   -2.5904    0.6704   -4.0106 C   0  0  2  0  0  0  0  0  0  0  0  0
   -3.8304    0.9308   -3.1655 C   0  0  0  0  0  0  0  0  0  0  0  0
   -3.8868    0.6824   -1.9629 O   0  0  0  0  0  0  0  0  0  0  0  0
   -2.7296   -0.6248   -4.7953 C   0  0  0  0  0  0  0  0  0  0  0  0
   -0.7536    1.3668   -3.1942 H   0  0  0  0  0  0  0  0  0  0  0  0
   -2.4308    1.5111   -4.6946 H   0  0  0  0  0  0  0  0  0  0  0  0
   -2.8902   -1.4785   -4.1268 H   0  0  0  0  0  0  0  0  0  0  0  0
   -3.5785   -0.5813   -5.4855 H   0  0  0  0  0  0  0  0  0  0  0  0
   -1.8250   -0.8257   -5.3794 H   0  0  0  0  0  0  0  0  0  0  0  0
   -4.8808    1.4329   -3.9209 N   0  0  0  0  0  0  0  0  0  0  0  0
   -6.1695    1.7494   -3.3508 C   0  0  0  0  0  0  0  0  0  0  0  0
   -4.7389    1.6258   -4.9080 H   0  0  0  0  0  0  0  0  0  0  0  0
   -6.8348    0.8780   -3.4404 H   0  0  0  0  0  0  0  0  0  0  0  0
   -6.0468    2.0092   -2.2890 H   0  0  0  0  0  0  0  0  0  0  0  0
   -6.6087    2.6026   -3.8886 H   0  0  0  0  0  0  0  0  0  0  0  0
  1  3  1  0  0  0  0
  1  7  1  0  0  0  0
  1  2  2  0  0  0  0
 31 32  1  0  0  0  0
 32 40  1  0  0  0  0
 32 33  2  0  0  0  0
  8  9  1  0  0  0  0
  9 17  1  0  0  0  0
  9 10  2  0  0  0  0
 18 19  1  0  0  0  0
 19 30  1  0  0  0  0
 19 20  2  0  0  0  0
 21 22  1  0  0  0  0
 22 23  2  0  0  0  0
 22 24  1  0  0  0  0
 31 34  1  0  0  0  0
  8 11  1  0  0  0  0
 40 41  1  0  0  0  0
 18 21  1  0  0  0  0
 30 31  1  0  0  0  0
  7  8  1  0  0  0  0
 17 18  1  0  0  0  0
  3  4  1  0  0  0  0
  3  5  1  0  0  0  0
  3  6  1  0  0  0  0
 34 37  1  0  0  0  0
 34 38  1  0  0  0  0
 34 39  1  0  0  0  0
 11 14  1  0  0  0  0
 11 15  1  0  0  0  0
 11 16  1  0  0  0  0
 41 43  1  0  0  0  0
 41 44  1  0  0  0  0
 41 45  1  0  0  0  0
 21 27  1  0  0  0  0
 21 28  1  0  0  0  0
 31 36  1  0  0  0  0
  8 13  1  0  0  0  0
 18 26  1  0  0  0  0
 40 42  1  0  0  0  0
  7 12  1  0  0  0  0
 30 35  1  0  0  0  0
 17 25  1  0  0  0  0
 24 29  1  0  0  0  0
M  END
$$$$

  -OEChem-05262214473D

 45 44  0     1  0  0  0  0  0999 V2000
   -2.2987    4.1032   -0.3022 C   0  0  0  0  0  0  0  0  0  0  0  0
   -1.8049    3.7117   -1.3532 O   0  0  0  0  0  0  0  0  0  0  0  0
   -3.0791    5.3755   -0.2846 C   0  0  0  0  0  0  0  0  0  0  0  0
   -2.4478    6.2532   -0.0717 H   0  0  0  0  0  0  0  0  0  0  0  0
   -3.5571    5.5891   -1.2541 H   0  0  0  0  0  0  0  0  0  0  0  0
   -3.8940    5.4184    0.4556 H   0  0  0  0  0  0  0  0  0  0  0  0
   -2.2137    3.4712    0.9275 N   0  0  0  0  0  0  0  0  0  0  0  0
   -1.5102    2.2327    1.1338 C   0  0  2  0  0  0  0  0  0  0  0  0
   -1.3539    1.5497   -0.2184 C   0  0  0  0  0  0  0  0  0  0  0  0
   -2.0852    1.7861   -1.1778 O   0  0  0  0  0  0  0  0  0  0  0  0
   -2.2477    1.3342    2.1145 C   0  0  0  0  0  0  0  0  0  0  0  0
   -2.6724    3.9052    1.7265 H   0  0  0  0  0  0  0  0  0  0  0  0
   -0.5220    2.4922    1.5290 H   0  0  0  0  0  0  0  0  0  0  0  0
   -3.2400    1.0636    1.7358 H   0  0  0  0  0  0  0  0  0  0  0  0
   -1.6970    0.4046    2.2923 H   0  0  0  0  0  0  0  0  0  0  0  0
   -2.3854    1.8384    3.0772 H   0  0  0  0  0  0  0  0  0  0  0  0
   -0.3283    0.6116   -0.2182 N   0  0  0  0  0  0  0  0  0  0  0  0
    0.0090   -0.1762   -1.3759 C   0  0  2  0  0  0  0  0  0  0  0  0
   -1.2635   -0.3769   -2.1892 C   0  0  0  0  0  0  0  0  0  0  0  0
   -2.1715   -1.1272   -1.8373 O   0  0  0  0  0  0  0  0  0  0  0  0
    0.6251   -1.5191   -0.9923 C   0  0  0  0  0  0  0  0  0  0  0  0
    1.9961   -1.3397   -0.3880 C   0  0  0  0  0  0  0  0  0  0  0  0
    2.7490   -0.4143   -0.6624 O   0  0  0  0  0  0  0  0  0  0  0  0
    2.3147   -2.3282    0.4838 O   0  0  0  0  0  0  0  0  0  0  0  0
    0.2381    0.4970    0.6194 H   0  0  0  0  0  0  0  0  0  0  0  0
    0.7143    0.4253   -1.9619 H   0  0  0  0  0  0  0  0  0  0  0  0
    0.0154   -2.0338   -0.2390 H   0  0  0  0  0  0  0  0  0  0  0  0
    0.6878   -2.2082   -1.8432 H   0  0  0  0  0  0  0  0  0  0  0  0
    3.2053   -2.2525    0.8884 H   0  0  0  0  0  0  0  0  0  0  0  0
   -1.2864    0.4157   -3.3282 N   0  0  0  0  0  0  0  0  0  0  0  0
   -2.3937    0.4156   -4.2555 C   0  0  2  0  0  0  0  0  0  0  0  0
   -3.5999    1.0186   -3.5478 C   0  0  0  0  0  0  0  0  0  0  0  0
   -3.7137    1.0490   -2.3242 O   0  0  0  0  0  0  0  0  0  0  0  0
   -2.7004   -0.9891   -4.7510 C   0  0  0  0  0  0  0  0  0  0  0  0
   -0.4924    1.0203   -3.5173 H   0  0  0  0  0  0  0  0  0  0  0  0
   -2.1035    1.0572   -5.0947 H   0  0  0  0  0  0  0  0  0  0  0  0
   -2.9931   -1.6465   -3.9242 H   0  0  0  0  0  0  0  0  0  0  0  0
   -3.5214   -0.9838   -5.4756 H   0  0  0  0  0  0  0  0  0  0  0  0
   -1.8226   -1.4325   -5.2334 H   0  0  0  0  0  0  0  0  0  0  0  0
   -4.5540    1.4800   -4.4439 N   0  0  0  0  0  0  0  0  0  0  0  0
   -5.7953    2.0838   -4.0189 C   0  0  0  0  0  0  0  0  0  0  0  0
   -4.3675    1.4317   -5.4412 H   0  0  0  0  0  0  0  0  0  0  0  0
   -6.5756    1.3114   -3.9528 H   0  0  0  0  0  0  0  0  0  0  0  0
   -5.6570    2.5505   -3.0324 H   0  0  0  0  0  0  0  0  0  0  0  0
   -6.0986    2.8499   -4.7476 H   0  0  0  0  0  0  0  0  0  0  0  0
  1  3  1  0  0  0  0
  1  7  1  0  0  0  0
  1  2  2  0  0  0  0
 31 32  1  0  0  0  0
 32 40  1  0  0  0  0
 32 33  2  0  0  0  0
  8  9  1  0  0  0  0
  9 17  1  0  0  0  0
  9 10  2  0  0  0  0
 18 19  1  0  0  0  0
 19 30  1  0  0  0  0
 19 20  2  0  0  0  0
 21 22  1  0  0  0  0
 22 23  2  0  0  0  0
 22 24  1  0  0  0  0
 31 34  1  0  0  0  0
  8 11  1  0  0  0  0
 40 41  1  0  0  0  0
 18 21  1  0  0  0  0
 30 31  1  0  0  0  0
  7  8  1  0  0  0  0
 17 18  1  0  0  0  0
  3  4  1  0  0  0  0
  3  5  1  0  0  0  0
  3  6  1  0  0  0  0
 34 37  1  0  0  0  0
 34 38  1  0  0  0  0
 34 39  1  0  0  0  0
 11 14  1  0  0  0  0
 11 15  1  0  0  0  0
 11 16  1  0  0  0  0
 41 43  1  0  0  0  0
 41 44  1  0  0  0  0
 41 45  1  0  0  0  0
 21 27  1  0  0  0  0
 21 28  1  0  0  0  0
 31 36  1  0  0  0  0
  8 13  1  0  0  0  0
 18 26  1  0  0  0  0
 40 42  1  0  0  0  0
  7 12  1  0  0  0  0
 30 35  1  0  0  0  0
 17 25  1  0  0  0  0
 24 29  1  0  0  0  0
M  END
$$$$

  -OEChem-05262214473D

 45 44  0     1  0  0  0  0  0999 V2000
   -2.2987    4.1032   -0.3022 C   0  0  0  0  0  0  0  0  0  0  0  0
   -1.8049    3.7117   -1.3532 O   0  0  0  0  0  0  0  0  0  0  0  0
   -3.0791    5.3755   -0.2846 C   0  0  0  0  0  0  0  0  0  0  0  0
   -2.4478    6.2532   -0.0717 H   0  0  0  0  0  0  0  0  0  0  0  0
   -3.5571    5.5891   -1.2541 H   0  0  0  0  0  0  0  0  0  0  0  0
   -3.8940    5.4184    0.4556 H   0  0  0  0  0  0  0  0  0  0  0  0
   -2.2137    3.4712    0.9275 N   0  0  0  0  0  0  0  0  0  0  0  0
   -1.5102    2.2327    1.1338 C   0  0  2  0  0  0  0  0  0  0  0  0
   -1.3539    1.5497   -0.2184 C   0  0  0  0  0  0  0  0  0  0  0  0
   -2.0852    1.7861   -1.1778 O   0  0  0  0  0  0  0  0  0  0  0  0
   -2.2477    1.3342    2.1145 C   0  0  0  0  0  0  0  0  0  0  0  0
   -2.6724    3.9052    1.7265 H   0  0  0  0  0  0  0  0  0  0  0  0
   -0.5220    2.4922    1.5290 H   0  0  0  0  0  0  0  0  0  0  0  0
   -3.2400    1.0636    1.7358 H   0  0  0  0  0  0  0  0  0  0  0  0
   -1.6970    0.4046    2.2923 H   0  0  0  0  0  0  0  0  0  0  0  0
   -2.3854    1.8384    3.0772 H   0  0  0  0  0  0  0  0  0  0  0  0
   -0.3283    0.6116   -0.2182 N   0  0  0  0  0  0  0  0  0  0  0  0
    0.0090   -0.1762   -1.3759 C   0  0  2  0  0  0  0  0  0  0  0  0
   -1.2635   -0.3769   -2.1892 C   0  0  0  0  0  0  0  0  0  0  0  0
   -2.2753   -0.9031   -1.7302 O   0  0  0  0  0  0  0  0  0  0  0  0
    0.6251   -1.5191   -0.9923 C   0  0  0  0  0  0  0  0  0  0  0  0
    1.9961   -1.3397   -0.3880 C   0  0  0  0  0  0  0  0  0  0  0  0
    2.7490   -0.4143   -0.6624 O   0  0  0  0  0  0  0  0  0  0  0  0
    2.3147   -2.3282    0.4838 O   0  0  0  0  0  0  0  0  0  0  0  0
    0.2381    0.4970    0.6194 H   0  0  0  0  0  0  0  0  0  0  0  0
    0.7143    0.4253   -1.9619 H   0  0  0  0  0  0  0  0  0  0  0  0
    0.0154   -2.0338   -0.2390 H   0  0  0  0  0  0  0  0  0  0  0  0
    0.6878   -2.2082   -1.8432 H   0  0  0  0  0  0  0  0  0  0  0  0
    3.2053   -2.2525    0.8884 H   0  0  0  0  0  0  0  0  0  0  0  0
   -1.1522    0.1433   -3.4710 N   0  0  0  0  0  0  0  0  0  0  0  0
   -2.2305    0.0894   -4.4303 C   0  0  2  0  0  0  0  0  0  0  0  0
   -3.3521    0.9890   -3.9282 C   0  0  0  0  0  0  0  0  0  0  0  0
   -3.4836    1.3011   -2.7465 O   0  0  0  0  0  0  0  0  0  0  0  0
   -2.7241   -1.3354   -4.6286 C   0  0  0  0  0  0  0  0  0  0  0  0
   -0.2770    0.5795   -3.7457 H   0  0  0  0  0  0  0  0  0  0  0  0
   -1.8364    0.4870   -5.3719 H   0  0  0  0  0  0  0  0  0  0  0  0
   -3.1227   -1.7507   -3.6958 H   0  0  0  0  0  0  0  0  0  0  0  0
   -3.5221   -1.3783   -5.3771 H   0  0  0  0  0  0  0  0  0  0  0  0
   -1.9092   -1.9874   -4.9612 H   0  0  0  0  0  0  0  0  0  0  0  0
   -4.2140    1.3674   -4.9481 N   0  0  0  0  0  0  0  0  0  0  0  0
   -5.3648    2.2107   -4.7237 C   0  0  0  0  0  0  0  0  0  0  0  0
   -4.0174    1.0776   -5.9016 H   0  0  0  0  0  0  0  0  0  0  0  0
   -6.2480    1.5834   -4.5325 H   0  0  0  0  0  0  0  0  0  0  0  0
   -5.1804    2.8587   -3.8542 H   0  0  0  0  0  0  0  0  0  0  0  0
   -5.5425    2.8326   -5.6134 H   0  0  0  0  0  0  0  0  0  0  0  0
  1  3  1  0  0  0  0
  1  7  1  0  0  0  0
  1  2  2  0  0  0  0
 31 32  1  0  0  0  0
 32 40  1  0  0  0  0
 32 33  2  0  0  0  0
  8  9  1  0  0  0  0
  9 17  1  0  0  0  0
  9 10  2  0  0  0  0
 18 19  1  0  0  0  0
 19 30  1  0  0  0  0
 19 20  2  0  0  0  0
 21 22  1  0  0  0  0
 22 23  2  0  0  0  0
 22 24  1  0  0  0  0
 31 34  1  0  0  0  0
  8 11  1  0  0  0  0
 40 41  1  0  0  0  0
 18 21  1  0  0  0  0
 30 31  1  0  0  0  0
  7  8  1  0  0  0  0
 17 18  1  0  0  0  0
  3  4  1  0  0  0  0
  3  5  1  0  0  0  0
  3  6  1  0  0  0  0
 34 37  1  0  0  0  0
 34 38  1  0  0  0  0
 34 39  1  0  0  0  0
 11 14  1  0  0  0  0
 11 15  1  0  0  0  0
 11 16  1  0  0  0  0
 41 43  1  0  0  0  0
 41 44  1  0  0  0  0
 41 45  1  0  0  0  0
 21 27  1  0  0  0  0
 21 28  1  0  0  0  0
 31 36  1  0  0  0  0
  8 13  1  0  0  0  0
 18 26  1  0  0  0  0
 40 42  1  0  0  0  0
  7 12  1  0  0  0  0
 30 35  1  0  0  0  0
 17 25  1  0  0  0  0
 24 29  1  0  0  0  0
M  END
$$$$

  -OEChem-05262214473D

 45 44  0     1  0  0  0  0  0999 V2000
   -2.2987    4.1032   -0.3022 C   0  0  0  0  0  0  0  0  0  0  0  0
   -1.8049    3.7117   -1.3532 O   0  0  0  0  0  0  0  0  0  0  0  0
   -3.0791    5.3755   -0.2846 C   0  0  0  0  0  0  0  0  0  0  0  0
   -2.4478    6.2532   -0.0717 H   0  0  0  0  0  0  0  0  0  0  0  0
   -3.5571    5.5891   -1.2541 H   0  0  0  0  0  0  0  0  0  0  0  0
   -3.8940    5.4184    0.4556 H   0  0  0  0  0  0  0  0  0  0  0  0
   -2.2137    3.4712    0.9275 N   0  0  0  0  0  0  0  0  0  0  0  0
   -1.5102    2.2327    1.1338 C   0  0  2  0  0  0  0  0  0  0  0  0
   -1.3539    1.5497   -0.2184 C   0  0  0  0  0  0  0  0  0  0  0  0
   -2.0852    1.7861   -1.1778 O   0  0  0  0  0  0  0  0  0  0  0  0
   -2.2477    1.3342    2.1145 C   0  0  0  0  0  0  0  0  0  0  0  0
   -2.6724    3.9052    1.7265 H   0  0  0  0  0  0  0  0  0  0  0  0
   -0.5220    2.4922    1.5290 H   0  0  0  0  0  0  0  0  0  0  0  0
   -3.2400    1.0636    1.7358 H   0  0  0  0  0  0  0  0  0  0  0  0
   -1.6970    0.4046    2.2923 H   0  0  0  0  0  0  0  0  0  0  0  0
   -2.3854    1.8384    3.0772 H   0  0  0  0  0  0  0  0  0  0  0  0
   -0.3283    0.6116   -0.2182 N   0  0  0  0  0  0  0  0  0  0  0  0
    0.0090   -0.1762   -1.3759 C   0  0  2  0  0  0  0  0  0  0  0  0
   -1.2635   -0.3769   -2.1892 C   0  0  0  0  0  0  0  0  0  0  0  0
   -2.3482   -0.6491   -1.6788 O   0  0  0  0  0  0  0  0  0  0  0  0
    0.6251   -1.5191   -0.9923 C   0  0  0  0  0  0  0  0  0  0  0  0
    1.9961   -1.3397   -0.3880 C   0  0  0  0  0  0  0  0  0  0  0  0
    2.7490   -0.4143   -0.6624 O   0  0  0  0  0  0  0  0  0  0  0  0
    2.3147   -2.3282    0.4838 O   0  0  0  0  0  0  0  0  0  0  0  0
    0.2381    0.4970    0.6194 H   0  0  0  0  0  0  0  0  0  0  0  0
    0.7143    0.4253   -1.9619 H   0  0  0  0  0  0  0  0  0  0  0  0
    0.0154   -2.0338   -0.2390 H   0  0  0  0  0  0  0  0  0  0  0  0
    0.6878   -2.2082   -1.8432 H   0  0  0  0  0  0  0  0  0  0  0  0
    3.2053   -2.2525    0.8884 H   0  0  0  0  0  0  0  0  0  0  0  0
   -1.0553   -0.1693   -3.5455 N   0  0  0  0  0  0  0  0  0  0  0  0
   -2.1121   -0.2861   -4.5230 C   0  0  2  0  0  0  0  0  0  0  0  0
   -3.1039    0.8439   -4.2807 C   0  0  0  0  0  0  0  0  0  0  0  0
   -3.2120    1.4215   -3.2010 O   0  0  0  0  0  0  0  0  0  0  0  0
   -2.7989   -1.6401   -4.4362 C   0  0  0  0  0  0  0  0  0  0  0  0
   -0.1220    0.0747   -3.8636 H   0  0  0  0  0  0  0  0  0  0  0  0
   -1.6478   -0.1606   -5.5073 H   0  0  0  0  0  0  0  0  0  0  0  0
   -3.2700   -1.7841   -3.4570 H   0  0  0  0  0  0  0  0  0  0  0  0
   -3.5807   -1.7379   -5.1966 H   0  0  0  0  0  0  0  0  0  0  0  0
   -2.0787   -2.4526   -4.5811 H   0  0  0  0  0  0  0  0  0  0  0  0
   -3.8839    1.1025   -5.3992 N   0  0  0  0  0  0  0  0  0  0  0  0
   -4.9074    2.1213   -5.4172 C   0  0  0  0  0  0  0  0  0  0  0  0
   -3.7125    0.5876   -6.2578 H   0  0  0  0  0  0  0  0  0  0  0  0
   -5.8742    1.6756   -5.1402 H   0  0  0  0  0  0  0  0  0  0  0  0
   -4.6494    2.9130   -4.6984 H   0  0  0  0  0  0  0  0  0  0  0  0
   -4.9783    2.5519   -6.4270 H   0  0  0  0  0  0  0  0  0  0  0  0
  1  3  1  0  0  0  0
  1  7  1  0  0  0  0
  1  2  2  0  0  0  0
 31 32  1  0  0  0  0
 32 40  1  0  0  0  0
 32 33  2  0  0  0  0
  8  9  1  0  0  0  0
  9 17  1  0  0  0  0
  9 10  2  0  0  0  0
 18 19  1  0  0  0  0
 19 30  1  0  0  0  0
 19 20  2  0  0  0  0
 21 22  1  0  0  0  0
 22 23  2  0  0  0  0
 22 24  1  0  0  0  0
 31 34  1  0  0  0  0
  8 11  1  0  0  0  0
 40 41  1  0  0  0  0
 18 21  1  0  0  0  0
 30 31  1  0  0  0  0
  7  8  1  0  0  0  0
 17 18  1  0  0  0  0
  3  4  1  0  0  0  0
  3  5  1  0  0  0  0
  3  6  1  0  0  0  0
 34 37  1  0  0  0  0
 34 38  1  0  0  0  0
 34 39  1  0  0  0  0
 11 14  1  0  0  0  0
 11 15  1  0  0  0  0
 11 16  1  0  0  0  0
 41 43  1  0  0  0  0
 41 44  1  0  0  0  0
 41 45  1  0  0  0  0
 21 27  1  0  0  0  0
 21 28  1  0  0  0  0
 31 36  1  0  0  0  0
  8 13  1  0  0  0  0
 18 26  1  0  0  0  0
 40 42  1  0  0  0  0
  7 12  1  0  0  0  0
 30 35  1  0  0  0  0
 17 25  1  0  0  0  0
 24 29  1  0  0  0  0
M  END
$$$$

  -OEChem-05262214473D

 45 44  0     1  0  0  0  0  0999 V2000
   -2.2987    4.1032   -0.3022 C   0  0  0  0  0  0  0  0  0  0  0  0
   -1.8049    3.7117   -1.3532 O   0  0  0  0  0  0  0  0  0  0  0  0
   -3.0791    5.3755   -0.2846 C   0  0  0  0  0  0  0  0  0  0  0  0
   -2.4478    6.2532   -0.0717 H   0  0  0  0  0  0  0  0  0  0  0  0
   -3.5571    5.5891   -1.2541 H   0  0  0  0  0  0  0  0  0  0  0  0
   -3.8940    5.4184    0.4556 H   0  0  0  0  0  0  0  0  0  0  0  0
   -2.2137    3.4712    0.9275 N   0  0  0  0  0  0  0  0  0  0  0  0
   -1.5102    2.2327    1.1338 C   0  0  2  0  0  0  0  0  0  0  0  0
   -1.3539    1.5497   -0.2184 C   0  0  0  0  0  0  0  0  0  0  0  0
   -2.0852    1.7861   -1.1778 O   0  0  0  0  0  0  0  0  0  0  0  0
   -2.2477    1.3342    2.1145 C   0  0  0  0  0  0  0  0  0  0  0  0
   -2.6724    3.9052    1.7265 H   0  0  0  0  0  0  0  0  0  0  0  0
   -0.5220    2.4922    1.5290 H   0  0  0  0  0  0  0  0  0  0  0  0
   -3.2400    1.0636    1.7358 H   0  0  0  0  0  0  0  0  0  0  0  0
   -1.6970    0.4046    2.2923 H   0  0  0  0  0  0  0  0  0  0  0  0
   -2.3854    1.8384    3.0772 H   0  0  0  0  0  0  0  0  0  0  0  0
   -0.3283    0.6116   -0.2182 N   0  0  0  0  0  0  0  0  0  0  0  0
    0.0090   -0.1762   -1.3759 C   0  0  2  0  0  0  0  0  0  0  0  0
   -1.2635   -0.3769   -2.1892 C   0  0  0  0  0  0  0  0  0  0  0  0
   -2.3853   -0.3827   -1.6865 O   0  0  0  0  0  0  0  0  0  0  0  0
    0.6251   -1.5191   -0.9923 C   0  0  0  0  0  0  0  0  0  0  0  0
    1.9961   -1.3397   -0.3880 C   0  0  0  0  0  0  0  0  0  0  0  0
    2.7490   -0.4143   -0.6624 O   0  0  0  0  0  0  0  0  0  0  0  0
    2.3147   -2.3282    0.4838 O   0  0  0  0  0  0  0  0  0  0  0  0
    0.2381    0.4970    0.6194 H   0  0  0  0  0  0  0  0  0  0  0  0
    0.7143    0.4253   -1.9619 H   0  0  0  0  0  0  0  0  0  0  0  0
    0.0154   -2.0338   -0.2390 H   0  0  0  0  0  0  0  0  0  0  0  0
    0.6878   -2.2082   -1.8432 H   0  0  0  0  0  0  0  0  0  0  0  0
    3.2053   -2.2525    0.8884 H   0  0  0  0  0  0  0  0  0  0  0  0
   -1.0024   -0.5007   -3.5466 N   0  0  0  0  0  0  0  0  0  0  0  0
   -2.0463   -0.6852   -4.5274 C   0  0  2  0  0  0  0  0  0  0  0  0
   -2.8721    0.5933   -4.5815 C   0  0  0  0  0  0  0  0  0  0  0  0
   -2.9176    1.4021   -3.6569 O   0  0  0  0  0  0  0  0  0  0  0  0
   -2.9199   -1.8826   -4.1871 C   0  0  0  0  0  0  0  0  0  0  0  0
   -0.0380   -0.4599   -3.8631 H   0  0  0  0  0  0  0  0  0  0  0  0
   -1.5504   -0.8414   -5.4916 H   0  0  0  0  0  0  0  0  0  0  0  0
   -3.4251   -1.7444   -3.2242 H   0  0  0  0  0  0  0  0  0  0  0  0
   -3.6932   -2.0383   -4.9466 H   0  0  0  0  0  0  0  0  0  0  0  0
   -2.3197   -2.7963   -4.1193 H   0  0  0  0  0  0  0  0  0  0  0  0
   -3.5863    0.7036   -5.7664 N   0  0  0  0  0  0  0  0  0  0  0  0
   -4.4544    1.8219   -6.0523 C   0  0  0  0  0  0  0  0  0  0  0  0
   -3.4735   -0.0048   -6.4856 H   0  0  0  0  0  0  0  0  0  0  0  0
   -5.4796    1.5816   -5.7343 H   0  0  0  0  0  0  0  0  0  0  0  0
   -4.1002    2.7095   -5.5074 H   0  0  0  0  0  0  0  0  0  0  0  0
   -4.4443    2.0269   -7.1330 H   0  0  0  0  0  0  0  0  0  0  0  0
  1  3  1  0  0  0  0
  1  7  1  0  0  0  0
  1  2  2  0  0  0  0
 31 32  1  0  0  0  0
 32 40  1  0  0  0  0
 32 33  2  0  0  0  0
  8  9  1  0  0  0  0
  9 17  1  0  0  0  0
  9 10  2  0  0  0  0
 18 19  1  0  0  0  0
 19 30  1  0  0  0  0
 19 20  2  0  0  0  0
 21 22  1  0  0  0  0
 22 23  2  0  0  0  0
 22 24  1  0  0  0  0
 31 34  1  0  0  0  0
  8 11  1  0  0  0  0
 40 41  1  0  0  0  0
 18 21  1  0  0  0  0
 30 31  1  0  0  0  0
  7  8  1  0  0  0  0
 17 18  1  0  0  0  0
  3  4  1  0  0  0  0
  3  5  1  0  0  0  0
  3  6  1  0  0  0  0
 34 37  1  0  0  0  0
 34 38  1  0  0  0  0
 34 39  1  0  0  0  0
 11 14  1  0  0  0  0
 11 15  1  0  0  0  0
 11 16  1  0  0  0  0
 41 43  1  0  0  0  0
 41 44  1  0  0  0  0
 41 45  1  0  0  0  0
 21 27  1  0  0  0  0
 21 28  1  0  0  0  0
 31 36  1  0  0  0  0
  8 13  1  0  0  0  0
 18 26  1  0  0  0  0
 40 42  1  0  0  0  0
  7 12  1  0  0  0  0
 30 35  1  0  0  0  0
 17 25  1  0  0  0  0
 24 29  1  0  0  0  0
M  END
$$$$

  -OEChem-05262214473D

 45 44  0     1  0  0  0  0  0999 V2000
   -2.2987    4.1032   -0.3022 C   0  0  0  0  0  0  0  0  0  0  0  0
   -1.8049    3.7117   -1.3532 O   0  0  0  0  0  0  0  0  0  0  0  0
   -3.0791    5.3755   -0.2846 C   0  0  0  0  0  0  0  0  0  0  0  0
   -2.4478    6.2532   -0.0717 H   0  0  0  0  0  0  0  0  0  0  0  0
   -3.5571    5.5891   -1.2541 H   0  0  0  0  0  0  0  0  0  0  0  0
   -3.8940    5.4184    0.4556 H   0  0  0  0  0  0  0  0  0  0  0  0
   -2.2137    3.4712    0.9275 N   0  0  0  0  0  0  0  0  0  0  0  0
   -1.5102    2.2327    1.1338 C   0  0  2  0  0  0  0  0  0  0  0  0
   -1.3539    1.5497   -0.2184 C   0  0  0  0  0  0  0  0  0  0  0  0
   -2.0852    1.7861   -1.1778 O   0  0  0  0  0  0  0  0  0  0  0  0
   -2.2477    1.3342    2.1145 C   0  0  0  0  0  0  0  0  0  0  0  0
   -2.6724    3.9052    1.7265 H   0  0  0  0  0  0  0  0  0  0  0  0
   -0.5220    2.4922    1.5290 H   0  0  0  0  0  0  0  0  0  0  0  0
   -3.2400    1.0636    1.7358 H   0  0  0  0  0  0  0  0  0  0  0  0
   -1.6970    0.4046    2.2923 H   0  0  0  0  0  0  0  0  0  0  0  0
   -2.3854    1.8384    3.0772 H   0  0  0  0  0  0  0  0  0  0  0  0
   -0.3283    0.6116   -0.2182 N   0  0  0  0  0  0  0  0  0  0  0  0
    0.0090   -0.1762   -1.3759 C   0  0  2  0  0  0  0  0  0  0  0  0
   -1.2635   -0.3769   -2.1892 C   0  0  0  0  0  0  0  0  0  0  0  0
   -2.3840   -0.1218   -1.7528 O   0  0  0  0  0  0  0  0  0  0  0  0
    0.6251   -1.5191   -0.9923 C   0  0  0  0  0  0  0  0  0  0  0  0
    1.9961   -1.3397   -0.3880 C   0  0  0  0  0  0  0  0  0  0  0  0
    2.7490   -0.4143   -0.6624 O   0  0  0  0  0  0  0  0  0  0  0  0
    2.3147   -2.3282    0.4838 O   0  0  0  0  0  0  0  0  0  0  0  0
    0.2381    0.4970    0.6194 H   0  0  0  0  0  0  0  0  0  0  0  0
    0.7143    0.4253   -1.9619 H   0  0  0  0  0  0  0  0  0  0  0  0
    0.0154   -2.0338   -0.2390 H   0  0  0  0  0  0  0  0  0  0  0  0
    0.6878   -2.2082   -1.8432 H   0  0  0  0  0  0  0  0  0  0  0  0
    3.2053   -2.2525    0.8884 H   0  0  0  0  0  0  0  0  0  0  0  0
   -0.9970   -0.8284   -3.4742 N   0  0  0  0  0  0  0  0  0  0  0  0
   -2.0379   -1.0808   -4.4431 C   0  0  2  0  0  0  0  0  0  0  0  0
   -2.6727    0.2541   -4.8099 C   0  0  0  0  0  0  0  0  0  0  0  0
   -2.6204    1.2440   -4.0830 O   0  0  0  0  0  0  0  0  0  0  0  0
   -3.0788   -2.0462   -3.8981 C   0  0  0  0  0  0  0  0  0  0  0  0
   -0.0308   -0.9877   -3.7442 H   0  0  0  0  0  0  0  0  0  0  0  0
   -1.5510   -1.5091   -5.3260 H   0  0  0  0  0  0  0  0  0  0  0  0
   -3.5774   -1.6342   -3.0131 H   0  0  0  0  0  0  0  0  0  0  0  0
   -3.8518   -2.2587   -4.6440 H   0  0  0  0  0  0  0  0  0  0  0  0
   -2.6157   -2.9952   -3.6071 H   0  0  0  0  0  0  0  0  0  0  0  0
   -3.3414    0.1977   -6.0247 N   0  0  0  0  0  0  0  0  0  0  0  0
   -4.0364    1.3329   -6.5855 C   0  0  0  0  0  0  0  0  0  0  0  0
   -3.3168   -0.6593   -6.5694 H   0  0  0  0  0  0  0  0  0  0  0  0
   -5.0912    1.3079   -6.2744 H   0  0  0  0  0  0  0  0  0  0  0  0
   -3.5702    2.2622   -6.2262 H   0  0  0  0  0  0  0  0  0  0  0  0
   -3.9769    1.2934   -7.6832 H   0  0  0  0  0  0  0  0  0  0  0  0
  1  3  1  0  0  0  0
  1  7  1  0  0  0  0
  1  2  2  0  0  0  0
 31 32  1  0  0  0  0
 32 40  1  0  0  0  0
 32 33  2  0  0  0  0
  8  9  1  0  0  0  0
  9 17  1  0  0  0  0
  9 10  2  0  0  0  0
 18 19  1  0  0  0  0
 19 30  1  0  0  0  0
 19 20  2  0  0  0  0
 21 22  1  0  0  0  0
 22 23  2  0  0  0  0
 22 24  1  0  0  0  0
 31 34  1  0  0  0  0
  8 11  1  0  0  0  0
 40 41  1  0  0  0  0
 18 21  1  0  0  0  0
 30 31  1  0  0  0  0
  7  8  1  0  0  0  0
 17 18  1  0  0  0  0
  3  4  1  0  0  0  0
  3  5  1  0  0  0  0
  3  6  1  0  0  0  0
 34 37  1  0  0  0  0
 34 38  1  0  0  0  0
 34 39  1  0  0  0  0
 11 14  1  0  0  0  0
 11 15  1  0  0  0  0
 11 16  1  0  0  0  0
 41 43  1  0  0  0  0
 41 44  1  0  0  0  0
 41 45  1  0  0  0  0
 21 27  1  0  0  0  0
 21 28  1  0  0  0  0
 31 36  1  0  0  0  0
  8 13  1  0  0  0  0
 18 26  1  0  0  0  0
 40 42  1  0  0  0  0
  7 12  1  0  0  0  0
 30 35  1  0  0  0  0
 17 25  1  0  0  0  0
 24 29  1  0  0  0  0
M  END
$$$$

  -OEChem-05262214473D

 45 44  0     1  0  0  0  0  0999 V2000
   -2.2987    4.1032   -0.3022 C   0  0  0  0  0  0  0  0  0  0  0  0
   -1.8049    3.7117   -1.3532 O   0  0  0  0  0  0  0  0  0  0  0  0
   -3.0791    5.3755   -0.2846 C   0  0  0  0  0  0  0  0  0  0  0  0
   -2.4478    6.2532   -0.0717 H   0  0  0  0  0  0  0  0  0  0  0  0
   -3.5571    5.5891   -1.2541 H   0  0  0  0  0  0  0  0  0  0  0  0
   -3.8940    5.4184    0.4556 H   0  0  0  0  0  0  0  0  0  0  0  0
   -2.2137    3.4712    0.9275 N   0  0  0  0  0  0  0  0  0  0  0  0
   -1.5102    2.2327    1.1338 C   0  0  2  0  0  0  0  0  0  0  0  0
   -1.3539    1.5497   -0.2184 C   0  0  0  0  0  0  0  0  0  0  0  0
   -2.0852    1.7861   -1.1778 O   0  0  0  0  0  0  0  0  0  0  0  0
   -2.2477    1.3342    2.1145 C   0  0  0  0  0  0  0  0  0  0  0  0
   -2.6724    3.9052    1.7265 H   0  0  0  0  0  0  0  0  0  0  0  0
   -0.5220    2.4922    1.5290 H   0  0  0  0  0  0  0  0  0  0  0  0
   -3.2400    1.0636    1.7358 H   0  0  0  0  0  0  0  0  0  0  0  0
   -1.6970    0.4046    2.2923 H   0  0  0  0  0  0  0  0  0  0  0  0
   -2.3854    1.8384    3.0772 H   0  0  0  0  0  0  0  0  0  0  0  0
   -0.3283    0.6116   -0.2182 N   0  0  0  0  0  0  0  0  0  0  0  0
    0.0090   -0.1762   -1.3759 C   0  0  2  0  0  0  0  0  0  0  0  0
   -1.1430   -0.0648   -2.3665 C   0  0  0  0  0  0  0  0  0  0  0  0
   -2.1357    0.6313   -2.1632 O   0  0  0  0  0  0  0  0  0  0  0  0
    0.2750   -1.6354   -1.0151 C   0  0  0  0  0  0  0  0  0  0  0  0
    1.5490   -1.7790   -0.2192 C   0  0  0  0  0  0  0  0  0  0  0  0
    2.5067   -1.0232   -0.3187 O   0  0  0  0  0  0  0  0  0  0  0  0
    1.5270   -2.8514    0.6104 O   0  0  0  0  0  0  0  0  0  0  0  0
    0.2381    0.4970    0.6194 H   0  0  0  0  0  0  0  0  0  0  0  0
    0.9008    0.2879   -1.8140 H   0  0  0  0  0  0  0  0  0  0  0  0
   -0.5314   -2.0427   -0.3923 H   0  0  0  0  0  0  0  0  0  0  0  0
    0.3212   -2.2825   -1.8994 H   0  0  0  0  0  0  0  0  0  0  0  0
    2.3445   -2.9850    1.1362 H   0  0  0  0  0  0  0  0  0  0  0  0
   -0.9103   -0.7952   -3.5234 N   0  0  0  0  0  0  0  0  0  0  0  0
   -1.8491   -0.8379   -4.6202 C   0  0  2  0  0  0  0  0  0  0  0  0
   -1.9034    0.5490   -5.2470 C   0  0  0  0  0  0  0  0  0  0  0  0
   -1.5789    1.5704   -4.6450 O   0  0  0  0  0  0  0  0  0  0  0  0
   -3.2276   -1.2772   -4.1518 C   0  0  0  0  0  0  0  0  0  0  0  0
   -0.0448   -1.3210   -3.6020 H   0  0  0  0  0  0  0  0  0  0  0  0
   -1.4520   -1.5533   -5.3486 H   0  0  0  0  0  0  0  0  0  0  0  0
   -3.6417   -0.5726   -3.4213 H   0  0  0  0  0  0  0  0  0  0  0  0
   -3.9308   -1.3366   -4.9890 H   0  0  0  0  0  0  0  0  0  0  0  0
   -3.1816   -2.2620   -3.6745 H   0  0  0  0  0  0  0  0  0  0  0  0
   -2.3979    0.5168   -6.5434 N   0  0  0  0  0  0  0  0  0  0  0  0
   -2.5580    1.7064   -7.3466 C   0  0  0  0  0  0  0  0  0  0  0  0
   -2.6243   -0.3769   -6.9698 H   0  0  0  0  0  0  0  0  0  0  0  0
   -3.5776    2.0996   -7.2212 H   0  0  0  0  0  0  0  0  0  0  0  0
   -1.8301    2.4661   -7.0255 H   0  0  0  0  0  0  0  0  0  0  0  0
   -2.3878    1.4598   -8.4050 H   0  0  0  0  0  0  0  0  0  0  0  0
  1  3  1  0  0  0  0
  1  7  1  0  0  0  0
  1  2  2  0  0  0  0
 31 32  1  0  0  0  0
 32 40  1  0  0  0  0
 32 33  2  0  0  0  0
  8  9  1  0  0  0  0
  9 17  1  0  0  0  0
  9 10  2  0  0  0  0
 18 19  1  0  0  0  0
 19 30  1  0  0  0  0
 19 20  2  0  0  0  0
 21 22  1  0  0  0  0
 22 23  2  0  0  0  0
 22 24  1  0  0  0  0
 31 34  1  0  0  0  0
  8 11  1  0  0  0  0
 40 41  1  0  0  0  0
 18 21  1  0  0  0  0
 30 31  1  0  0  0  0
  7  8  1  0  0  0  0
 17 18  1  0  0  0  0
  3  4  1  0  0  0  0
  3  5  1  0  0  0  0
  3  6  1  0  0  0  0
 34 37  1  0  0  0  0
 34 38  1  0  0  0  0
 34 39  1  0  0  0  0
 11 14  1  0  0  0  0
 11 15  1  0  0  0  0
 11 16  1  0  0  0  0
 41 43  1  0  0  0  0
 41 44  1  0  0  0  0
 41 45  1  0  0  0  0
 21 27  1  0  0  0  0
 21 28  1  0  0  0  0
 31 36  1  0  0  0  0
  8 13  1  0  0  0  0
 18 26  1  0  0  0  0
 40 42  1  0  0  0  0
  7 12  1  0  0  0  0
 30 35  1  0  0  0  0
 17 25  1  0  0  0  0
 24 29  1  0  0  0  0
M  END
$$$$

  -OEChem-05262214473D

 45 44  0     1  0  0  0  0  0999 V2000
   -2.2987    4.1032   -0.3022 C   0  0  0  0  0  0  0  0  0  0  0  0
   -1.8049    3.7117   -1.3532 O   0  0  0  0  0  0  0  0  0  0  0  0
   -3.0791    5.3755   -0.2846 C   0  0  0  0  0  0  0  0  0  0  0  0
   -2.4478    6.2532   -0.0717 H   0  0  0  0  0  0  0  0  0  0  0  0
   -3.5571    5.5891   -1.2541 H   0  0  0  0  0  0  0  0  0  0  0  0
   -3.8940    5.4184    0.4556 H   0  0  0  0  0  0  0  0  0  0  0  0
   -2.2137    3.4712    0.9275 N   0  0  0  0  0  0  0  0  0  0  0  0
   -1.5102    2.2327    1.1338 C   0  0  2  0  0  0  0  0  0  0  0  0
   -1.3539    1.5497   -0.2184 C   0  0  0  0  0  0  0  0  0  0  0  0
   -2.0852    1.7861   -1.1778 O   0  0  0  0  0  0  0  0  0  0  0  0
   -2.2477    1.3342    2.1145 C   0  0  0  0  0  0  0  0  0  0  0  0
   -2.6724    3.9052    1.7265 H   0  0  0  0  0  0  0  0  0  0  0  0
   -0.5220    2.4922    1.5290 H   0  0  0  0  0  0  0  0  0  0  0  0
   -3.2400    1.0636    1.7358 H   0  0  0  0  0  0  0  0  0  0  0  0
   -1.6970    0.4046    2.2923 H   0  0  0  0  0  0  0  0  0  0  0  0
   -2.3854    1.8384    3.0772 H   0  0  0  0  0  0  0  0  0  0  0  0
   -0.3283    0.6116   -0.2182 N   0  0  0  0  0  0  0  0  0  0  0  0
    0.0090   -0.1762   -1.3759 C   0  0  2  0  0  0  0  0  0  0  0  0
   -1.1430   -0.0648   -2.3665 C   0  0  0  0  0  0  0  0  0  0  0  0
   -1.9981    0.8161   -2.3024 O   0  0  0  0  0  0  0  0  0  0  0  0
    0.2750   -1.6354   -1.0151 C   0  0  0  0  0  0  0  0  0  0  0  0
    1.5490   -1.7790   -0.2192 C   0  0  0  0  0  0  0  0  0  0  0  0
    2.5067   -1.0232   -0.3187 O   0  0  0  0  0  0  0  0  0  0  0  0
    1.5270   -2.8514    0.6104 O   0  0  0  0  0  0  0  0  0  0  0  0
    0.2381    0.4970    0.6194 H   0  0  0  0  0  0  0  0  0  0  0  0
    0.9008    0.2879   -1.8140 H   0  0  0  0  0  0  0  0  0  0  0  0
   -0.5314   -2.0427   -0.3923 H   0  0  0  0  0  0  0  0  0  0  0  0
    0.3212   -2.2825   -1.8994 H   0  0  0  0  0  0  0  0  0  0  0  0
    2.3445   -2.9850    1.1362 H   0  0  0  0  0  0  0  0  0  0  0  0
   -1.0766   -1.0346   -3.3570 N   0  0  0  0  0  0  0  0  0  0  0  0
   -2.0479   -1.1290   -4.4217 C   0  0  2  0  0  0  0  0  0  0  0  0
   -1.8930    0.0985   -5.3098 C   0  0  0  0  0  0  0  0  0  0  0  0
   -1.3818    1.1469   -4.9219 O   0  0  0  0  0  0  0  0  0  0  0  0
   -3.4627   -1.2278   -3.8728 C   0  0  0  0  0  0  0  0  0  0  0  0
   -0.3140   -1.7051   -3.3322 H   0  0  0  0  0  0  0  0  0  0  0  0
   -1.8016   -2.0291   -4.9956 H   0  0  0  0  0  0  0  0  0  0  0  0
   -3.7274   -0.3349   -3.2949 H   0  0  0  0  0  0  0  0  0  0  0  0
   -4.1954   -1.3281   -4.6803 H   0  0  0  0  0  0  0  0  0  0  0  0
   -3.5642   -2.0945   -3.2107 H   0  0  0  0  0  0  0  0  0  0  0  0
   -2.4319   -0.1001   -6.5733 N   0  0  0  0  0  0  0  0  0  0  0  0
   -2.4204    0.9206   -7.5950 C   0  0  0  0  0  0  0  0  0  0  0  0
   -2.8189   -1.0077   -6.8144 H   0  0  0  0  0  0  0  0  0  0  0  0
   -3.3552    1.4984   -7.5475 H   0  0  0  0  0  0  0  0  0  0  0  0
   -1.5652    1.5930   -7.4318 H   0  0  0  0  0  0  0  0  0  0  0  0
   -2.3315    0.4479   -8.5843 H   0  0  0  0  0  0  0  0  0  0  0  0
  1  3  1  0  0  0  0
  1  7  1  0  0  0  0
  1  2  2  0  0  0  0
 31 32  1  0  0  0  0
 32 40  1  0  0  0  0
 32 33  2  0  0  0  0
  8  9  1  0  0  0  0
  9 17  1  0  0  0  0
  9 10  2  0  0  0  0
 18 19  1  0  0  0  0
 19 30  1  0  0  0  0
 19 20  2  0  0  0  0
 21 22  1  0  0  0  0
 22 23  2  0  0  0  0
 22 24  1  0  0  0  0
 31 34  1  0  0  0  0
  8 11  1  0  0  0  0
 40 41  1  0  0  0  0
 18 21  1  0  0  0  0
 30 31  1  0  0  0  0
  7  8  1  0  0  0  0
 17 18  1  0  0  0  0
  3  4  1  0  0  0  0
  3  5  1  0  0  0  0
  3  6  1  0  0  0  0
 34 37  1  0  0  0  0
 34 38  1  0  0  0  0
 34 39  1  0  0  0  0
 11 14  1  0  0  0  0
 11 15  1  0  0  0  0
 11 16  1  0  0  0  0
 41 43  1  0  0  0  0
 41 44  1  0  0  0  0
 41 45  1  0  0  0  0
 21 27  1  0  0  0  0
 21 28  1  0  0  0  0
 31 36  1  0  0  0  0
  8 13  1  0  0  0  0
 18 26  1  0  0  0  0
 40 42  1  0  0  0  0
  7 12  1  0  0  0  0
 30 35  1  0  0  0  0
 17 25  1  0  0  0  0
 24 29  1  0  0  0  0
M  END
$$$$

  -OEChem-05262214473D

 45 44  0     1  0  0  0  0  0999 V2000
   -2.2987    4.1032   -0.3022 C   0  0  0  0  0  0  0  0  0  0  0  0
   -1.8049    3.7117   -1.3532 O   0  0  0  0  0  0  0  0  0  0  0  0
   -3.0791    5.3755   -0.2846 C   0  0  0  0  0  0  0  0  0  0  0  0
   -2.4478    6.2532   -0.0717 H   0  0  0  0  0  0  0  0  0  0  0  0
   -3.5571    5.5891   -1.2541 H   0  0  0  0  0  0  0  0  0  0  0  0
   -3.8940    5.4184    0.4556 H   0  0  0  0  0  0  0  0  0  0  0  0
   -2.2137    3.4712    0.9275 N   0  0  0  0  0  0  0  0  0  0  0  0
   -1.5102    2.2327    1.1338 C   0  0  2  0  0  0  0  0  0  0  0  0
   -1.3539    1.5497   -0.2184 C   0  0  0  0  0  0  0  0  0  0  0  0
   -2.0852    1.7861   -1.1778 O   0  0  0  0  0  0  0  0  0  0  0  0
   -2.2477    1.3342    2.1145 C   0  0  0  0  0  0  0  0  0  0  0  0
   -2.6724    3.9052    1.7265 H   0  0  0  0  0  0  0  0  0  0  0  0
   -0.5220    2.4922    1.5290 H   0  0  0  0  0  0  0  0  0  0  0  0
   -3.2400    1.0636    1.7358 H   0  0  0  0  0  0  0  0  0  0  0  0
   -1.6970    0.4046    2.2923 H   0  0  0  0  0  0  0  0  0  0  0  0
   -2.3854    1.8384    3.0772 H   0  0  0  0  0  0  0  0  0  0  0  0
   -0.3283    0.6116   -0.2182 N   0  0  0  0  0  0  0  0  0  0  0  0
    0.0090   -0.1762   -1.3759 C   0  0  2  0  0  0  0  0  0  0  0  0
   -1.1430   -0.0648   -2.3665 C   0  0  0  0  0  0  0  0  0  0  0  0
   -1.8368    0.9442   -2.4756 O   0  0  0  0  0  0  0  0  0  0  0  0
    0.2750   -1.6354   -1.0151 C   0  0  0  0  0  0  0  0  0  0  0  0
    1.5490   -1.7790   -0.2192 C   0  0  0  0  0  0  0  0  0  0  0  0
    2.5067   -1.0232   -0.3187 O   0  0  0  0  0  0  0  0  0  0  0  0
    1.5270   -2.8514    0.6104 O   0  0  0  0  0  0  0  0  0  0  0  0
    0.2381    0.4970    0.6194 H   0  0  0  0  0  0  0  0  0  0  0  0
    0.9008    0.2879   -1.8140 H   0  0  0  0  0  0  0  0  0  0  0  0
   -0.5314   -2.0427   -0.3923 H   0  0  0  0  0  0  0  0  0  0  0  0
    0.3212   -2.2825   -1.8994 H   0  0  0  0  0  0  0  0  0  0  0  0
    2.3445   -2.9850    1.1362 H   0  0  0  0  0  0  0  0  0  0  0  0
   -1.2743   -1.2053   -3.1463 N   0  0  0  0  0  0  0  0  0  0  0  0
   -2.2851   -1.3378   -4.1693 C   0  0  2  0  0  0  0  0  0  0  0  0
   -1.9600   -0.3507   -5.2825 C   0  0  0  0  0  0  0  0  0  0  0  0
   -1.2679    0.6505   -5.1102 O   0  0  0  0  0  0  0  0  0  0  0  0
   -3.6762   -1.0860   -3.6086 C   0  0  0  0  0  0  0  0  0  0  0  0
   -0.6335   -1.9780   -2.9913 H   0  0  0  0  0  0  0  0  0  0  0  0
   -2.2128   -2.3607   -4.5548 H   0  0  0  0  0  0  0  0  0  0  0  0
   -3.7678   -0.0661   -3.2177 H   0  0  0  0  0  0  0  0  0  0  0  0
   -4.4437   -1.2149   -4.3789 H   0  0  0  0  0  0  0  0  0  0  0  0
   -3.8968   -1.7775   -2.7883 H   0  0  0  0  0  0  0  0  0  0  0  0
   -2.5691   -0.6961   -6.4807 N   0  0  0  0  0  0  0  0  0  0  0  0
   -2.4244    0.0898   -7.6839 C   0  0  0  0  0  0  0  0  0  0  0  0
   -3.1102   -1.5539   -6.5372 H   0  0  0  0  0  0  0  0  0  0  0  0
   -3.2477    0.8163   -7.7492 H   0  0  0  0  0  0  0  0  0  0  0  0
   -1.4640    0.6255   -7.6584 H   0  0  0  0  0  0  0  0  0  0  0  0
   -2.4508   -0.5740   -8.5606 H   0  0  0  0  0  0  0  0  0  0  0  0
  1  3  1  0  0  0  0
  1  7  1  0  0  0  0
  1  2  2  0  0  0  0
 31 32  1  0  0  0  0
 32 40  1  0  0  0  0
 32 33  2  0  0  0  0
  8  9  1  0  0  0  0
  9 17  1  0  0  0  0
  9 10  2  0  0  0  0
 18 19  1  0  0  0  0
 19 30  1  0  0  0  0
 19 20  2  0  0  0  0
 21 22  1  0  0  0  0
 22 23  2  0  0  0  0
 22 24  1  0  0  0  0
 31 34  1  0  0  0  0
  8 11  1  0  0  0  0
 40 41  1  0  0  0  0
 18 21  1  0  0  0  0
 30 31  1  0  0  0  0
  7  8  1  0  0  0  0
 17 18  1  0  0  0  0
  3  4  1  0  0  0  0
  3  5  1  0  0  0  0
  3  6  1  0  0  0  0
 34 37  1  0  0  0  0
 34 38  1  0  0  0  0
 34 39  1  0  0  0  0
 11 14  1  0  0  0  0
 11 15  1  0  0  0  0
 11 16  1  0  0  0  0
 41 43  1  0  0  0  0
 41 44  1  0  0  0  0
 41 45  1  0  0  0  0
 21 27  1  0  0  0  0
 21 28  1  0  0  0  0
 31 36  1  0  0  0  0
  8 13  1  0  0  0  0
 18 26  1  0  0  0  0
 40 42  1  0  0  0  0
  7 12  1  0  0  0  0
 30 35  1  0  0  0  0
 17 25  1  0  0  0  0
 24 29  1  0  0  0  0
M  END
$$$$

  -OEChem-05262214473D

 45 44  0     1  0  0  0  0  0999 V2000
   -2.2987    4.1032   -0.3022 C   0  0  0  0  0  0  0  0  0  0  0  0
   -1.8049    3.7117   -1.3532 O   0  0  0  0  0  0  0  0  0  0  0  0
   -3.0791    5.3755   -0.2846 C   0  0  0  0  0  0  0  0  0  0  0  0
   -2.4478    6.2532   -0.0717 H   0  0  0  0  0  0  0  0  0  0  0  0
   -3.5571    5.5891   -1.2541 H   0  0  0  0  0  0  0  0  0  0  0  0
   -3.8940    5.4184    0.4556 H   0  0  0  0  0  0  0  0  0  0  0  0
   -2.2137    3.4712    0.9275 N   0  0  0  0  0  0  0  0  0  0  0  0
   -1.5102    2.2327    1.1338 C   0  0  2  0  0  0  0  0  0  0  0  0
   -1.3539    1.5497   -0.2184 C   0  0  0  0  0  0  0  0  0  0  0  0
   -2.0852    1.7861   -1.1778 O   0  0  0  0  0  0  0  0  0  0  0  0
   -2.2477    1.3342    2.1145 C   0  0  0  0  0  0  0  0  0  0  0  0
   -2.6724    3.9052    1.7265 H   0  0  0  0  0  0  0  0  0  0  0  0
   -0.5220    2.4922    1.5290 H   0  0  0  0  0  0  0  0  0  0  0  0
   -3.2400    1.0636    1.7358 H   0  0  0  0  0  0  0  0  0  0  0  0
   -1.6970    0.4046    2.2923 H   0  0  0  0  0  0  0  0  0  0  0  0
   -2.3854    1.8384    3.0772 H   0  0  0  0  0  0  0  0  0  0  0  0
   -0.3283    0.6116   -0.2182 N   0  0  0  0  0  0  0  0  0  0  0  0
    0.0090   -0.1762   -1.3759 C   0  0  2  0  0  0  0  0  0  0  0  0
   -1.1430   -0.0648   -2.3665 C   0  0  0  0  0  0  0  0  0  0  0  0
   -1.6627    1.0069   -2.6710 O   0  0  0  0  0  0  0  0  0  0  0  0
    0.2750   -1.6354   -1.0151 C   0  0  0  0  0  0  0  0  0  0  0  0
    1.5490   -1.7790   -0.2192 C   0  0  0  0  0  0  0  0  0  0  0  0
    2.5067   -1.0232   -0.3187 O   0  0  0  0  0  0  0  0  0  0  0  0
    1.5270   -2.8514    0.6104 O   0  0  0  0  0  0  0  0  0  0  0  0
    0.2381    0.4970    0.6194 H   0  0  0  0  0  0  0  0  0  0  0  0
    0.9008    0.2879   -1.8140 H   0  0  0  0  0  0  0  0  0  0  0  0
   -0.5314   -2.0427   -0.3923 H   0  0  0  0  0  0  0  0  0  0  0  0
    0.3212   -2.2825   -1.8994 H   0  0  0  0  0  0  0  0  0  0  0  0
    2.3445   -2.9850    1.1362 H   0  0  0  0  0  0  0  0  0  0  0  0
   -1.4900   -1.2956   -2.9056 N   0  0  0  0  0  0  0  0  0  0  0  0
   -2.5447   -1.4502   -3.8801 C   0  0  2  0  0  0  0  0  0  0  0  0
   -2.0997   -0.7679   -5.1670 C   0  0  0  0  0  0  0  0  0  0  0  0
   -1.2449    0.1150   -5.1971 O   0  0  0  0  0  0  0  0  0  0  0  0
   -3.8535   -0.8614   -3.3771 C   0  0  0  0  0  0  0  0  0  0  0  0
   -0.9816   -2.1212   -2.6026 H   0  0  0  0  0  0  0  0  0  0  0  0
   -2.6573   -2.5255   -4.0564 H   0  0  0  0  0  0  0  0  0  0  0  0
   -3.7601    0.2155   -3.1949 H   0  0  0  0  0  0  0  0  0  0  0  0
   -4.6588   -1.0047   -4.1051 H   0  0  0  0  0  0  0  0  0  0  0  0
   -4.1567   -1.3326   -2.4360 H   0  0  0  0  0  0  0  0  0  0  0  0
   -2.8003   -1.2305   -6.2721 N   0  0  0  0  0  0  0  0  0  0  0  0
   -2.5698   -0.7295   -7.6070 C   0  0  0  0  0  0  0  0  0  0  0  0
   -3.4782   -1.9781   -6.1570 H   0  0  0  0  0  0  0  0  0  0  0  0
   -3.2626    0.0999   -7.8126 H   0  0  0  0  0  0  0  0  0  0  0  0
   -1.5334   -0.3704   -7.6898 H   0  0  0  0  0  0  0  0  0  0  0  0
   -2.7376   -1.5364   -8.3355 H   0  0  0  0  0  0  0  0  0  0  0  0
  1  3  1  0  0  0  0
  1  7  1  0  0  0  0
  1  2  2  0  0  0  0
 31 32  1  0  0  0  0
 32 40  1  0  0  0  0
 32 33  2  0  0  0  0
  8  9  1  0  0  0  0
  9 17  1  0  0  0  0
  9 10  2  0  0  0  0
 18 19  1  0  0  0  0
 19 30  1  0  0  0  0
 19 20  2  0  0  0  0
 21 22  1  0  0  0  0
 22 23  2  0  0  0  0
 22 24  1  0  0  0  0
 31 34  1  0  0  0  0
  8 11  1  0  0  0  0
 40 41  1  0  0  0  0
 18 21  1  0  0  0  0
 30 31  1  0  0  0  0
  7  8  1  0  0  0  0
 17 18  1  0  0  0  0
  3  4  1  0  0  0  0
  3  5  1  0  0  0  0
  3  6  1  0  0  0  0
 34 37  1  0  0  0  0
 34 38  1  0  0  0  0
 34 39  1  0  0  0  0
 11 14  1  0  0  0  0
 11 15  1  0  0  0  0
 11 16  1  0  0  0  0
 41 43  1  0  0  0  0
 41 44  1  0  0  0  0
 41 45  1  0  0  0  0
 21 27  1  0  0  0  0
 21 28  1  0  0  0  0
 31 36  1  0  0  0  0
  8 13  1  0  0  0  0
 18 26  1  0  0  0  0
 40 42  1  0  0  0  0
  7 12  1  0  0  0  0
 30 35  1  0  0  0  0
 17 25  1  0  0  0  0
 24 29  1  0  0  0  0
M  END
$$$$

  -OEChem-05262214473D

 45 44  0     1  0  0  0  0  0999 V2000
   -2.2987    4.1032   -0.3022 C   0  0  0  0  0  0  0  0  0  0  0  0
   -1.8049    3.7117   -1.3532 O   0  0  0  0  0  0  0  0  0  0  0  0
   -3.0791    5.3755   -0.2846 C   0  0  0  0  0  0  0  0  0  0  0  0
   -2.4478    6.2532   -0.0717 H   0  0  0  0  0  0  0  0  0  0  0  0
   -3.5571    5.5891   -1.2541 H   0  0  0  0  0  0  0  0  0  0  0  0
   -3.8940    5.4184    0.4556 H   0  0  0  0  0  0  0  0  0  0  0  0
   -2.2137    3.4712    0.9275 N   0  0  0  0  0  0  0  0  0  0  0  0
   -1.5102    2.2327    1.1338 C   0  0  2  0  0  0  0  0  0  0  0  0
   -1.3539    1.5497   -0.2184 C   0  0  0  0  0  0  0  0  0  0  0  0
   -2.0852    1.7861   -1.1778 O   0  0  0  0  0  0  0  0  0  0  0  0
   -2.2477    1.3342    2.1145 C   0  0  0  0  0  0  0  0  0  0  0  0
   -2.6724    3.9052    1.7265 H   0  0  0  0  0  0  0  0  0  0  0  0
   -0.5220    2.4922    1.5290 H   0  0  0  0  0  0  0  0  0  0  0  0
   -3.2400    1.0636    1.7358 H   0  0  0  0  0  0  0  0  0  0  0  0
   -1.6970    0.4046    2.2923 H   0  0  0  0  0  0  0  0  0  0  0  0
   -2.3854    1.8384    3.0772 H   0  0  0  0  0  0  0  0  0  0  0  0
   -0.3283    0.6116   -0.2182 N   0  0  0  0  0  0  0  0  0  0  0  0
    0.0090   -0.1762   -1.3759 C   0  0  2  0  0  0  0  0  0  0  0  0
   -1.1430   -0.0648   -2.3665 C   0  0  0  0  0  0  0  0  0  0  0  0
   -1.4876    0.9999   -2.8754 O   0  0  0  0  0  0  0  0  0  0  0  0
    0.2750   -1.6354   -1.0151 C   0  0  0  0  0  0  0  0  0  0  0  0
    1.5490   -1.7790   -0.2192 C   0  0  0  0  0  0  0  0  0  0  0  0
    2.5067   -1.0232   -0.3187 O   0  0  0  0  0  0  0  0  0  0  0  0
    1.5270   -2.8514    0.6104 O   0  0  0  0  0  0  0  0  0  0  0  0
    0.2381    0.4970    0.6194 H   0  0  0  0  0  0  0  0  0  0  0  0
    0.9008    0.2879   -1.8140 H   0  0  0  0  0  0  0  0  0  0  0  0
   -0.5314   -2.0427   -0.3923 H   0  0  0  0  0  0  0  0  0  0  0  0
    0.3212   -2.2825   -1.8994 H   0  0  0  0  0  0  0  0  0  0  0  0
    2.3445   -2.9850    1.1362 H   0  0  0  0  0  0  0  0  0  0  0  0
   -1.7090   -1.2995   -2.6514 N   0  0  0  0  0  0  0  0  0  0  0  0
   -2.8088   -1.4585   -3.5739 C   0  0  2  0  0  0  0  0  0  0  0  0
   -2.3028   -1.1248   -4.9710 C   0  0  0  0  0  0  0  0  0  0  0  0
   -1.3146   -0.4232   -5.1767 O   0  0  0  0  0  0  0  0  0  0  0  0
   -3.9826   -0.5692   -3.1941 C   0  0  0  0  0  0  0  0  0  0  0  0
   -1.3346   -2.1248   -2.1925 H   0  0  0  0  0  0  0  0  0  0  0  0
   -3.1051   -2.5124   -3.5342 H   0  0  0  0  0  0  0  0  0  0  0  0
   -3.7048    0.4905   -3.2282 H   0  0  0  0  0  0  0  0  0  0  0  0
   -4.8260   -0.7120   -3.8777 H   0  0  0  0  0  0  0  0  0  0  0  0
   -4.3262   -0.7903   -2.1778 H   0  0  0  0  0  0  0  0  0  0  0  0
   -3.1095   -1.6670   -5.9617 N   0  0  0  0  0  0  0  0  0  0  0  0
   -2.8466   -1.4812   -7.3696 C   0  0  0  0  0  0  0  0  0  0  0  0
   -3.8978   -2.2516   -5.6998 H   0  0  0  0  0  0  0  0  0  0  0  0
   -3.3987   -0.6020   -7.7334 H   0  0  0  0  0  0  0  0  0  0  0  0
   -1.7685   -1.3268   -7.5240 H   0  0  0  0  0  0  0  0  0  0  0  0
   -3.1723   -2.3737   -7.9242 H   0  0  0  0  0  0  0  0  0  0  0  0
  1  3  1  0  0  0  0
  1  7  1  0  0  0  0
  1  2  2  0  0  0  0
 31 32  1  0  0  0  0
 32 40  1  0  0  0  0
 32 33  2  0  0  0  0
  8  9  1  0  0  0  0
  9 17  1  0  0  0  0
  9 10  2  0  0  0  0
 18 19  1  0  0  0  0
 19 30  1  0  0  0  0
 19 20  2  0  0  0  0
 21 22  1  0  0  0  0
 22 23  2  0  0  0  0
 22 24  1  0  0  0  0
 31 34  1  0  0  0  0
  8 11  1  0  0  0  0
 40 41  1  0  0  0  0
 18 21  1  0  0  0  0
 30 31  1  0  0  0  0
  7  8  1  0  0  0  0
 17 18  1  0  0  0  0
  3  4  1  0  0  0  0
  3  5  1  0  0  0  0
  3  6  1  0  0  0  0
 34 37  1  0  0  0  0
 34 38  1  0  0  0  0
 34 39  1  0  0  0  0
 11 14  1  0  0  0  0
 11 15  1  0  0  0  0
 11 16  1  0  0  0  0
 41 43  1  0  0  0  0
 41 44  1  0  0  0  0
 41 45  1  0  0  0  0
 21 27  1  0  0  0  0
 21 28  1  0  0  0  0
 31 36  1  0  0  0  0
  8 13  1  0  0  0  0
 18 26  1  0  0  0  0
 40 42  1  0  0  0  0
  7 12  1  0  0  0  0
 30 35  1  0  0  0  0
 17 25  1  0  0  0  0
 24 29  1  0  0  0  0
M  END
$$$$

  -OEChem-05262214473D

 45 44  0     1  0  0  0  0  0999 V2000
   -2.2987    4.1032   -0.3022 C   0  0  0  0  0  0  0  0  0  0  0  0
   -1.8049    3.7117   -1.3532 O   0  0  0  0  0  0  0  0  0  0  0  0
   -3.0791    5.3755   -0.2846 C   0  0  0  0  0  0  0  0  0  0  0  0
   -2.4478    6.2532   -0.0717 H   0  0  0  0  0  0  0  0  0  0  0  0
   -3.5571    5.5891   -1.2541 H   0  0  0  0  0  0  0  0  0  0  0  0
   -3.8940    5.4184    0.4556 H   0  0  0  0  0  0  0  0  0  0  0  0
   -2.2137    3.4712    0.9275 N   0  0  0  0  0  0  0  0  0  0  0  0
   -1.5102    2.2327    1.1338 C   0  0  2  0  0  0  0  0  0  0  0  0
   -1.3539    1.5497   -0.2184 C   0  0  0  0  0  0  0  0  0  0  0  0
   -2.0852    1.7861   -1.1778 O   0  0  0  0  0  0  0  0  0  0  0  0
   -2.2477    1.3342    2.1145 C   0  0  0  0  0  0  0  0  0  0  0  0
   -2.6724    3.9052    1.7265 H   0  0  0  0  0  0  0  0  0  0  0  0
   -0.5220    2.4922    1.5290 H   0  0  0  0  0  0  0  0  0  0  0  0
   -3.2400    1.0636    1.7358 H   0  0  0  0  0  0  0  0  0  0  0  0
   -1.6970    0.4046    2.2923 H   0  0  0  0  0  0  0  0  0  0  0  0
   -2.3854    1.8384    3.0772 H   0  0  0  0  0  0  0  0  0  0  0  0
   -0.3283    0.6116   -0.2182 N   0  0  0  0  0  0  0  0  0  0  0  0
    0.0090   -0.1762   -1.3759 C   0  0  2  0  0  0  0  0  0  0  0  0
   -1.1430   -0.0648   -2.3665 C   0  0  0  0  0  0  0  0  0  0  0  0
   -1.3236    0.9237   -3.0747 O   0  0  0  0  0  0  0  0  0  0  0  0
    0.2750   -1.6354   -1.0151 C   0  0  0  0  0  0  0  0  0  0  0  0
    1.5490   -1.7790   -0.2192 C   0  0  0  0  0  0  0  0  0  0  0  0
    2.5067   -1.0232   -0.3187 O   0  0  0  0  0  0  0  0  0  0  0  0
    1.5270   -2.8514    0.6104 O   0  0  0  0  0  0  0  0  0  0  0  0
    0.2381    0.4970    0.6194 H   0  0  0  0  0  0  0  0  0  0  0  0
    0.9008    0.2879   -1.8140 H   0  0  0  0  0  0  0  0  0  0  0  0
   -0.5314   -2.0427   -0.3923 H   0  0  0  0  0  0  0  0  0  0  0  0
    0.3212   -2.2825   -1.8994 H   0  0  0  0  0  0  0  0  0  0  0  0
    2.3445   -2.9850    1.1362 H   0  0  0  0  0  0  0  0  0  0  0  0
   -1.9164   -1.2166   -2.4009 N   0  0  0  0  0  0  0  0  0  0  0  0
   -3.0596   -1.3621   -3.2715 C   0  0  2  0  0  0  0  0  0  0  0  0
   -2.5552   -1.3970   -4.7081 C   0  0  0  0  0  0  0  0  0  0  0  0
   -1.4720   -0.9272   -5.0503 O   0  0  0  0  0  0  0  0  0  0  0  0
   -4.0546   -0.2295   -3.0721 C   0  0  0  0  0  0  0  0  0  0  0  0
   -1.6684   -1.9886   -1.7890 H   0  0  0  0  0  0  0  0  0  0  0  0
   -3.5255   -2.3222   -3.0239 H   0  0  0  0  0  0  0  0  0  0  0  0
   -3.6058    0.7405   -3.3152 H   0  0  0  0  0  0  0  0  0  0  0  0
   -4.9339   -0.3566   -3.7122 H   0  0  0  0  0  0  0  0  0  0  0  0
   -4.3937   -0.1873   -2.0314 H   0  0  0  0  0  0  0  0  0  0  0  0
   -3.4758   -1.9758   -5.5705 N   0  0  0  0  0  0  0  0  0  0  0  0
   -3.2361   -2.1144   -6.9880 C   0  0  0  0  0  0  0  0  0  0  0  0
   -4.3405   -2.3556   -5.1967 H   0  0  0  0  0  0  0  0  0  0  0  0
   -3.6467   -1.2416   -7.5168 H   0  0  0  0  0  0  0  0  0  0  0  0
   -2.1535   -2.1786   -7.1721 H   0  0  0  0  0  0  0  0  0  0  0  0
   -3.7253   -3.0288   -7.3548 H   0  0  0  0  0  0  0  0  0  0  0  0
  1  3  1  0  0  0  0
  1  7  1  0  0  0  0
  1  2  2  0  0  0  0
 31 32  1  0  0  0  0
 32 40  1  0  0  0  0
 32 33  2  0  0  0  0
  8  9  1  0  0  0  0
  9 17  1  0  0  0  0
  9 10  2  0  0  0  0
 18 19  1  0  0  0  0
 19 30  1  0  0  0  0
 19 20  2  0  0  0  0
 21 22  1  0  0  0  0
 22 23  2  0  0  0  0
 22 24  1  0  0  0  0
 31 34  1  0  0  0  0
  8 11  1  0  0  0  0
 40 41  1  0  0  0  0
 18 21  1  0  0  0  0
 30 31  1  0  0  0  0
  7  8  1  0  0  0  0
 17 18  1  0  0  0  0
  3  4  1  0  0  0  0
  3  5  1  0  0  0  0
  3  6  1  0  0  0  0
 34 37  1  0  0  0  0
 34 38  1  0  0  0  0
 34 39  1  0  0  0  0
 11 14  1  0  0  0  0
 11 15  1  0  0  0  0
 11 16  1  0  0  0  0
 41 43  1  0  0  0  0
 41 44  1  0  0  0  0
 41 45  1  0  0  0  0
 21 27  1  0  0  0  0
 21 28  1  0  0  0  0
 31 36  1  0  0  0  0
  8 13  1  0  0  0  0
 18 26  1  0  0  0  0
 40 42  1  0  0  0  0
  7 12  1  0  0  0  0
 30 35  1  0  0  0  0
 17 25  1  0  0  0  0
 24 29  1  0  0  0  0
M  END
$$$$

  -OEChem-05262214473D

 45 44  0     1  0  0  0  0  0999 V2000
   -2.2987    4.1032   -0.3022 C   0  0  0  0  0  0  0  0  0  0  0  0
   -1.8049    3.7117   -1.3532 O   0  0  0  0  0  0  0  0  0  0  0  0
   -3.0791    5.3755   -0.2846 C   0  0  0  0  0  0  0  0  0  0  0  0
   -2.4478    6.2532   -0.0717 H   0  0  0  0  0  0  0  0  0  0  0  0
   -3.5571    5.5891   -1.2541 H   0  0  0  0  0  0  0  0  0  0  0  0
   -3.8940    5.4184    0.4556 H   0  0  0  0  0  0  0  0  0  0  0  0
   -2.2137    3.4712    0.9275 N   0  0  0  0  0  0  0  0  0  0  0  0
   -1.5102    2.2327    1.1338 C   0  0  2  0  0  0  0  0  0  0  0  0
   -1.3539    1.5497   -0.2184 C   0  0  0  0  0  0  0  0  0  0  0  0
   -2.0852    1.7861   -1.1778 O   0  0  0  0  0  0  0  0  0  0  0  0
   -2.2477    1.3342    2.1145 C   0  0  0  0  0  0  0  0  0  0  0  0
   -2.6724    3.9052    1.7265 H   0  0  0  0  0  0  0  0  0  0  0  0
   -0.5220    2.4922    1.5290 H   0  0  0  0  0  0  0  0  0  0  0  0
   -3.2400    1.0636    1.7358 H   0  0  0  0  0  0  0  0  0  0  0  0
   -1.6970    0.4046    2.2923 H   0  0  0  0  0  0  0  0  0  0  0  0
   -2.3854    1.8384    3.0772 H   0  0  0  0  0  0  0  0  0  0  0  0
   -0.3283    0.6116   -0.2182 N   0  0  0  0  0  0  0  0  0  0  0  0
    0.0090   -0.1762   -1.3759 C   0  0  2  0  0  0  0  0  0  0  0  0
   -1.1430   -0.0648   -2.3665 C   0  0  0  0  0  0  0  0  0  0  0  0
   -1.1817    0.7835   -3.2554 O   0  0  0  0  0  0  0  0  0  0  0  0
    0.2750   -1.6354   -1.0151 C   0  0  0  0  0  0  0  0  0  0  0  0
    1.5490   -1.7790   -0.2192 C   0  0  0  0  0  0  0  0  0  0  0  0
    2.5067   -1.0232   -0.3187 O   0  0  0  0  0  0  0  0  0  0  0  0
    1.5270   -2.8514    0.6104 O   0  0  0  0  0  0  0  0  0  0  0  0
    0.2381    0.4970    0.6194 H   0  0  0  0  0  0  0  0  0  0  0  0
    0.9008    0.2879   -1.8140 H   0  0  0  0  0  0  0  0  0  0  0  0
   -0.5314   -2.0427   -0.3923 H   0  0  0  0  0  0  0  0  0  0  0  0
    0.3212   -2.2825   -1.8994 H   0  0  0  0  0  0  0  0  0  0  0  0
    2.3445   -2.9850    1.1362 H   0  0  0  0  0  0  0  0  0  0  0  0
   -2.0980   -1.0526   -2.1712 N   0  0  0  0  0  0  0  0  0  0  0  0
   -3.2798   -1.1676   -2.9935 C   0  0  2  0  0  0  0  0  0  0  0  0
   -2.8399   -1.5660   -4.3960 C   0  0  0  0  0  0  0  0  0  0  0  0
   -1.7066   -1.3629   -4.8266 O   0  0  0  0  0  0  0  0  0  0  0  0
   -4.0648    0.1346   -3.0193 C   0  0  0  0  0  0  0  0  0  0  0  0
   -1.9603   -1.7218   -1.4195 H   0  0  0  0  0  0  0  0  0  0  0  0
   -3.8898   -1.9678   -2.5603 H   0  0  0  0  0  0  0  0  0  0  0  0
   -3.4697    0.9482   -3.4501 H   0  0  0  0  0  0  0  0  0  0  0  0
   -4.9752    0.0372   -3.6199 H   0  0  0  0  0  0  0  0  0  0  0  0
   -4.3547    0.4351   -2.0067 H   0  0  0  0  0  0  0  0  0  0  0  0
   -3.8741   -2.1359   -5.1252 N   0  0  0  0  0  0  0  0  0  0  0  0
   -3.7116   -2.5857   -6.4881 C   0  0  0  0  0  0  0  0  0  0  0  0
   -4.7761   -2.2831   -4.6819 H   0  0  0  0  0  0  0  0  0  0  0  0
   -3.9899   -1.7753   -7.1778 H   0  0  0  0  0  0  0  0  0  0  0  0
   -2.6621   -2.8677   -6.6583 H   0  0  0  0  0  0  0  0  0  0  0  0
   -4.3590   -3.4571   -6.6661 H   0  0  0  0  0  0  0  0  0  0  0  0
  1  3  1  0  0  0  0
  1  7  1  0  0  0  0
  1  2  2  0  0  0  0
 31 32  1  0  0  0  0
 32 40  1  0  0  0  0
 32 33  2  0  0  0  0
  8  9  1  0  0  0  0
  9 17  1  0  0  0  0
  9 10  2  0  0  0  0
 18 19  1  0  0  0  0
 19 30  1  0  0  0  0
 19 20  2  0  0  0  0
 21 22  1  0  0  0  0
 22 23  2  0  0  0  0
 22 24  1  0  0  0  0
 31 34  1  0  0  0  0
  8 11  1  0  0  0  0
 40 41  1  0  0  0  0
 18 21  1  0  0  0  0
 30 31  1  0  0  0  0
  7  8  1  0  0  0  0
 17 18  1  0  0  0  0
  3  4  1  0  0  0  0
  3  5  1  0  0  0  0
  3  6  1  0  0  0  0
 34 37  1  0  0  0  0
 34 38  1  0  0  0  0
 34 39  1  0  0  0  0
 11 14  1  0  0  0  0
 11 15  1  0  0  0  0
 11 16  1  0  0  0  0
 41 43  1  0  0  0  0
 41 44  1  0  0  0  0
 41 45  1  0  0  0  0
 21 27  1  0  0  0  0
 21 28  1  0  0  0  0
 31 36  1  0  0  0  0
  8 13  1  0  0  0  0
 18 26  1  0  0  0  0
 40 42  1  0  0  0  0
  7 12  1  0  0  0  0
 30 35  1  0  0  0  0
 17 25  1  0  0  0  0
 24 29  1  0  0  0  0
M  END
$$$$

  -OEChem-05262214473D

 45 44  0     1  0  0  0  0  0999 V2000
   -2.2987    4.1032   -0.3022 C   0  0  0  0  0  0  0  0  0  0  0  0
   -1.8049    3.7117   -1.3532 O   0  0  0  0  0  0  0  0  0  0  0  0
   -3.0791    5.3755   -0.2846 C   0  0  0  0  0  0  0  0  0  0  0  0
   -2.4478    6.2532   -0.0717 H   0  0  0  0  0  0  0  0  0  0  0  0
   -3.5571    5.5891   -1.2541 H   0  0  0  0  0  0  0  0  0  0  0  0
   -3.8940    5.4184    0.4556 H   0  0  0  0  0  0  0  0  0  0  0  0
   -2.2137    3.4712    0.9275 N   0  0  0  0  0  0  0  0  0  0  0  0
   -1.5102    2.2327    1.1338 C   0  0  2  0  0  0  0  0  0  0  0  0
   -1.3539    1.5497   -0.2184 C   0  0  0  0  0  0  0  0  0  0  0  0
   -2.0852    1.7861   -1.1778 O   0  0  0  0  0  0  0  0  0  0  0  0
   -2.2477    1.3342    2.1145 C   0  0  0  0  0  0  0  0  0  0  0  0
   -2.6724    3.9052    1.7265 H   0  0  0  0  0  0  0  0  0  0  0  0
   -0.5220    2.4922    1.5290 H   0  0  0  0  0  0  0  0  0  0  0  0
   -3.2400    1.0636    1.7358 H   0  0  0  0  0  0  0  0  0  0  0  0
   -1.6970    0.4046    2.2923 H   0  0  0  0  0  0  0  0  0  0  0  0
   -2.3854    1.8384    3.0772 H   0  0  0  0  0  0  0  0  0  0  0  0
   -0.3283    0.6116   -0.2182 N   0  0  0  0  0  0  0  0  0  0  0  0
    0.0090   -0.1762   -1.3759 C   0  0  2  0  0  0  0  0  0  0  0  0
   -1.1430   -0.0648   -2.3665 C   0  0  0  0  0  0  0  0  0  0  0  0
   -1.0717    0.5888   -3.4053 O   0  0  0  0  0  0  0  0  0  0  0  0
    0.2750   -1.6354   -1.0151 C   0  0  0  0  0  0  0  0  0  0  0  0
    1.5490   -1.7790   -0.2192 C   0  0  0  0  0  0  0  0  0  0  0  0
    2.5067   -1.0232   -0.3187 O   0  0  0  0  0  0  0  0  0  0  0  0
    1.5270   -2.8514    0.6104 O   0  0  0  0  0  0  0  0  0  0  0  0
    0.2381    0.4970    0.6194 H   0  0  0  0  0  0  0  0  0  0  0  0
    0.9008    0.2879   -1.8140 H   0  0  0  0  0  0  0  0  0  0  0  0
   -0.5314   -2.0427   -0.3923 H   0  0  0  0  0  0  0  0  0  0  0  0
    0.3212   -2.2825   -1.8994 H   0  0  0  0  0  0  0  0  0  0  0  0
    2.3445   -2.9850    1.1362 H   0  0  0  0  0  0  0  0  0  0  0  0
   -2.2415   -0.8187   -1.9780 N   0  0  0  0  0  0  0  0  0  0  0  0
   -3.4546   -0.8883   -2.7588 C   0  0  2  0  0  0  0  0  0  0  0  0
   -3.1374   -1.6203   -4.0562 C   0  0  0  0  0  0  0  0  0  0  0  0
   -2.0022   -1.7005   -4.5208 O   0  0  0  0  0  0  0  0  0  0  0  0
   -4.0123    0.4984   -3.0394 C   0  0  0  0  0  0  0  0  0  0  0  0
   -2.1903   -1.3428   -1.1094 H   0  0  0  0  0  0  0  0  0  0  0  0
   -4.1734   -1.4735   -2.1750 H   0  0  0  0  0  0  0  0  0  0  0  0
   -3.3059    1.0995   -3.6236 H   0  0  0  0  0  0  0  0  0  0  0  0
   -4.9471    0.4427   -3.6070 H   0  0  0  0  0  0  0  0  0  0  0  0
   -4.2118    1.0346   -2.1054 H   0  0  0  0  0  0  0  0  0  0  0  0
   -4.2774   -2.1364   -4.6563 N   0  0  0  0  0  0  0  0  0  0  0  0
   -4.2408   -2.8631   -5.9039 C   0  0  0  0  0  0  0  0  0  0  0  0
   -5.1749   -2.0390   -4.1907 H   0  0  0  0  0  0  0  0  0  0  0  0
   -4.4048   -2.1667   -6.7394 H   0  0  0  0  0  0  0  0  0  0  0  0
   -3.2596   -3.3472   -6.0174 H   0  0  0  0  0  0  0  0  0  0  0  0
   -5.0300   -3.6293   -5.9051 H   0  0  0  0  0  0  0  0  0  0  0  0
  1  3  1  0  0  0  0
  1  7  1  0  0  0  0
  1  2  2  0  0  0  0
 31 32  1  0  0  0  0
 32 40  1  0  0  0  0
 32 33  2  0  0  0  0
  8  9  1  0  0  0  0
  9 17  1  0  0  0  0
  9 10  2  0  0  0  0
 18 19  1  0  0  0  0
 19 30  1  0  0  0  0
 19 20  2  0  0  0  0
 21 22  1  0  0  0  0
 22 23  2  0  0  0  0
 22 24  1  0  0  0  0
 31 34  1  0  0  0  0
  8 11  1  0  0  0  0
 40 41  1  0  0  0  0
 18 21  1  0  0  0  0
 30 31  1  0  0  0  0
  7  8  1  0  0  0  0
 17 18  1  0  0  0  0
  3  4  1  0  0  0  0
  3  5  1  0  0  0  0
  3  6  1  0  0  0  0
 34 37  1  0  0  0  0
 34 38  1  0  0  0  0
 34 39  1  0  0  0  0
 11 14  1  0  0  0  0
 11 15  1  0  0  0  0
 11 16  1  0  0  0  0
 41 43  1  0  0  0  0
 41 44  1  0  0  0  0
 41 45  1  0  0  0  0
 21 27  1  0  0  0  0
 21 28  1  0  0  0  0
 31 36  1  0  0  0  0
  8 13  1  0  0  0  0
 18 26  1  0  0  0  0
 40 42  1  0  0  0  0
  7 12  1  0  0  0  0
 30 35  1  0  0  0  0
 17 25  1  0  0  0  0
 24 29  1  0  0  0  0
M  END
$$$$

  -OEChem-05262214473D

 45 44  0     1  0  0  0  0  0999 V2000
   -2.2987    4.1032   -0.3022 C   0  0  0  0  0  0  0  0  0  0  0  0
   -1.8049    3.7117   -1.3532 O   0  0  0  0  0  0  0  0  0  0  0  0
   -3.0791    5.3755   -0.2846 C   0  0  0  0  0  0  0  0  0  0  0  0
   -2.4478    6.2532   -0.0717 H   0  0  0  0  0  0  0  0  0  0  0  0
   -3.5571    5.5891   -1.2541 H   0  0  0  0  0  0  0  0  0  0  0  0
   -3.8940    5.4184    0.4556 H   0  0  0  0  0  0  0  0  0  0  0  0
   -2.2137    3.4712    0.9275 N   0  0  0  0  0  0  0  0  0  0  0  0
   -1.5102    2.2327    1.1338 C   0  0  2  0  0  0  0  0  0  0  0  0
   -1.3539    1.5497   -0.2184 C   0  0  0  0  0  0  0  0  0  0  0  0
   -2.0852    1.7861   -1.1778 O   0  0  0  0  0  0  0  0  0  0  0  0
   -2.2477    1.3342    2.1145 C   0  0  0  0  0  0  0  0  0  0  0  0
   -2.6724    3.9052    1.7265 H   0  0  0  0  0  0  0  0  0  0  0  0
   -0.5220    2.4922    1.5290 H   0  0  0  0  0  0  0  0  0  0  0  0
   -3.2400    1.0636    1.7358 H   0  0  0  0  0  0  0  0  0  0  0  0
   -1.6970    0.4046    2.2923 H   0  0  0  0  0  0  0  0  0  0  0  0
   -2.3854    1.8384    3.0772 H   0  0  0  0  0  0  0  0  0  0  0  0
   -0.3283    0.6116   -0.2182 N   0  0  0  0  0  0  0  0  0  0  0  0
    0.0090   -0.1762   -1.3759 C   0  0  2  0  0  0  0  0  0  0  0  0
   -1.1430   -0.0648   -2.3665 C   0  0  0  0  0  0  0  0  0  0  0  0
   -1.0011    0.3529   -3.5139 O   0  0  0  0  0  0  0  0  0  0  0  0
    0.2750   -1.6354   -1.0151 C   0  0  0  0  0  0  0  0  0  0  0  0
    1.5490   -1.7790   -0.2192 C   0  0  0  0  0  0  0  0  0  0  0  0
    2.5067   -1.0232   -0.3187 O   0  0  0  0  0  0  0  0  0  0  0  0
    1.5270   -2.8514    0.6104 O   0  0  0  0  0  0  0  0  0  0  0  0
    0.2381    0.4970    0.6194 H   0  0  0  0  0  0  0  0  0  0  0  0
    0.9008    0.2879   -1.8140 H   0  0  0  0  0  0  0  0  0  0  0  0
   -0.5314   -2.0427   -0.3923 H   0  0  0  0  0  0  0  0  0  0  0  0
    0.3212   -2.2825   -1.8994 H   0  0  0  0  0  0  0  0  0  0  0  0
    2.3445   -2.9850    1.1362 H   0  0  0  0  0  0  0  0  0  0  0  0
   -2.3371   -0.5308   -1.8344 N   0  0  0  0  0  0  0  0  0  0  0  0
   -3.5719   -0.5431   -2.5835 C   0  0  2  0  0  0  0  0  0  0  0  0
   -3.4275   -1.5561   -3.7116 C   0  0  0  0  0  0  0  0  0  0  0  0
   -2.3388   -1.9170   -4.1538 O   0  0  0  0  0  0  0  0  0  0  0  0
   -3.9007    0.8370   -3.1311 C   0  0  0  0  0  0  0  0  0  0  0  0
   -2.3429   -0.8772   -0.8796 H   0  0  0  0  0  0  0  0  0  0  0  0
   -4.3567   -0.8728   -1.8941 H   0  0  0  0  0  0  0  0  0  0  0  0
   -3.1255    1.1841   -3.8239 H   0  0  0  0  0  0  0  0  0  0  0  0
   -4.8514    0.8321   -3.6744 H   0  0  0  0  0  0  0  0  0  0  0  0
   -3.9748    1.5703   -2.3207 H   0  0  0  0  0  0  0  0  0  0  0  0
   -4.6582   -1.9772   -4.1956 N   0  0  0  0  0  0  0  0  0  0  0  0
   -4.7875   -2.9276   -5.2754 C   0  0  0  0  0  0  0  0  0  0  0  0
   -5.5098   -1.6400   -3.7564 H   0  0  0  0  0  0  0  0  0  0  0  0
   -4.8631   -2.3891   -6.2315 H   0  0  0  0  0  0  0  0  0  0  0  0
   -3.9053   -3.5844   -5.2933 H   0  0  0  0  0  0  0  0  0  0  0  0
   -5.6928   -3.5338   -5.1236 H   0  0  0  0  0  0  0  0  0  0  0  0
  1  3  1  0  0  0  0
  1  7  1  0  0  0  0
  1  2  2  0  0  0  0
 31 32  1  0  0  0  0
 32 40  1  0  0  0  0
 32 33  2  0  0  0  0
  8  9  1  0  0  0  0
  9 17  1  0  0  0  0
  9 10  2  0  0  0  0
 18 19  1  0  0  0  0
 19 30  1  0  0  0  0
 19 20  2  0  0  0  0
 21 22  1  0  0  0  0
 22 23  2  0  0  0  0
 22 24  1  0  0  0  0
 31 34  1  0  0  0  0
  8 11  1  0  0  0  0
 40 41  1  0  0  0  0
 18 21  1  0  0  0  0
 30 31  1  0  0  0  0
  7  8  1  0  0  0  0
 17 18  1  0  0  0  0
  3  4  1  0  0  0  0
  3  5  1  0  0  0  0
  3  6  1  0  0  0  0
 34 37  1  0  0  0  0
 34 38  1  0  0  0  0
 34 39  1  0  0  0  0
 11 14  1  0  0  0  0
 11 15  1  0  0  0  0
 11 16  1  0  0  0  0
 41 43  1  0  0  0  0
 41 44  1  0  0  0  0
 41 45  1  0  0  0  0
 21 27  1  0  0  0  0
 21 28  1  0  0  0  0
 31 36  1  0  0  0  0
  8 13  1  0  0  0  0
 18 26  1  0  0  0  0
 40 42  1  0  0  0  0
  7 12  1  0  0  0  0
 30 35  1  0  0  0  0
 17 25  1  0  0  0  0
 24 29  1  0  0  0  0
M  END
$$$$

  -OEChem-05262214473D

 45 44  0     1  0  0  0  0  0999 V2000
   -2.2987    4.1032   -0.3022 C   0  0  0  0  0  0  0  0  0  0  0  0
   -1.8049    3.7117   -1.3532 O   0  0  0  0  0  0  0  0  0  0  0  0
   -3.0791    5.3755   -0.2846 C   0  0  0  0  0  0  0  0  0  0  0  0
   -2.4478    6.2532   -0.0717 H   0  0  0  0  0  0  0  0  0  0  0  0
   -3.5571    5.5891   -1.2541 H   0  0  0  0  0  0  0  0  0  0  0  0
   -3.8940    5.4184    0.4556 H   0  0  0  0  0  0  0  0  0  0  0  0
   -2.2137    3.4712    0.9275 N   0  0  0  0  0  0  0  0  0  0  0  0
   -1.5102    2.2327    1.1338 C   0  0  2  0  0  0  0  0  0  0  0  0
   -1.3539    1.5497   -0.2184 C   0  0  0  0  0  0  0  0  0  0  0  0
   -2.0852    1.7861   -1.1778 O   0  0  0  0  0  0  0  0  0  0  0  0
   -2.2477    1.3342    2.1145 C   0  0  0  0  0  0  0  0  0  0  0  0
   -2.6724    3.9052    1.7265 H   0  0  0  0  0  0  0  0  0  0  0  0
   -0.5220    2.4922    1.5290 H   0  0  0  0  0  0  0  0  0  0  0  0
   -3.2400    1.0636    1.7358 H   0  0  0  0  0  0  0  0  0  0  0  0
   -1.6970    0.4046    2.2923 H   0  0  0  0  0  0  0  0  0  0  0  0
   -2.3854    1.8384    3.0772 H   0  0  0  0  0  0  0  0  0  0  0  0
   -0.3283    0.6116   -0.2182 N   0  0  0  0  0  0  0  0  0  0  0  0
    0.0090   -0.1762   -1.3759 C   0  0  2  0  0  0  0  0  0  0  0  0
   -1.1430   -0.0648   -2.3665 C   0  0  0  0  0  0  0  0  0  0  0  0
   -0.9746    0.0919   -3.5741 O   0  0  0  0  0  0  0  0  0  0  0  0
    0.2750   -1.6354   -1.0151 C   0  0  0  0  0  0  0  0  0  0  0  0
    1.5490   -1.7790   -0.2192 C   0  0  0  0  0  0  0  0  0  0  0  0
    2.5067   -1.0232   -0.3187 O   0  0  0  0  0  0  0  0  0  0  0  0
    1.5270   -2.8514    0.6104 O   0  0  0  0  0  0  0  0  0  0  0  0
    0.2381    0.4970    0.6194 H   0  0  0  0  0  0  0  0  0  0  0  0
    0.9008    0.2879   -1.8140 H   0  0  0  0  0  0  0  0  0  0  0  0
   -0.5314   -2.0427   -0.3923 H   0  0  0  0  0  0  0  0  0  0  0  0
    0.3212   -2.2825   -1.8994 H   0  0  0  0  0  0  0  0  0  0  0  0
    2.3445   -2.9850    1.1362 H   0  0  0  0  0  0  0  0  0  0  0  0
   -2.3782   -0.2085   -1.7503 N   0  0  0  0  0  0  0  0  0  0  0  0
   -3.6238   -0.1557   -2.4795 C   0  0  2  0  0  0  0  0  0  0  0  0
   -3.6904   -1.3778   -3.3859 C   0  0  0  0  0  0  0  0  0  0  0  0
   -2.6934   -1.9976   -3.7505 O   0  0  0  0  0  0  0  0  0  0  0  0
   -3.7377    1.1274   -3.2879 C   0  0  0  0  0  0  0  0  0  0  0  0
   -2.4075   -0.3569   -0.7459 H   0  0  0  0  0  0  0  0  0  0  0  0
   -4.4275   -0.2068   -1.7369 H   0  0  0  0  0  0  0  0  0  0  0  0
   -2.9408    1.1963   -4.0373 H   0  0  0  0  0  0  0  0  0  0  0  0
   -4.6947    1.1790   -3.8176 H   0  0  0  0  0  0  0  0  0  0  0  0
   -3.6598    2.0057   -2.6381 H   0  0  0  0  0  0  0  0  0  0  0  0
   -4.9904   -1.6692   -3.7745 N   0  0  0  0  0  0  0  0  0  0  0  0
   -5.3146   -2.7750   -4.6452 C   0  0  0  0  0  0  0  0  0  0  0  0
   -5.7578   -1.1132   -3.4087 H   0  0  0  0  0  0  0  0  0  0  0  0
   -5.3336   -2.4274   -5.6887 H   0  0  0  0  0  0  0  0  0  0  0  0
   -4.5552   -3.5630   -4.5351 H   0  0  0  0  0  0  0  0  0  0  0  0
   -6.3022   -3.1771   -4.3749 H   0  0  0  0  0  0  0  0  0  0  0  0
  1  3  1  0  0  0  0
  1  7  1  0  0  0  0
  1  2  2  0  0  0  0
 31 32  1  0  0  0  0
 32 40  1  0  0  0  0
 32 33  2  0  0  0  0
  8  9  1  0  0  0  0
  9 17  1  0  0  0  0
  9 10  2  0  0  0  0
 18 19  1  0  0  0  0
 19 30  1  0  0  0  0
 19 20  2  0  0  0  0
 21 22  1  0  0  0  0
 22 23  2  0  0  0  0
 22 24  1  0  0  0  0
 31 34  1  0  0  0  0
  8 11  1  0  0  0  0
 40 41  1  0  0  0  0
 18 21  1  0  0  0  0
 30 31  1  0  0  0  0
  7  8  1  0  0  0  0
 17 18  1  0  0  0  0
  3  4  1  0  0  0  0
  3  5  1  0  0  0  0
  3  6  1  0  0  0  0
 34 37  1  0  0  0  0
 34 38  1  0  0  0  0
 34 39  1  0  0  0  0
 11 14  1  0  0  0  0
 11 15  1  0  0  0  0
 11 16  1  0  0  0  0
 41 43  1  0  0  0  0
 41 44  1  0  0  0  0
 41 45  1  0  0  0  0
 21 27  1  0  0  0  0
 21 28  1  0  0  0  0
 31 36  1  0  0  0  0
  8 13  1  0  0  0  0
 18 26  1  0  0  0  0
 40 42  1  0  0  0  0
  7 12  1  0  0  0  0
 30 35  1  0  0  0  0
 17 25  1  0  0  0  0
 24 29  1  0  0  0  0
M  END
$$$$

  -OEChem-05262214473D

 45 44  0     1  0  0  0  0  0999 V2000
   -2.2987    4.1032   -0.3022 C   0  0  0  0  0  0  0  0  0  0  0  0
   -1.8049    3.7117   -1.3532 O   0  0  0  0  0  0  0  0  0  0  0  0
   -3.0791    5.3755   -0.2846 C   0  0  0  0  0  0  0  0  0  0  0  0
   -2.4478    6.2532   -0.0717 H   0  0  0  0  0  0  0  0  0  0  0  0
   -3.5571    5.5891   -1.2541 H   0  0  0  0  0  0  0  0  0  0  0  0
   -3.8940    5.4184    0.4556 H   0  0  0  0  0  0  0  0  0  0  0  0
   -2.2137    3.4712    0.9275 N   0  0  0  0  0  0  0  0  0  0  0  0
   -1.5102    2.2327    1.1338 C   0  0  2  0  0  0  0  0  0  0  0  0
   -1.3539    1.5497   -0.2184 C   0  0  0  0  0  0  0  0  0  0  0  0
   -2.0852    1.7861   -1.1778 O   0  0  0  0  0  0  0  0  0  0  0  0
   -2.2477    1.3342    2.1145 C   0  0  0  0  0  0  0  0  0  0  0  0
   -2.6724    3.9052    1.7265 H   0  0  0  0  0  0  0  0  0  0  0  0
   -0.5220    2.4922    1.5290 H   0  0  0  0  0  0  0  0  0  0  0  0
   -3.2400    1.0636    1.7358 H   0  0  0  0  0  0  0  0  0  0  0  0
   -1.6970    0.4046    2.2923 H   0  0  0  0  0  0  0  0  0  0  0  0
   -2.3854    1.8384    3.0772 H   0  0  0  0  0  0  0  0  0  0  0  0
   -0.3283    0.6116   -0.2182 N   0  0  0  0  0  0  0  0  0  0  0  0
    0.0090   -0.1762   -1.3759 C   0  0  2  0  0  0  0  0  0  0  0  0
   -1.1430   -0.0648   -2.3665 C   0  0  0  0  0  0  0  0  0  0  0  0
   -0.9941   -0.1765   -3.5816 O   0  0  0  0  0  0  0  0  0  0  0  0
    0.2750   -1.6354   -1.0151 C   0  0  0  0  0  0  0  0  0  0  0  0
    1.5490   -1.7790   -0.2192 C   0  0  0  0  0  0  0  0  0  0  0  0
    2.5067   -1.0232   -0.3187 O   0  0  0  0  0  0  0  0  0  0  0  0
    1.5270   -2.8514    0.6104 O   0  0  0  0  0  0  0  0  0  0  0  0
    0.2381    0.4970    0.6194 H   0  0  0  0  0  0  0  0  0  0  0  0
    0.9008    0.2879   -1.8140 H   0  0  0  0  0  0  0  0  0  0  0  0
   -0.5314   -2.0427   -0.3923 H   0  0  0  0  0  0  0  0  0  0  0  0
    0.3212   -2.2825   -1.8994 H   0  0  0  0  0  0  0  0  0  0  0  0
    2.3445   -2.9850    1.1362 H   0  0  0  0  0  0  0  0  0  0  0  0
   -2.3621    0.1262   -1.7314 N   0  0  0  0  0  0  0  0  0  0  0  0
   -3.6068    0.2476   -2.4539 C   0  0  2  0  0  0  0  0  0  0  0  0
   -3.9081   -1.0977   -3.1011 C   0  0  0  0  0  0  0  0  0  0  0  0
   -3.0418   -1.9369   -3.3385 O   0  0  0  0  0  0  0  0  0  0  0  0
   -3.5344    1.3497   -3.4994 C   0  0  0  0  0  0  0  0  0  0  0  0
   -2.3798    0.1827   -0.7173 H   0  0  0  0  0  0  0  0  0  0  0  0
   -4.3807    0.4791   -1.7141 H   0  0  0  0  0  0  0  0  0  0  0  0
   -2.7643    1.1353   -4.2494 H   0  0  0  0  0  0  0  0  0  0  0  0
   -4.4877    1.4596   -4.0267 H   0  0  0  0  0  0  0  0  0  0  0  0
   -3.2882    2.3111   -3.0358 H   0  0  0  0  0  0  0  0  0  0  0  0
   -5.2516   -1.2333   -3.4218 N   0  0  0  0  0  0  0  0  0  0  0  0
   -5.7861   -2.4154   -4.0565 C   0  0  0  0  0  0  0  0  0  0  0  0
   -5.9022   -0.4946   -3.1712 H   0  0  0  0  0  0  0  0  0  0  0  0
   -5.7842   -2.2790   -5.1480 H   0  0  0  0  0  0  0  0  0  0  0  0
   -5.1650   -3.2847   -3.7947 H   0  0  0  0  0  0  0  0  0  0  0  0
   -6.8165   -2.5834   -3.7099 H   0  0  0  0  0  0  0  0  0  0  0  0
  1  3  1  0  0  0  0
  1  7  1  0  0  0  0
  1  2  2  0  0  0  0
 31 32  1  0  0  0  0
 32 40  1  0  0  0  0
 32 33  2  0  0  0  0
  8  9  1  0  0  0  0
  9 17  1  0  0  0  0
  9 10  2  0  0  0  0
 18 19  1  0  0  0  0
 19 30  1  0  0  0  0
 19 20  2  0  0  0  0
 21 22  1  0  0  0  0
 22 23  2  0  0  0  0
 22 24  1  0  0  0  0
 31 34  1  0  0  0  0
  8 11  1  0  0  0  0
 40 41  1  0  0  0  0
 18 21  1  0  0  0  0
 30 31  1  0  0  0  0
  7  8  1  0  0  0  0
 17 18  1  0  0  0  0
  3  4  1  0  0  0  0
  3  5  1  0  0  0  0
  3  6  1  0  0  0  0
 34 37  1  0  0  0  0
 34 38  1  0  0  0  0
 34 39  1  0  0  0  0
 11 14  1  0  0  0  0
 11 15  1  0  0  0  0
 11 16  1  0  0  0  0
 41 43  1  0  0  0  0
 41 44  1  0  0  0  0
 41 45  1  0  0  0  0
 21 27  1  0  0  0  0
 21 28  1  0  0  0  0
 31 36  1  0  0  0  0
  8 13  1  0  0  0  0
 18 26  1  0  0  0  0
 40 42  1  0  0  0  0
  7 12  1  0  0  0  0
 30 35  1  0  0  0  0
 17 25  1  0  0  0  0
 24 29  1  0  0  0  0
M  END
$$$$

  -OEChem-05262214473D

 45 44  0     1  0  0  0  0  0999 V2000
   -2.2987    4.1032   -0.3022 C   0  0  0  0  0  0  0  0  0  0  0  0
   -1.8049    3.7117   -1.3532 O   0  0  0  0  0  0  0  0  0  0  0  0
   -3.0791    5.3755   -0.2846 C   0  0  0  0  0  0  0  0  0  0  0  0
   -2.4478    6.2532   -0.0717 H   0  0  0  0  0  0  0  0  0  0  0  0
   -3.5571    5.5891   -1.2541 H   0  0  0  0  0  0  0  0  0  0  0  0
   -3.8940    5.4184    0.4556 H   0  0  0  0  0  0  0  0  0  0  0  0
   -2.2137    3.4712    0.9275 N   0  0  0  0  0  0  0  0  0  0  0  0
   -1.5102    2.2327    1.1338 C   0  0  2  0  0  0  0  0  0  0  0  0
   -1.3539    1.5497   -0.2184 C   0  0  0  0  0  0  0  0  0  0  0  0
   -2.0852    1.7861   -1.1778 O   0  0  0  0  0  0  0  0  0  0  0  0
   -2.2477    1.3342    2.1145 C   0  0  0  0  0  0  0  0  0  0  0  0
   -2.6724    3.9052    1.7265 H   0  0  0  0  0  0  0  0  0  0  0  0
   -0.5220    2.4922    1.5290 H   0  0  0  0  0  0  0  0  0  0  0  0
   -3.2400    1.0636    1.7358 H   0  0  0  0  0  0  0  0  0  0  0  0
   -1.6970    0.4046    2.2923 H   0  0  0  0  0  0  0  0  0  0  0  0
   -2.3854    1.8384    3.0772 H   0  0  0  0  0  0  0  0  0  0  0  0
   -0.3283    0.6116   -0.2182 N   0  0  0  0  0  0  0  0  0  0  0  0
    0.0090   -0.1762   -1.3759 C   0  0  2  0  0  0  0  0  0  0  0  0
   -1.1430   -0.0648   -2.3665 C   0  0  0  0  0  0  0  0  0  0  0  0
   -1.0583   -0.4339   -3.5360 O   0  0  0  0  0  0  0  0  0  0  0  0
    0.2750   -1.6354   -1.0151 C   0  0  0  0  0  0  0  0  0  0  0  0
    1.5490   -1.7790   -0.2192 C   0  0  0  0  0  0  0  0  0  0  0  0
    2.5067   -1.0232   -0.3187 O   0  0  0  0  0  0  0  0  0  0  0  0
    1.5270   -2.8514    0.6104 O   0  0  0  0  0  0  0  0  0  0  0  0
    0.2381    0.4970    0.6194 H   0  0  0  0  0  0  0  0  0  0  0  0
    0.9008    0.2879   -1.8140 H   0  0  0  0  0  0  0  0  0  0  0  0
   -0.5314   -2.0427   -0.3923 H   0  0  0  0  0  0  0  0  0  0  0  0
    0.3212   -2.2825   -1.8994 H   0  0  0  0  0  0  0  0  0  0  0  0
    2.3445   -2.9850    1.1362 H   0  0  0  0  0  0  0  0  0  0  0  0
   -2.2899    0.4504   -1.7789 N   0  0  0  0  0  0  0  0  0  0  0  0
   -3.5220    0.6394   -2.5085 C   0  0  2  0  0  0  0  0  0  0  0  0
   -4.0659   -0.7347   -2.8768 C   0  0  0  0  0  0  0  0  0  0  0  0
   -3.3603   -1.7389   -2.9458 O   0  0  0  0  0  0  0  0  0  0  0  0
   -3.3045    1.4888   -3.7510 C   0  0  0  0  0  0  0  0  0  0  0  0
   -2.2617    0.7049   -0.7959 H   0  0  0  0  0  0  0  0  0  0  0  0
   -4.2197    1.1384   -1.8271 H   0  0  0  0  0  0  0  0  0  0  0  0
   -2.6082    1.0051   -4.4456 H   0  0  0  0  0  0  0  0  0  0  0  0
   -4.2445    1.6550   -4.2875 H   0  0  0  0  0  0  0  0  0  0  0  0
   -2.8854    2.4657   -3.4868 H   0  0  0  0  0  0  0  0  0  0  0  0
   -5.4238   -0.6993   -3.1615 N   0  0  0  0  0  0  0  0  0  0  0  0
   -6.1699   -1.8736   -3.5492 C   0  0  0  0  0  0  0  0  0  0  0  0
   -5.9330    0.1737   -3.0601 H   0  0  0  0  0  0  0  0  0  0  0  0
   -6.1842   -1.9539   -4.6462 H   0  0  0  0  0  0  0  0  0  0  0  0
   -5.6931   -2.7683   -3.1224 H   0  0  0  0  0  0  0  0  0  0  0  0
   -7.2008   -1.7932   -3.1741 H   0  0  0  0  0  0  0  0  0  0  0  0
  1  3  1  0  0  0  0
  1  7  1  0  0  0  0
  1  2  2  0  0  0  0
 31 32  1  0  0  0  0
 32 40  1  0  0  0  0
 32 33  2  0  0  0  0
  8  9  1  0  0  0  0
  9 17  1  0  0  0  0
  9 10  2  0  0  0  0
 18 19  1  0  0  0  0
 19 30  1  0  0  0  0
 19 20  2  0  0  0  0
 21 22  1  0  0  0  0
 22 23  2  0  0  0  0
 22 24  1  0  0  0  0
 31 34  1  0  0  0  0
  8 11  1  0  0  0  0
 40 41  1  0  0  0  0
 18 21  1  0  0  0  0
 30 31  1  0  0  0  0
  7  8  1  0  0  0  0
 17 18  1  0  0  0  0
  3  4  1  0  0  0  0
  3  5  1  0  0  0  0
  3  6  1  0  0  0  0
 34 37  1  0  0  0  0
 34 38  1  0  0  0  0
 34 39  1  0  0  0  0
 11 14  1  0  0  0  0
 11 15  1  0  0  0  0
 11 16  1  0  0  0  0
 41 43  1  0  0  0  0
 41 44  1  0  0  0  0
 41 45  1  0  0  0  0
 21 27  1  0  0  0  0
 21 28  1  0  0  0  0
 31 36  1  0  0  0  0
  8 13  1  0  0  0  0
 18 26  1  0  0  0  0
 40 42  1  0  0  0  0
  7 12  1  0  0  0  0
 30 35  1  0  0  0  0
 17 25  1  0  0  0  0
 24 29  1  0  0  0  0
M  END
$$$$

  -OEChem-05262214473D

 45 44  0     1  0  0  0  0  0999 V2000
   -2.2987    4.1032   -0.3022 C   0  0  0  0  0  0  0  0  0  0  0  0
   -1.8049    3.7117   -1.3532 O   0  0  0  0  0  0  0  0  0  0  0  0
   -3.0791    5.3755   -0.2846 C   0  0  0  0  0  0  0  0  0  0  0  0
   -2.4478    6.2532   -0.0717 H   0  0  0  0  0  0  0  0  0  0  0  0
   -3.5571    5.5891   -1.2541 H   0  0  0  0  0  0  0  0  0  0  0  0
   -3.8940    5.4184    0.4556 H   0  0  0  0  0  0  0  0  0  0  0  0
   -2.2137    3.4712    0.9275 N   0  0  0  0  0  0  0  0  0  0  0  0
   -1.5102    2.2327    1.1338 C   0  0  2  0  0  0  0  0  0  0  0  0
   -1.3539    1.5497   -0.2184 C   0  0  0  0  0  0  0  0  0  0  0  0
   -2.0852    1.7861   -1.1778 O   0  0  0  0  0  0  0  0  0  0  0  0
   -2.2477    1.3342    2.1145 C   0  0  0  0  0  0  0  0  0  0  0  0
   -2.6724    3.9052    1.7265 H   0  0  0  0  0  0  0  0  0  0  0  0
   -0.5220    2.4922    1.5290 H   0  0  0  0  0  0  0  0  0  0  0  0
   -3.2400    1.0636    1.7358 H   0  0  0  0  0  0  0  0  0  0  0  0
   -1.6970    0.4046    2.2923 H   0  0  0  0  0  0  0  0  0  0  0  0
   -2.3854    1.8384    3.0772 H   0  0  0  0  0  0  0  0  0  0  0  0
   -0.3283    0.6116   -0.2182 N   0  0  0  0  0  0  0  0  0  0  0  0
    0.0090   -0.1762   -1.3759 C   0  0  2  0  0  0  0  0  0  0  0  0
   -1.1430   -0.0648   -2.3665 C   0  0  0  0  0  0  0  0  0  0  0  0
   -1.1627   -0.6628   -3.4404 O   0  0  0  0  0  0  0  0  0  0  0  0
    0.2750   -1.6354   -1.0151 C   0  0  0  0  0  0  0  0  0  0  0  0
    1.5490   -1.7790   -0.2192 C   0  0  0  0  0  0  0  0  0  0  0  0
    2.5067   -1.0232   -0.3187 O   0  0  0  0  0  0  0  0  0  0  0  0
    1.5270   -2.8514    0.6104 O   0  0  0  0  0  0  0  0  0  0  0  0
    0.2381    0.4970    0.6194 H   0  0  0  0  0  0  0  0  0  0  0  0
    0.9008    0.2879   -1.8140 H   0  0  0  0  0  0  0  0  0  0  0  0
   -0.5314   -2.0427   -0.3923 H   0  0  0  0  0  0  0  0  0  0  0  0
    0.3212   -2.2825   -1.8994 H   0  0  0  0  0  0  0  0  0  0  0  0
    2.3445   -2.9850    1.1362 H   0  0  0  0  0  0  0  0  0  0  0  0
   -2.1665    0.7422   -1.8896 N   0  0  0  0  0  0  0  0  0  0  0  0
   -3.3751    0.9928   -2.6394 C   0  0  2  0  0  0  0  0  0  0  0  0
   -4.1529   -0.3136   -2.7282 C   0  0  0  0  0  0  0  0  0  0  0  0
   -3.6273   -1.4173   -2.5991 O   0  0  0  0  0  0  0  0  0  0  0  0
   -3.0639    1.5353   -4.0256 C   0  0  0  0  0  0  0  0  0  0  0  0
   -2.0612    1.1741   -0.9762 H   0  0  0  0  0  0  0  0  0  0  0  0
   -3.9553    1.7259   -2.0684 H   0  0  0  0  0  0  0  0  0  0  0  0
   -2.4830    0.8146   -4.6126 H   0  0  0  0  0  0  0  0  0  0  0  0
   -3.9817    1.7516   -4.5823 H   0  0  0  0  0  0  0  0  0  0  0  0
   -2.4789    2.4591   -3.9603 H   0  0  0  0  0  0  0  0  0  0  0  0
   -5.4953   -0.1036   -3.0113 N   0  0  0  0  0  0  0  0  0  0  0  0
   -6.4398   -1.1864   -3.1580 C   0  0  0  0  0  0  0  0  0  0  0  0
   -5.8482    0.8462   -3.0831 H   0  0  0  0  0  0  0  0  0  0  0  0
   -6.5064   -1.4744   -4.2175 H   0  0  0  0  0  0  0  0  0  0  0  0
   -6.1036   -2.0490   -2.5640 H   0  0  0  0  0  0  0  0  0  0  0  0
   -7.4289   -0.8604   -2.8038 H   0  0  0  0  0  0  0  0  0  0  0  0
  1  3  1  0  0  0  0
  1  7  1  0  0  0  0
  1  2  2  0  0  0  0
 31 32  1  0  0  0  0
 32 40  1  0  0  0  0
 32 33  2  0  0  0  0
  8  9  1  0  0  0  0
  9 17  1  0  0  0  0
  9 10  2  0  0  0  0
 18 19  1  0  0  0  0
 19 30  1  0  0  0  0
 19 20  2  0  0  0  0
 21 22  1  0  0  0  0
 22 23  2  0  0  0  0
 22 24  1  0  0  0  0
 31 34  1  0  0  0  0
  8 11  1  0  0  0  0
 40 41  1  0  0  0  0
 18 21  1  0  0  0  0
 30 31  1  0  0  0  0
  7  8  1  0  0  0  0
 17 18  1  0  0  0  0
  3  4  1  0  0  0  0
  3  5  1  0  0  0  0
  3  6  1  0  0  0  0
 34 37  1  0  0  0  0
 34 38  1  0  0  0  0
 34 39  1  0  0  0  0
 11 14  1  0  0  0  0
 11 15  1  0  0  0  0
 11 16  1  0  0  0  0
 41 43  1  0  0  0  0
 41 44  1  0  0  0  0
 41 45  1  0  0  0  0
 21 27  1  0  0  0  0
 21 28  1  0  0  0  0
 31 36  1  0  0  0  0
  8 13  1  0  0  0  0
 18 26  1  0  0  0  0
 40 42  1  0  0  0  0
  7 12  1  0  0  0  0
 30 35  1  0  0  0  0
 17 25  1  0  0  0  0
 24 29  1  0  0  0  0
M  END
$$$$

  -OEChem-05262214473D

 45 44  0     1  0  0  0  0  0999 V2000
   -2.2987    4.1032   -0.3022 C   0  0  0  0  0  0  0  0  0  0  0  0
   -1.8049    3.7117   -1.3532 O   0  0  0  0  0  0  0  0  0  0  0  0
   -3.0791    5.3755   -0.2846 C   0  0  0  0  0  0  0  0  0  0  0  0
   -2.4478    6.2532   -0.0717 H   0  0  0  0  0  0  0  0  0  0  0  0
   -3.5571    5.5891   -1.2541 H   0  0  0  0  0  0  0  0  0  0  0  0
   -3.8940    5.4184    0.4556 H   0  0  0  0  0  0  0  0  0  0  0  0
   -2.2137    3.4712    0.9275 N   0  0  0  0  0  0  0  0  0  0  0  0
   -1.5102    2.2327    1.1338 C   0  0  2  0  0  0  0  0  0  0  0  0
   -1.3539    1.5497   -0.2184 C   0  0  0  0  0  0  0  0  0  0  0  0
   -2.0852    1.7861   -1.1778 O   0  0  0  0  0  0  0  0  0  0  0  0
   -2.2477    1.3342    2.1145 C   0  0  0  0  0  0  0  0  0  0  0  0
   -2.6724    3.9052    1.7265 H   0  0  0  0  0  0  0  0  0  0  0  0
   -0.5220    2.4922    1.5290 H   0  0  0  0  0  0  0  0  0  0  0  0
   -3.2400    1.0636    1.7358 H   0  0  0  0  0  0  0  0  0  0  0  0
   -1.6970    0.4046    2.2923 H   0  0  0  0  0  0  0  0  0  0  0  0
   -2.3854    1.8384    3.0772 H   0  0  0  0  0  0  0  0  0  0  0  0
   -0.3283    0.6116   -0.2182 N   0  0  0  0  0  0  0  0  0  0  0  0
    0.0090   -0.1762   -1.3759 C   0  0  2  0  0  0  0  0  0  0  0  0
   -1.1430   -0.0648   -2.3665 C   0  0  0  0  0  0  0  0  0  0  0  0
   -1.3002   -0.8476   -3.3012 O   0  0  0  0  0  0  0  0  0  0  0  0
    0.2750   -1.6354   -1.0151 C   0  0  0  0  0  0  0  0  0  0  0  0
    1.5490   -1.7790   -0.2192 C   0  0  0  0  0  0  0  0  0  0  0  0
    2.5067   -1.0232   -0.3187 O   0  0  0  0  0  0  0  0  0  0  0  0
    1.5270   -2.8514    0.6104 O   0  0  0  0  0  0  0  0  0  0  0  0
    0.2381    0.4970    0.6194 H   0  0  0  0  0  0  0  0  0  0  0  0
    0.9008    0.2879   -1.8140 H   0  0  0  0  0  0  0  0  0  0  0  0
   -0.5314   -2.0427   -0.3923 H   0  0  0  0  0  0  0  0  0  0  0  0
    0.3212   -2.2825   -1.8994 H   0  0  0  0  0  0  0  0  0  0  0  0
    2.3445   -2.9850    1.1362 H   0  0  0  0  0  0  0  0  0  0  0  0
   -2.0002    0.9816   -2.0560 N   0  0  0  0  0  0  0  0  0  0  0  0
   -3.1763    1.2839   -2.8379 C   0  0  2  0  0  0  0  0  0  0  0  0
   -4.1633    0.1369   -2.6654 C   0  0  0  0  0  0  0  0  0  0  0  0
   -3.8244   -0.9938   -2.3222 O   0  0  0  0  0  0  0  0  0  0  0  0
   -2.8288    1.4860   -4.3045 C   0  0  0  0  0  0  0  0  0  0  0  0
   -1.7921    1.5582   -1.2460 H   0  0  0  0  0  0  0  0  0  0  0  0
   -3.6057    2.2016   -2.4215 H   0  0  0  0  0  0  0  0  0  0  0  0
   -2.3973    0.5769   -4.7391 H   0  0  0  0  0  0  0  0  0  0  0  0
   -3.7171    1.7431   -4.8910 H   0  0  0  0  0  0  0  0  0  0  0  0
   -2.0963    2.2915   -4.4241 H   0  0  0  0  0  0  0  0  0  0  0  0
   -5.4613    0.5133   -2.9814 N   0  0  0  0  0  0  0  0  0  0  0  0
   -6.5774   -0.4005   -2.9095 C   0  0  0  0  0  0  0  0  0  0  0  0
   -5.6535    1.4770   -3.2384 H   0  0  0  0  0  0  0  0  0  0  0  0
   -6.7288   -0.8732   -3.8912 H   0  0  0  0  0  0  0  0  0  0  0  0
   -6.3685   -1.1759   -2.1577 H   0  0  0  0  0  0  0  0  0  0  0  0
   -7.4852    0.1514   -2.6245 H   0  0  0  0  0  0  0  0  0  0  0  0
  1  3  1  0  0  0  0
  1  7  1  0  0  0  0
  1  2  2  0  0  0  0
 31 32  1  0  0  0  0
 32 40  1  0  0  0  0
 32 33  2  0  0  0  0
  8  9  1  0  0  0  0
  9 17  1  0  0  0  0
  9 10  2  0  0  0  0
 18 19  1  0  0  0  0
 19 30  1  0  0  0  0
 19 20  2  0  0  0  0
 21 22  1  0  0  0  0
 22 23  2  0  0  0  0
 22 24  1  0  0  0  0
 31 34  1  0  0  0  0
  8 11  1  0  0  0  0
 40 41  1  0  0  0  0
 18 21  1  0  0  0  0
 30 31  1  0  0  0  0
  7  8  1  0  0  0  0
 17 18  1  0  0  0  0
  3  4  1  0  0  0  0
  3  5  1  0  0  0  0
  3  6  1  0  0  0  0
 34 37  1  0  0  0  0
 34 38  1  0  0  0  0
 34 39  1  0  0  0  0
 11 14  1  0  0  0  0
 11 15  1  0  0  0  0
 11 16  1  0  0  0  0
 41 43  1  0  0  0  0
 41 44  1  0  0  0  0
 41 45  1  0  0  0  0
 21 27  1  0  0  0  0
 21 28  1  0  0  0  0
 31 36  1  0  0  0  0
  8 13  1  0  0  0  0
 18 26  1  0  0  0  0
 40 42  1  0  0  0  0
  7 12  1  0  0  0  0
 30 35  1  0  0  0  0
 17 25  1  0  0  0  0
 24 29  1  0  0  0  0
M  END
$$$$

  -OEChem-05262214473D

 45 44  0     1  0  0  0  0  0999 V2000
   -2.2987    4.1032   -0.3022 C   0  0  0  0  0  0  0  0  0  0  0  0
   -1.8049    3.7117   -1.3532 O   0  0  0  0  0  0  0  0  0  0  0  0
   -3.0791    5.3755   -0.2846 C   0  0  0  0  0  0  0  0  0  0  0  0
   -2.4478    6.2532   -0.0717 H   0  0  0  0  0  0  0  0  0  0  0  0
   -3.5571    5.5891   -1.2541 H   0  0  0  0  0  0  0  0  0  0  0  0
   -3.8940    5.4184    0.4556 H   0  0  0  0  0  0  0  0  0  0  0  0
   -2.2137    3.4712    0.9275 N   0  0  0  0  0  0  0  0  0  0  0  0
   -1.5102    2.2327    1.1338 C   0  0  2  0  0  0  0  0  0  0  0  0
   -1.3539    1.5497   -0.2184 C   0  0  0  0  0  0  0  0  0  0  0  0
   -2.0852    1.7861   -1.1778 O   0  0  0  0  0  0  0  0  0  0  0  0
   -2.2477    1.3342    2.1145 C   0  0  0  0  0  0  0  0  0  0  0  0
   -2.6724    3.9052    1.7265 H   0  0  0  0  0  0  0  0  0  0  0  0
   -0.5220    2.4922    1.5290 H   0  0  0  0  0  0  0  0  0  0  0  0
   -3.2400    1.0636    1.7358 H   0  0  0  0  0  0  0  0  0  0  0  0
   -1.6970    0.4046    2.2923 H   0  0  0  0  0  0  0  0  0  0  0  0
   -2.3854    1.8384    3.0772 H   0  0  0  0  0  0  0  0  0  0  0  0
   -0.3283    0.6116   -0.2182 N   0  0  0  0  0  0  0  0  0  0  0  0
    0.0090   -0.1762   -1.3759 C   0  0  2  0  0  0  0  0  0  0  0  0
   -1.1430   -0.0648   -2.3665 C   0  0  0  0  0  0  0  0  0  0  0  0
   -1.4616   -0.9757   -3.1280 O   0  0  0  0  0  0  0  0  0  0  0  0
    0.2750   -1.6354   -1.0151 C   0  0  0  0  0  0  0  0  0  0  0  0
    1.5490   -1.7790   -0.2192 C   0  0  0  0  0  0  0  0  0  0  0  0
    2.5067   -1.0232   -0.3187 O   0  0  0  0  0  0  0  0  0  0  0  0
    1.5270   -2.8514    0.6104 O   0  0  0  0  0  0  0  0  0  0  0  0
    0.2381    0.4970    0.6194 H   0  0  0  0  0  0  0  0  0  0  0  0
    0.9008    0.2879   -1.8140 H   0  0  0  0  0  0  0  0  0  0  0  0
   -0.5314   -2.0427   -0.3923 H   0  0  0  0  0  0  0  0  0  0  0  0
    0.3212   -2.2825   -1.8994 H   0  0  0  0  0  0  0  0  0  0  0  0
    2.3445   -2.9850    1.1362 H   0  0  0  0  0  0  0  0  0  0  0  0
   -1.8025    1.1523   -2.2667 N   0  0  0  0  0  0  0  0  0  0  0  0
   -2.9391    1.4927   -3.0903 C   0  0  2  0  0  0  0  0  0  0  0  0
   -4.0964    0.5861   -2.6927 C   0  0  0  0  0  0  0  0  0  0  0  0
   -3.9383   -0.4974   -2.1339 O   0  0  0  0  0  0  0  0  0  0  0  0
   -2.6153    1.3442   -4.5688 C   0  0  0  0  0  0  0  0  0  0  0  0
   -1.4725    1.8311   -1.5869 H   0  0  0  0  0  0  0  0  0  0  0  0
   -3.1945    2.5333   -2.8623 H   0  0  0  0  0  0  0  0  0  0  0  0
   -2.3569    0.3081   -4.8163 H   0  0  0  0  0  0  0  0  0  0  0  0
   -3.4688    1.6299   -5.1925 H   0  0  0  0  0  0  0  0  0  0  0  0
   -1.7637    1.9746   -4.8465 H   0  0  0  0  0  0  0  0  0  0  0  0
   -5.3240    1.1092   -3.0739 N   0  0  0  0  0  0  0  0  0  0  0  0
   -6.5734    0.4303   -2.8207 C   0  0  0  0  0  0  0  0  0  0  0  0
   -5.3623    2.0231   -3.5157 H   0  0  0  0  0  0  0  0  0  0  0  0
   -6.8363   -0.1911   -3.6895 H   0  0  0  0  0  0  0  0  0  0  0  0
   -6.4697   -0.2084   -1.9311 H   0  0  0  0  0  0  0  0  0  0  0  0
   -7.3659    1.1733   -2.6482 H   0  0  0  0  0  0  0  0  0  0  0  0
  1  3  1  0  0  0  0
  1  7  1  0  0  0  0
  1  2  2  0  0  0  0
 31 32  1  0  0  0  0
 32 40  1  0  0  0  0
 32 33  2  0  0  0  0
  8  9  1  0  0  0  0
  9 17  1  0  0  0  0
  9 10  2  0  0  0  0
 18 19  1  0  0  0  0
 19 30  1  0  0  0  0
 19 20  2  0  0  0  0
 21 22  1  0  0  0  0
 22 23  2  0  0  0  0
 22 24  1  0  0  0  0
 31 34  1  0  0  0  0
  8 11  1  0  0  0  0
 40 41  1  0  0  0  0
 18 21  1  0  0  0  0
 30 31  1  0  0  0  0
  7  8  1  0  0  0  0
 17 18  1  0  0  0  0
  3  4  1  0  0  0  0
  3  5  1  0  0  0  0
  3  6  1  0  0  0  0
 34 37  1  0  0  0  0
 34 38  1  0  0  0  0
 34 39  1  0  0  0  0
 11 14  1  0  0  0  0
 11 15  1  0  0  0  0
 11 16  1  0  0  0  0
 41 43  1  0  0  0  0
 41 44  1  0  0  0  0
 41 45  1  0  0  0  0
 21 27  1  0  0  0  0
 21 28  1  0  0  0  0
 31 36  1  0  0  0  0
  8 13  1  0  0  0  0
 18 26  1  0  0  0  0
 40 42  1  0  0  0  0
  7 12  1  0  0  0  0
 30 35  1  0  0  0  0
 17 25  1  0  0  0  0
 24 29  1  0  0  0  0
M  END
$$$$

  -OEChem-05262214473D

 45 44  0     1  0  0  0  0  0999 V2000
   -2.2987    4.1032   -0.3022 C   0  0  0  0  0  0  0  0  0  0  0  0
   -1.8049    3.7117   -1.3532 O   0  0  0  0  0  0  0  0  0  0  0  0
   -3.0791    5.3755   -0.2846 C   0  0  0  0  0  0  0  0  0  0  0  0
   -2.4478    6.2532   -0.0717 H   0  0  0  0  0  0  0  0  0  0  0  0
   -3.5571    5.5891   -1.2541 H   0  0  0  0  0  0  0  0  0  0  0  0
   -3.8940    5.4184    0.4556 H   0  0  0  0  0  0  0  0  0  0  0  0
   -2.2137    3.4712    0.9275 N   0  0  0  0  0  0  0  0  0  0  0  0
   -1.5102    2.2327    1.1338 C   0  0  2  0  0  0  0  0  0  0  0  0
   -1.3539    1.5497   -0.2184 C   0  0  0  0  0  0  0  0  0  0  0  0
   -2.0852    1.7861   -1.1778 O   0  0  0  0  0  0  0  0  0  0  0  0
   -2.2477    1.3342    2.1145 C   0  0  0  0  0  0  0  0  0  0  0  0
   -2.6724    3.9052    1.7265 H   0  0  0  0  0  0  0  0  0  0  0  0
   -0.5220    2.4922    1.5290 H   0  0  0  0  0  0  0  0  0  0  0  0
   -3.2400    1.0636    1.7358 H   0  0  0  0  0  0  0  0  0  0  0  0
   -1.6970    0.4046    2.2923 H   0  0  0  0  0  0  0  0  0  0  0  0
   -2.3854    1.8384    3.0772 H   0  0  0  0  0  0  0  0  0  0  0  0
   -0.3283    0.6116   -0.2182 N   0  0  0  0  0  0  0  0  0  0  0  0
    0.0090   -0.1762   -1.3759 C   0  0  2  0  0  0  0  0  0  0  0  0
   -1.1430   -0.0648   -2.3665 C   0  0  0  0  0  0  0  0  0  0  0  0
   -1.6357   -1.0384   -2.9325 O   0  0  0  0  0  0  0  0  0  0  0  0
    0.2750   -1.6354   -1.0151 C   0  0  0  0  0  0  0  0  0  0  0  0
    1.5490   -1.7790   -0.2192 C   0  0  0  0  0  0  0  0  0  0  0  0
    2.5067   -1.0232   -0.3187 O   0  0  0  0  0  0  0  0  0  0  0  0
    1.5270   -2.8514    0.6104 O   0  0  0  0  0  0  0  0  0  0  0  0
    0.2381    0.4970    0.6194 H   0  0  0  0  0  0  0  0  0  0  0  0
    0.9008    0.2879   -1.8140 H   0  0  0  0  0  0  0  0  0  0  0  0
   -0.5314   -2.0427   -0.3923 H   0  0  0  0  0  0  0  0  0  0  0  0
    0.3212   -2.2825   -1.8994 H   0  0  0  0  0  0  0  0  0  0  0  0
    2.3445   -2.9850    1.1362 H   0  0  0  0  0  0  0  0  0  0  0  0
   -1.5868    1.2427   -2.5074 N   0  0  0  0  0  0  0  0  0  0  0  0
   -2.6795    1.6051   -3.3795 C   0  0  2  0  0  0  0  0  0  0  0  0
   -3.9566    1.0033   -2.8082 C   0  0  0  0  0  0  0  0  0  0  0  0
   -3.9612    0.0381   -2.0470 O   0  0  0  0  0  0  0  0  0  0  0  0
   -2.4380    1.1195   -4.8002 C   0  0  0  0  0  0  0  0  0  0  0  0
   -1.1244    1.9743   -1.9756 H   0  0  0  0  0  0  0  0  0  0  0  0
   -2.7500    2.6981   -3.3607 H   0  0  0  0  0  0  0  0  0  0  0  0
   -2.3646    0.0266   -4.8390 H   0  0  0  0  0  0  0  0  0  0  0  0
   -3.2537    1.4198   -5.4662 H   0  0  0  0  0  0  0  0  0  0  0  0
   -1.5038    1.5297   -5.1988 H   0  0  0  0  0  0  0  0  0  0  0  0
   -5.0929    1.6437   -3.2825 N   0  0  0  0  0  0  0  0  0  0  0  0
   -6.4280    1.2495   -2.8976 C   0  0  0  0  0  0  0  0  0  0  0  0
   -4.9943    2.4473   -3.8958 H   0  0  0  0  0  0  0  0  0  0  0  0
   -6.8215    0.5253   -3.6261 H   0  0  0  0  0  0  0  0  0  0  0  0
   -6.4003    0.7875   -1.8997 H   0  0  0  0  0  0  0  0  0  0  0  0
   -7.0791    2.1358   -2.8734 H   0  0  0  0  0  0  0  0  0  0  0  0
  1  3  1  0  0  0  0
  1  7  1  0  0  0  0
  1  2  2  0  0  0  0
 31 32  1  0  0  0  0
 32 40  1  0  0  0  0
 32 33  2  0  0  0  0
  8  9  1  0  0  0  0
  9 17  1  0  0  0  0
  9 10  2  0  0  0  0
 18 19  1  0  0  0  0
 19 30  1  0  0  0  0
 19 20  2  0  0  0  0
 21 22  1  0  0  0  0
 22 23  2  0  0  0  0
 22 24  1  0  0  0  0
 31 34  1  0  0  0  0
  8 11  1  0  0  0  0
 40 41  1  0  0  0  0
 18 21  1  0  0  0  0
 30 31  1  0  0  0  0
  7  8  1  0  0  0  0
 17 18  1  0  0  0  0
  3  4  1  0  0  0  0
  3  5  1  0  0  0  0
  3  6  1  0  0  0  0
 34 37  1  0  0  0  0
 34 38  1  0  0  0  0
 34 39  1  0  0  0  0
 11 14  1  0  0  0  0
 11 15  1  0  0  0  0
 11 16  1  0  0  0  0
 41 43  1  0  0  0  0
 41 44  1  0  0  0  0
 41 45  1  0  0  0  0
 21 27  1  0  0  0  0
 21 28  1  0  0  0  0
 31 36  1  0  0  0  0
  8 13  1  0  0  0  0
 18 26  1  0  0  0  0
 40 42  1  0  0  0  0
  7 12  1  0  0  0  0
 30 35  1  0  0  0  0
 17 25  1  0  0  0  0
 24 29  1  0  0  0  0
M  END
$$$$

  -OEChem-05262214473D

 45 44  0     1  0  0  0  0  0999 V2000
   -2.2987    4.1032   -0.3022 C   0  0  0  0  0  0  0  0  0  0  0  0
   -1.8049    3.7117   -1.3532 O   0  0  0  0  0  0  0  0  0  0  0  0
   -3.0791    5.3755   -0.2846 C   0  0  0  0  0  0  0  0  0  0  0  0
   -2.4478    6.2532   -0.0717 H   0  0  0  0  0  0  0  0  0  0  0  0
   -3.5571    5.5891   -1.2541 H   0  0  0  0  0  0  0  0  0  0  0  0
   -3.8940    5.4184    0.4556 H   0  0  0  0  0  0  0  0  0  0  0  0
   -2.2137    3.4712    0.9275 N   0  0  0  0  0  0  0  0  0  0  0  0
   -1.5102    2.2327    1.1338 C   0  0  2  0  0  0  0  0  0  0  0  0
   -1.3539    1.5497   -0.2184 C   0  0  0  0  0  0  0  0  0  0  0  0
   -2.0852    1.7861   -1.1778 O   0  0  0  0  0  0  0  0  0  0  0  0
   -2.2477    1.3342    2.1145 C   0  0  0  0  0  0  0  0  0  0  0  0
   -2.6724    3.9052    1.7265 H   0  0  0  0  0  0  0  0  0  0  0  0
   -0.5220    2.4922    1.5290 H   0  0  0  0  0  0  0  0  0  0  0  0
   -3.2400    1.0636    1.7358 H   0  0  0  0  0  0  0  0  0  0  0  0
   -1.6970    0.4046    2.2923 H   0  0  0  0  0  0  0  0  0  0  0  0
   -2.3854    1.8384    3.0772 H   0  0  0  0  0  0  0  0  0  0  0  0
   -0.3283    0.6116   -0.2182 N   0  0  0  0  0  0  0  0  0  0  0  0
    0.0090   -0.1762   -1.3759 C   0  0  2  0  0  0  0  0  0  0  0  0
   -1.1430   -0.0648   -2.3665 C   0  0  0  0  0  0  0  0  0  0  0  0
   -1.8108   -1.0314   -2.7282 O   0  0  0  0  0  0  0  0  0  0  0  0
    0.2750   -1.6354   -1.0151 C   0  0  0  0  0  0  0  0  0  0  0  0
    1.5490   -1.7790   -0.2192 C   0  0  0  0  0  0  0  0  0  0  0  0
    2.5067   -1.0232   -0.3187 O   0  0  0  0  0  0  0  0  0  0  0  0
    1.5270   -2.8514    0.6104 O   0  0  0  0  0  0  0  0  0  0  0  0
    0.2381    0.4970    0.6194 H   0  0  0  0  0  0  0  0  0  0  0  0
    0.9008    0.2879   -1.8140 H   0  0  0  0  0  0  0  0  0  0  0  0
   -0.5314   -2.0427   -0.3923 H   0  0  0  0  0  0  0  0  0  0  0  0
    0.3212   -2.2825   -1.8994 H   0  0  0  0  0  0  0  0  0  0  0  0
    2.3445   -2.9850    1.1362 H   0  0  0  0  0  0  0  0  0  0  0  0
   -1.3678    1.2465   -2.7616 N   0  0  0  0  0  0  0  0  0  0  0  0
   -2.4154    1.6134   -3.6857 C   0  0  2  0  0  0  0  0  0  0  0  0
   -3.7536    1.3602   -3.0042 C   0  0  0  0  0  0  0  0  0  0  0  0
   -3.8916    0.5763   -2.0674 O   0  0  0  0  0  0  0  0  0  0  0  0
   -2.3089    0.8274   -4.9833 C   0  0  0  0  0  0  0  0  0  0  0  0
   -0.7714    1.9778   -2.3857 H   0  0  0  0  0  0  0  0  0  0  0  0
   -2.3022    2.6850   -3.8829 H   0  0  0  0  0  0  0  0  0  0  0  0
   -2.4198   -0.2485   -4.8057 H   0  0  0  0  0  0  0  0  0  0  0  0
   -3.0865    1.1270   -5.6936 H   0  0  0  0  0  0  0  0  0  0  0  0
   -1.3343    0.9874   -5.4570 H   0  0  0  0  0  0  0  0  0  0  0  0
   -4.7837    2.0802   -3.5930 N   0  0  0  0  0  0  0  0  0  0  0  0
   -6.1511    2.0013   -3.1349 C   0  0  0  0  0  0  0  0  0  0  0  0
   -4.5746    2.7208   -4.3531 H   0  0  0  0  0  0  0  0  0  0  0  0
   -6.6854    1.2273   -3.7053 H   0  0  0  0  0  0  0  0  0  0  0  0
   -6.1652    1.7439   -2.0656 H   0  0  0  0  0  0  0  0  0  0  0  0
   -6.6444    2.9730   -3.2846 H   0  0  0  0  0  0  0  0  0  0  0  0
  1  3  1  0  0  0  0
  1  7  1  0  0  0  0
  1  2  2  0  0  0  0
 31 32  1  0  0  0  0
 32 40  1  0  0  0  0
 32 33  2  0  0  0  0
  8  9  1  0  0  0  0
  9 17  1  0  0  0  0
  9 10  2  0  0  0  0
 18 19  1  0  0  0  0
 19 30  1  0  0  0  0
 19 20  2  0  0  0  0
 21 22  1  0  0  0  0
 22 23  2  0  0  0  0
 22 24  1  0  0  0  0
 31 34  1  0  0  0  0
  8 11  1  0  0  0  0
 40 41  1  0  0  0  0
 18 21  1  0  0  0  0
 30 31  1  0  0  0  0
  7  8  1  0  0  0  0
 17 18  1  0  0  0  0
  3  4  1  0  0  0  0
  3  5  1  0  0  0  0
  3  6  1  0  0  0  0
 34 37  1  0  0  0  0
 34 38  1  0  0  0  0
 34 39  1  0  0  0  0
 11 14  1  0  0  0  0
 11 15  1  0  0  0  0
 11 16  1  0  0  0  0
 41 43  1  0  0  0  0
 41 44  1  0  0  0  0
 41 45  1  0  0  0  0
 21 27  1  0  0  0  0
 21 28  1  0  0  0  0
 31 36  1  0  0  0  0
  8 13  1  0  0  0  0
 18 26  1  0  0  0  0
 40 42  1  0  0  0  0
  7 12  1  0  0  0  0
 30 35  1  0  0  0  0
 17 25  1  0  0  0  0
 24 29  1  0  0  0  0
M  END
$$$$

  -OEChem-05262214473D

 45 44  0     1  0  0  0  0  0999 V2000
   -2.2987    4.1032   -0.3022 C   0  0  0  0  0  0  0  0  0  0  0  0
   -1.8049    3.7117   -1.3532 O   0  0  0  0  0  0  0  0  0  0  0  0
   -3.0791    5.3755   -0.2846 C   0  0  0  0  0  0  0  0  0  0  0  0
   -2.4478    6.2532   -0.0717 H   0  0  0  0  0  0  0  0  0  0  0  0
   -3.5571    5.5891   -1.2541 H   0  0  0  0  0  0  0  0  0  0  0  0
   -3.8940    5.4184    0.4556 H   0  0  0  0  0  0  0  0  0  0  0  0
   -2.2137    3.4712    0.9275 N   0  0  0  0  0  0  0  0  0  0  0  0
   -1.5102    2.2327    1.1338 C   0  0  2  0  0  0  0  0  0  0  0  0
   -1.3539    1.5497   -0.2184 C   0  0  0  0  0  0  0  0  0  0  0  0
   -2.0852    1.7861   -1.1778 O   0  0  0  0  0  0  0  0  0  0  0  0
   -2.2477    1.3342    2.1145 C   0  0  0  0  0  0  0  0  0  0  0  0
   -2.6724    3.9052    1.7265 H   0  0  0  0  0  0  0  0  0  0  0  0
   -0.5220    2.4922    1.5290 H   0  0  0  0  0  0  0  0  0  0  0  0
   -3.2400    1.0636    1.7358 H   0  0  0  0  0  0  0  0  0  0  0  0
   -1.6970    0.4046    2.2923 H   0  0  0  0  0  0  0  0  0  0  0  0
   -2.3854    1.8384    3.0772 H   0  0  0  0  0  0  0  0  0  0  0  0
   -0.3283    0.6116   -0.2182 N   0  0  0  0  0  0  0  0  0  0  0  0
    0.0090   -0.1762   -1.3759 C   0  0  2  0  0  0  0  0  0  0  0  0
   -1.1430   -0.0648   -2.3665 C   0  0  0  0  0  0  0  0  0  0  0  0
   -1.9748   -0.9552   -2.5288 O   0  0  0  0  0  0  0  0  0  0  0  0
    0.2750   -1.6354   -1.0151 C   0  0  0  0  0  0  0  0  0  0  0  0
    1.5490   -1.7790   -0.2192 C   0  0  0  0  0  0  0  0  0  0  0  0
    2.5067   -1.0232   -0.3187 O   0  0  0  0  0  0  0  0  0  0  0  0
    1.5270   -2.8514    0.6104 O   0  0  0  0  0  0  0  0  0  0  0  0
    0.2381    0.4970    0.6194 H   0  0  0  0  0  0  0  0  0  0  0  0
    0.9008    0.2879   -1.8140 H   0  0  0  0  0  0  0  0  0  0  0  0
   -0.5314   -2.0427   -0.3923 H   0  0  0  0  0  0  0  0  0  0  0  0
    0.3212   -2.2825   -1.8994 H   0  0  0  0  0  0  0  0  0  0  0  0
    2.3445   -2.9850    1.1362 H   0  0  0  0  0  0  0  0  0  0  0  0
   -1.1604    1.1637   -3.0121 N   0  0  0  0  0  0  0  0  0  0  0  0
   -2.1646    1.5170   -3.9881 C   0  0  2  0  0  0  0  0  0  0  0  0
   -3.5011    1.6324   -3.2671 C   0  0  0  0  0  0  0  0  0  0  0  0
   -3.7341    1.0804   -2.1938 O   0  0  0  0  0  0  0  0  0  0  0  0
   -2.2368    0.4877   -5.1053 C   0  0  0  0  0  0  0  0  0  0  0  0
   -0.4376    1.8416   -2.7892 H   0  0  0  0  0  0  0  0  0  0  0  0
   -1.8819    2.4948   -4.3931 H   0  0  0  0  0  0  0  0  0  0  0  0
   -2.5188   -0.4985   -4.7187 H   0  0  0  0  0  0  0  0  0  0  0  0
   -2.9786    0.7716   -5.8591 H   0  0  0  0  0  0  0  0  0  0  0  0
   -1.2668    0.3844   -5.6034 H   0  0  0  0  0  0  0  0  0  0  0  0
   -4.4174    2.3890   -3.9842 N   0  0  0  0  0  0  0  0  0  0  0  0
   -5.7616    2.6345   -3.5166 C   0  0  0  0  0  0  0  0  0  0  0  0
   -4.1319    2.8248   -4.8562 H   0  0  0  0  0  0  0  0  0  0  0  0
   -6.4373    1.8668   -3.9218 H   0  0  0  0  0  0  0  0  0  0  0  0
   -5.7802    2.5957   -2.4174 H   0  0  0  0  0  0  0  0  0  0  0  0
   -6.0914    3.6281   -3.8540 H   0  0  0  0  0  0  0  0  0  0  0  0
  1  3  1  0  0  0  0
  1  7  1  0  0  0  0
  1  2  2  0  0  0  0
 31 32  1  0  0  0  0
 32 40  1  0  0  0  0
 32 33  2  0  0  0  0
  8  9  1  0  0  0  0
  9 17  1  0  0  0  0
  9 10  2  0  0  0  0
 18 19  1  0  0  0  0
 19 30  1  0  0  0  0
 19 20  2  0  0  0  0
 21 22  1  0  0  0  0
 22 23  2  0  0  0  0
 22 24  1  0  0  0  0
 31 34  1  0  0  0  0
  8 11  1  0  0  0  0
 40 41  1  0  0  0  0
 18 21  1  0  0  0  0
 30 31  1  0  0  0  0
  7  8  1  0  0  0  0
 17 18  1  0  0  0  0
  3  4  1  0  0  0  0
  3  5  1  0  0  0  0
  3  6  1  0  0  0  0
 34 37  1  0  0  0  0
 34 38  1  0  0  0  0
 34 39  1  0  0  0  0
 11 14  1  0  0  0  0
 11 15  1  0  0  0  0
 11 16  1  0  0  0  0
 41 43  1  0  0  0  0
 41 44  1  0  0  0  0
 41 45  1  0  0  0  0
 21 27  1  0  0  0  0
 21 28  1  0  0  0  0
 31 36  1  0  0  0  0
  8 13  1  0  0  0  0
 18 26  1  0  0  0  0
 40 42  1  0  0  0  0
  7 12  1  0  0  0  0
 30 35  1  0  0  0  0
 17 25  1  0  0  0  0
 24 29  1  0  0  0  0
M  END
$$$$

  -OEChem-05262214473D

 45 44  0     1  0  0  0  0  0999 V2000
   -2.2987    4.1032   -0.3022 C   0  0  0  0  0  0  0  0  0  0  0  0
   -1.8049    3.7117   -1.3532 O   0  0  0  0  0  0  0  0  0  0  0  0
   -3.0791    5.3755   -0.2846 C   0  0  0  0  0  0  0  0  0  0  0  0
   -2.4478    6.2532   -0.0717 H   0  0  0  0  0  0  0  0  0  0  0  0
   -3.5571    5.5891   -1.2541 H   0  0  0  0  0  0  0  0  0  0  0  0
   -3.8940    5.4184    0.4556 H   0  0  0  0  0  0  0  0  0  0  0  0
   -2.2137    3.4712    0.9275 N   0  0  0  0  0  0  0  0  0  0  0  0
   -1.5102    2.2327    1.1338 C   0  0  2  0  0  0  0  0  0  0  0  0
   -1.3539    1.5497   -0.2184 C   0  0  0  0  0  0  0  0  0  0  0  0
   -2.0852    1.7861   -1.1778 O   0  0  0  0  0  0  0  0  0  0  0  0
   -2.2477    1.3342    2.1145 C   0  0  0  0  0  0  0  0  0  0  0  0
   -2.6724    3.9052    1.7265 H   0  0  0  0  0  0  0  0  0  0  0  0
   -0.5220    2.4922    1.5290 H   0  0  0  0  0  0  0  0  0  0  0  0
   -3.2400    1.0636    1.7358 H   0  0  0  0  0  0  0  0  0  0  0  0
   -1.6970    0.4046    2.2923 H   0  0  0  0  0  0  0  0  0  0  0  0
   -2.3854    1.8384    3.0772 H   0  0  0  0  0  0  0  0  0  0  0  0
   -0.3283    0.6116   -0.2182 N   0  0  0  0  0  0  0  0  0  0  0  0
    0.0090   -0.1762   -1.3759 C   0  0  2  0  0  0  0  0  0  0  0  0
   -1.1430   -0.0648   -2.3665 C   0  0  0  0  0  0  0  0  0  0  0  0
   -2.1167   -0.8150   -2.3481 O   0  0  0  0  0  0  0  0  0  0  0  0
    0.2750   -1.6354   -1.0151 C   0  0  0  0  0  0  0  0  0  0  0  0
    1.5490   -1.7790   -0.2192 C   0  0  0  0  0  0  0  0  0  0  0  0
    2.5067   -1.0232   -0.3187 O   0  0  0  0  0  0  0  0  0  0  0  0
    1.5270   -2.8514    0.6104 O   0  0  0  0  0  0  0  0  0  0  0  0
    0.2381    0.4970    0.6194 H   0  0  0  0  0  0  0  0  0  0  0  0
    0.9008    0.2879   -1.8140 H   0  0  0  0  0  0  0  0  0  0  0  0
   -0.5314   -2.0427   -0.3923 H   0  0  0  0  0  0  0  0  0  0  0  0
    0.3212   -2.2825   -1.8994 H   0  0  0  0  0  0  0  0  0  0  0  0
    2.3445   -2.9850    1.1362 H   0  0  0  0  0  0  0  0  0  0  0  0
   -0.9787    0.9997   -3.2418 N   0  0  0  0  0  0  0  0  0  0  0  0
   -1.9444    1.3225   -4.2662 C   0  0  2  0  0  0  0  0  0  0  0  0
   -3.2165    1.8014   -3.5791 C   0  0  0  0  0  0  0  0  0  0  0  0
   -3.4996    1.5160   -2.4175 O   0  0  0  0  0  0  0  0  0  0  0  0
   -2.2267    0.1235   -5.1581 C   0  0  0  0  0  0  0  0  0  0  0  0
   -0.1457    1.5749   -3.1587 H   0  0  0  0  0  0  0  0  0  0  0  0
   -1.5175    2.1404   -4.8567 H   0  0  0  0  0  0  0  0  0  0  0  0
   -2.6549   -0.7062   -4.5838 H   0  0  0  0  0  0  0  0  0  0  0  0
   -2.9373    0.3778   -5.9514 H   0  0  0  0  0  0  0  0  0  0  0  0
   -1.3058   -0.2380   -5.6281 H   0  0  0  0  0  0  0  0  0  0  0  0
   -4.0190    2.5491   -4.4294 N   0  0  0  0  0  0  0  0  0  0  0  0
   -5.2861    3.1058   -4.0165 C   0  0  0  0  0  0  0  0  0  0  0  0
   -3.6963    2.7523   -5.3709 H   0  0  0  0  0  0  0  0  0  0  0  0
   -6.0941    2.4005   -4.2608 H   0  0  0  0  0  0  0  0  0  0  0  0
   -5.2716    3.2848   -2.9313 H   0  0  0  0  0  0  0  0  0  0  0  0
   -5.4578    4.0564   -4.5427 H   0  0  0  0  0  0  0  0  0  0  0  0
  1  3  1  0  0  0  0
  1  7  1  0  0  0  0
  1  2  2  0  0  0  0
 31 32  1  0  0  0  0
 32 40  1  0  0  0  0
 32 33  2  0  0  0  0
  8  9  1  0  0  0  0
  9 17  1  0  0  0  0
  9 10  2  0  0  0  0
 18 19  1  0  0  0  0
 19 30  1  0  0  0  0
 19 20  2  0  0  0  0
 21 22  1  0  0  0  0
 22 23  2  0  0  0  0
 22 24  1  0  0  0  0
 31 34  1  0  0  0  0
  8 11  1  0  0  0  0
 40 41  1  0  0  0  0
 18 21  1  0  0  0  0
 30 31  1  0  0  0  0
  7  8  1  0  0  0  0
 17 18  1  0  0  0  0
  3  4  1  0  0  0  0
  3  5  1  0  0  0  0
  3  6  1  0  0  0  0
 34 37  1  0  0  0  0
 34 38  1  0  0  0  0
 34 39  1  0  0  0  0
 11 14  1  0  0  0  0
 11 15  1  0  0  0  0
 11 16  1  0  0  0  0
 41 43  1  0  0  0  0
 41 44  1  0  0  0  0
 41 45  1  0  0  0  0
 21 27  1  0  0  0  0
 21 28  1  0  0  0  0
 31 36  1  0  0  0  0
  8 13  1  0  0  0  0
 18 26  1  0  0  0  0
 40 42  1  0  0  0  0
  7 12  1  0  0  0  0
 30 35  1  0  0  0  0
 17 25  1  0  0  0  0
 24 29  1  0  0  0  0
M  END
$$$$

  -OEChem-05262214473D

 45 44  0     1  0  0  0  0  0999 V2000
   -2.2987    4.1032   -0.3022 C   0  0  0  0  0  0  0  0  0  0  0  0
   -1.8049    3.7117   -1.3532 O   0  0  0  0  0  0  0  0  0  0  0  0
   -3.0791    5.3755   -0.2846 C   0  0  0  0  0  0  0  0  0  0  0  0
   -2.4478    6.2532   -0.0717 H   0  0  0  0  0  0  0  0  0  0  0  0
   -3.5571    5.5891   -1.2541 H   0  0  0  0  0  0  0  0  0  0  0  0
   -3.8940    5.4184    0.4556 H   0  0  0  0  0  0  0  0  0  0  0  0
   -2.2137    3.4712    0.9275 N   0  0  0  0  0  0  0  0  0  0  0  0
   -1.5102    2.2327    1.1338 C   0  0  2  0  0  0  0  0  0  0  0  0
   -1.3539    1.5497   -0.2184 C   0  0  0  0  0  0  0  0  0  0  0  0
   -2.0852    1.7861   -1.1778 O   0  0  0  0  0  0  0  0  0  0  0  0
   -2.2477    1.3342    2.1145 C   0  0  0  0  0  0  0  0  0  0  0  0
   -2.6724    3.9052    1.7265 H   0  0  0  0  0  0  0  0  0  0  0  0
   -0.5220    2.4922    1.5290 H   0  0  0  0  0  0  0  0  0  0  0  0
   -3.2400    1.0636    1.7358 H   0  0  0  0  0  0  0  0  0  0  0  0
   -1.6970    0.4046    2.2923 H   0  0  0  0  0  0  0  0  0  0  0  0
   -2.3854    1.8384    3.0772 H   0  0  0  0  0  0  0  0  0  0  0  0
   -0.3283    0.6116   -0.2182 N   0  0  0  0  0  0  0  0  0  0  0  0
    0.0090   -0.1762   -1.3759 C   0  0  2  0  0  0  0  0  0  0  0  0
   -1.1430   -0.0648   -2.3665 C   0  0  0  0  0  0  0  0  0  0  0  0
   -2.2266   -0.6203   -2.1983 O   0  0  0  0  0  0  0  0  0  0  0  0
    0.2750   -1.6354   -1.0151 C   0  0  0  0  0  0  0  0  0  0  0  0
    1.5490   -1.7790   -0.2192 C   0  0  0  0  0  0  0  0  0  0  0  0
    2.5067   -1.0232   -0.3187 O   0  0  0  0  0  0  0  0  0  0  0  0
    1.5270   -2.8514    0.6104 O   0  0  0  0  0  0  0  0  0  0  0  0
    0.2381    0.4970    0.6194 H   0  0  0  0  0  0  0  0  0  0  0  0
    0.9008    0.2879   -1.8140 H   0  0  0  0  0  0  0  0  0  0  0  0
   -0.5314   -2.0427   -0.3923 H   0  0  0  0  0  0  0  0  0  0  0  0
    0.3212   -2.2825   -1.8994 H   0  0  0  0  0  0  0  0  0  0  0  0
    2.3445   -2.9850    1.1362 H   0  0  0  0  0  0  0  0  0  0  0  0
   -0.8353    0.7657   -3.4350 N   0  0  0  0  0  0  0  0  0  0  0  0
   -1.7697    1.0432   -4.5008 C   0  0  2  0  0  0  0  0  0  0  0  0
   -2.9189    1.8557   -3.9190 C   0  0  0  0  0  0  0  0  0  0  0  0
   -3.2040    1.8536   -2.7233 O   0  0  0  0  0  0  0  0  0  0  0  0
   -2.2792   -0.2402   -5.1379 C   0  0  0  0  0  0  0  0  0  0  0  0
    0.0843    1.1959   -3.4688 H   0  0  0  0  0  0  0  0  0  0  0  0
   -1.2339    1.6461   -5.2421 H   0  0  0  0  0  0  0  0  0  0  0  0
   -2.8187   -0.8575   -4.4104 H   0  0  0  0  0  0  0  0  0  0  0  0
   -2.9654   -0.0277   -5.9643 H   0  0  0  0  0  0  0  0  0  0  0  0
   -1.4486   -0.8375   -5.5294 H   0  0  0  0  0  0  0  0  0  0  0  0
   -3.6157    2.5496   -4.8984 N   0  0  0  0  0  0  0  0  0  0  0  0
   -4.7570    3.3832   -4.6006 C   0  0  0  0  0  0  0  0  0  0  0  0
   -3.2975    2.5083   -5.8621 H   0  0  0  0  0  0  0  0  0  0  0  0
   -5.6793    2.7919   -4.6992 H   0  0  0  0  0  0  0  0  0  0  0  0
   -4.6741    3.7643   -3.5721 H   0  0  0  0  0  0  0  0  0  0  0  0
   -4.7867    4.2286   -5.3037 H   0  0  0  0  0  0  0  0  0  0  0  0
  1  3  1  0  0  0  0
  1  7  1  0  0  0  0
  1  2  2  0  0  0  0
 31 32  1  0  0  0  0
 32 40  1  0  0  0  0
 32 33  2  0  0  0  0
  8  9  1  0  0  0  0
  9 17  1  0  0  0  0
  9 10  2  0  0  0  0
 18 19  1  0  0  0  0
 19 30  1  0  0  0  0
 19 20  2  0  0  0  0
 21 22  1  0  0  0  0
 22 23  2  0  0  0  0
 22 24  1  0  0  0  0
 31 34  1  0  0  0  0
  8 11  1  0  0  0  0
 40 41  1  0  0  0  0
 18 21  1  0  0  0  0
 30 31  1  0  0  0  0
  7  8  1  0  0  0  0
 17 18  1  0  0  0  0
  3  4  1  0  0  0  0
  3  5  1  0  0  0  0
  3  6  1  0  0  0  0
 34 37  1  0  0  0  0
 34 38  1  0  0  0  0
 34 39  1  0  0  0  0
 11 14  1  0  0  0  0
 11 15  1  0  0  0  0
 11 16  1  0  0  0  0
 41 43  1  0  0  0  0
 41 44  1  0  0  0  0
 41 45  1  0  0  0  0
 21 27  1  0  0  0  0
 21 28  1  0  0  0  0
 31 36  1  0  0  0  0
  8 13  1  0  0  0  0
 18 26  1  0  0  0  0
 40 42  1  0  0  0  0
  7 12  1  0  0  0  0
 30 35  1  0  0  0  0
 17 25  1  0  0  0  0
 24 29  1  0  0  0  0
M  END
$$$$

  -OEChem-05262214473D

 45 44  0     1  0  0  0  0  0999 V2000
   -2.2987    4.1032   -0.3022 C   0  0  0  0  0  0  0  0  0  0  0  0
   -1.8049    3.7117   -1.3532 O   0  0  0  0  0  0  0  0  0  0  0  0
   -3.0791    5.3755   -0.2846 C   0  0  0  0  0  0  0  0  0  0  0  0
   -2.4478    6.2532   -0.0717 H   0  0  0  0  0  0  0  0  0  0  0  0
   -3.5571    5.5891   -1.2541 H   0  0  0  0  0  0  0  0  0  0  0  0
   -3.8940    5.4184    0.4556 H   0  0  0  0  0  0  0  0  0  0  0  0
   -2.2137    3.4712    0.9275 N   0  0  0  0  0  0  0  0  0  0  0  0
   -1.5102    2.2327    1.1338 C   0  0  2  0  0  0  0  0  0  0  0  0
   -1.3539    1.5497   -0.2184 C   0  0  0  0  0  0  0  0  0  0  0  0
   -2.0852    1.7861   -1.1778 O   0  0  0  0  0  0  0  0  0  0  0  0
   -2.2477    1.3342    2.1145 C   0  0  0  0  0  0  0  0  0  0  0  0
   -2.6724    3.9052    1.7265 H   0  0  0  0  0  0  0  0  0  0  0  0
   -0.5220    2.4922    1.5290 H   0  0  0  0  0  0  0  0  0  0  0  0
   -3.2400    1.0636    1.7358 H   0  0  0  0  0  0  0  0  0  0  0  0
   -1.6970    0.4046    2.2923 H   0  0  0  0  0  0  0  0  0  0  0  0
   -2.3854    1.8384    3.0772 H   0  0  0  0  0  0  0  0  0  0  0  0
   -0.3283    0.6116   -0.2182 N   0  0  0  0  0  0  0  0  0  0  0  0
    0.0090   -0.1762   -1.3759 C   0  0  2  0  0  0  0  0  0  0  0  0
   -1.1430   -0.0648   -2.3665 C   0  0  0  0  0  0  0  0  0  0  0  0
   -2.2973   -0.3844   -2.0896 O   0  0  0  0  0  0  0  0  0  0  0  0
    0.2750   -1.6354   -1.0151 C   0  0  0  0  0  0  0  0  0  0  0  0
    1.5490   -1.7790   -0.2192 C   0  0  0  0  0  0  0  0  0  0  0  0
    2.5067   -1.0232   -0.3187 O   0  0  0  0  0  0  0  0  0  0  0  0
    1.5270   -2.8514    0.6104 O   0  0  0  0  0  0  0  0  0  0  0  0
    0.2381    0.4970    0.6194 H   0  0  0  0  0  0  0  0  0  0  0  0
    0.9008    0.2879   -1.8140 H   0  0  0  0  0  0  0  0  0  0  0  0
   -0.5314   -2.0427   -0.3923 H   0  0  0  0  0  0  0  0  0  0  0  0
    0.3212   -2.2825   -1.8994 H   0  0  0  0  0  0  0  0  0  0  0  0
    2.3445   -2.9850    1.1362 H   0  0  0  0  0  0  0  0  0  0  0  0
   -0.7397    0.4778   -3.5786 N   0  0  0  0  0  0  0  0  0  0  0  0
   -1.6523    0.6980   -4.6761 C   0  0  2  0  0  0  0  0  0  0  0  0
   -2.6289    1.7915   -4.2636 C   0  0  0  0  0  0  0  0  0  0  0  0
   -2.8674    2.0701   -3.0903 O   0  0  0  0  0  0  0  0  0  0  0  0
   -2.3908   -0.5788   -5.0463 C   0  0  0  0  0  0  0  0  0  0  0  0
    0.2369    0.7303   -3.6986 H   0  0  0  0  0  0  0  0  0  0  0  0
   -1.0506    1.0454   -5.5230 H   0  0  0  0  0  0  0  0  0  0  0  0
   -2.9992   -0.9421   -4.2101 H   0  0  0  0  0  0  0  0  0  0  0  0
   -3.0611   -0.4171   -5.8969 H   0  0  0  0  0  0  0  0  0  0  0  0
   -1.6857   -1.3732   -5.3140 H   0  0  0  0  0  0  0  0  0  0  0  0
   -3.2350    2.3904   -5.3591 N   0  0  0  0  0  0  0  0  0  0  0  0
   -4.2102    3.4477   -5.2292 C   0  0  0  0  0  0  0  0  0  0  0  0
   -2.9627    2.1092   -6.2964 H   0  0  0  0  0  0  0  0  0  0  0  0
   -5.2210    3.0143   -5.2072 H   0  0  0  0  0  0  0  0  0  0  0  0
   -4.0284    4.0015   -4.2963 H   0  0  0  0  0  0  0  0  0  0  0  0
   -4.1239    4.1331   -6.0852 H   0  0  0  0  0  0  0  0  0  0  0  0
  1  3  1  0  0  0  0
  1  7  1  0  0  0  0
  1  2  2  0  0  0  0
 31 32  1  0  0  0  0
 32 40  1  0  0  0  0
 32 33  2  0  0  0  0
  8  9  1  0  0  0  0
  9 17  1  0  0  0  0
  9 10  2  0  0  0  0
 18 19  1  0  0  0  0
 19 30  1  0  0  0  0
 19 20  2  0  0  0  0
 21 22  1  0  0  0  0
 22 23  2  0  0  0  0
 22 24  1  0  0  0  0
 31 34  1  0  0  0  0
  8 11  1  0  0  0  0
 40 41  1  0  0  0  0
 18 21  1  0  0  0  0
 30 31  1  0  0  0  0
  7  8  1  0  0  0  0
 17 18  1  0  0  0  0
  3  4  1  0  0  0  0
  3  5  1  0  0  0  0
  3  6  1  0  0  0  0
 34 37  1  0  0  0  0
 34 38  1  0  0  0  0
 34 39  1  0  0  0  0
 11 14  1  0  0  0  0
 11 15  1  0  0  0  0
 11 16  1  0  0  0  0
 41 43  1  0  0  0  0
 41 44  1  0  0  0  0
 41 45  1  0  0  0  0
 21 27  1  0  0  0  0
 21 28  1  0  0  0  0
 31 36  1  0  0  0  0
  8 13  1  0  0  0  0
 18 26  1  0  0  0  0
 40 42  1  0  0  0  0
  7 12  1  0  0  0  0
 30 35  1  0  0  0  0
 17 25  1  0  0  0  0
 24 29  1  0  0  0  0
M  END
$$$$

  -OEChem-05262214473D

 45 44  0     1  0  0  0  0  0999 V2000
   -2.2987    4.1032   -0.3022 C   0  0  0  0  0  0  0  0  0  0  0  0
   -1.8049    3.7117   -1.3532 O   0  0  0  0  0  0  0  0  0  0  0  0
   -3.0791    5.3755   -0.2846 C   0  0  0  0  0  0  0  0  0  0  0  0
   -2.4478    6.2532   -0.0717 H   0  0  0  0  0  0  0  0  0  0  0  0
   -3.5571    5.5891   -1.2541 H   0  0  0  0  0  0  0  0  0  0  0  0
   -3.8940    5.4184    0.4556 H   0  0  0  0  0  0  0  0  0  0  0  0
   -2.2137    3.4712    0.9275 N   0  0  0  0  0  0  0  0  0  0  0  0
   -1.5102    2.2327    1.1338 C   0  0  2  0  0  0  0  0  0  0  0  0
   -1.3539    1.5497   -0.2184 C   0  0  0  0  0  0  0  0  0  0  0  0
   -2.0852    1.7861   -1.1778 O   0  0  0  0  0  0  0  0  0  0  0  0
   -2.2477    1.3342    2.1145 C   0  0  0  0  0  0  0  0  0  0  0  0
   -2.6724    3.9052    1.7265 H   0  0  0  0  0  0  0  0  0  0  0  0
   -0.5220    2.4922    1.5290 H   0  0  0  0  0  0  0  0  0  0  0  0
   -3.2400    1.0636    1.7358 H   0  0  0  0  0  0  0  0  0  0  0  0
   -1.6970    0.4046    2.2923 H   0  0  0  0  0  0  0  0  0  0  0  0
   -2.3854    1.8384    3.0772 H   0  0  0  0  0  0  0  0  0  0  0  0
   -0.3283    0.6116   -0.2182 N   0  0  0  0  0  0  0  0  0  0  0  0
    0.0090   -0.1762   -1.3759 C   0  0  2  0  0  0  0  0  0  0  0  0
   -1.1430   -0.0648   -2.3665 C   0  0  0  0  0  0  0  0  0  0  0  0
   -2.3237   -0.1234   -2.0294 O   0  0  0  0  0  0  0  0  0  0  0  0
    0.2750   -1.6354   -1.0151 C   0  0  0  0  0  0  0  0  0  0  0  0
    1.5490   -1.7790   -0.2192 C   0  0  0  0  0  0  0  0  0  0  0  0
    2.5067   -1.0232   -0.3187 O   0  0  0  0  0  0  0  0  0  0  0  0
    1.5270   -2.8514    0.6104 O   0  0  0  0  0  0  0  0  0  0  0  0
    0.2381    0.4970    0.6194 H   0  0  0  0  0  0  0  0  0  0  0  0
    0.9008    0.2879   -1.8140 H   0  0  0  0  0  0  0  0  0  0  0  0
   -0.5314   -2.0427   -0.3923 H   0  0  0  0  0  0  0  0  0  0  0  0
    0.3212   -2.2825   -1.8994 H   0  0  0  0  0  0  0  0  0  0  0  0
    2.3445   -2.9850    1.1362 H   0  0  0  0  0  0  0  0  0  0  0  0
   -0.6985    0.1556   -3.6627 N   0  0  0  0  0  0  0  0  0  0  0  0
   -1.6004    0.3106   -4.7801 C   0  0  2  0  0  0  0  0  0  0  0  0
   -2.3660    1.6132   -4.5893 C   0  0  0  0  0  0  0  0  0  0  0  0
   -2.5128    2.1507   -3.4936 O   0  0  0  0  0  0  0  0  0  0  0  0
   -2.5538   -0.8692   -4.8894 C   0  0  0  0  0  0  0  0  0  0  0  0
    0.3015    0.2100   -3.8323 H   0  0  0  0  0  0  0  0  0  0  0  0
   -0.9798    0.3794   -5.6802 H   0  0  0  0  0  0  0  0  0  0  0  0
   -3.1839   -0.9543   -3.9966 H   0  0  0  0  0  0  0  0  0  0  0  0
   -3.2178   -0.7639   -5.7538 H   0  0  0  0  0  0  0  0  0  0  0  0
   -2.0007   -1.8086   -4.9967 H   0  0  0  0  0  0  0  0  0  0  0  0
   -2.9027    2.0823   -5.7801 N   0  0  0  0  0  0  0  0  0  0  0  0
   -3.6831    3.2950   -5.8593 C   0  0  0  0  0  0  0  0  0  0  0  0
   -2.7147    1.5825   -6.6442 H   0  0  0  0  0  0  0  0  0  0  0  0
   -4.7505    3.0526   -5.7500 H   0  0  0  0  0  0  0  0  0  0  0  0
   -3.3785    3.9801   -5.0544 H   0  0  0  0  0  0  0  0  0  0  0  0
   -3.5146    3.7764   -6.8340 H   0  0  0  0  0  0  0  0  0  0  0  0
  1  3  1  0  0  0  0
  1  7  1  0  0  0  0
  1  2  2  0  0  0  0
 31 32  1  0  0  0  0
 32 40  1  0  0  0  0
 32 33  2  0  0  0  0
  8  9  1  0  0  0  0
  9 17  1  0  0  0  0
  9 10  2  0  0  0  0
 18 19  1  0  0  0  0
 19 30  1  0  0  0  0
 19 20  2  0  0  0  0
 21 22  1  0  0  0  0
 22 23  2  0  0  0  0
 22 24  1  0  0  0  0
 31 34  1  0  0  0  0
  8 11  1  0  0  0  0
 40 41  1  0  0  0  0
 18 21  1  0  0  0  0
 30 31  1  0  0  0  0
  7  8  1  0  0  0  0
 17 18  1  0  0  0  0
  3  4  1  0  0  0  0
  3  5  1  0  0  0  0
  3  6  1  0  0  0  0
 34 37  1  0  0  0  0
 34 38  1  0  0  0  0
 34 39  1  0  0  0  0
 11 14  1  0  0  0  0
 11 15  1  0  0  0  0
 11 16  1  0  0  0  0
 41 43  1  0  0  0  0
 41 44  1  0  0  0  0
 41 45  1  0  0  0  0
 21 27  1  0  0  0  0
 21 28  1  0  0  0  0
 31 36  1  0  0  0  0
  8 13  1  0  0  0  0
 18 26  1  0  0  0  0
 40 42  1  0  0  0  0
  7 12  1  0  0  0  0
 30 35  1  0  0  0  0
 17 25  1  0  0  0  0
 24 29  1  0  0  0  0
M  END
$$$$

  -OEChem-05262214473D

 45 44  0     1  0  0  0  0  0999 V2000
   -2.2987    4.1032   -0.3022 C   0  0  0  0  0  0  0  0  0  0  0  0
   -1.8049    3.7117   -1.3532 O   0  0  0  0  0  0  0  0  0  0  0  0
   -3.0791    5.3755   -0.2846 C   0  0  0  0  0  0  0  0  0  0  0  0
   -2.4478    6.2532   -0.0717 H   0  0  0  0  0  0  0  0  0  0  0  0
   -3.5571    5.5891   -1.2541 H   0  0  0  0  0  0  0  0  0  0  0  0
   -3.8940    5.4184    0.4556 H   0  0  0  0  0  0  0  0  0  0  0  0
   -2.2137    3.4712    0.9275 N   0  0  0  0  0  0  0  0  0  0  0  0
   -1.5102    2.2327    1.1338 C   0  0  2  0  0  0  0  0  0  0  0  0
   -1.3539    1.5497   -0.2184 C   0  0  0  0  0  0  0  0  0  0  0  0
   -2.0852    1.7861   -1.1778 O   0  0  0  0  0  0  0  0  0  0  0  0
   -2.2477    1.3342    2.1145 C   0  0  0  0  0  0  0  0  0  0  0  0
   -2.6724    3.9052    1.7265 H   0  0  0  0  0  0  0  0  0  0  0  0
   -0.5220    2.4922    1.5290 H   0  0  0  0  0  0  0  0  0  0  0  0
   -3.2400    1.0636    1.7358 H   0  0  0  0  0  0  0  0  0  0  0  0
   -1.6970    0.4046    2.2923 H   0  0  0  0  0  0  0  0  0  0  0  0
   -2.3854    1.8384    3.0772 H   0  0  0  0  0  0  0  0  0  0  0  0
   -0.3283    0.6116   -0.2182 N   0  0  0  0  0  0  0  0  0  0  0  0
    0.0090   -0.1762   -1.3759 C   0  0  2  0  0  0  0  0  0  0  0  0
   -1.1430   -0.0648   -2.3665 C   0  0  0  0  0  0  0  0  0  0  0  0
   -2.3042    0.1450   -2.0219 O   0  0  0  0  0  0  0  0  0  0  0  0
    0.2750   -1.6354   -1.0151 C   0  0  0  0  0  0  0  0  0  0  0  0
    1.5490   -1.7790   -0.2192 C   0  0  0  0  0  0  0  0  0  0  0  0
    2.5067   -1.0232   -0.3187 O   0  0  0  0  0  0  0  0  0  0  0  0
    1.5270   -2.8514    0.6104 O   0  0  0  0  0  0  0  0  0  0  0  0
    0.2381    0.4970    0.6194 H   0  0  0  0  0  0  0  0  0  0  0  0
    0.9008    0.2879   -1.8140 H   0  0  0  0  0  0  0  0  0  0  0  0
   -0.5314   -2.0427   -0.3923 H   0  0  0  0  0  0  0  0  0  0  0  0
    0.3212   -2.2825   -1.8994 H   0  0  0  0  0  0  0  0  0  0  0  0
    2.3445   -2.9850    1.1362 H   0  0  0  0  0  0  0  0  0  0  0  0
   -0.7146   -0.1791   -3.6816 N   0  0  0  0  0  0  0  0  0  0  0  0
   -1.6174   -0.0928   -4.8057 C   0  0  2  0  0  0  0  0  0  0  0  0
   -2.1483    1.3331   -4.8741 C   0  0  0  0  0  0  0  0  0  0  0  0
   -2.1644    2.0900   -3.9056 O   0  0  0  0  0  0  0  0  0  0  0  0
   -2.7571   -1.0915   -4.6780 C   0  0  0  0  0  0  0  0  0  0  0  0
    0.2738   -0.3297   -3.8609 H   0  0  0  0  0  0  0  0  0  0  0  0
   -1.0266   -0.3066   -5.7030 H   0  0  0  0  0  0  0  0  0  0  0  0
   -3.3604   -0.8932   -3.7845 H   0  0  0  0  0  0  0  0  0  0  0  0
   -3.4248   -1.0446   -5.5446 H   0  0  0  0  0  0  0  0  0  0  0  0
   -2.3723   -2.1140   -4.5990 H   0  0  0  0  0  0  0  0  0  0  0  0
   -2.6416    1.6465   -6.1329 N   0  0  0  0  0  0  0  0  0  0  0  0
   -3.2116    2.9355   -6.4481 C   0  0  0  0  0  0  0  0  0  0  0  0
   -2.5703    0.9638   -6.8817 H   0  0  0  0  0  0  0  0  0  0  0  0
   -4.2999    2.9042   -6.2907 H   0  0  0  0  0  0  0  0  0  0  0  0
   -2.7687    3.7018   -5.7949 H   0  0  0  0  0  0  0  0  0  0  0  0
   -3.0002    3.1827   -7.4989 H   0  0  0  0  0  0  0  0  0  0  0  0
  1  3  1  0  0  0  0
  1  7  1  0  0  0  0
  1  2  2  0  0  0  0
 31 32  1  0  0  0  0
 32 40  1  0  0  0  0
 32 33  2  0  0  0  0
  8  9  1  0  0  0  0
  9 17  1  0  0  0  0
  9 10  2  0  0  0  0
 18 19  1  0  0  0  0
 19 30  1  0  0  0  0
 19 20  2  0  0  0  0
 21 22  1  0  0  0  0
 22 23  2  0  0  0  0
 22 24  1  0  0  0  0
 31 34  1  0  0  0  0
  8 11  1  0  0  0  0
 40 41  1  0  0  0  0
 18 21  1  0  0  0  0
 30 31  1  0  0  0  0
  7  8  1  0  0  0  0
 17 18  1  0  0  0  0
  3  4  1  0  0  0  0
  3  5  1  0  0  0  0
  3  6  1  0  0  0  0
 34 37  1  0  0  0  0
 34 38  1  0  0  0  0
 34 39  1  0  0  0  0
 11 14  1  0  0  0  0
 11 15  1  0  0  0  0
 11 16  1  0  0  0  0
 41 43  1  0  0  0  0
 41 44  1  0  0  0  0
 41 45  1  0  0  0  0
 21 27  1  0  0  0  0
 21 28  1  0  0  0  0
 31 36  1  0  0  0  0
  8 13  1  0  0  0  0
 18 26  1  0  0  0  0
 40 42  1  0  0  0  0
  7 12  1  0  0  0  0
 30 35  1  0  0  0  0
 17 25  1  0  0  0  0
 24 29  1  0  0  0  0
M  END
$$$$

  -OEChem-05262214473D

 45 44  0     1  0  0  0  0  0999 V2000
   -2.2987    4.1032   -0.3022 C   0  0  0  0  0  0  0  0  0  0  0  0
   -1.8049    3.7117   -1.3532 O   0  0  0  0  0  0  0  0  0  0  0  0
   -3.0791    5.3755   -0.2846 C   0  0  0  0  0  0  0  0  0  0  0  0
   -2.4478    6.2532   -0.0717 H   0  0  0  0  0  0  0  0  0  0  0  0
   -3.5571    5.5891   -1.2541 H   0  0  0  0  0  0  0  0  0  0  0  0
   -3.8940    5.4184    0.4556 H   0  0  0  0  0  0  0  0  0  0  0  0
   -2.2137    3.4712    0.9275 N   0  0  0  0  0  0  0  0  0  0  0  0
   -1.5102    2.2327    1.1338 C   0  0  2  0  0  0  0  0  0  0  0  0
   -1.3539    1.5497   -0.2184 C   0  0  0  0  0  0  0  0  0  0  0  0
   -2.0852    1.7861   -1.1778 O   0  0  0  0  0  0  0  0  0  0  0  0
   -2.2477    1.3342    2.1145 C   0  0  0  0  0  0  0  0  0  0  0  0
   -2.6724    3.9052    1.7265 H   0  0  0  0  0  0  0  0  0  0  0  0
   -0.5220    2.4922    1.5290 H   0  0  0  0  0  0  0  0  0  0  0  0
   -3.2400    1.0636    1.7358 H   0  0  0  0  0  0  0  0  0  0  0  0
   -1.6970    0.4046    2.2923 H   0  0  0  0  0  0  0  0  0  0  0  0
   -2.3854    1.8384    3.0772 H   0  0  0  0  0  0  0  0  0  0  0  0
   -0.3283    0.6116   -0.2182 N   0  0  0  0  0  0  0  0  0  0  0  0
    0.0090   -0.1762   -1.3759 C   0  0  2  0  0  0  0  0  0  0  0  0
   -1.1430   -0.0648   -2.3665 C   0  0  0  0  0  0  0  0  0  0  0  0
   -2.2401    0.4024   -2.0675 O   0  0  0  0  0  0  0  0  0  0  0  0
    0.2750   -1.6354   -1.0151 C   0  0  0  0  0  0  0  0  0  0  0  0
    1.5490   -1.7790   -0.2192 C   0  0  0  0  0  0  0  0  0  0  0  0
    2.5067   -1.0232   -0.3187 O   0  0  0  0  0  0  0  0  0  0  0  0
    1.5270   -2.8514    0.6104 O   0  0  0  0  0  0  0  0  0  0  0  0
    0.2381    0.4970    0.6194 H   0  0  0  0  0  0  0  0  0  0  0  0
    0.9008    0.2879   -1.8140 H   0  0  0  0  0  0  0  0  0  0  0  0
   -0.5314   -2.0427   -0.3923 H   0  0  0  0  0  0  0  0  0  0  0  0
    0.3212   -2.2825   -1.8994 H   0  0  0  0  0  0  0  0  0  0  0  0
    2.3445   -2.9850    1.1362 H   0  0  0  0  0  0  0  0  0  0  0  0
   -0.7869   -0.5034   -3.6341 N   0  0  0  0  0  0  0  0  0  0  0  0
   -1.7022   -0.4845   -4.7511 C   0  0  2  0  0  0  0  0  0  0  0  0
   -1.9905    0.9701   -5.0984 C   0  0  0  0  0  0  0  0  0  0  0  0
   -1.8458    1.8921   -4.2983 O   0  0  0  0  0  0  0  0  0  0  0  0
   -2.9870   -1.2307   -4.4264 C   0  0  0  0  0  0  0  0  0  0  0  0
    0.1557   -0.8518   -3.7823 H   0  0  0  0  0  0  0  0  0  0  0  0
   -1.1876   -0.9658   -5.5899 H   0  0  0  0  0  0  0  0  0  0  0  0
   -3.5165   -0.7630   -3.5883 H   0  0  0  0  0  0  0  0  0  0  0  0
   -3.6680   -1.2399   -5.2838 H   0  0  0  0  0  0  0  0  0  0  0  0
   -2.7751   -2.2687   -4.1480 H   0  0  0  0  0  0  0  0  0  0  0  0
   -2.4694    1.1125   -6.3932 N   0  0  0  0  0  0  0  0  0  0  0  0
   -2.8279    2.3937   -6.9554 C   0  0  0  0  0  0  0  0  0  0  0  0
   -2.5395    0.2955   -6.9927 H   0  0  0  0  0  0  0  0  0  0  0  0
   -3.8998    2.5791   -6.7925 H   0  0  0  0  0  0  0  0  0  0  0  0
   -2.2406    3.1854   -6.4672 H   0  0  0  0  0  0  0  0  0  0  0  0
   -2.6159    2.3926   -8.0347 H   0  0  0  0  0  0  0  0  0  0  0  0
  1  3  1  0  0  0  0
  1  7  1  0  0  0  0
  1  2  2  0  0  0  0
 31 32  1  0  0  0  0
 32 40  1  0  0  0  0
 32 33  2  0  0  0  0
  8  9  1  0  0  0  0
  9 17  1  0  0  0  0
  9 10  2  0  0  0  0
 18 19  1  0  0  0  0
 19 30  1  0  0  0  0
 19 20  2  0  0  0  0
 21 22  1  0  0  0  0
 22 23  2  0  0  0  0
 22 24  1  0  0  0  0
 31 34  1  0  0  0  0
  8 11  1  0  0  0  0
 40 41  1  0  0  0  0
 18 21  1  0  0  0  0
 30 31  1  0  0  0  0
  7  8  1  0  0  0  0
 17 18  1  0  0  0  0
  3  4  1  0  0  0  0
  3  5  1  0  0  0  0
  3  6  1  0  0  0  0
 34 37  1  0  0  0  0
 34 38  1  0  0  0  0
 34 39  1  0  0  0  0
 11 14  1  0  0  0  0
 11 15  1  0  0  0  0
 11 16  1  0  0  0  0
 41 43  1  0  0  0  0
 41 44  1  0  0  0  0
 41 45  1  0  0  0  0
 21 27  1  0  0  0  0
 21 28  1  0  0  0  0
 31 36  1  0  0  0  0
  8 13  1  0  0  0  0
 18 26  1  0  0  0  0
 40 42  1  0  0  0  0
  7 12  1  0  0  0  0
 30 35  1  0  0  0  0
 17 25  1  0  0  0  0
 24 29  1  0  0  0  0
M  END
$$$$

  -OEChem-05262214473D

 45 44  0     1  0  0  0  0  0999 V2000
   -2.2987    4.1032   -0.3022 C   0  0  0  0  0  0  0  0  0  0  0  0
   -1.8049    3.7117   -1.3532 O   0  0  0  0  0  0  0  0  0  0  0  0
   -3.0791    5.3755   -0.2846 C   0  0  0  0  0  0  0  0  0  0  0  0
   -2.4478    6.2532   -0.0717 H   0  0  0  0  0  0  0  0  0  0  0  0
   -3.5571    5.5891   -1.2541 H   0  0  0  0  0  0  0  0  0  0  0  0
   -3.8940    5.4184    0.4556 H   0  0  0  0  0  0  0  0  0  0  0  0
   -2.2137    3.4712    0.9275 N   0  0  0  0  0  0  0  0  0  0  0  0
   -1.5102    2.2327    1.1338 C   0  0  2  0  0  0  0  0  0  0  0  0
   -1.3539    1.5497   -0.2184 C   0  0  0  0  0  0  0  0  0  0  0  0
   -2.0852    1.7861   -1.1778 O   0  0  0  0  0  0  0  0  0  0  0  0
   -2.2477    1.3342    2.1145 C   0  0  0  0  0  0  0  0  0  0  0  0
   -2.6724    3.9052    1.7265 H   0  0  0  0  0  0  0  0  0  0  0  0
   -0.5220    2.4922    1.5290 H   0  0  0  0  0  0  0  0  0  0  0  0
   -3.2400    1.0636    1.7358 H   0  0  0  0  0  0  0  0  0  0  0  0
   -1.6970    0.4046    2.2923 H   0  0  0  0  0  0  0  0  0  0  0  0
   -2.3854    1.8384    3.0772 H   0  0  0  0  0  0  0  0  0  0  0  0
   -0.3283    0.6116   -0.2182 N   0  0  0  0  0  0  0  0  0  0  0  0
    0.0090   -0.1762   -1.3759 C   0  0  2  0  0  0  0  0  0  0  0  0
   -0.9366    0.2224   -2.5018 C   0  0  0  0  0  0  0  0  0  0  0  0
   -1.7857    1.1034   -2.3825 O   0  0  0  0  0  0  0  0  0  0  0  0
   -0.0841   -1.6735   -1.0938 C   0  0  0  0  0  0  0  0  0  0  0  0
    1.0018   -2.1206   -0.1462 C   0  0  0  0  0  0  0  0  0  0  0  0
    2.0974   -1.5816   -0.0578 O   0  0  0  0  0  0  0  0  0  0  0  0
    0.6394   -3.2005    0.5894 O   0  0  0  0  0  0  0  0  0  0  0  0
    0.2381    0.4970    0.6194 H   0  0  0  0  0  0  0  0  0  0  0  0
    1.0314    0.1074   -1.6531 H   0  0  0  0  0  0  0  0  0  0  0  0
   -1.0396   -1.9282   -0.6183 H   0  0  0  0  0  0  0  0  0  0  0  0
   -0.0403   -2.2746   -2.0101 H   0  0  0  0  0  0  0  0  0  0  0  0
    1.3255   -3.5286    1.2093 H   0  0  0  0  0  0  0  0  0  0  0  0
   -0.6890   -0.4872   -3.6685 N   0  0  0  0  0  0  0  0  0  0  0  0
   -1.4439   -0.2795   -4.8822 C   0  0  2  0  0  0  0  0  0  0  0  0
   -1.1213    1.1145   -5.4040 C   0  0  0  0  0  0  0  0  0  0  0  0
   -0.6883    2.0151   -4.6881 O   0  0  0  0  0  0  0  0  0  0  0  0
   -2.9368   -0.4368   -4.6389 C   0  0  0  0  0  0  0  0  0  0  0  0
    0.0532   -1.1807   -3.6689 H   0  0  0  0  0  0  0  0  0  0  0  0
   -1.0975   -1.0289   -5.6023 H   0  0  0  0  0  0  0  0  0  0  0  0
   -3.3021    0.3055   -3.9200 H   0  0  0  0  0  0  0  0  0  0  0  0
   -3.5056   -0.3073   -5.5656 H   0  0  0  0  0  0  0  0  0  0  0  0
   -3.1635   -1.4297   -4.2356 H   0  0  0  0  0  0  0  0  0  0  0  0
   -1.4145    1.2472   -6.7540 N   0  0  0  0  0  0  0  0  0  0  0  0
   -1.2083    2.4791   -7.4792 C   0  0  0  0  0  0  0  0  0  0  0  0
   -1.7525    0.4423   -7.2734 H   0  0  0  0  0  0  0  0  0  0  0  0
   -2.1336    3.0737   -7.4634 H   0  0  0  0  0  0  0  0  0  0  0  0
   -0.3967    3.0514   -7.0062 H   0  0  0  0  0  0  0  0  0  0  0  0
   -0.9373    2.2504   -8.5205 H   0  0  0  0  0  0  0  0  0  0  0  0
  1  3  1  0  0  0  0
  1  7  1  0  0  0  0
  1  2  2  0  0  0  0
 31 32  1  0  0  0  0
 32 40  1  0  0  0  0
 32 33  2  0  0  0  0
  8  9  1  0  0  0  0
  9 17  1  0  0  0  0
  9 10  2  0  0  0  0
 18 19  1  0  0  0  0
 19 30  1  0  0  0  0
 19 20  2  0  0  0  0
 21 22  1  0  0  0  0
 22 23  2  0  0  0  0
 22 24  1  0  0  0  0
 31 34  1  0  0  0  0
  8 11  1  0  0  0  0
 40 41  1  0  0  0  0
 18 21  1  0  0  0  0
 30 31  1  0  0  0  0
  7  8  1  0  0  0  0
 17 18  1  0  0  0  0
  3  4  1  0  0  0  0
  3  5  1  0  0  0  0
  3  6  1  0  0  0  0
 34 37  1  0  0  0  0
 34 38  1  0  0  0  0
 34 39  1  0  0  0  0
 11 14  1  0  0  0  0
 11 15  1  0  0  0  0
 11 16  1  0  0  0  0
 41 43  1  0  0  0  0
 41 44  1  0  0  0  0
 41 45  1  0  0  0  0
 21 27  1  0  0  0  0
 21 28  1  0  0  0  0
 31 36  1  0  0  0  0
  8 13  1  0  0  0  0
 18 26  1  0  0  0  0
 40 42  1  0  0  0  0
  7 12  1  0  0  0  0
 30 35  1  0  0  0  0
 17 25  1  0  0  0  0
 24 29  1  0  0  0  0
M  END
$$$$

  -OEChem-05262214473D

 45 44  0     1  0  0  0  0  0999 V2000
   -2.2987    4.1032   -0.3022 C   0  0  0  0  0  0  0  0  0  0  0  0
   -1.8049    3.7117   -1.3532 O   0  0  0  0  0  0  0  0  0  0  0  0
   -3.0791    5.3755   -0.2846 C   0  0  0  0  0  0  0  0  0  0  0  0
   -2.4478    6.2532   -0.0717 H   0  0  0  0  0  0  0  0  0  0  0  0
   -3.5571    5.5891   -1.2541 H   0  0  0  0  0  0  0  0  0  0  0  0
   -3.8940    5.4184    0.4556 H   0  0  0  0  0  0  0  0  0  0  0  0
   -2.2137    3.4712    0.9275 N   0  0  0  0  0  0  0  0  0  0  0  0
   -1.5102    2.2327    1.1338 C   0  0  2  0  0  0  0  0  0  0  0  0
   -1.3539    1.5497   -0.2184 C   0  0  0  0  0  0  0  0  0  0  0  0
   -2.0852    1.7861   -1.1778 O   0  0  0  0  0  0  0  0  0  0  0  0
   -2.2477    1.3342    2.1145 C   0  0  0  0  0  0  0  0  0  0  0  0
   -2.6724    3.9052    1.7265 H   0  0  0  0  0  0  0  0  0  0  0  0
   -0.5220    2.4922    1.5290 H   0  0  0  0  0  0  0  0  0  0  0  0
   -3.2400    1.0636    1.7358 H   0  0  0  0  0  0  0  0  0  0  0  0
   -1.6970    0.4046    2.2923 H   0  0  0  0  0  0  0  0  0  0  0  0
   -2.3854    1.8384    3.0772 H   0  0  0  0  0  0  0  0  0  0  0  0
   -0.3283    0.6116   -0.2182 N   0  0  0  0  0  0  0  0  0  0  0  0
    0.0090   -0.1762   -1.3759 C   0  0  2  0  0  0  0  0  0  0  0  0
   -0.9366    0.2224   -2.5018 C   0  0  0  0  0  0  0  0  0  0  0  0
   -1.5943    1.2609   -2.4875 O   0  0  0  0  0  0  0  0  0  0  0  0
   -0.0841   -1.6735   -1.0938 C   0  0  0  0  0  0  0  0  0  0  0  0
    1.0018   -2.1206   -0.1462 C   0  0  0  0  0  0  0  0  0  0  0  0
    2.0974   -1.5816   -0.0578 O   0  0  0  0  0  0  0  0  0  0  0  0
    0.6394   -3.2005    0.5894 O   0  0  0  0  0  0  0  0  0  0  0  0
    0.2381    0.4970    0.6194 H   0  0  0  0  0  0  0  0  0  0  0  0
    1.0314    0.1074   -1.6531 H   0  0  0  0  0  0  0  0  0  0  0  0
   -1.0396   -1.9282   -0.6183 H   0  0  0  0  0  0  0  0  0  0  0  0
   -0.0403   -2.2746   -2.0101 H   0  0  0  0  0  0  0  0  0  0  0  0
    1.3255   -3.5286    1.2093 H   0  0  0  0  0  0  0  0  0  0  0  0
   -0.9232   -0.6932   -3.5447 N   0  0  0  0  0  0  0  0  0  0  0  0
   -1.7249   -0.5304   -4.7350 C   0  0  2  0  0  0  0  0  0  0  0  0
   -1.1937    0.6754   -5.4987 C   0  0  0  0  0  0  0  0  0  0  0  0
   -0.5427    1.5725   -4.9671 O   0  0  0  0  0  0  0  0  0  0  0  0
   -3.1955   -0.3515   -4.3914 C   0  0  0  0  0  0  0  0  0  0  0  0
   -0.3254   -1.5108   -3.4678 H   0  0  0  0  0  0  0  0  0  0  0  0
   -1.5850   -1.4351   -5.3367 H   0  0  0  0  0  0  0  0  0  0  0  0
   -3.3554    0.5500   -3.7887 H   0  0  0  0  0  0  0  0  0  0  0  0
   -3.8056   -0.2568   -5.2958 H   0  0  0  0  0  0  0  0  0  0  0  0
   -3.5682   -1.2060   -3.8165 H   0  0  0  0  0  0  0  0  0  0  0  0
   -1.5687    0.6536   -6.8347 N   0  0  0  0  0  0  0  0  0  0  0  0
   -1.1984    1.6941   -7.7655 C   0  0  0  0  0  0  0  0  0  0  0  0
   -2.0924   -0.1391   -7.1939 H   0  0  0  0  0  0  0  0  0  0  0  0
   -1.9925    2.4544   -7.8012 H   0  0  0  0  0  0  0  0  0  0  0  0
   -0.2580    2.1614   -7.4378 H   0  0  0  0  0  0  0  0  0  0  0  0
   -1.0623    1.2590   -8.7665 H   0  0  0  0  0  0  0  0  0  0  0  0
  1  3  1  0  0  0  0
  1  7  1  0  0  0  0
  1  2  2  0  0  0  0
 31 32  1  0  0  0  0
 32 40  1  0  0  0  0
 32 33  2  0  0  0  0
  8  9  1  0  0  0  0
  9 17  1  0  0  0  0
  9 10  2  0  0  0  0
 18 19  1  0  0  0  0
 19 30  1  0  0  0  0
 19 20  2  0  0  0  0
 21 22  1  0  0  0  0
 22 23  2  0  0  0  0
 22 24  1  0  0  0  0
 31 34  1  0  0  0  0
  8 11  1  0  0  0  0
 40 41  1  0  0  0  0
 18 21  1  0  0  0  0
 30 31  1  0  0  0  0
  7  8  1  0  0  0  0
 17 18  1  0  0  0  0
  3  4  1  0  0  0  0
  3  5  1  0  0  0  0
  3  6  1  0  0  0  0
 34 37  1  0  0  0  0
 34 38  1  0  0  0  0
 34 39  1  0  0  0  0
 11 14  1  0  0  0  0
 11 15  1  0  0  0  0
 11 16  1  0  0  0  0
 41 43  1  0  0  0  0
 41 44  1  0  0  0  0
 41 45  1  0  0  0  0
 21 27  1  0  0  0  0
 21 28  1  0  0  0  0
 31 36  1  0  0  0  0
  8 13  1  0  0  0  0
 18 26  1  0  0  0  0
 40 42  1  0  0  0  0
  7 12  1  0  0  0  0
 30 35  1  0  0  0  0
 17 25  1  0  0  0  0
 24 29  1  0  0  0  0
M  END
$$$$

  -OEChem-05262214473D

 45 44  0     1  0  0  0  0  0999 V2000
   -2.2987    4.1032   -0.3022 C   0  0  0  0  0  0  0  0  0  0  0  0
   -1.8049    3.7117   -1.3532 O   0  0  0  0  0  0  0  0  0  0  0  0
   -3.0791    5.3755   -0.2846 C   0  0  0  0  0  0  0  0  0  0  0  0
   -2.4478    6.2532   -0.0717 H   0  0  0  0  0  0  0  0  0  0  0  0
   -3.5571    5.5891   -1.2541 H   0  0  0  0  0  0  0  0  0  0  0  0
   -3.8940    5.4184    0.4556 H   0  0  0  0  0  0  0  0  0  0  0  0
   -2.2137    3.4712    0.9275 N   0  0  0  0  0  0  0  0  0  0  0  0
   -1.5102    2.2327    1.1338 C   0  0  2  0  0  0  0  0  0  0  0  0
   -1.3539    1.5497   -0.2184 C   0  0  0  0  0  0  0  0  0  0  0  0
   -2.0852    1.7861   -1.1778 O   0  0  0  0  0  0  0  0  0  0  0  0
   -2.2477    1.3342    2.1145 C   0  0  0  0  0  0  0  0  0  0  0  0
   -2.6724    3.9052    1.7265 H   0  0  0  0  0  0  0  0  0  0  0  0
   -0.5220    2.4922    1.5290 H   0  0  0  0  0  0  0  0  0  0  0  0
   -3.2400    1.0636    1.7358 H   0  0  0  0  0  0  0  0  0  0  0  0
   -1.6970    0.4046    2.2923 H   0  0  0  0  0  0  0  0  0  0  0  0
   -2.3854    1.8384    3.0772 H   0  0  0  0  0  0  0  0  0  0  0  0
   -0.3283    0.6116   -0.2182 N   0  0  0  0  0  0  0  0  0  0  0  0
    0.0090   -0.1762   -1.3759 C   0  0  2  0  0  0  0  0  0  0  0  0
   -0.9366    0.2224   -2.5018 C   0  0  0  0  0  0  0  0  0  0  0  0
   -1.3864    1.3596   -2.6271 O   0  0  0  0  0  0  0  0  0  0  0  0
   -0.0841   -1.6735   -1.0938 C   0  0  0  0  0  0  0  0  0  0  0  0
    1.0018   -2.1206   -0.1462 C   0  0  0  0  0  0  0  0  0  0  0  0
    2.0974   -1.5816   -0.0578 O   0  0  0  0  0  0  0  0  0  0  0  0
    0.6394   -3.2005    0.5894 O   0  0  0  0  0  0  0  0  0  0  0  0
    0.2381    0.4970    0.6194 H   0  0  0  0  0  0  0  0  0  0  0  0
    1.0314    0.1074   -1.6531 H   0  0  0  0  0  0  0  0  0  0  0  0
   -1.0396   -1.9282   -0.6183 H   0  0  0  0  0  0  0  0  0  0  0  0
   -0.0403   -2.2746   -2.0101 H   0  0  0  0  0  0  0  0  0  0  0  0
    1.3255   -3.5286    1.2093 H   0  0  0  0  0  0  0  0  0  0  0  0
   -1.1805   -0.8274   -3.3762 N   0  0  0  0  0  0  0  0  0  0  0  0
   -2.0344   -0.6954   -4.5335 C   0  0  2  0  0  0  0  0  0  0  0  0
   -1.3540    0.2499   -5.5147 C   0  0  0  0  0  0  0  0  0  0  0  0
   -0.5057    1.0723   -5.1752 O   0  0  0  0  0  0  0  0  0  0  0  0
   -3.4123   -0.1797   -4.1485 C   0  0  0  0  0  0  0  0  0  0  0  0
   -0.7407   -1.7249   -3.1948 H   0  0  0  0  0  0  0  0  0  0  0  0
   -2.1157   -1.6916   -4.9818 H   0  0  0  0  0  0  0  0  0  0  0  0
   -3.3511    0.8174   -3.6976 H   0  0  0  0  0  0  0  0  0  0  0  0
   -4.0675   -0.1074   -5.0230 H   0  0  0  0  0  0  0  0  0  0  0  0
   -3.8881   -0.8453   -3.4201 H   0  0  0  0  0  0  0  0  0  0  0  0
   -1.8365    0.0968   -6.8069 N   0  0  0  0  0  0  0  0  0  0  0  0
   -1.3584    0.8880   -7.9166 C   0  0  0  0  0  0  0  0  0  0  0  0
   -2.5265   -0.6230   -7.0006 H   0  0  0  0  0  0  0  0  0  0  0  0
   -1.9976    1.7750   -8.0375 H   0  0  0  0  0  0  0  0  0  0  0  0
   -0.3236    1.2058   -7.7211 H   0  0  0  0  0  0  0  0  0  0  0  0
   -1.3894    0.2857   -8.8365 H   0  0  0  0  0  0  0  0  0  0  0  0
  1  3  1  0  0  0  0
  1  7  1  0  0  0  0
  1  2  2  0  0  0  0
 31 32  1  0  0  0  0
 32 40  1  0  0  0  0
 32 33  2  0  0  0  0
  8  9  1  0  0  0  0
  9 17  1  0  0  0  0
  9 10  2  0  0  0  0
 18 19  1  0  0  0  0
 19 30  1  0  0  0  0
 19 20  2  0  0  0  0
 21 22  1  0  0  0  0
 22 23  2  0  0  0  0
 22 24  1  0  0  0  0
 31 34  1  0  0  0  0
  8 11  1  0  0  0  0
 40 41  1  0  0  0  0
 18 21  1  0  0  0  0
 30 31  1  0  0  0  0
  7  8  1  0  0  0  0
 17 18  1  0  0  0  0
  3  4  1  0  0  0  0
  3  5  1  0  0  0  0
  3  6  1  0  0  0  0
 34 37  1  0  0  0  0
 34 38  1  0  0  0  0
 34 39  1  0  0  0  0
 11 14  1  0  0  0  0
 11 15  1  0  0  0  0
 11 16  1  0  0  0  0
 41 43  1  0  0  0  0
 41 44  1  0  0  0  0
 41 45  1  0  0  0  0
 21 27  1  0  0  0  0
 21 28  1  0  0  0  0
 31 36  1  0  0  0  0
  8 13  1  0  0  0  0
 18 26  1  0  0  0  0
 40 42  1  0  0  0  0
  7 12  1  0  0  0  0
 30 35  1  0  0  0  0
 17 25  1  0  0  0  0
 24 29  1  0  0  0  0
M  END
$$$$

  -OEChem-05262214473D

 45 44  0     1  0  0  0  0  0999 V2000
   -2.2987    4.1032   -0.3022 C   0  0  0  0  0  0  0  0  0  0  0  0
   -1.8049    3.7117   -1.3532 O   0  0  0  0  0  0  0  0  0  0  0  0
   -3.0791    5.3755   -0.2846 C   0  0  0  0  0  0  0  0  0  0  0  0
   -2.4478    6.2532   -0.0717 H   0  0  0  0  0  0  0  0  0  0  0  0
   -3.5571    5.5891   -1.2541 H   0  0  0  0  0  0  0  0  0  0  0  0
   -3.8940    5.4184    0.4556 H   0  0  0  0  0  0  0  0  0  0  0  0
   -2.2137    3.4712    0.9275 N   0  0  0  0  0  0  0  0  0  0  0  0
   -1.5102    2.2327    1.1338 C   0  0  2  0  0  0  0  0  0  0  0  0
   -1.3539    1.5497   -0.2184 C   0  0  0  0  0  0  0  0  0  0  0  0
   -2.0852    1.7861   -1.1778 O   0  0  0  0  0  0  0  0  0  0  0  0
   -2.2477    1.3342    2.1145 C   0  0  0  0  0  0  0  0  0  0  0  0
   -2.6724    3.9052    1.7265 H   0  0  0  0  0  0  0  0  0  0  0  0
   -0.5220    2.4922    1.5290 H   0  0  0  0  0  0  0  0  0  0  0  0
   -3.2400    1.0636    1.7358 H   0  0  0  0  0  0  0  0  0  0  0  0
   -1.6970    0.4046    2.2923 H   0  0  0  0  0  0  0  0  0  0  0  0
   -2.3854    1.8384    3.0772 H   0  0  0  0  0  0  0  0  0  0  0  0
   -0.3283    0.6116   -0.2182 N   0  0  0  0  0  0  0  0  0  0  0  0
    0.0090   -0.1762   -1.3759 C   0  0  2  0  0  0  0  0  0  0  0  0
   -0.9366    0.2224   -2.5018 C   0  0  0  0  0  0  0  0  0  0  0  0
   -1.1762    1.3928   -2.7919 O   0  0  0  0  0  0  0  0  0  0  0  0
   -0.0841   -1.6735   -1.0938 C   0  0  0  0  0  0  0  0  0  0  0  0
    1.0018   -2.1206   -0.1462 C   0  0  0  0  0  0  0  0  0  0  0  0
    2.0974   -1.5816   -0.0578 O   0  0  0  0  0  0  0  0  0  0  0  0
    0.6394   -3.2005    0.5894 O   0  0  0  0  0  0  0  0  0  0  0  0
    0.2381    0.4970    0.6194 H   0  0  0  0  0  0  0  0  0  0  0  0
    1.0314    0.1074   -1.6531 H   0  0  0  0  0  0  0  0  0  0  0  0
   -1.0396   -1.9282   -0.6183 H   0  0  0  0  0  0  0  0  0  0  0  0
   -0.0403   -2.2746   -2.0101 H   0  0  0  0  0  0  0  0  0  0  0  0
    1.3255   -3.5286    1.2093 H   0  0  0  0  0  0  0  0  0  0  0  0
   -1.4433   -0.8808   -3.1744 N   0  0  0  0  0  0  0  0  0  0  0  0
   -2.3513   -0.7632   -4.2914 C   0  0  2  0  0  0  0  0  0  0  0  0
   -1.5913   -0.1330   -5.4510 C   0  0  0  0  0  0  0  0  0  0  0  0
   -0.5798    0.5487   -5.2985 O   0  0  0  0  0  0  0  0  0  0  0  0
   -3.5725    0.0666   -3.9268 C   0  0  0  0  0  0  0  0  0  0  0  0
   -1.1643   -1.8084   -2.8687 H   0  0  0  0  0  0  0  0  0  0  0  0
   -2.6533   -1.7809   -4.5620 H   0  0  0  0  0  0  0  0  0  0  0  0
   -3.2897    1.0896   -3.6528 H   0  0  0  0  0  0  0  0  0  0  0  0
   -4.2733    0.1309   -4.7657 H   0  0  0  0  0  0  0  0  0  0  0  0
   -4.1011   -0.3719   -3.0736 H   0  0  0  0  0  0  0  0  0  0  0  0
   -2.1999   -0.3853   -6.6725 N   0  0  0  0  0  0  0  0  0  0  0  0
   -1.6773    0.1157   -7.9222 C   0  0  0  0  0  0  0  0  0  0  0  0
   -3.0253   -0.9763   -6.7068 H   0  0  0  0  0  0  0  0  0  0  0  0
   -2.1484    1.0818   -8.1563 H   0  0  0  0  0  0  0  0  0  0  0  0
   -0.5889    0.2499   -7.8368 H   0  0  0  0  0  0  0  0  0  0  0  0
   -1.8962   -0.6031   -8.7255 H   0  0  0  0  0  0  0  0  0  0  0  0
  1  3  1  0  0  0  0
  1  7  1  0  0  0  0
  1  2  2  0  0  0  0
 31 32  1  0  0  0  0
 32 40  1  0  0  0  0
 32 33  2  0  0  0  0
  8  9  1  0  0  0  0
  9 17  1  0  0  0  0
  9 10  2  0  0  0  0
 18 19  1  0  0  0  0
 19 30  1  0  0  0  0
 19 20  2  0  0  0  0
 21 22  1  0  0  0  0
 22 23  2  0  0  0  0
 22 24  1  0  0  0  0
 31 34  1  0  0  0  0
  8 11  1  0  0  0  0
 40 41  1  0  0  0  0
 18 21  1  0  0  0  0
 30 31  1  0  0  0  0
  7  8  1  0  0  0  0
 17 18  1  0  0  0  0
  3  4  1  0  0  0  0
  3  5  1  0  0  0  0
  3  6  1  0  0  0  0
 34 37  1  0  0  0  0
 34 38  1  0  0  0  0
 34 39  1  0  0  0  0
 11 14  1  0  0  0  0
 11 15  1  0  0  0  0
 11 16  1  0  0  0  0
 41 43  1  0  0  0  0
 41 44  1  0  0  0  0
 41 45  1  0  0  0  0
 21 27  1  0  0  0  0
 21 28  1  0  0  0  0
 31 36  1  0  0  0  0
  8 13  1  0  0  0  0
 18 26  1  0  0  0  0
 40 42  1  0  0  0  0
  7 12  1  0  0  0  0
 30 35  1  0  0  0  0
 17 25  1  0  0  0  0
 24 29  1  0  0  0  0
M  END
$$$$

  -OEChem-05262214473D

 45 44  0     1  0  0  0  0  0999 V2000
   -2.2987    4.1032   -0.3022 C   0  0  0  0  0  0  0  0  0  0  0  0
   -1.8049    3.7117   -1.3532 O   0  0  0  0  0  0  0  0  0  0  0  0
   -3.0791    5.3755   -0.2846 C   0  0  0  0  0  0  0  0  0  0  0  0
   -2.4478    6.2532   -0.0717 H   0  0  0  0  0  0  0  0  0  0  0  0
   -3.5571    5.5891   -1.2541 H   0  0  0  0  0  0  0  0  0  0  0  0
   -3.8940    5.4184    0.4556 H   0  0  0  0  0  0  0  0  0  0  0  0
   -2.2137    3.4712    0.9275 N   0  0  0  0  0  0  0  0  0  0  0  0
   -1.5102    2.2327    1.1338 C   0  0  2  0  0  0  0  0  0  0  0  0
   -1.3539    1.5497   -0.2184 C   0  0  0  0  0  0  0  0  0  0  0  0
   -2.0852    1.7861   -1.1778 O   0  0  0  0  0  0  0  0  0  0  0  0
   -2.2477    1.3342    2.1145 C   0  0  0  0  0  0  0  0  0  0  0  0
   -2.6724    3.9052    1.7265 H   0  0  0  0  0  0  0  0  0  0  0  0
   -0.5220    2.4922    1.5290 H   0  0  0  0  0  0  0  0  0  0  0  0
   -3.2400    1.0636    1.7358 H   0  0  0  0  0  0  0  0  0  0  0  0
   -1.6970    0.4046    2.2923 H   0  0  0  0  0  0  0  0  0  0  0  0
   -2.3854    1.8384    3.0772 H   0  0  0  0  0  0  0  0  0  0  0  0
   -0.3283    0.6116   -0.2182 N   0  0  0  0  0  0  0  0  0  0  0  0
    0.0090   -0.1762   -1.3759 C   0  0  2  0  0  0  0  0  0  0  0  0
   -0.9366    0.2224   -2.5018 C   0  0  0  0  0  0  0  0  0  0  0  0
   -0.9780    1.3581   -2.9707 O   0  0  0  0  0  0  0  0  0  0  0  0
   -0.0841   -1.6735   -1.0938 C   0  0  0  0  0  0  0  0  0  0  0  0
    1.0018   -2.1206   -0.1462 C   0  0  0  0  0  0  0  0  0  0  0  0
    2.0974   -1.5816   -0.0578 O   0  0  0  0  0  0  0  0  0  0  0  0
    0.6394   -3.2005    0.5894 O   0  0  0  0  0  0  0  0  0  0  0  0
    0.2381    0.4970    0.6194 H   0  0  0  0  0  0  0  0  0  0  0  0
    1.0314    0.1074   -1.6531 H   0  0  0  0  0  0  0  0  0  0  0  0
   -1.0396   -1.9282   -0.6183 H   0  0  0  0  0  0  0  0  0  0  0  0
   -0.0403   -2.2746   -2.0101 H   0  0  0  0  0  0  0  0  0  0  0  0
    1.3255   -3.5286    1.2093 H   0  0  0  0  0  0  0  0  0  0  0  0
   -1.6937   -0.8496   -2.9531 N   0  0  0  0  0  0  0  0  0  0  0  0
   -2.6540   -0.7292   -4.0251 C   0  0  2  0  0  0  0  0  0  0  0  0
   -1.8895   -0.4471   -5.3118 C   0  0  0  0  0  0  0  0  0  0  0  0
   -0.7598    0.0372   -5.3284 O   0  0  0  0  0  0  0  0  0  0  0  0
   -3.6650    0.3708   -3.7414 C   0  0  0  0  0  0  0  0  0  0  0  0
   -1.5673   -1.7556   -2.5115 H   0  0  0  0  0  0  0  0  0  0  0  0
   -3.1612   -1.6968   -4.1056 H   0  0  0  0  0  0  0  0  0  0  0  0
   -3.1753    1.3479   -3.6574 H   0  0  0  0  0  0  0  0  0  0  0  0
   -4.4092    0.4418   -4.5415 H   0  0  0  0  0  0  0  0  0  0  0  0
   -4.1929    0.1817   -2.8005 H   0  0  0  0  0  0  0  0  0  0  0  0
   -2.6340   -0.7599   -6.4405 N   0  0  0  0  0  0  0  0  0  0  0  0
   -2.1335   -0.5701   -7.7819 C   0  0  0  0  0  0  0  0  0  0  0  0
   -3.5548   -1.1750   -6.3325 H   0  0  0  0  0  0  0  0  0  0  0  0
   -2.4348    0.4219   -8.1494 H   0  0  0  0  0  0  0  0  0  0  0  0
   -1.0358   -0.6413   -7.7770 H   0  0  0  0  0  0  0  0  0  0  0  0
   -2.5483   -1.3468   -8.4412 H   0  0  0  0  0  0  0  0  0  0  0  0
  1  3  1  0  0  0  0
  1  7  1  0  0  0  0
  1  2  2  0  0  0  0
 31 32  1  0  0  0  0
 32 40  1  0  0  0  0
 32 33  2  0  0  0  0
  8  9  1  0  0  0  0
  9 17  1  0  0  0  0
  9 10  2  0  0  0  0
 18 19  1  0  0  0  0
 19 30  1  0  0  0  0
 19 20  2  0  0  0  0
 21 22  1  0  0  0  0
 22 23  2  0  0  0  0
 22 24  1  0  0  0  0
 31 34  1  0  0  0  0
  8 11  1  0  0  0  0
 40 41  1  0  0  0  0
 18 21  1  0  0  0  0
 30 31  1  0  0  0  0
  7  8  1  0  0  0  0
 17 18  1  0  0  0  0
  3  4  1  0  0  0  0
  3  5  1  0  0  0  0
  3  6  1  0  0  0  0
 34 37  1  0  0  0  0
 34 38  1  0  0  0  0
 34 39  1  0  0  0  0
 11 14  1  0  0  0  0
 11 15  1  0  0  0  0
 11 16  1  0  0  0  0
 41 43  1  0  0  0  0
 41 44  1  0  0  0  0
 41 45  1  0  0  0  0
 21 27  1  0  0  0  0
 21 28  1  0  0  0  0
 31 36  1  0  0  0  0
  8 13  1  0  0  0  0
 18 26  1  0  0  0  0
 40 42  1  0  0  0  0
  7 12  1  0  0  0  0
 30 35  1  0  0  0  0
 17 25  1  0  0  0  0
 24 29  1  0  0  0  0
M  END
$$$$

  -OEChem-05262214473D

 45 44  0     1  0  0  0  0  0999 V2000
   -2.2987    4.1032   -0.3022 C   0  0  0  0  0  0  0  0  0  0  0  0
   -1.8049    3.7117   -1.3532 O   0  0  0  0  0  0  0  0  0  0  0  0
   -3.0791    5.3755   -0.2846 C   0  0  0  0  0  0  0  0  0  0  0  0
   -2.4478    6.2532   -0.0717 H   0  0  0  0  0  0  0  0  0  0  0  0
   -3.5571    5.5891   -1.2541 H   0  0  0  0  0  0  0  0  0  0  0  0
   -3.8940    5.4184    0.4556 H   0  0  0  0  0  0  0  0  0  0  0  0
   -2.2137    3.4712    0.9275 N   0  0  0  0  0  0  0  0  0  0  0  0
   -1.5102    2.2327    1.1338 C   0  0  2  0  0  0  0  0  0  0  0  0
   -1.3539    1.5497   -0.2184 C   0  0  0  0  0  0  0  0  0  0  0  0
   -2.0852    1.7861   -1.1778 O   0  0  0  0  0  0  0  0  0  0  0  0
   -2.2477    1.3342    2.1145 C   0  0  0  0  0  0  0  0  0  0  0  0
   -2.6724    3.9052    1.7265 H   0  0  0  0  0  0  0  0  0  0  0  0
   -0.5220    2.4922    1.5290 H   0  0  0  0  0  0  0  0  0  0  0  0
   -3.2400    1.0636    1.7358 H   0  0  0  0  0  0  0  0  0  0  0  0
   -1.6970    0.4046    2.2923 H   0  0  0  0  0  0  0  0  0  0  0  0
   -2.3854    1.8384    3.0772 H   0  0  0  0  0  0  0  0  0  0  0  0
   -0.3283    0.6116   -0.2182 N   0  0  0  0  0  0  0  0  0  0  0  0
    0.0090   -0.1762   -1.3759 C   0  0  2  0  0  0  0  0  0  0  0  0
   -0.9366    0.2224   -2.5018 C   0  0  0  0  0  0  0  0  0  0  0  0
   -0.8052    1.2580   -3.1512 O   0  0  0  0  0  0  0  0  0  0  0  0
   -0.0841   -1.6735   -1.0938 C   0  0  0  0  0  0  0  0  0  0  0  0
    1.0018   -2.1206   -0.1462 C   0  0  0  0  0  0  0  0  0  0  0  0
    2.0974   -1.5816   -0.0578 O   0  0  0  0  0  0  0  0  0  0  0  0
    0.6394   -3.2005    0.5894 O   0  0  0  0  0  0  0  0  0  0  0  0
    0.2381    0.4970    0.6194 H   0  0  0  0  0  0  0  0  0  0  0  0
    1.0314    0.1074   -1.6531 H   0  0  0  0  0  0  0  0  0  0  0  0
   -1.0396   -1.9282   -0.6183 H   0  0  0  0  0  0  0  0  0  0  0  0
   -0.0403   -2.2746   -2.0101 H   0  0  0  0  0  0  0  0  0  0  0  0
    1.3255   -3.5286    1.2093 H   0  0  0  0  0  0  0  0  0  0  0  0
   -1.9146   -0.7361   -2.7274 N   0  0  0  0  0  0  0  0  0  0  0  0
   -2.9217   -0.5956   -3.7530 C   0  0  2  0  0  0  0  0  0  0  0  0
   -2.2281   -0.6712   -5.1067 C   0  0  0  0  0  0  0  0  0  0  0  0
   -1.0335   -0.4271   -5.2629 O   0  0  0  0  0  0  0  0  0  0  0  0
   -3.6836    0.7122   -3.6049 C   0  0  0  0  0  0  0  0  0  0  0  0
   -1.9224   -1.5702   -2.1477 H   0  0  0  0  0  0  0  0  0  0  0  0
   -3.6048   -1.4451   -3.6440 H   0  0  0  0  0  0  0  0  0  0  0  0
   -3.0157    1.5748   -3.7111 H   0  0  0  0  0  0  0  0  0  0  0  0
   -4.4657    0.8041   -4.3657 H   0  0  0  0  0  0  0  0  0  0  0  0
   -4.1572    0.7779   -2.6194 H   0  0  0  0  0  0  0  0  0  0  0  0
   -3.1093   -1.0014   -6.1269 N   0  0  0  0  0  0  0  0  0  0  0  0
   -2.6958   -1.1229   -7.5054 C   0  0  0  0  0  0  0  0  0  0  0  0
   -4.0789   -1.2055   -5.9032 H   0  0  0  0  0  0  0  0  0  0  0  0
   -2.8372   -0.1596   -8.0174 H   0  0  0  0  0  0  0  0  0  0  0  0
   -1.6339   -1.4071   -7.5458 H   0  0  0  0  0  0  0  0  0  0  0  0
   -3.3012   -1.8948   -8.0030 H   0  0  0  0  0  0  0  0  0  0  0  0
  1  3  1  0  0  0  0
  1  7  1  0  0  0  0
  1  2  2  0  0  0  0
 31 32  1  0  0  0  0
 32 40  1  0  0  0  0
 32 33  2  0  0  0  0
  8  9  1  0  0  0  0
  9 17  1  0  0  0  0
  9 10  2  0  0  0  0
 18 19  1  0  0  0  0
 19 30  1  0  0  0  0
 19 20  2  0  0  0  0
 21 22  1  0  0  0  0
 22 23  2  0  0  0  0
 22 24  1  0  0  0  0
 31 34  1  0  0  0  0
  8 11  1  0  0  0  0
 40 41  1  0  0  0  0
 18 21  1  0  0  0  0
 30 31  1  0  0  0  0
  7  8  1  0  0  0  0
 17 18  1  0  0  0  0
  3  4  1  0  0  0  0
  3  5  1  0  0  0  0
  3  6  1  0  0  0  0
 34 37  1  0  0  0  0
 34 38  1  0  0  0  0
 34 39  1  0  0  0  0
 11 14  1  0  0  0  0
 11 15  1  0  0  0  0
 11 16  1  0  0  0  0
 41 43  1  0  0  0  0
 41 44  1  0  0  0  0
 41 45  1  0  0  0  0
 21 27  1  0  0  0  0
 21 28  1  0  0  0  0
 31 36  1  0  0  0  0
  8 13  1  0  0  0  0
 18 26  1  0  0  0  0
 40 42  1  0  0  0  0
  7 12  1  0  0  0  0
 30 35  1  0  0  0  0
 17 25  1  0  0  0  0
 24 29  1  0  0  0  0
M  END
$$$$

  -OEChem-05262214473D

 45 44  0     1  0  0  0  0  0999 V2000
   -2.2987    4.1032   -0.3022 C   0  0  0  0  0  0  0  0  0  0  0  0
   -1.8049    3.7117   -1.3532 O   0  0  0  0  0  0  0  0  0  0  0  0
   -3.0791    5.3755   -0.2846 C   0  0  0  0  0  0  0  0  0  0  0  0
   -2.4478    6.2532   -0.0717 H   0  0  0  0  0  0  0  0  0  0  0  0
   -3.5571    5.5891   -1.2541 H   0  0  0  0  0  0  0  0  0  0  0  0
   -3.8940    5.4184    0.4556 H   0  0  0  0  0  0  0  0  0  0  0  0
   -2.2137    3.4712    0.9275 N   0  0  0  0  0  0  0  0  0  0  0  0
   -1.5102    2.2327    1.1338 C   0  0  2  0  0  0  0  0  0  0  0  0
   -1.3539    1.5497   -0.2184 C   0  0  0  0  0  0  0  0  0  0  0  0
   -2.0852    1.7861   -1.1778 O   0  0  0  0  0  0  0  0  0  0  0  0
   -2.2477    1.3342    2.1145 C   0  0  0  0  0  0  0  0  0  0  0  0
   -2.6724    3.9052    1.7265 H   0  0  0  0  0  0  0  0  0  0  0  0
   -0.5220    2.4922    1.5290 H   0  0  0  0  0  0  0  0  0  0  0  0
   -3.2400    1.0636    1.7358 H   0  0  0  0  0  0  0  0  0  0  0  0
   -1.6970    0.4046    2.2923 H   0  0  0  0  0  0  0  0  0  0  0  0
   -2.3854    1.8384    3.0772 H   0  0  0  0  0  0  0  0  0  0  0  0
   -0.3283    0.6116   -0.2182 N   0  0  0  0  0  0  0  0  0  0  0  0
    0.0090   -0.1762   -1.3759 C   0  0  2  0  0  0  0  0  0  0  0  0
   -0.9366    0.2224   -2.5018 C   0  0  0  0  0  0  0  0  0  0  0  0
   -0.6698    1.0992   -3.3212 O   0  0  0  0  0  0  0  0  0  0  0  0
   -0.0841   -1.6735   -1.0938 C   0  0  0  0  0  0  0  0  0  0  0  0
    1.0018   -2.1206   -0.1462 C   0  0  0  0  0  0  0  0  0  0  0  0
    2.0974   -1.5816   -0.0578 O   0  0  0  0  0  0  0  0  0  0  0  0
    0.6394   -3.2005    0.5894 O   0  0  0  0  0  0  0  0  0  0  0  0
    0.2381    0.4970    0.6194 H   0  0  0  0  0  0  0  0  0  0  0  0
    1.0314    0.1074   -1.6531 H   0  0  0  0  0  0  0  0  0  0  0  0
   -1.0396   -1.9282   -0.6183 H   0  0  0  0  0  0  0  0  0  0  0  0
   -0.0403   -2.2746   -2.0101 H   0  0  0  0  0  0  0  0  0  0  0  0
    1.3255   -3.5286    1.2093 H   0  0  0  0  0  0  0  0  0  0  0  0
   -2.0910   -0.5479   -2.5126 N   0  0  0  0  0  0  0  0  0  0  0  0
   -3.1364   -0.3717   -3.4934 C   0  0  2  0  0  0  0  0  0  0  0  0
   -2.5843   -0.7900   -4.8497 C   0  0  0  0  0  0  0  0  0  0  0  0
   -1.3823   -0.8128   -5.1066 O   0  0  0  0  0  0  0  0  0  0  0  0
   -3.6271    1.0674   -3.5266 C   0  0  0  0  0  0  0  0  0  0  0  0
   -2.2052   -1.2647   -1.8020 H   0  0  0  0  0  0  0  0  0  0  0  0
   -3.9539   -1.0430   -3.2084 H   0  0  0  0  0  0  0  0  0  0  0  0
   -2.8218    1.7548   -3.8103 H   0  0  0  0  0  0  0  0  0  0  0  0
   -4.4391    1.1931   -4.2503 H   0  0  0  0  0  0  0  0  0  0  0  0
   -3.9963    1.3761   -2.5427 H   0  0  0  0  0  0  0  0  0  0  0  0
   -3.5933   -1.0934   -5.7530 N   0  0  0  0  0  0  0  0  0  0  0  0
   -3.3260   -1.5047   -7.1114 C   0  0  0  0  0  0  0  0  0  0  0  0
   -4.5618   -1.0657   -5.4480 H   0  0  0  0  0  0  0  0  0  0  0  0
   -3.3282   -0.6231   -7.7692 H   0  0  0  0  0  0  0  0  0  0  0  0
   -2.3425   -1.9952   -7.1590 H   0  0  0  0  0  0  0  0  0  0  0  0
   -4.1036   -2.2097   -7.4406 H   0  0  0  0  0  0  0  0  0  0  0  0
  1  3  1  0  0  0  0
  1  7  1  0  0  0  0
  1  2  2  0  0  0  0
 31 32  1  0  0  0  0
 32 40  1  0  0  0  0
 32 33  2  0  0  0  0
  8  9  1  0  0  0  0
  9 17  1  0  0  0  0
  9 10  2  0  0  0  0
 18 19  1  0  0  0  0
 19 30  1  0  0  0  0
 19 20  2  0  0  0  0
 21 22  1  0  0  0  0
 22 23  2  0  0  0  0
 22 24  1  0  0  0  0
 31 34  1  0  0  0  0
  8 11  1  0  0  0  0
 40 41  1  0  0  0  0
 18 21  1  0  0  0  0
 30 31  1  0  0  0  0
  7  8  1  0  0  0  0
 17 18  1  0  0  0  0
  3  4  1  0  0  0  0
  3  5  1  0  0  0  0
  3  6  1  0  0  0  0
 34 37  1  0  0  0  0
 34 38  1  0  0  0  0
 34 39  1  0  0  0  0
 11 14  1  0  0  0  0
 11 15  1  0  0  0  0
 11 16  1  0  0  0  0
 41 43  1  0  0  0  0
 41 44  1  0  0  0  0
 41 45  1  0  0  0  0
 21 27  1  0  0  0  0
 21 28  1  0  0  0  0
 31 36  1  0  0  0  0
  8 13  1  0  0  0  0
 18 26  1  0  0  0  0
 40 42  1  0  0  0  0
  7 12  1  0  0  0  0
 30 35  1  0  0  0  0
 17 25  1  0  0  0  0
 24 29  1  0  0  0  0
M  END
$$$$

  -OEChem-05262214473D

 45 44  0     1  0  0  0  0  0999 V2000
   -2.2987    4.1032   -0.3022 C   0  0  0  0  0  0  0  0  0  0  0  0
   -1.8049    3.7117   -1.3532 O   0  0  0  0  0  0  0  0  0  0  0  0
   -3.0791    5.3755   -0.2846 C   0  0  0  0  0  0  0  0  0  0  0  0
   -2.4478    6.2532   -0.0717 H   0  0  0  0  0  0  0  0  0  0  0  0
   -3.5571    5.5891   -1.2541 H   0  0  0  0  0  0  0  0  0  0  0  0
   -3.8940    5.4184    0.4556 H   0  0  0  0  0  0  0  0  0  0  0  0
   -2.2137    3.4712    0.9275 N   0  0  0  0  0  0  0  0  0  0  0  0
   -1.5102    2.2327    1.1338 C   0  0  2  0  0  0  0  0  0  0  0  0
   -1.3539    1.5497   -0.2184 C   0  0  0  0  0  0  0  0  0  0  0  0
   -2.0852    1.7861   -1.1778 O   0  0  0  0  0  0  0  0  0  0  0  0
   -2.2477    1.3342    2.1145 C   0  0  0  0  0  0  0  0  0  0  0  0
   -2.6724    3.9052    1.7265 H   0  0  0  0  0  0  0  0  0  0  0  0
   -0.5220    2.4922    1.5290 H   0  0  0  0  0  0  0  0  0  0  0  0
   -3.2400    1.0636    1.7358 H   0  0  0  0  0  0  0  0  0  0  0  0
   -1.6970    0.4046    2.2923 H   0  0  0  0  0  0  0  0  0  0  0  0
   -2.3854    1.8384    3.0772 H   0  0  0  0  0  0  0  0  0  0  0  0
   -0.3283    0.6116   -0.2182 N   0  0  0  0  0  0  0  0  0  0  0  0
    0.0090   -0.1762   -1.3759 C   0  0  2  0  0  0  0  0  0  0  0  0
   -0.9366    0.2224   -2.5018 C   0  0  0  0  0  0  0  0  0  0  0  0
   -0.5808    0.8926   -3.4690 O   0  0  0  0  0  0  0  0  0  0  0  0
   -0.0841   -1.6735   -1.0938 C   0  0  0  0  0  0  0  0  0  0  0  0
    1.0018   -2.1206   -0.1462 C   0  0  0  0  0  0  0  0  0  0  0  0
    2.0974   -1.5816   -0.0578 O   0  0  0  0  0  0  0  0  0  0  0  0
    0.6394   -3.2005    0.5894 O   0  0  0  0  0  0  0  0  0  0  0  0
    0.2381    0.4970    0.6194 H   0  0  0  0  0  0  0  0  0  0  0  0
    1.0314    0.1074   -1.6531 H   0  0  0  0  0  0  0  0  0  0  0  0
   -1.0396   -1.9282   -0.6183 H   0  0  0  0  0  0  0  0  0  0  0  0
   -0.0403   -2.2746   -2.0101 H   0  0  0  0  0  0  0  0  0  0  0  0
    1.3255   -3.5286    1.2093 H   0  0  0  0  0  0  0  0  0  0  0  0
   -2.2108   -0.2979   -2.3235 N   0  0  0  0  0  0  0  0  0  0  0  0
   -3.2834   -0.0726   -3.2641 C   0  0  2  0  0  0  0  0  0  0  0  0
   -2.9335   -0.7953   -4.5582 C   0  0  0  0  0  0  0  0  0  0  0  0
   -1.7825   -1.0935   -4.8699 O   0  0  0  0  0  0  0  0  0  0  0  0
   -3.4992    1.4122   -3.5119 C   0  0  0  0  0  0  0  0  0  0  0  0
   -2.3965   -0.8600   -1.4980 H   0  0  0  0  0  0  0  0  0  0  0  0
   -4.1846   -0.5178   -2.8286 H   0  0  0  0  0  0  0  0  0  0  0  0
   -2.6067    1.8756   -3.9481 H   0  0  0  0  0  0  0  0  0  0  0  0
   -4.3312    1.5823   -4.2031 H   0  0  0  0  0  0  0  0  0  0  0  0
   -3.7214    1.9354   -2.5755 H   0  0  0  0  0  0  0  0  0  0  0  0
   -4.0531   -1.0296   -5.3442 N   0  0  0  0  0  0  0  0  0  0  0  0
   -3.9810   -1.6898   -6.6268 C   0  0  0  0  0  0  0  0  0  0  0  0
   -4.9708   -0.7651   -4.9982 H   0  0  0  0  0  0  0  0  0  0  0  0
   -3.8743   -0.9370   -7.4217 H   0  0  0  0  0  0  0  0  0  0  0  0
   -3.1132   -2.3655   -6.6429 H   0  0  0  0  0  0  0  0  0  0  0  0
   -4.9007   -2.2700   -6.7925 H   0  0  0  0  0  0  0  0  0  0  0  0
  1  3  1  0  0  0  0
  1  7  1  0  0  0  0
  1  2  2  0  0  0  0
 31 32  1  0  0  0  0
 32 40  1  0  0  0  0
 32 33  2  0  0  0  0
  8  9  1  0  0  0  0
  9 17  1  0  0  0  0
  9 10  2  0  0  0  0
 18 19  1  0  0  0  0
 19 30  1  0  0  0  0
 19 20  2  0  0  0  0
 21 22  1  0  0  0  0
 22 23  2  0  0  0  0
 22 24  1  0  0  0  0
 31 34  1  0  0  0  0
  8 11  1  0  0  0  0
 40 41  1  0  0  0  0
 18 21  1  0  0  0  0
 30 31  1  0  0  0  0
  7  8  1  0  0  0  0
 17 18  1  0  0  0  0
  3  4  1  0  0  0  0
  3  5  1  0  0  0  0
  3  6  1  0  0  0  0
 34 37  1  0  0  0  0
 34 38  1  0  0  0  0
 34 39  1  0  0  0  0
 11 14  1  0  0  0  0
 11 15  1  0  0  0  0
 11 16  1  0  0  0  0
 41 43  1  0  0  0  0
 41 44  1  0  0  0  0
 41 45  1  0  0  0  0
 21 27  1  0  0  0  0
 21 28  1  0  0  0  0
 31 36  1  0  0  0  0
  8 13  1  0  0  0  0
 18 26  1  0  0  0  0
 40 42  1  0  0  0  0
  7 12  1  0  0  0  0
 30 35  1  0  0  0  0
 17 25  1  0  0  0  0
 24 29  1  0  0  0  0
M  END
$$$$

  -OEChem-05262214473D

 45 44  0     1  0  0  0  0  0999 V2000
   -2.2987    4.1032   -0.3022 C   0  0  0  0  0  0  0  0  0  0  0  0
   -1.8049    3.7117   -1.3532 O   0  0  0  0  0  0  0  0  0  0  0  0
   -3.0791    5.3755   -0.2846 C   0  0  0  0  0  0  0  0  0  0  0  0
   -2.4478    6.2532   -0.0717 H   0  0  0  0  0  0  0  0  0  0  0  0
   -3.5571    5.5891   -1.2541 H   0  0  0  0  0  0  0  0  0  0  0  0
   -3.8940    5.4184    0.4556 H   0  0  0  0  0  0  0  0  0  0  0  0
   -2.2137    3.4712    0.9275 N   0  0  0  0  0  0  0  0  0  0  0  0
   -1.5102    2.2327    1.1338 C   0  0  2  0  0  0  0  0  0  0  0  0
   -1.3539    1.5497   -0.2184 C   0  0  0  0  0  0  0  0  0  0  0  0
   -2.0852    1.7861   -1.1778 O   0  0  0  0  0  0  0  0  0  0  0  0
   -2.2477    1.3342    2.1145 C   0  0  0  0  0  0  0  0  0  0  0  0
   -2.6724    3.9052    1.7265 H   0  0  0  0  0  0  0  0  0  0  0  0
   -0.5220    2.4922    1.5290 H   0  0  0  0  0  0  0  0  0  0  0  0
   -3.2400    1.0636    1.7358 H   0  0  0  0  0  0  0  0  0  0  0  0
   -1.6970    0.4046    2.2923 H   0  0  0  0  0  0  0  0  0  0  0  0
   -2.3854    1.8384    3.0772 H   0  0  0  0  0  0  0  0  0  0  0  0
   -0.3283    0.6116   -0.2182 N   0  0  0  0  0  0  0  0  0  0  0  0
    0.0090   -0.1762   -1.3759 C   0  0  2  0  0  0  0  0  0  0  0  0
   -0.9366    0.2224   -2.5018 C   0  0  0  0  0  0  0  0  0  0  0  0
   -0.5444    0.6523   -3.5847 O   0  0  0  0  0  0  0  0  0  0  0  0
   -0.0841   -1.6735   -1.0938 C   0  0  0  0  0  0  0  0  0  0  0  0
    1.0018   -2.1206   -0.1462 C   0  0  0  0  0  0  0  0  0  0  0  0
    2.0974   -1.5816   -0.0578 O   0  0  0  0  0  0  0  0  0  0  0  0
    0.6394   -3.2005    0.5894 O   0  0  0  0  0  0  0  0  0  0  0  0
    0.2381    0.4970    0.6194 H   0  0  0  0  0  0  0  0  0  0  0  0
    1.0314    0.1074   -1.6531 H   0  0  0  0  0  0  0  0  0  0  0  0
   -1.0396   -1.9282   -0.6183 H   0  0  0  0  0  0  0  0  0  0  0  0
   -0.0403   -2.2746   -2.0101 H   0  0  0  0  0  0  0  0  0  0  0  0
    1.3255   -3.5286    1.2093 H   0  0  0  0  0  0  0  0  0  0  0  0
   -2.2659   -0.0031   -2.1728 N   0  0  0  0  0  0  0  0  0  0  0  0
   -3.3526    0.2812   -3.0807 C   0  0  2  0  0  0  0  0  0  0  0  0
   -3.2522   -0.6867   -4.2522 C   0  0  0  0  0  0  0  0  0  0  0  0
   -2.2066   -1.2501   -4.5692 O   0  0  0  0  0  0  0  0  0  0  0  0
   -3.3087    1.7232   -3.5617 C   0  0  0  0  0  0  0  0  0  0  0  0
   -2.4833   -0.3836   -1.2564 H   0  0  0  0  0  0  0  0  0  0  0  0
   -4.2813    0.0947   -2.5306 H   0  0  0  0  0  0  0  0  0  0  0  0
   -2.3852    1.9291   -4.1152 H   0  0  0  0  0  0  0  0  0  0  0  0
   -4.1494    1.9452   -4.2274 H   0  0  0  0  0  0  0  0  0  0  0  0
   -3.3510    2.4178   -2.7158 H   0  0  0  0  0  0  0  0  0  0  0  0
   -4.4574   -0.8143   -4.9285 N   0  0  0  0  0  0  0  0  0  0  0  0
   -4.6164   -1.6653   -6.0846 C   0  0  0  0  0  0  0  0  0  0  0  0
   -5.2778   -0.3243   -4.5842 H   0  0  0  0  0  0  0  0  0  0  0  0
   -4.4383   -1.0800   -6.9987 H   0  0  0  0  0  0  0  0  0  0  0  0
   -3.8936   -2.4929   -6.0326 H   0  0  0  0  0  0  0  0  0  0  0  0
   -5.6384   -2.0717   -6.1028 H   0  0  0  0  0  0  0  0  0  0  0  0
  1  3  1  0  0  0  0
  1  7  1  0  0  0  0
  1  2  2  0  0  0  0
 31 32  1  0  0  0  0
 32 40  1  0  0  0  0
 32 33  2  0  0  0  0
  8  9  1  0  0  0  0
  9 17  1  0  0  0  0
  9 10  2  0  0  0  0
 18 19  1  0  0  0  0
 19 30  1  0  0  0  0
 19 20  2  0  0  0  0
 21 22  1  0  0  0  0
 22 23  2  0  0  0  0
 22 24  1  0  0  0  0
 31 34  1  0  0  0  0
  8 11  1  0  0  0  0
 40 41  1  0  0  0  0
 18 21  1  0  0  0  0
 30 31  1  0  0  0  0
  7  8  1  0  0  0  0
 17 18  1  0  0  0  0
  3  4  1  0  0  0  0
  3  5  1  0  0  0  0
  3  6  1  0  0  0  0
 34 37  1  0  0  0  0
 34 38  1  0  0  0  0
 34 39  1  0  0  0  0
 11 14  1  0  0  0  0
 11 15  1  0  0  0  0
 11 16  1  0  0  0  0
 41 43  1  0  0  0  0
 41 44  1  0  0  0  0
 41 45  1  0  0  0  0
 21 27  1  0  0  0  0
 21 28  1  0  0  0  0
 31 36  1  0  0  0  0
  8 13  1  0  0  0  0
 18 26  1  0  0  0  0
 40 42  1  0  0  0  0
  7 12  1  0  0  0  0
 30 35  1  0  0  0  0
 17 25  1  0  0  0  0
 24 29  1  0  0  0  0
M  END
$$$$

  -OEChem-05262214473D

 45 44  0     1  0  0  0  0  0999 V2000
   -2.2987    4.1032   -0.3022 C   0  0  0  0  0  0  0  0  0  0  0  0
   -1.8049    3.7117   -1.3532 O   0  0  0  0  0  0  0  0  0  0  0  0
   -3.0791    5.3755   -0.2846 C   0  0  0  0  0  0  0  0  0  0  0  0
   -2.4478    6.2532   -0.0717 H   0  0  0  0  0  0  0  0  0  0  0  0
   -3.5571    5.5891   -1.2541 H   0  0  0  0  0  0  0  0  0  0  0  0
   -3.8940    5.4184    0.4556 H   0  0  0  0  0  0  0  0  0  0  0  0
   -2.2137    3.4712    0.9275 N   0  0  0  0  0  0  0  0  0  0  0  0
   -1.5102    2.2327    1.1338 C   0  0  2  0  0  0  0  0  0  0  0  0
   -1.3539    1.5497   -0.2184 C   0  0  0  0  0  0  0  0  0  0  0  0
   -2.0852    1.7861   -1.1778 O   0  0  0  0  0  0  0  0  0  0  0  0
   -2.2477    1.3342    2.1145 C   0  0  0  0  0  0  0  0  0  0  0  0
   -2.6724    3.9052    1.7265 H   0  0  0  0  0  0  0  0  0  0  0  0
   -0.5220    2.4922    1.5290 H   0  0  0  0  0  0  0  0  0  0  0  0
   -3.2400    1.0636    1.7358 H   0  0  0  0  0  0  0  0  0  0  0  0
   -1.6970    0.4046    2.2923 H   0  0  0  0  0  0  0  0  0  0  0  0
   -2.3854    1.8384    3.0772 H   0  0  0  0  0  0  0  0  0  0  0  0
   -0.3283    0.6116   -0.2182 N   0  0  0  0  0  0  0  0  0  0  0  0
    0.0090   -0.1762   -1.3759 C   0  0  2  0  0  0  0  0  0  0  0  0
   -0.9366    0.2224   -2.5018 C   0  0  0  0  0  0  0  0  0  0  0  0
   -0.5630    0.3947   -3.6603 O   0  0  0  0  0  0  0  0  0  0  0  0
   -0.0841   -1.6735   -1.0938 C   0  0  0  0  0  0  0  0  0  0  0  0
    1.0018   -2.1206   -0.1462 C   0  0  0  0  0  0  0  0  0  0  0  0
    2.0974   -1.5816   -0.0578 O   0  0  0  0  0  0  0  0  0  0  0  0
    0.6394   -3.2005    0.5894 O   0  0  0  0  0  0  0  0  0  0  0  0
    0.2381    0.4970    0.6194 H   0  0  0  0  0  0  0  0  0  0  0  0
    1.0314    0.1074   -1.6531 H   0  0  0  0  0  0  0  0  0  0  0  0
   -1.0396   -1.9282   -0.6183 H   0  0  0  0  0  0  0  0  0  0  0  0
   -0.0403   -2.2746   -2.0101 H   0  0  0  0  0  0  0  0  0  0  0  0
    1.3255   -3.5286    1.2093 H   0  0  0  0  0  0  0  0  0  0  0  0
   -2.2525    0.3163   -2.0709 N   0  0  0  0  0  0  0  0  0  0  0  0
   -3.3393    0.6657   -2.9557 C   0  0  2  0  0  0  0  0  0  0  0  0
   -3.5185   -0.4718   -3.9524 C   0  0  0  0  0  0  0  0  0  0  0  0
   -2.6259   -1.2718   -4.2248 O   0  0  0  0  0  0  0  0  0  0  0  0
   -3.0686    1.9792   -3.6727 C   0  0  0  0  0  0  0  0  0  0  0  0
   -2.4597    0.1319   -1.0937 H   0  0  0  0  0  0  0  0  0  0  0  0
   -4.2374    0.7526   -2.3345 H   0  0  0  0  0  0  0  0  0  0  0  0
   -2.1724    1.9115   -4.3001 H   0  0  0  0  0  0  0  0  0  0  0  0
   -3.9059    2.2570   -4.3214 H   0  0  0  0  0  0  0  0  0  0  0  0
   -2.9105    2.7903   -2.9538 H   0  0  0  0  0  0  0  0  0  0  0  0
   -4.7785   -0.4623   -4.5342 N   0  0  0  0  0  0  0  0  0  0  0  0
   -5.1886   -1.4331   -5.5217 C   0  0  0  0  0  0  0  0  0  0  0  0
   -5.4621    0.2267   -4.2344 H   0  0  0  0  0  0  0  0  0  0  0  0
   -4.9817   -1.0422   -6.5289 H   0  0  0  0  0  0  0  0  0  0  0  0
   -4.6304   -2.3687   -5.3699 H   0  0  0  0  0  0  0  0  0  0  0  0
   -6.2662   -1.6282   -5.4185 H   0  0  0  0  0  0  0  0  0  0  0  0
  1  3  1  0  0  0  0
  1  7  1  0  0  0  0
  1  2  2  0  0  0  0
 31 32  1  0  0  0  0
 32 40  1  0  0  0  0
 32 33  2  0  0  0  0
  8  9  1  0  0  0  0
  9 17  1  0  0  0  0
  9 10  2  0  0  0  0
 18 19  1  0  0  0  0
 19 30  1  0  0  0  0
 19 20  2  0  0  0  0
 21 22  1  0  0  0  0
 22 23  2  0  0  0  0
 22 24  1  0  0  0  0
 31 34  1  0  0  0  0
  8 11  1  0  0  0  0
 40 41  1  0  0  0  0
 18 21  1  0  0  0  0
 30 31  1  0  0  0  0
  7  8  1  0  0  0  0
 17 18  1  0  0  0  0
  3  4  1  0  0  0  0
  3  5  1  0  0  0  0
  3  6  1  0  0  0  0
 34 37  1  0  0  0  0
 34 38  1  0  0  0  0
 34 39  1  0  0  0  0
 11 14  1  0  0  0  0
 11 15  1  0  0  0  0
 11 16  1  0  0  0  0
 41 43  1  0  0  0  0
 41 44  1  0  0  0  0
 41 45  1  0  0  0  0
 21 27  1  0  0  0  0
 21 28  1  0  0  0  0
 31 36  1  0  0  0  0
  8 13  1  0  0  0  0
 18 26  1  0  0  0  0
 40 42  1  0  0  0  0
  7 12  1  0  0  0  0
 30 35  1  0  0  0  0
 17 25  1  0  0  0  0
 24 29  1  0  0  0  0
M  END
$$$$

  -OEChem-05262214473D

 45 44  0     1  0  0  0  0  0999 V2000
   -2.2987    4.1032   -0.3022 C   0  0  0  0  0  0  0  0  0  0  0  0
   -1.8049    3.7117   -1.3532 O   0  0  0  0  0  0  0  0  0  0  0  0
   -3.0791    5.3755   -0.2846 C   0  0  0  0  0  0  0  0  0  0  0  0
   -2.4478    6.2532   -0.0717 H   0  0  0  0  0  0  0  0  0  0  0  0
   -3.5571    5.5891   -1.2541 H   0  0  0  0  0  0  0  0  0  0  0  0
   -3.8940    5.4184    0.4556 H   0  0  0  0  0  0  0  0  0  0  0  0
   -2.2137    3.4712    0.9275 N   0  0  0  0  0  0  0  0  0  0  0  0
   -1.5102    2.2327    1.1338 C   0  0  2  0  0  0  0  0  0  0  0  0
   -1.3539    1.5497   -0.2184 C   0  0  0  0  0  0  0  0  0  0  0  0
   -2.0852    1.7861   -1.1778 O   0  0  0  0  0  0  0  0  0  0  0  0
   -2.2477    1.3342    2.1145 C   0  0  0  0  0  0  0  0  0  0  0  0
   -2.6724    3.9052    1.7265 H   0  0  0  0  0  0  0  0  0  0  0  0
   -0.5220    2.4922    1.5290 H   0  0  0  0  0  0  0  0  0  0  0  0
   -3.2400    1.0636    1.7358 H   0  0  0  0  0  0  0  0  0  0  0  0
   -1.6970    0.4046    2.2923 H   0  0  0  0  0  0  0  0  0  0  0  0
   -2.3854    1.8384    3.0772 H   0  0  0  0  0  0  0  0  0  0  0  0
   -0.3283    0.6116   -0.2182 N   0  0  0  0  0  0  0  0  0  0  0  0
    0.0090   -0.1762   -1.3759 C   0  0  2  0  0  0  0  0  0  0  0  0
   -0.9366    0.2224   -2.5018 C   0  0  0  0  0  0  0  0  0  0  0  0
   -0.6354    0.1372   -3.6906 O   0  0  0  0  0  0  0  0  0  0  0  0
   -0.0841   -1.6735   -1.0938 C   0  0  0  0  0  0  0  0  0  0  0  0
    1.0018   -2.1206   -0.1462 C   0  0  0  0  0  0  0  0  0  0  0  0
    2.0974   -1.5816   -0.0578 O   0  0  0  0  0  0  0  0  0  0  0  0
    0.6394   -3.2005    0.5894 O   0  0  0  0  0  0  0  0  0  0  0  0
    0.2381    0.4970    0.6194 H   0  0  0  0  0  0  0  0  0  0  0  0
    1.0314    0.1074   -1.6531 H   0  0  0  0  0  0  0  0  0  0  0  0
   -1.0396   -1.9282   -0.6183 H   0  0  0  0  0  0  0  0  0  0  0  0
   -0.0403   -2.2746   -2.0101 H   0  0  0  0  0  0  0  0  0  0  0  0
    1.3255   -3.5286    1.2093 H   0  0  0  0  0  0  0  0  0  0  0  0
   -2.1716    0.6388   -2.0247 N   0  0  0  0  0  0  0  0  0  0  0  0
   -3.2445    1.0546   -2.8976 C   0  0  2  0  0  0  0  0  0  0  0  0
   -3.7143   -0.1650   -3.6794 C   0  0  0  0  0  0  0  0  0  0  0  0
   -3.0117   -1.1574   -3.8602 O   0  0  0  0  0  0  0  0  0  0  0  0
   -2.7952    2.1627   -3.8373 C   0  0  0  0  0  0  0  0  0  0  0  0
   -2.3272    0.6515   -1.0210 H   0  0  0  0  0  0  0  0  0  0  0  0
   -4.0558    1.4112   -2.2537 H   0  0  0  0  0  0  0  0  0  0  0  0
   -1.9827    1.8240   -4.4904 H   0  0  0  0  0  0  0  0  0  0  0  0
   -3.6175    2.4965   -4.4788 H   0  0  0  0  0  0  0  0  0  0  0  0
   -2.4298    3.0277   -3.2734 H   0  0  0  0  0  0  0  0  0  0  0  0
   -4.9946    0.0026   -4.1880 N   0  0  0  0  0  0  0  0  0  0  0  0
   -5.6588   -1.0089   -4.9766 C   0  0  0  0  0  0  0  0  0  0  0  0
   -5.5109    0.8503   -3.9725 H   0  0  0  0  0  0  0  0  0  0  0  0
   -5.4676   -0.8263   -6.0444 H   0  0  0  0  0  0  0  0  0  0  0  0
   -5.2734   -2.0013   -4.6997 H   0  0  0  0  0  0  0  0  0  0  0  0
   -6.7415   -0.9698   -4.7862 H   0  0  0  0  0  0  0  0  0  0  0  0
  1  3  1  0  0  0  0
  1  7  1  0  0  0  0
  1  2  2  0  0  0  0
 31 32  1  0  0  0  0
 32 40  1  0  0  0  0
 32 33  2  0  0  0  0
  8  9  1  0  0  0  0
  9 17  1  0  0  0  0
  9 10  2  0  0  0  0
 18 19  1  0  0  0  0
 19 30  1  0  0  0  0
 19 20  2  0  0  0  0
 21 22  1  0  0  0  0
 22 23  2  0  0  0  0
 22 24  1  0  0  0  0
 31 34  1  0  0  0  0
  8 11  1  0  0  0  0
 40 41  1  0  0  0  0
 18 21  1  0  0  0  0
 30 31  1  0  0  0  0
  7  8  1  0  0  0  0
 17 18  1  0  0  0  0
  3  4  1  0  0  0  0
  3  5  1  0  0  0  0
  3  6  1  0  0  0  0
 34 37  1  0  0  0  0
 34 38  1  0  0  0  0
 34 39  1  0  0  0  0
 11 14  1  0  0  0  0
 11 15  1  0  0  0  0
 11 16  1  0  0  0  0
 41 43  1  0  0  0  0
 41 44  1  0  0  0  0
 41 45  1  0  0  0  0
 21 27  1  0  0  0  0
 21 28  1  0  0  0  0
 31 36  1  0  0  0  0
  8 13  1  0  0  0  0
 18 26  1  0  0  0  0
 40 42  1  0  0  0  0
  7 12  1  0  0  0  0
 30 35  1  0  0  0  0
 17 25  1  0  0  0  0
 24 29  1  0  0  0  0
M  END
$$$$

  -OEChem-05262214473D

 45 44  0     1  0  0  0  0  0999 V2000
   -2.2987    4.1032   -0.3022 C   0  0  0  0  0  0  0  0  0  0  0  0
   -1.8049    3.7117   -1.3532 O   0  0  0  0  0  0  0  0  0  0  0  0
   -3.0791    5.3755   -0.2846 C   0  0  0  0  0  0  0  0  0  0  0  0
   -2.4478    6.2532   -0.0717 H   0  0  0  0  0  0  0  0  0  0  0  0
   -3.5571    5.5891   -1.2541 H   0  0  0  0  0  0  0  0  0  0  0  0
   -3.8940    5.4184    0.4556 H   0  0  0  0  0  0  0  0  0  0  0  0
   -2.2137    3.4712    0.9275 N   0  0  0  0  0  0  0  0  0  0  0  0
   -1.5102    2.2327    1.1338 C   0  0  2  0  0  0  0  0  0  0  0  0
   -1.3539    1.5497   -0.2184 C   0  0  0  0  0  0  0  0  0  0  0  0
   -2.0852    1.7861   -1.1778 O   0  0  0  0  0  0  0  0  0  0  0  0
   -2.2477    1.3342    2.1145 C   0  0  0  0  0  0  0  0  0  0  0  0
   -2.6724    3.9052    1.7265 H   0  0  0  0  0  0  0  0  0  0  0  0
   -0.5220    2.4922    1.5290 H   0  0  0  0  0  0  0  0  0  0  0  0
   -3.2400    1.0636    1.7358 H   0  0  0  0  0  0  0  0  0  0  0  0
   -1.6970    0.4046    2.2923 H   0  0  0  0  0  0  0  0  0  0  0  0
   -2.3854    1.8384    3.0772 H   0  0  0  0  0  0  0  0  0  0  0  0
   -0.3283    0.6116   -0.2182 N   0  0  0  0  0  0  0  0  0  0  0  0
    0.0090   -0.1762   -1.3759 C   0  0  2  0  0  0  0  0  0  0  0  0
   -0.9366    0.2224   -2.5018 C   0  0  0  0  0  0  0  0  0  0  0  0
   -0.7567   -0.1025   -3.6737 O   0  0  0  0  0  0  0  0  0  0  0  0
   -0.0841   -1.6735   -1.0938 C   0  0  0  0  0  0  0  0  0  0  0  0
    1.0018   -2.1206   -0.1462 C   0  0  0  0  0  0  0  0  0  0  0  0
    2.0974   -1.5816   -0.0578 O   0  0  0  0  0  0  0  0  0  0  0  0
    0.6394   -3.2005    0.5894 O   0  0  0  0  0  0  0  0  0  0  0  0
    0.2381    0.4970    0.6194 H   0  0  0  0  0  0  0  0  0  0  0  0
    1.0314    0.1074   -1.6531 H   0  0  0  0  0  0  0  0  0  0  0  0
   -1.0396   -1.9282   -0.6183 H   0  0  0  0  0  0  0  0  0  0  0  0
   -0.0403   -2.2746   -2.0101 H   0  0  0  0  0  0  0  0  0  0  0  0
    1.3255   -3.5286    1.2093 H   0  0  0  0  0  0  0  0  0  0  0  0
   -2.0286    0.9421   -2.0374 N   0  0  0  0  0  0  0  0  0  0  0  0
   -3.0745    1.4215   -2.9104 C   0  0  2  0  0  0  0  0  0  0  0  0
   -3.8262    0.2126   -3.4517 C   0  0  0  0  0  0  0  0  0  0  0  0
   -3.3378   -0.9144   -3.5003 O   0  0  0  0  0  0  0  0  0  0  0  0
   -2.5072    2.2612   -4.0443 C   0  0  0  0  0  0  0  0  0  0  0  0
   -2.0949    1.1397   -1.0432 H   0  0  0  0  0  0  0  0  0  0  0  0
   -3.7490    2.0257   -2.2939 H   0  0  0  0  0  0  0  0  0  0  0  0
   -1.8290    1.6727   -4.6730 H   0  0  0  0  0  0  0  0  0  0  0  0
   -3.3037    2.6475   -4.6889 H   0  0  0  0  0  0  0  0  0  0  0  0
   -1.9418    3.1137   -3.6528 H   0  0  0  0  0  0  0  0  0  0  0  0
   -5.0911    0.5485   -3.9138 N   0  0  0  0  0  0  0  0  0  0  0  0
   -5.9949   -0.4216   -4.4864 C   0  0  0  0  0  0  0  0  0  0  0  0
   -5.4211    1.5042   -3.8165 H   0  0  0  0  0  0  0  0  0  0  0  0
   -5.8629   -0.4469   -5.5781 H   0  0  0  0  0  0  0  0  0  0  0  0
   -5.7789   -1.4157   -4.0679 H   0  0  0  0  0  0  0  0  0  0  0  0
   -7.0318   -0.1413   -4.2490 H   0  0  0  0  0  0  0  0  0  0  0  0
  1  3  1  0  0  0  0
  1  7  1  0  0  0  0
  1  2  2  0  0  0  0
 31 32  1  0  0  0  0
 32 40  1  0  0  0  0
 32 33  2  0  0  0  0
  8  9  1  0  0  0  0
  9 17  1  0  0  0  0
  9 10  2  0  0  0  0
 18 19  1  0  0  0  0
 19 30  1  0  0  0  0
 19 20  2  0  0  0  0
 21 22  1  0  0  0  0
 22 23  2  0  0  0  0
 22 24  1  0  0  0  0
 31 34  1  0  0  0  0
  8 11  1  0  0  0  0
 40 41  1  0  0  0  0
 18 21  1  0  0  0  0
 30 31  1  0  0  0  0
  7  8  1  0  0  0  0
 17 18  1  0  0  0  0
  3  4  1  0  0  0  0
  3  5  1  0  0  0  0
  3  6  1  0  0  0  0
 34 37  1  0  0  0  0
 34 38  1  0  0  0  0
 34 39  1  0  0  0  0
 11 14  1  0  0  0  0
 11 15  1  0  0  0  0
 11 16  1  0  0  0  0
 41 43  1  0  0  0  0
 41 44  1  0  0  0  0
 41 45  1  0  0  0  0
 21 27  1  0  0  0  0
 21 28  1  0  0  0  0
 31 36  1  0  0  0  0
  8 13  1  0  0  0  0
 18 26  1  0  0  0  0
 40 42  1  0  0  0  0
  7 12  1  0  0  0  0
 30 35  1  0  0  0  0
 17 25  1  0  0  0  0
 24 29  1  0  0  0  0
M  END
$$$$

  -OEChem-05262214473D

 45 44  0     1  0  0  0  0  0999 V2000
   -2.2987    4.1032   -0.3022 C   0  0  0  0  0  0  0  0  0  0  0  0
   -1.8049    3.7117   -1.3532 O   0  0  0  0  0  0  0  0  0  0  0  0
   -3.0791    5.3755   -0.2846 C   0  0  0  0  0  0  0  0  0  0  0  0
   -2.4478    6.2532   -0.0717 H   0  0  0  0  0  0  0  0  0  0  0  0
   -3.5571    5.5891   -1.2541 H   0  0  0  0  0  0  0  0  0  0  0  0
   -3.8940    5.4184    0.4556 H   0  0  0  0  0  0  0  0  0  0  0  0
   -2.2137    3.4712    0.9275 N   0  0  0  0  0  0  0  0  0  0  0  0
   -1.5102    2.2327    1.1338 C   0  0  2  0  0  0  0  0  0  0  0  0
   -1.3539    1.5497   -0.2184 C   0  0  0  0  0  0  0  0  0  0  0  0
   -2.0852    1.7861   -1.1778 O   0  0  0  0  0  0  0  0  0  0  0  0
   -2.2477    1.3342    2.1145 C   0  0  0  0  0  0  0  0  0  0  0  0
   -2.6724    3.9052    1.7265 H   0  0  0  0  0  0  0  0  0  0  0  0
   -0.5220    2.4922    1.5290 H   0  0  0  0  0  0  0  0  0  0  0  0
   -3.2400    1.0636    1.7358 H   0  0  0  0  0  0  0  0  0  0  0  0
   -1.6970    0.4046    2.2923 H   0  0  0  0  0  0  0  0  0  0  0  0
   -2.3854    1.8384    3.0772 H   0  0  0  0  0  0  0  0  0  0  0  0
   -0.3283    0.6116   -0.2182 N   0  0  0  0  0  0  0  0  0  0  0  0
    0.0090   -0.1762   -1.3759 C   0  0  2  0  0  0  0  0  0  0  0  0
   -0.9366    0.2224   -2.5018 C   0  0  0  0  0  0  0  0  0  0  0  0
   -0.9185   -0.3081   -3.6106 O   0  0  0  0  0  0  0  0  0  0  0  0
   -0.0841   -1.6735   -1.0938 C   0  0  0  0  0  0  0  0  0  0  0  0
    1.0018   -2.1206   -0.1462 C   0  0  0  0  0  0  0  0  0  0  0  0
    2.0974   -1.5816   -0.0578 O   0  0  0  0  0  0  0  0  0  0  0  0
    0.6394   -3.2005    0.5894 O   0  0  0  0  0  0  0  0  0  0  0  0
    0.2381    0.4970    0.6194 H   0  0  0  0  0  0  0  0  0  0  0  0
    1.0314    0.1074   -1.6531 H   0  0  0  0  0  0  0  0  0  0  0  0
   -1.0396   -1.9282   -0.6183 H   0  0  0  0  0  0  0  0  0  0  0  0
   -0.0403   -2.2746   -2.0101 H   0  0  0  0  0  0  0  0  0  0  0  0
    1.3255   -3.5286    1.2093 H   0  0  0  0  0  0  0  0  0  0  0  0
   -1.8333    1.2058   -2.1080 N   0  0  0  0  0  0  0  0  0  0  0  0
   -2.8411    1.7413   -2.9932 C   0  0  2  0  0  0  0  0  0  0  0  0
   -3.8467    0.6353   -3.2848 C   0  0  0  0  0  0  0  0  0  0  0  0
   -3.5819   -0.5595   -3.1697 O   0  0  0  0  0  0  0  0  0  0  0  0
   -2.2242    2.2680   -4.2796 C   0  0  0  0  0  0  0  0  0  0  0  0
   -1.7787    1.5633   -1.1588 H   0  0  0  0  0  0  0  0  0  0  0  0
   -3.3378    2.5540   -2.4521 H   0  0  0  0  0  0  0  0  0  0  0  0
   -1.7219    1.4679   -4.8355 H   0  0  0  0  0  0  0  0  0  0  0  0
   -2.9860    2.6994   -4.9373 H   0  0  0  0  0  0  0  0  0  0  0  0
   -1.4796    3.0424   -4.0662 H   0  0  0  0  0  0  0  0  0  0  0  0
   -5.0612    1.1383   -3.7300 N   0  0  0  0  0  0  0  0  0  0  0  0
   -6.1741    0.2887   -4.0844 C   0  0  0  0  0  0  0  0  0  0  0  0
   -5.1987    2.1436   -3.7768 H   0  0  0  0  0  0  0  0  0  0  0  0
   -6.1405    0.0700   -5.1620 H   0  0  0  0  0  0  0  0  0  0  0  0
   -6.1123   -0.6519   -3.5174 H   0  0  0  0  0  0  0  0  0  0  0  0
   -7.1174    0.8007   -3.8436 H   0  0  0  0  0  0  0  0  0  0  0  0
  1  3  1  0  0  0  0
  1  7  1  0  0  0  0
  1  2  2  0  0  0  0
 31 32  1  0  0  0  0
 32 40  1  0  0  0  0
 32 33  2  0  0  0  0
  8  9  1  0  0  0  0
  9 17  1  0  0  0  0
  9 10  2  0  0  0  0
 18 19  1  0  0  0  0
 19 30  1  0  0  0  0
 19 20  2  0  0  0  0
 21 22  1  0  0  0  0
 22 23  2  0  0  0  0
 22 24  1  0  0  0  0
 31 34  1  0  0  0  0
  8 11  1  0  0  0  0
 40 41  1  0  0  0  0
 18 21  1  0  0  0  0
 30 31  1  0  0  0  0
  7  8  1  0  0  0  0
 17 18  1  0  0  0  0
  3  4  1  0  0  0  0
  3  5  1  0  0  0  0
  3  6  1  0  0  0  0
 34 37  1  0  0  0  0
 34 38  1  0  0  0  0
 34 39  1  0  0  0  0
 11 14  1  0  0  0  0
 11 15  1  0  0  0  0
 11 16  1  0  0  0  0
 41 43  1  0  0  0  0
 41 44  1  0  0  0  0
 41 45  1  0  0  0  0
 21 27  1  0  0  0  0
 21 28  1  0  0  0  0
 31 36  1  0  0  0  0
  8 13  1  0  0  0  0
 18 26  1  0  0  0  0
 40 42  1  0  0  0  0
  7 12  1  0  0  0  0
 30 35  1  0  0  0  0
 17 25  1  0  0  0  0
 24 29  1  0  0  0  0
M  END
$$$$

  -OEChem-05262214473D

 45 44  0     1  0  0  0  0  0999 V2000
   -2.2987    4.1032   -0.3022 C   0  0  0  0  0  0  0  0  0  0  0  0
   -1.8049    3.7117   -1.3532 O   0  0  0  0  0  0  0  0  0  0  0  0
   -3.0791    5.3755   -0.2846 C   0  0  0  0  0  0  0  0  0  0  0  0
   -2.4478    6.2532   -0.0717 H   0  0  0  0  0  0  0  0  0  0  0  0
   -3.5571    5.5891   -1.2541 H   0  0  0  0  0  0  0  0  0  0  0  0
   -3.8940    5.4184    0.4556 H   0  0  0  0  0  0  0  0  0  0  0  0
   -2.2137    3.4712    0.9275 N   0  0  0  0  0  0  0  0  0  0  0  0
   -1.5102    2.2327    1.1338 C   0  0  2  0  0  0  0  0  0  0  0  0
   -1.3539    1.5497   -0.2184 C   0  0  0  0  0  0  0  0  0  0  0  0
   -2.0852    1.7861   -1.1778 O   0  0  0  0  0  0  0  0  0  0  0  0
   -2.2477    1.3342    2.1145 C   0  0  0  0  0  0  0  0  0  0  0  0
   -2.6724    3.9052    1.7265 H   0  0  0  0  0  0  0  0  0  0  0  0
   -0.5220    2.4922    1.5290 H   0  0  0  0  0  0  0  0  0  0  0  0
   -3.2400    1.0636    1.7358 H   0  0  0  0  0  0  0  0  0  0  0  0
   -1.6970    0.4046    2.2923 H   0  0  0  0  0  0  0  0  0  0  0  0
   -2.3854    1.8384    3.0772 H   0  0  0  0  0  0  0  0  0  0  0  0
   -0.3283    0.6116   -0.2182 N   0  0  0  0  0  0  0  0  0  0  0  0
    0.0090   -0.1762   -1.3759 C   0  0  2  0  0  0  0  0  0  0  0  0
   -0.9366    0.2224   -2.5018 C   0  0  0  0  0  0  0  0  0  0  0  0
   -1.1099   -0.4657   -3.5057 O   0  0  0  0  0  0  0  0  0  0  0  0
   -0.0841   -1.6735   -1.0938 C   0  0  0  0  0  0  0  0  0  0  0  0
    1.0018   -2.1206   -0.1462 C   0  0  0  0  0  0  0  0  0  0  0  0
    2.0974   -1.5816   -0.0578 O   0  0  0  0  0  0  0  0  0  0  0  0
    0.6394   -3.2005    0.5894 O   0  0  0  0  0  0  0  0  0  0  0  0
    0.2381    0.4970    0.6194 H   0  0  0  0  0  0  0  0  0  0  0  0
    1.0314    0.1074   -1.6531 H   0  0  0  0  0  0  0  0  0  0  0  0
   -1.0396   -1.9282   -0.6183 H   0  0  0  0  0  0  0  0  0  0  0  0
   -0.0403   -2.2746   -2.0101 H   0  0  0  0  0  0  0  0  0  0  0  0
    1.3255   -3.5286    1.2093 H   0  0  0  0  0  0  0  0  0  0  0  0
   -1.5991    1.4117   -2.2318 N   0  0  0  0  0  0  0  0  0  0  0  0
   -2.5600    1.9922   -3.1404 C   0  0  2  0  0  0  0  0  0  0  0  0
   -3.7744    1.0744   -3.1901 C   0  0  0  0  0  0  0  0  0  0  0  0
   -3.7274   -0.1170   -2.8907 O   0  0  0  0  0  0  0  0  0  0  0  0
   -1.9655    2.1826   -4.5271 C   0  0  0  0  0  0  0  0  0  0  0  0
   -1.4000    1.8934   -1.3599 H   0  0  0  0  0  0  0  0  0  0  0  0
   -2.8502    2.9603   -2.7177 H   0  0  0  0  0  0  0  0  0  0  0  0
   -1.6687    1.2234   -4.9668 H   0  0  0  0  0  0  0  0  0  0  0  0
   -2.6860    2.6490   -5.2071 H   0  0  0  0  0  0  0  0  0  0  0  0
   -1.0748    2.8188   -4.4853 H   0  0  0  0  0  0  0  0  0  0  0  0
   -4.9071    1.7318   -3.6493 N   0  0  0  0  0  0  0  0  0  0  0  0
   -6.1840    1.0736   -3.7982 C   0  0  0  0  0  0  0  0  0  0  0  0
   -4.8588    2.7251   -3.8563 H   0  0  0  0  0  0  0  0  0  0  0  0
   -6.2815    0.6893   -4.8242 H   0  0  0  0  0  0  0  0  0  0  0  0
   -6.2510    0.2381   -3.0858 H   0  0  0  0  0  0  0  0  0  0  0  0
   -6.9924    1.7922   -3.5975 H   0  0  0  0  0  0  0  0  0  0  0  0
  1  3  1  0  0  0  0
  1  7  1  0  0  0  0
  1  2  2  0  0  0  0
 31 32  1  0  0  0  0
 32 40  1  0  0  0  0
 32 33  2  0  0  0  0
  8  9  1  0  0  0  0
  9 17  1  0  0  0  0
  9 10  2  0  0  0  0
 18 19  1  0  0  0  0
 19 30  1  0  0  0  0
 19 20  2  0  0  0  0
 21 22  1  0  0  0  0
 22 23  2  0  0  0  0
 22 24  1  0  0  0  0
 31 34  1  0  0  0  0
  8 11  1  0  0  0  0
 40 41  1  0  0  0  0
 18 21  1  0  0  0  0
 30 31  1  0  0  0  0
  7  8  1  0  0  0  0
 17 18  1  0  0  0  0
  3  4  1  0  0  0  0
  3  5  1  0  0  0  0
  3  6  1  0  0  0  0
 34 37  1  0  0  0  0
 34 38  1  0  0  0  0
 34 39  1  0  0  0  0
 11 14  1  0  0  0  0
 11 15  1  0  0  0  0
 11 16  1  0  0  0  0
 41 43  1  0  0  0  0
 41 44  1  0  0  0  0
 41 45  1  0  0  0  0
 21 27  1  0  0  0  0
 21 28  1  0  0  0  0
 31 36  1  0  0  0  0
  8 13  1  0  0  0  0
 18 26  1  0  0  0  0
 40 42  1  0  0  0  0
  7 12  1  0  0  0  0
 30 35  1  0  0  0  0
 17 25  1  0  0  0  0
 24 29  1  0  0  0  0
M  END
$$$$

  -OEChem-05262214473D

 45 44  0     1  0  0  0  0  0999 V2000
   -2.2987    4.1032   -0.3022 C   0  0  0  0  0  0  0  0  0  0  0  0
   -1.8049    3.7117   -1.3532 O   0  0  0  0  0  0  0  0  0  0  0  0
   -3.0791    5.3755   -0.2846 C   0  0  0  0  0  0  0  0  0  0  0  0
   -2.4478    6.2532   -0.0717 H   0  0  0  0  0  0  0  0  0  0  0  0
   -3.5571    5.5891   -1.2541 H   0  0  0  0  0  0  0  0  0  0  0  0
   -3.8940    5.4184    0.4556 H   0  0  0  0  0  0  0  0  0  0  0  0
   -2.2137    3.4712    0.9275 N   0  0  0  0  0  0  0  0  0  0  0  0
   -1.5102    2.2327    1.1338 C   0  0  2  0  0  0  0  0  0  0  0  0
   -1.3539    1.5497   -0.2184 C   0  0  0  0  0  0  0  0  0  0  0  0
   -2.0852    1.7861   -1.1778 O   0  0  0  0  0  0  0  0  0  0  0  0
   -2.2477    1.3342    2.1145 C   0  0  0  0  0  0  0  0  0  0  0  0
   -2.6724    3.9052    1.7265 H   0  0  0  0  0  0  0  0  0  0  0  0
   -0.5220    2.4922    1.5290 H   0  0  0  0  0  0  0  0  0  0  0  0
   -3.2400    1.0636    1.7358 H   0  0  0  0  0  0  0  0  0  0  0  0
   -1.6970    0.4046    2.2923 H   0  0  0  0  0  0  0  0  0  0  0  0
   -2.3854    1.8384    3.0772 H   0  0  0  0  0  0  0  0  0  0  0  0
   -0.3283    0.6116   -0.2182 N   0  0  0  0  0  0  0  0  0  0  0  0
    0.0090   -0.1762   -1.3759 C   0  0  2  0  0  0  0  0  0  0  0  0
   -0.9366    0.2224   -2.5018 C   0  0  0  0  0  0  0  0  0  0  0  0
   -1.3178   -0.5644   -3.3660 O   0  0  0  0  0  0  0  0  0  0  0  0
   -0.0841   -1.6735   -1.0938 C   0  0  0  0  0  0  0  0  0  0  0  0
    1.0018   -2.1206   -0.1462 C   0  0  0  0  0  0  0  0  0  0  0  0
    2.0974   -1.5816   -0.0578 O   0  0  0  0  0  0  0  0  0  0  0  0
    0.6394   -3.2005    0.5894 O   0  0  0  0  0  0  0  0  0  0  0  0
    0.2381    0.4970    0.6194 H   0  0  0  0  0  0  0  0  0  0  0  0
    1.0314    0.1074   -1.6531 H   0  0  0  0  0  0  0  0  0  0  0  0
   -1.0396   -1.9282   -0.6183 H   0  0  0  0  0  0  0  0  0  0  0  0
   -0.0403   -2.2746   -2.0101 H   0  0  0  0  0  0  0  0  0  0  0  0
    1.3255   -3.5286    1.2093 H   0  0  0  0  0  0  0  0  0  0  0  0
   -1.3418    1.5460   -2.4004 N   0  0  0  0  0  0  0  0  0  0  0  0
   -2.2505    2.1572   -3.3419 C   0  0  2  0  0  0  0  0  0  0  0  0
   -3.6140    1.4998   -3.1741 C   0  0  0  0  0  0  0  0  0  0  0  0
   -3.7644    0.3832   -2.6825 O   0  0  0  0  0  0  0  0  0  0  0  0
   -1.7487    2.0109   -4.7700 C   0  0  0  0  0  0  0  0  0  0  0  0
   -0.9848    2.1075   -1.6329 H   0  0  0  0  0  0  0  0  0  0  0  0
   -2.3196    3.2168   -3.0725 H   0  0  0  0  0  0  0  0  0  0  0  0
   -1.6729    0.9560   -5.0579 H   0  0  0  0  0  0  0  0  0  0  0  0
   -2.4241    2.4995   -5.4800 H   0  0  0  0  0  0  0  0  0  0  0  0
   -0.7550    2.4580   -4.8817 H   0  0  0  0  0  0  0  0  0  0  0  0
   -4.6392    2.2886   -3.6771 N   0  0  0  0  0  0  0  0  0  0  0  0
   -6.0240    1.8797   -3.6471 C   0  0  0  0  0  0  0  0  0  0  0  0
   -4.4247    3.2090   -4.0496 H   0  0  0  0  0  0  0  0  0  0  0  0
   -6.2765    1.3687   -4.5879 H   0  0  0  0  0  0  0  0  0  0  0  0
   -6.1854    1.1937   -2.8025 H   0  0  0  0  0  0  0  0  0  0  0  0
   -6.6653    2.7655   -3.5276 H   0  0  0  0  0  0  0  0  0  0  0  0
  1  3  1  0  0  0  0
  1  7  1  0  0  0  0
  1  2  2  0  0  0  0
 31 32  1  0  0  0  0
 32 40  1  0  0  0  0
 32 33  2  0  0  0  0
  8  9  1  0  0  0  0
  9 17  1  0  0  0  0
  9 10  2  0  0  0  0
 18 19  1  0  0  0  0
 19 30  1  0  0  0  0
 19 20  2  0  0  0  0
 21 22  1  0  0  0  0
 22 23  2  0  0  0  0
 22 24  1  0  0  0  0
 31 34  1  0  0  0  0
  8 11  1  0  0  0  0
 40 41  1  0  0  0  0
 18 21  1  0  0  0  0
 30 31  1  0  0  0  0
  7  8  1  0  0  0  0
 17 18  1  0  0  0  0
  3  4  1  0  0  0  0
  3  5  1  0  0  0  0
  3  6  1  0  0  0  0
 34 37  1  0  0  0  0
 34 38  1  0  0  0  0
 34 39  1  0  0  0  0
 11 14  1  0  0  0  0
 11 15  1  0  0  0  0
 11 16  1  0  0  0  0
 41 43  1  0  0  0  0
 41 44  1  0  0  0  0
 41 45  1  0  0  0  0
 21 27  1  0  0  0  0
 21 28  1  0  0  0  0
 31 36  1  0  0  0  0
  8 13  1  0  0  0  0
 18 26  1  0  0  0  0
 40 42  1  0  0  0  0
  7 12  1  0  0  0  0
 30 35  1  0  0  0  0
 17 25  1  0  0  0  0
 24 29  1  0  0  0  0
M  END
$$$$

  -OEChem-05262214473D

 45 44  0     1  0  0  0  0  0999 V2000
   -2.2987    4.1032   -0.3022 C   0  0  0  0  0  0  0  0  0  0  0  0
   -1.8049    3.7117   -1.3532 O   0  0  0  0  0  0  0  0  0  0  0  0
   -3.0791    5.3755   -0.2846 C   0  0  0  0  0  0  0  0  0  0  0  0
   -2.4478    6.2532   -0.0717 H   0  0  0  0  0  0  0  0  0  0  0  0
   -3.5571    5.5891   -1.2541 H   0  0  0  0  0  0  0  0  0  0  0  0
   -3.8940    5.4184    0.4556 H   0  0  0  0  0  0  0  0  0  0  0  0
   -2.2137    3.4712    0.9275 N   0  0  0  0  0  0  0  0  0  0  0  0
   -1.5102    2.2327    1.1338 C   0  0  2  0  0  0  0  0  0  0  0  0
   -1.3539    1.5497   -0.2184 C   0  0  0  0  0  0  0  0  0  0  0  0
   -2.0852    1.7861   -1.1778 O   0  0  0  0  0  0  0  0  0  0  0  0
   -2.2477    1.3342    2.1145 C   0  0  0  0  0  0  0  0  0  0  0  0
   -2.6724    3.9052    1.7265 H   0  0  0  0  0  0  0  0  0  0  0  0
   -0.5220    2.4922    1.5290 H   0  0  0  0  0  0  0  0  0  0  0  0
   -3.2400    1.0636    1.7358 H   0  0  0  0  0  0  0  0  0  0  0  0
   -1.6970    0.4046    2.2923 H   0  0  0  0  0  0  0  0  0  0  0  0
   -2.3854    1.8384    3.0772 H   0  0  0  0  0  0  0  0  0  0  0  0
   -0.3283    0.6116   -0.2182 N   0  0  0  0  0  0  0  0  0  0  0  0
    0.0090   -0.1762   -1.3759 C   0  0  2  0  0  0  0  0  0  0  0  0
   -0.9366    0.2224   -2.5018 C   0  0  0  0  0  0  0  0  0  0  0  0
   -1.5280   -0.5975   -3.2012 O   0  0  0  0  0  0  0  0  0  0  0  0
   -0.0841   -1.6735   -1.0938 C   0  0  0  0  0  0  0  0  0  0  0  0
    1.0018   -2.1206   -0.1462 C   0  0  0  0  0  0  0  0  0  0  0  0
    2.0974   -1.5816   -0.0578 O   0  0  0  0  0  0  0  0  0  0  0  0
    0.6394   -3.2005    0.5894 O   0  0  0  0  0  0  0  0  0  0  0  0
    0.2381    0.4970    0.6194 H   0  0  0  0  0  0  0  0  0  0  0  0
    1.0314    0.1074   -1.6531 H   0  0  0  0  0  0  0  0  0  0  0  0
   -1.0396   -1.9282   -0.6183 H   0  0  0  0  0  0  0  0  0  0  0  0
   -0.0403   -2.2746   -2.0101 H   0  0  0  0  0  0  0  0  0  0  0  0
    1.3255   -3.5286    1.2093 H   0  0  0  0  0  0  0  0  0  0  0  0
   -1.0790    1.5993   -2.6022 N   0  0  0  0  0  0  0  0  0  0  0  0
   -1.9336    2.2250   -3.5840 C   0  0  2  0  0  0  0  0  0  0  0  0
   -3.3767    1.8827   -3.2378 C   0  0  0  0  0  0  0  0  0  0  0  0
   -3.6904    0.9068   -2.5593 O   0  0  0  0  0  0  0  0  0  0  0  0
   -1.5886    1.7645   -4.9917 C   0  0  0  0  0  0  0  0  0  0  0  0
   -0.5612    2.1910   -1.9591 H   0  0  0  0  0  0  0  0  0  0  0  0
   -1.7820    3.3060   -3.4924 H   0  0  0  0  0  0  0  0  0  0  0  0
   -1.7343    0.6838   -5.1027 H   0  0  0  0  0  0  0  0  0  0  0  0
   -2.2183    2.2612   -5.7372 H   0  0  0  0  0  0  0  0  0  0  0  0
   -0.5419    1.9847   -5.2282 H   0  0  0  0  0  0  0  0  0  0  0  0
   -4.2758    2.7708   -3.8116 N   0  0  0  0  0  0  0  0  0  0  0  0
   -5.7051    2.6520   -3.6415 C   0  0  0  0  0  0  0  0  0  0  0  0
   -3.9259    3.5623   -4.3434 H   0  0  0  0  0  0  0  0  0  0  0  0
   -6.1256    2.0619   -4.4691 H   0  0  0  0  0  0  0  0  0  0  0  0
   -5.9201    2.1496   -2.6868 H   0  0  0  0  0  0  0  0  0  0  0  0
   -6.1584    3.6543   -3.6386 H   0  0  0  0  0  0  0  0  0  0  0  0
  1  3  1  0  0  0  0
  1  7  1  0  0  0  0
  1  2  2  0  0  0  0
 31 32  1  0  0  0  0
 32 40  1  0  0  0  0
 32 33  2  0  0  0  0
  8  9  1  0  0  0  0
  9 17  1  0  0  0  0
  9 10  2  0  0  0  0
 18 19  1  0  0  0  0
 19 30  1  0  0  0  0
 19 20  2  0  0  0  0
 21 22  1  0  0  0  0
 22 23  2  0  0  0  0
 22 24  1  0  0  0  0
 31 34  1  0  0  0  0
  8 11  1  0  0  0  0
 40 41  1  0  0  0  0
 18 21  1  0  0  0  0
 30 31  1  0  0  0  0
  7  8  1  0  0  0  0
 17 18  1  0  0  0  0
  3  4  1  0  0  0  0
  3  5  1  0  0  0  0
  3  6  1  0  0  0  0
 34 37  1  0  0  0  0
 34 38  1  0  0  0  0
 34 39  1  0  0  0  0
 11 14  1  0  0  0  0
 11 15  1  0  0  0  0
 11 16  1  0  0  0  0
 41 43  1  0  0  0  0
 41 44  1  0  0  0  0
 41 45  1  0  0  0  0
 21 27  1  0  0  0  0
 21 28  1  0  0  0  0
 31 36  1  0  0  0  0
  8 13  1  0  0  0  0
 18 26  1  0  0  0  0
 40 42  1  0  0  0  0
  7 12  1  0  0  0  0
 30 35  1  0  0  0  0
 17 25  1  0  0  0  0
 24 29  1  0  0  0  0
M  END
$$$$

  -OEChem-05262214473D

 45 44  0     1  0  0  0  0  0999 V2000
   -2.2987    4.1032   -0.3022 C   0  0  0  0  0  0  0  0  0  0  0  0
   -1.8049    3.7117   -1.3532 O   0  0  0  0  0  0  0  0  0  0  0  0
   -3.0791    5.3755   -0.2846 C   0  0  0  0  0  0  0  0  0  0  0  0
   -2.4478    6.2532   -0.0717 H   0  0  0  0  0  0  0  0  0  0  0  0
   -3.5571    5.5891   -1.2541 H   0  0  0  0  0  0  0  0  0  0  0  0
   -3.8940    5.4184    0.4556 H   0  0  0  0  0  0  0  0  0  0  0  0
   -2.2137    3.4712    0.9275 N   0  0  0  0  0  0  0  0  0  0  0  0
   -1.5102    2.2327    1.1338 C   0  0  2  0  0  0  0  0  0  0  0  0
   -1.3539    1.5497   -0.2184 C   0  0  0  0  0  0  0  0  0  0  0  0
   -2.0852    1.7861   -1.1778 O   0  0  0  0  0  0  0  0  0  0  0  0
   -2.2477    1.3342    2.1145 C   0  0  0  0  0  0  0  0  0  0  0  0
   -2.6724    3.9052    1.7265 H   0  0  0  0  0  0  0  0  0  0  0  0
   -0.5220    2.4922    1.5290 H   0  0  0  0  0  0  0  0  0  0  0  0
   -3.2400    1.0636    1.7358 H   0  0  0  0  0  0  0  0  0  0  0  0
   -1.6970    0.4046    2.2923 H   0  0  0  0  0  0  0  0  0  0  0  0
   -2.3854    1.8384    3.0772 H   0  0  0  0  0  0  0  0  0  0  0  0
   -0.3283    0.6116   -0.2182 N   0  0  0  0  0  0  0  0  0  0  0  0
    0.0090   -0.1762   -1.3759 C   0  0  2  0  0  0  0  0  0  0  0  0
   -0.9366    0.2224   -2.5018 C   0  0  0  0  0  0  0  0  0  0  0  0
   -1.7262   -0.5628   -3.0225 O   0  0  0  0  0  0  0  0  0  0  0  0
   -0.0841   -1.6735   -1.0938 C   0  0  0  0  0  0  0  0  0  0  0  0
    1.0018   -2.1206   -0.1462 C   0  0  0  0  0  0  0  0  0  0  0  0
    2.0974   -1.5816   -0.0578 O   0  0  0  0  0  0  0  0  0  0  0  0
    0.6394   -3.2005    0.5894 O   0  0  0  0  0  0  0  0  0  0  0  0
    0.2381    0.4970    0.6194 H   0  0  0  0  0  0  0  0  0  0  0  0
    1.0314    0.1074   -1.6531 H   0  0  0  0  0  0  0  0  0  0  0  0
   -1.0396   -1.9282   -0.6183 H   0  0  0  0  0  0  0  0  0  0  0  0
   -0.0403   -2.2746   -2.0101 H   0  0  0  0  0  0  0  0  0  0  0  0
    1.3255   -3.5286    1.2093 H   0  0  0  0  0  0  0  0  0  0  0  0
   -0.8286    1.5682   -2.8235 N   0  0  0  0  0  0  0  0  0  0  0  0
   -1.6310    2.1909   -3.8503 C   0  0  2  0  0  0  0  0  0  0  0  0
   -3.0786    2.1969   -3.3769 C   0  0  0  0  0  0  0  0  0  0  0  0
   -3.5104    1.4183   -2.5294 O   0  0  0  0  0  0  0  0  0  0  0  0
   -1.4960    1.4603   -5.1772 C   0  0  0  0  0  0  0  0  0  0  0  0
   -0.1581    2.1382   -2.3162 H   0  0  0  0  0  0  0  0  0  0  0  0
   -1.2741    3.2219   -3.9487 H   0  0  0  0  0  0  0  0  0  0  0  0
   -1.8488    0.4255   -5.0981 H   0  0  0  0  0  0  0  0  0  0  0  0
   -2.0824    1.9503   -5.9614 H   0  0  0  0  0  0  0  0  0  0  0  0
   -0.4501    1.4311   -5.5013 H   0  0  0  0  0  0  0  0  0  0  0  0
   -3.8417    3.1453   -4.0435 N   0  0  0  0  0  0  0  0  0  0  0  0
   -5.2489    3.3379   -3.7817 C   0  0  0  0  0  0  0  0  0  0  0  0
   -3.3964    3.7609   -4.7177 H   0  0  0  0  0  0  0  0  0  0  0  0
   -5.8392    2.7218   -4.4759 H   0  0  0  0  0  0  0  0  0  0  0  0
   -5.4732    3.0408   -2.7466 H   0  0  0  0  0  0  0  0  0  0  0  0
   -5.5063    4.3980   -3.9229 H   0  0  0  0  0  0  0  0  0  0  0  0
  1  3  1  0  0  0  0
  1  7  1  0  0  0  0
  1  2  2  0  0  0  0
 31 32  1  0  0  0  0
 32 40  1  0  0  0  0
 32 33  2  0  0  0  0
  8  9  1  0  0  0  0
  9 17  1  0  0  0  0
  9 10  2  0  0  0  0
 18 19  1  0  0  0  0
 19 30  1  0  0  0  0
 19 20  2  0  0  0  0
 21 22  1  0  0  0  0
 22 23  2  0  0  0  0
 22 24  1  0  0  0  0
 31 34  1  0  0  0  0
  8 11  1  0  0  0  0
 40 41  1  0  0  0  0
 18 21  1  0  0  0  0
 30 31  1  0  0  0  0
  7  8  1  0  0  0  0
 17 18  1  0  0  0  0
  3  4  1  0  0  0  0
  3  5  1  0  0  0  0
  3  6  1  0  0  0  0
 34 37  1  0  0  0  0
 34 38  1  0  0  0  0
 34 39  1  0  0  0  0
 11 14  1  0  0  0  0
 11 15  1  0  0  0  0
 11 16  1  0  0  0  0
 41 43  1  0  0  0  0
 41 44  1  0  0  0  0
 41 45  1  0  0  0  0
 21 27  1  0  0  0  0
 21 28  1  0  0  0  0
 31 36  1  0  0  0  0
  8 13  1  0  0  0  0
 18 26  1  0  0  0  0
 40 42  1  0  0  0  0
  7 12  1  0  0  0  0
 30 35  1  0  0  0  0
 17 25  1  0  0  0  0
 24 29  1  0  0  0  0
M  END
$$$$

  -OEChem-05262214473D

 45 44  0     1  0  0  0  0  0999 V2000
   -2.2987    4.1032   -0.3022 C   0  0  0  0  0  0  0  0  0  0  0  0
   -1.8049    3.7117   -1.3532 O   0  0  0  0  0  0  0  0  0  0  0  0
   -3.0791    5.3755   -0.2846 C   0  0  0  0  0  0  0  0  0  0  0  0
   -2.4478    6.2532   -0.0717 H   0  0  0  0  0  0  0  0  0  0  0  0
   -3.5571    5.5891   -1.2541 H   0  0  0  0  0  0  0  0  0  0  0  0
   -3.8940    5.4184    0.4556 H   0  0  0  0  0  0  0  0  0  0  0  0
   -2.2137    3.4712    0.9275 N   0  0  0  0  0  0  0  0  0  0  0  0
   -1.5102    2.2327    1.1338 C   0  0  2  0  0  0  0  0  0  0  0  0
   -1.3539    1.5497   -0.2184 C   0  0  0  0  0  0  0  0  0  0  0  0
   -2.0852    1.7861   -1.1778 O   0  0  0  0  0  0  0  0  0  0  0  0
   -2.2477    1.3342    2.1145 C   0  0  0  0  0  0  0  0  0  0  0  0
   -2.6724    3.9052    1.7265 H   0  0  0  0  0  0  0  0  0  0  0  0
   -0.5220    2.4922    1.5290 H   0  0  0  0  0  0  0  0  0  0  0  0
   -3.2400    1.0636    1.7358 H   0  0  0  0  0  0  0  0  0  0  0  0
   -1.6970    0.4046    2.2923 H   0  0  0  0  0  0  0  0  0  0  0  0
   -2.3854    1.8384    3.0772 H   0  0  0  0  0  0  0  0  0  0  0  0
   -0.3283    0.6116   -0.2182 N   0  0  0  0  0  0  0  0  0  0  0  0
    0.0090   -0.1762   -1.3759 C   0  0  2  0  0  0  0  0  0  0  0  0
   -0.9366    0.2224   -2.5018 C   0  0  0  0  0  0  0  0  0  0  0  0
   -1.8989   -0.4627   -2.8419 O   0  0  0  0  0  0  0  0  0  0  0  0
   -0.0841   -1.6735   -1.0938 C   0  0  0  0  0  0  0  0  0  0  0  0
    1.0018   -2.1206   -0.1462 C   0  0  0  0  0  0  0  0  0  0  0  0
    2.0974   -1.5816   -0.0578 O   0  0  0  0  0  0  0  0  0  0  0  0
    0.6394   -3.2005    0.5894 O   0  0  0  0  0  0  0  0  0  0  0  0
    0.2381    0.4970    0.6194 H   0  0  0  0  0  0  0  0  0  0  0  0
    1.0314    0.1074   -1.6531 H   0  0  0  0  0  0  0  0  0  0  0  0
   -1.0396   -1.9282   -0.6183 H   0  0  0  0  0  0  0  0  0  0  0  0
   -0.0403   -2.2746   -2.0101 H   0  0  0  0  0  0  0  0  0  0  0  0
    1.3255   -3.5286    1.2093 H   0  0  0  0  0  0  0  0  0  0  0  0
   -0.6077    1.4547   -3.0492 N   0  0  0  0  0  0  0  0  0  0  0  0
   -1.3632    2.0574   -4.1224 C   0  0  2  0  0  0  0  0  0  0  0  0
   -2.7399    2.4210   -3.5820 C   0  0  0  0  0  0  0  0  0  0  0  0
   -3.2366    1.8827   -2.5948 O   0  0  0  0  0  0  0  0  0  0  0  0
   -1.4774    1.1190   -5.3137 C   0  0  0  0  0  0  0  0  0  0  0  0
    0.1969    1.9528   -2.6800 H   0  0  0  0  0  0  0  0  0  0  0  0
   -0.8305    2.9702   -4.4104 H   0  0  0  0  0  0  0  0  0  0  0  0
   -2.0084    0.1986   -5.0444 H   0  0  0  0  0  0  0  0  0  0  0  0
   -2.0259    1.5881   -6.1372 H   0  0  0  0  0  0  0  0  0  0  0  0
   -0.4859    0.8349   -5.6824 H   0  0  0  0  0  0  0  0  0  0  0  0
   -3.3664    3.3868   -4.3571 N   0  0  0  0  0  0  0  0  0  0  0  0
   -4.6866    3.8906   -4.0583 C   0  0  0  0  0  0  0  0  0  0  0  0
   -2.8724    3.7914   -5.1471 H   0  0  0  0  0  0  0  0  0  0  0  0
   -5.4368    3.3033   -4.6080 H   0  0  0  0  0  0  0  0  0  0  0  0
   -4.8751    3.8066   -2.9778 H   0  0  0  0  0  0  0  0  0  0  0  0
   -4.7534    4.9460   -4.3611 H   0  0  0  0  0  0  0  0  0  0  0  0
  1  3  1  0  0  0  0
  1  7  1  0  0  0  0
  1  2  2  0  0  0  0
 31 32  1  0  0  0  0
 32 40  1  0  0  0  0
 32 33  2  0  0  0  0
  8  9  1  0  0  0  0
  9 17  1  0  0  0  0
  9 10  2  0  0  0  0
 18 19  1  0  0  0  0
 19 30  1  0  0  0  0
 19 20  2  0  0  0  0
 21 22  1  0  0  0  0
 22 23  2  0  0  0  0
 22 24  1  0  0  0  0
 31 34  1  0  0  0  0
  8 11  1  0  0  0  0
 40 41  1  0  0  0  0
 18 21  1  0  0  0  0
 30 31  1  0  0  0  0
  7  8  1  0  0  0  0
 17 18  1  0  0  0  0
  3  4  1  0  0  0  0
  3  5  1  0  0  0  0
  3  6  1  0  0  0  0
 34 37  1  0  0  0  0
 34 38  1  0  0  0  0
 34 39  1  0  0  0  0
 11 14  1  0  0  0  0
 11 15  1  0  0  0  0
 11 16  1  0  0  0  0
 41 43  1  0  0  0  0
 41 44  1  0  0  0  0
 41 45  1  0  0  0  0
 21 27  1  0  0  0  0
 21 28  1  0  0  0  0
 31 36  1  0  0  0  0
  8 13  1  0  0  0  0
 18 26  1  0  0  0  0
 40 42  1  0  0  0  0
  7 12  1  0  0  0  0
 30 35  1  0  0  0  0
 17 25  1  0  0  0  0
 24 29  1  0  0  0  0
M  END
$$$$

  -OEChem-05262214473D

 45 44  0     1  0  0  0  0  0999 V2000
   -2.2987    4.1032   -0.3022 C   0  0  0  0  0  0  0  0  0  0  0  0
   -1.8049    3.7117   -1.3532 O   0  0  0  0  0  0  0  0  0  0  0  0
   -3.0791    5.3755   -0.2846 C   0  0  0  0  0  0  0  0  0  0  0  0
   -2.4478    6.2532   -0.0717 H   0  0  0  0  0  0  0  0  0  0  0  0
   -3.5571    5.5891   -1.2541 H   0  0  0  0  0  0  0  0  0  0  0  0
   -3.8940    5.4184    0.4556 H   0  0  0  0  0  0  0  0  0  0  0  0
   -2.2137    3.4712    0.9275 N   0  0  0  0  0  0  0  0  0  0  0  0
   -1.5102    2.2327    1.1338 C   0  0  2  0  0  0  0  0  0  0  0  0
   -1.3539    1.5497   -0.2184 C   0  0  0  0  0  0  0  0  0  0  0  0
   -2.0852    1.7861   -1.1778 O   0  0  0  0  0  0  0  0  0  0  0  0
   -2.2477    1.3342    2.1145 C   0  0  0  0  0  0  0  0  0  0  0  0
   -2.6724    3.9052    1.7265 H   0  0  0  0  0  0  0  0  0  0  0  0
   -0.5220    2.4922    1.5290 H   0  0  0  0  0  0  0  0  0  0  0  0
   -3.2400    1.0636    1.7358 H   0  0  0  0  0  0  0  0  0  0  0  0
   -1.6970    0.4046    2.2923 H   0  0  0  0  0  0  0  0  0  0  0  0
   -2.3854    1.8384    3.0772 H   0  0  0  0  0  0  0  0  0  0  0  0
   -0.3283    0.6116   -0.2182 N   0  0  0  0  0  0  0  0  0  0  0  0
    0.0090   -0.1762   -1.3759 C   0  0  2  0  0  0  0  0  0  0  0  0
   -0.9366    0.2224   -2.5018 C   0  0  0  0  0  0  0  0  0  0  0  0
   -2.0344   -0.3039   -2.6720 O   0  0  0  0  0  0  0  0  0  0  0  0
   -0.0841   -1.6735   -1.0938 C   0  0  0  0  0  0  0  0  0  0  0  0
    1.0018   -2.1206   -0.1462 C   0  0  0  0  0  0  0  0  0  0  0  0
    2.0974   -1.5816   -0.0578 O   0  0  0  0  0  0  0  0  0  0  0  0
    0.6394   -3.2005    0.5894 O   0  0  0  0  0  0  0  0  0  0  0  0
    0.2381    0.4970    0.6194 H   0  0  0  0  0  0  0  0  0  0  0  0
    1.0314    0.1074   -1.6531 H   0  0  0  0  0  0  0  0  0  0  0  0
   -1.0396   -1.9282   -0.6183 H   0  0  0  0  0  0  0  0  0  0  0  0
   -0.0403   -2.2746   -2.0101 H   0  0  0  0  0  0  0  0  0  0  0  0
    1.3255   -3.5286    1.2093 H   0  0  0  0  0  0  0  0  0  0  0  0
   -0.4313    1.2665   -3.2639 N   0  0  0  0  0  0  0  0  0  0  0  0
   -1.1485    1.8334   -4.3820 C   0  0  2  0  0  0  0  0  0  0  0  0
   -2.3838    2.5397   -3.8390 C   0  0  0  0  0  0  0  0  0  0  0  0
   -2.8878    2.2683   -2.7512 O   0  0  0  0  0  0  0  0  0  0  0  0
   -1.5340    0.7638   -5.3920 C   0  0  0  0  0  0  0  0  0  0  0  0
    0.4797    1.6473   -3.0257 H   0  0  0  0  0  0  0  0  0  0  0  0
   -0.4814    2.5681   -4.8460 H   0  0  0  0  0  0  0  0  0  0  0  0
   -2.2023    0.0186   -4.9452 H   0  0  0  0  0  0  0  0  0  0  0  0
   -2.0525    1.1991   -6.2526 H   0  0  0  0  0  0  0  0  0  0  0  0
   -0.6467    0.2367   -5.7592 H   0  0  0  0  0  0  0  0  0  0  0  0
   -2.8824    3.4788   -4.7310 N   0  0  0  0  0  0  0  0  0  0  0  0
   -4.0564    4.2725   -4.4523 C   0  0  0  0  0  0  0  0  0  0  0  0
   -2.3894    3.6516   -5.6022 H   0  0  0  0  0  0  0  0  0  0  0  0
   -4.9459    3.7668   -4.8562 H   0  0  0  0  0  0  0  0  0  0  0  0
   -4.1665    4.3946   -3.3646 H   0  0  0  0  0  0  0  0  0  0  0  0
   -3.9511    5.2609   -4.9235 H   0  0  0  0  0  0  0  0  0  0  0  0
  1  3  1  0  0  0  0
  1  7  1  0  0  0  0
  1  2  2  0  0  0  0
 31 32  1  0  0  0  0
 32 40  1  0  0  0  0
 32 33  2  0  0  0  0
  8  9  1  0  0  0  0
  9 17  1  0  0  0  0
  9 10  2  0  0  0  0
 18 19  1  0  0  0  0
 19 30  1  0  0  0  0
 19 20  2  0  0  0  0
 21 22  1  0  0  0  0
 22 23  2  0  0  0  0
 22 24  1  0  0  0  0
 31 34  1  0  0  0  0
  8 11  1  0  0  0  0
 40 41  1  0  0  0  0
 18 21  1  0  0  0  0
 30 31  1  0  0  0  0
  7  8  1  0  0  0  0
 17 18  1  0  0  0  0
  3  4  1  0  0  0  0
  3  5  1  0  0  0  0
  3  6  1  0  0  0  0
 34 37  1  0  0  0  0
 34 38  1  0  0  0  0
 34 39  1  0  0  0  0
 11 14  1  0  0  0  0
 11 15  1  0  0  0  0
 11 16  1  0  0  0  0
 41 43  1  0  0  0  0
 41 44  1  0  0  0  0
 41 45  1  0  0  0  0
 21 27  1  0  0  0  0
 21 28  1  0  0  0  0
 31 36  1  0  0  0  0
  8 13  1  0  0  0  0
 18 26  1  0  0  0  0
 40 42  1  0  0  0  0
  7 12  1  0  0  0  0
 30 35  1  0  0  0  0
 17 25  1  0  0  0  0
 24 29  1  0  0  0  0
M  END
$$$$

  -OEChem-05262214473D

 45 44  0     1  0  0  0  0  0999 V2000
   -2.2987    4.1032   -0.3022 C   0  0  0  0  0  0  0  0  0  0  0  0
   -1.8049    3.7117   -1.3532 O   0  0  0  0  0  0  0  0  0  0  0  0
   -3.0791    5.3755   -0.2846 C   0  0  0  0  0  0  0  0  0  0  0  0
   -2.4478    6.2532   -0.0717 H   0  0  0  0  0  0  0  0  0  0  0  0
   -3.5571    5.5891   -1.2541 H   0  0  0  0  0  0  0  0  0  0  0  0
   -3.8940    5.4184    0.4556 H   0  0  0  0  0  0  0  0  0  0  0  0
   -2.2137    3.4712    0.9275 N   0  0  0  0  0  0  0  0  0  0  0  0
   -1.5102    2.2327    1.1338 C   0  0  2  0  0  0  0  0  0  0  0  0
   -1.3539    1.5497   -0.2184 C   0  0  0  0  0  0  0  0  0  0  0  0
   -2.0852    1.7861   -1.1778 O   0  0  0  0  0  0  0  0  0  0  0  0
   -2.2477    1.3342    2.1145 C   0  0  0  0  0  0  0  0  0  0  0  0
   -2.6724    3.9052    1.7265 H   0  0  0  0  0  0  0  0  0  0  0  0
   -0.5220    2.4922    1.5290 H   0  0  0  0  0  0  0  0  0  0  0  0
   -3.2400    1.0636    1.7358 H   0  0  0  0  0  0  0  0  0  0  0  0
   -1.6970    0.4046    2.2923 H   0  0  0  0  0  0  0  0  0  0  0  0
   -2.3854    1.8384    3.0772 H   0  0  0  0  0  0  0  0  0  0  0  0
   -0.3283    0.6116   -0.2182 N   0  0  0  0  0  0  0  0  0  0  0  0
    0.0090   -0.1762   -1.3759 C   0  0  2  0  0  0  0  0  0  0  0  0
   -0.9366    0.2224   -2.5018 C   0  0  0  0  0  0  0  0  0  0  0  0
   -2.1234   -0.0974   -2.5241 O   0  0  0  0  0  0  0  0  0  0  0  0
   -0.0841   -1.6735   -1.0938 C   0  0  0  0  0  0  0  0  0  0  0  0
    1.0018   -2.1206   -0.1462 C   0  0  0  0  0  0  0  0  0  0  0  0
    2.0974   -1.5816   -0.0578 O   0  0  0  0  0  0  0  0  0  0  0  0
    0.6394   -3.2005    0.5894 O   0  0  0  0  0  0  0  0  0  0  0  0
    0.2381    0.4970    0.6194 H   0  0  0  0  0  0  0  0  0  0  0  0
    1.0314    0.1074   -1.6531 H   0  0  0  0  0  0  0  0  0  0  0  0
   -1.0396   -1.9282   -0.6183 H   0  0  0  0  0  0  0  0  0  0  0  0
   -0.0403   -2.2746   -2.0101 H   0  0  0  0  0  0  0  0  0  0  0  0
    1.3255   -3.5286    1.2093 H   0  0  0  0  0  0  0  0  0  0  0  0
   -0.3115    1.0165   -3.4531 N   0  0  0  0  0  0  0  0  0  0  0  0
   -1.0016    1.5344   -4.6113 C   0  0  2  0  0  0  0  0  0  0  0  0
   -2.0345    2.5450   -4.1305 C   0  0  0  0  0  0  0  0  0  0  0  0
   -2.4877    2.5490   -2.9879 O   0  0  0  0  0  0  0  0  0  0  0  0
   -1.6618    0.4189   -5.4067 C   0  0  0  0  0  0  0  0  0  0  0  0
    0.6711    1.2426   -3.3297 H   0  0  0  0  0  0  0  0  0  0  0  0
   -0.2506    2.0429   -5.2257 H   0  0  0  0  0  0  0  0  0  0  0  0
   -2.4174   -0.1022   -4.8074 H   0  0  0  0  0  0  0  0  0  0  0  0
   -2.1604    0.8099   -6.2998 H   0  0  0  0  0  0  0  0  0  0  0  0
   -0.9217   -0.3226   -5.7263 H   0  0  0  0  0  0  0  0  0  0  0  0
   -2.4226    3.4150   -5.1398 N   0  0  0  0  0  0  0  0  0  0  0  0
   -3.4014    4.4575   -4.9369 C   0  0  0  0  0  0  0  0  0  0  0  0
   -1.9804    3.3511   -6.0520 H   0  0  0  0  0  0  0  0  0  0  0  0
   -4.3998    4.0807   -5.2036 H   0  0  0  0  0  0  0  0  0  0  0  0
   -3.3957    4.7650   -3.8808 H   0  0  0  0  0  0  0  0  0  0  0  0
   -3.1539    5.3212   -5.5716 H   0  0  0  0  0  0  0  0  0  0  0  0
  1  3  1  0  0  0  0
  1  7  1  0  0  0  0
  1  2  2  0  0  0  0
 31 32  1  0  0  0  0
 32 40  1  0  0  0  0
 32 33  2  0  0  0  0
  8  9  1  0  0  0  0
  9 17  1  0  0  0  0
  9 10  2  0  0  0  0
 18 19  1  0  0  0  0
 19 30  1  0  0  0  0
 19 20  2  0  0  0  0
 21 22  1  0  0  0  0
 22 23  2  0  0  0  0
 22 24  1  0  0  0  0
 31 34  1  0  0  0  0
  8 11  1  0  0  0  0
 40 41  1  0  0  0  0
 18 21  1  0  0  0  0
 30 31  1  0  0  0  0
  7  8  1  0  0  0  0
 17 18  1  0  0  0  0
  3  4  1  0  0  0  0
  3  5  1  0  0  0  0
  3  6  1  0  0  0  0
 34 37  1  0  0  0  0
 34 38  1  0  0  0  0
 34 39  1  0  0  0  0
 11 14  1  0  0  0  0
 11 15  1  0  0  0  0
 11 16  1  0  0  0  0
 41 43  1  0  0  0  0
 41 44  1  0  0  0  0
 41 45  1  0  0  0  0
 21 27  1  0  0  0  0
 21 28  1  0  0  0  0
 31 36  1  0  0  0  0
  8 13  1  0  0  0  0
 18 26  1  0  0  0  0
 40 42  1  0  0  0  0
  7 12  1  0  0  0  0
 30 35  1  0  0  0  0
 17 25  1  0  0  0  0
 24 29  1  0  0  0  0
M  END
$$$$

  -OEChem-05262214473D

 45 44  0     1  0  0  0  0  0999 V2000
   -2.2987    4.1032   -0.3022 C   0  0  0  0  0  0  0  0  0  0  0  0
   -1.8049    3.7117   -1.3532 O   0  0  0  0  0  0  0  0  0  0  0  0
   -3.0791    5.3755   -0.2846 C   0  0  0  0  0  0  0  0  0  0  0  0
   -2.4478    6.2532   -0.0717 H   0  0  0  0  0  0  0  0  0  0  0  0
   -3.5571    5.5891   -1.2541 H   0  0  0  0  0  0  0  0  0  0  0  0
   -3.8940    5.4184    0.4556 H   0  0  0  0  0  0  0  0  0  0  0  0
   -2.2137    3.4712    0.9275 N   0  0  0  0  0  0  0  0  0  0  0  0
   -1.5102    2.2327    1.1338 C   0  0  2  0  0  0  0  0  0  0  0  0
   -1.3539    1.5497   -0.2184 C   0  0  0  0  0  0  0  0  0  0  0  0
   -2.0852    1.7861   -1.1778 O   0  0  0  0  0  0  0  0  0  0  0  0
   -2.2477    1.3342    2.1145 C   0  0  0  0  0  0  0  0  0  0  0  0
   -2.6724    3.9052    1.7265 H   0  0  0  0  0  0  0  0  0  0  0  0
   -0.5220    2.4922    1.5290 H   0  0  0  0  0  0  0  0  0  0  0  0
   -3.2400    1.0636    1.7358 H   0  0  0  0  0  0  0  0  0  0  0  0
   -1.6970    0.4046    2.2923 H   0  0  0  0  0  0  0  0  0  0  0  0
   -2.3854    1.8384    3.0772 H   0  0  0  0  0  0  0  0  0  0  0  0
   -0.3283    0.6116   -0.2182 N   0  0  0  0  0  0  0  0  0  0  0  0
    0.0090   -0.1762   -1.3759 C   0  0  2  0  0  0  0  0  0  0  0  0
   -0.9366    0.2224   -2.5018 C   0  0  0  0  0  0  0  0  0  0  0  0
   -2.1598    0.1429   -2.4084 O   0  0  0  0  0  0  0  0  0  0  0  0
   -0.0841   -1.6735   -1.0938 C   0  0  0  0  0  0  0  0  0  0  0  0
    1.0018   -2.1206   -0.1462 C   0  0  0  0  0  0  0  0  0  0  0  0
    2.0974   -1.5816   -0.0578 O   0  0  0  0  0  0  0  0  0  0  0  0
    0.6394   -3.2005    0.5894 O   0  0  0  0  0  0  0  0  0  0  0  0
    0.2381    0.4970    0.6194 H   0  0  0  0  0  0  0  0  0  0  0  0
    1.0314    0.1074   -1.6531 H   0  0  0  0  0  0  0  0  0  0  0  0
   -1.0396   -1.9282   -0.6183 H   0  0  0  0  0  0  0  0  0  0  0  0
   -0.0403   -2.2746   -2.0101 H   0  0  0  0  0  0  0  0  0  0  0  0
    1.3255   -3.5286    1.2093 H   0  0  0  0  0  0  0  0  0  0  0  0
   -0.2564    0.7217   -3.6037 N   0  0  0  0  0  0  0  0  0  0  0  0
   -0.9324    1.1805   -4.7947 C   0  0  2  0  0  0  0  0  0  0  0  0
   -1.7158    2.4365   -4.4365 C   0  0  0  0  0  0  0  0  0  0  0  0
   -2.0636    2.7056   -3.2886 O   0  0  0  0  0  0  0  0  0  0  0  0
   -1.8523    0.1079   -5.3568 C   0  0  0  0  0  0  0  0  0  0  0  0
    0.7579    0.7662   -3.5713 H   0  0  0  0  0  0  0  0  0  0  0  0
   -0.1539    1.4305   -5.5238 H   0  0  0  0  0  0  0  0  0  0  0  0
   -2.6389   -0.1557   -4.6403 H   0  0  0  0  0  0  0  0  0  0  0  0
   -2.3422    0.4470   -6.2755 H   0  0  0  0  0  0  0  0  0  0  0  0
   -1.2921   -0.8050   -5.5861 H   0  0  0  0  0  0  0  0  0  0  0  0
   -2.0183    3.1998   -5.5555 N   0  0  0  0  0  0  0  0  0  0  0  0
   -2.7661    4.4331   -5.4791 C   0  0  0  0  0  0  0  0  0  0  0  0
   -1.6734    2.9103   -6.4660 H   0  0  0  0  0  0  0  0  0  0  0  0
   -3.8358    4.2237   -5.6267 H   0  0  0  0  0  0  0  0  0  0  0  0
   -2.6154    4.8924   -4.4910 H   0  0  0  0  0  0  0  0  0  0  0  0
   -2.4163    5.1229   -6.2613 H   0  0  0  0  0  0  0  0  0  0  0  0
  1  3  1  0  0  0  0
  1  7  1  0  0  0  0
  1  2  2  0  0  0  0
 31 32  1  0  0  0  0
 32 40  1  0  0  0  0
 32 33  2  0  0  0  0
  8  9  1  0  0  0  0
  9 17  1  0  0  0  0
  9 10  2  0  0  0  0
 18 19  1  0  0  0  0
 19 30  1  0  0  0  0
 19 20  2  0  0  0  0
 21 22  1  0  0  0  0
 22 23  2  0  0  0  0
 22 24  1  0  0  0  0
 31 34  1  0  0  0  0
  8 11  1  0  0  0  0
 40 41  1  0  0  0  0
 18 21  1  0  0  0  0
 30 31  1  0  0  0  0
  7  8  1  0  0  0  0
 17 18  1  0  0  0  0
  3  4  1  0  0  0  0
  3  5  1  0  0  0  0
  3  6  1  0  0  0  0
 34 37  1  0  0  0  0
 34 38  1  0  0  0  0
 34 39  1  0  0  0  0
 11 14  1  0  0  0  0
 11 15  1  0  0  0  0
 11 16  1  0  0  0  0
 41 43  1  0  0  0  0
 41 44  1  0  0  0  0
 41 45  1  0  0  0  0
 21 27  1  0  0  0  0
 21 28  1  0  0  0  0
 31 36  1  0  0  0  0
  8 13  1  0  0  0  0
 18 26  1  0  0  0  0
 40 42  1  0  0  0  0
  7 12  1  0  0  0  0
 30 35  1  0  0  0  0
 17 25  1  0  0  0  0
 24 29  1  0  0  0  0
M  END
$$$$

  -OEChem-05262214473D

 45 44  0     1  0  0  0  0  0999 V2000
   -2.2987    4.1032   -0.3022 C   0  0  0  0  0  0  0  0  0  0  0  0
   -1.8049    3.7117   -1.3532 O   0  0  0  0  0  0  0  0  0  0  0  0
   -3.0791    5.3755   -0.2846 C   0  0  0  0  0  0  0  0  0  0  0  0
   -2.4478    6.2532   -0.0717 H   0  0  0  0  0  0  0  0  0  0  0  0
   -3.5571    5.5891   -1.2541 H   0  0  0  0  0  0  0  0  0  0  0  0
   -3.8940    5.4184    0.4556 H   0  0  0  0  0  0  0  0  0  0  0  0
   -2.2137    3.4712    0.9275 N   0  0  0  0  0  0  0  0  0  0  0  0
   -1.5102    2.2327    1.1338 C   0  0  2  0  0  0  0  0  0  0  0  0
   -1.3539    1.5497   -0.2184 C   0  0  0  0  0  0  0  0  0  0  0  0
   -2.0852    1.7861   -1.1778 O   0  0  0  0  0  0  0  0  0  0  0  0
   -2.2477    1.3342    2.1145 C   0  0  0  0  0  0  0  0  0  0  0  0
   -2.6724    3.9052    1.7265 H   0  0  0  0  0  0  0  0  0  0  0  0
   -0.5220    2.4922    1.5290 H   0  0  0  0  0  0  0  0  0  0  0  0
   -3.2400    1.0636    1.7358 H   0  0  0  0  0  0  0  0  0  0  0  0
   -1.6970    0.4046    2.2923 H   0  0  0  0  0  0  0  0  0  0  0  0
   -2.3854    1.8384    3.0772 H   0  0  0  0  0  0  0  0  0  0  0  0
   -0.3283    0.6116   -0.2182 N   0  0  0  0  0  0  0  0  0  0  0  0
    0.0090   -0.1762   -1.3759 C   0  0  2  0  0  0  0  0  0  0  0  0
   -0.9366    0.2224   -2.5018 C   0  0  0  0  0  0  0  0  0  0  0  0
   -2.1411    0.4006   -2.3329 O   0  0  0  0  0  0  0  0  0  0  0  0
   -0.0841   -1.6735   -1.0938 C   0  0  0  0  0  0  0  0  0  0  0  0
    1.0018   -2.1206   -0.1462 C   0  0  0  0  0  0  0  0  0  0  0  0
    2.0974   -1.5816   -0.0578 O   0  0  0  0  0  0  0  0  0  0  0  0
    0.6394   -3.2005    0.5894 O   0  0  0  0  0  0  0  0  0  0  0  0
    0.2381    0.4970    0.6194 H   0  0  0  0  0  0  0  0  0  0  0  0
    1.0314    0.1074   -1.6531 H   0  0  0  0  0  0  0  0  0  0  0  0
   -1.0396   -1.9282   -0.6183 H   0  0  0  0  0  0  0  0  0  0  0  0
   -0.0403   -2.2746   -2.0101 H   0  0  0  0  0  0  0  0  0  0  0  0
    1.3255   -3.5286    1.2093 H   0  0  0  0  0  0  0  0  0  0  0  0
   -0.2698    0.4022   -3.7056 N   0  0  0  0  0  0  0  0  0  0  0  0
   -0.9457    0.7961   -4.9197 C   0  0  2  0  0  0  0  0  0  0  0  0
   -1.4495    2.2215   -4.7363 C   0  0  0  0  0  0  0  0  0  0  0  0
   -1.6443    2.7274   -3.6330 O   0  0  0  0  0  0  0  0  0  0  0  0
   -2.0924   -0.1481   -5.2458 C   0  0  0  0  0  0  0  0  0  0  0  0
    0.7342    0.2507   -3.7340 H   0  0  0  0  0  0  0  0  0  0  0  0
   -0.1979    0.7725   -5.7199 H   0  0  0  0  0  0  0  0  0  0  0  0
   -2.8517   -0.1381   -4.4553 H   0  0  0  0  0  0  0  0  0  0  0  0
   -2.5857    0.1351   -6.1815 H   0  0  0  0  0  0  0  0  0  0  0  0
   -1.7326   -1.1776   -5.3480 H   0  0  0  0  0  0  0  0  0  0  0  0
   -1.6972    2.8477   -5.9499 N   0  0  0  0  0  0  0  0  0  0  0  0
   -2.1938    4.2008   -6.0419 C   0  0  0  0  0  0  0  0  0  0  0  0
   -1.4891    2.3593   -6.8158 H   0  0  0  0  0  0  0  0  0  0  0  0
   -3.2923    4.1859   -6.0965 H   0  0  0  0  0  0  0  0  0  0  0  0
   -1.8786    4.7682   -5.1538 H   0  0  0  0  0  0  0  0  0  0  0  0
   -1.7884    4.6794   -6.9456 H   0  0  0  0  0  0  0  0  0  0  0  0
  1  3  1  0  0  0  0
  1  7  1  0  0  0  0
  1  2  2  0  0  0  0
 31 32  1  0  0  0  0
 32 40  1  0  0  0  0
 32 33  2  0  0  0  0
  8  9  1  0  0  0  0
  9 17  1  0  0  0  0
  9 10  2  0  0  0  0
 18 19  1  0  0  0  0
 19 30  1  0  0  0  0
 19 20  2  0  0  0  0
 21 22  1  0  0  0  0
 22 23  2  0  0  0  0
 22 24  1  0  0  0  0
 31 34  1  0  0  0  0
  8 11  1  0  0  0  0
 40 41  1  0  0  0  0
 18 21  1  0  0  0  0
 30 31  1  0  0  0  0
  7  8  1  0  0  0  0
 17 18  1  0  0  0  0
  3  4  1  0  0  0  0
  3  5  1  0  0  0  0
  3  6  1  0  0  0  0
 34 37  1  0  0  0  0
 34 38  1  0  0  0  0
 34 39  1  0  0  0  0
 11 14  1  0  0  0  0
 11 15  1  0  0  0  0
 11 16  1  0  0  0  0
 41 43  1  0  0  0  0
 41 44  1  0  0  0  0
 41 45  1  0  0  0  0
 21 27  1  0  0  0  0
 21 28  1  0  0  0  0
 31 36  1  0  0  0  0
  8 13  1  0  0  0  0
 18 26  1  0  0  0  0
 40 42  1  0  0  0  0
  7 12  1  0  0  0  0
 30 35  1  0  0  0  0
 17 25  1  0  0  0  0
 24 29  1  0  0  0  0
M  END
$$$$

  -OEChem-05262214473D

 45 44  0     1  0  0  0  0  0999 V2000
   -2.2987    4.1032   -0.3022 C   0  0  0  0  0  0  0  0  0  0  0  0
   -1.8049    3.7117   -1.3532 O   0  0  0  0  0  0  0  0  0  0  0  0
   -3.0791    5.3755   -0.2846 C   0  0  0  0  0  0  0  0  0  0  0  0
   -2.4478    6.2532   -0.0717 H   0  0  0  0  0  0  0  0  0  0  0  0
   -3.5571    5.5891   -1.2541 H   0  0  0  0  0  0  0  0  0  0  0  0
   -3.8940    5.4184    0.4556 H   0  0  0  0  0  0  0  0  0  0  0  0
   -2.2137    3.4712    0.9275 N   0  0  0  0  0  0  0  0  0  0  0  0
   -1.5102    2.2327    1.1338 C   0  0  2  0  0  0  0  0  0  0  0  0
   -1.3539    1.5497   -0.2184 C   0  0  0  0  0  0  0  0  0  0  0  0
   -2.0852    1.7861   -1.1778 O   0  0  0  0  0  0  0  0  0  0  0  0
   -2.2477    1.3342    2.1145 C   0  0  0  0  0  0  0  0  0  0  0  0
   -2.6724    3.9052    1.7265 H   0  0  0  0  0  0  0  0  0  0  0  0
   -0.5220    2.4922    1.5290 H   0  0  0  0  0  0  0  0  0  0  0  0
   -3.2400    1.0636    1.7358 H   0  0  0  0  0  0  0  0  0  0  0  0
   -1.6970    0.4046    2.2923 H   0  0  0  0  0  0  0  0  0  0  0  0
   -2.3854    1.8384    3.0772 H   0  0  0  0  0  0  0  0  0  0  0  0
   -0.3283    0.6116   -0.2182 N   0  0  0  0  0  0  0  0  0  0  0  0
    0.0090   -0.1762   -1.3759 C   0  0  2  0  0  0  0  0  0  0  0  0
   -0.9366    0.2224   -2.5018 C   0  0  0  0  0  0  0  0  0  0  0  0
   -2.0687    0.6581   -2.3025 O   0  0  0  0  0  0  0  0  0  0  0  0
   -0.0841   -1.6735   -1.0938 C   0  0  0  0  0  0  0  0  0  0  0  0
    1.0018   -2.1206   -0.1462 C   0  0  0  0  0  0  0  0  0  0  0  0
    2.0974   -1.5816   -0.0578 O   0  0  0  0  0  0  0  0  0  0  0  0
    0.6394   -3.2005    0.5894 O   0  0  0  0  0  0  0  0  0  0  0  0
    0.2381    0.4970    0.6194 H   0  0  0  0  0  0  0  0  0  0  0  0
    1.0314    0.1074   -1.6531 H   0  0  0  0  0  0  0  0  0  0  0  0
   -1.0396   -1.9282   -0.6183 H   0  0  0  0  0  0  0  0  0  0  0  0
   -0.0403   -2.2746   -2.0101 H   0  0  0  0  0  0  0  0  0  0  0  0
    1.3255   -3.5286    1.2093 H   0  0  0  0  0  0  0  0  0  0  0  0
   -0.3507    0.0798   -3.7518 N   0  0  0  0  0  0  0  0  0  0  0  0
   -1.0405    0.4071   -4.9778 C   0  0  2  0  0  0  0  0  0  0  0  0
   -1.2537    1.9148   -5.0094 C   0  0  0  0  0  0  0  0  0  0  0  0
   -1.2585    2.6129   -3.9976 O   0  0  0  0  0  0  0  0  0  0  0  0
   -2.3658   -0.3315   -5.0812 C   0  0  0  0  0  0  0  0  0  0  0  0
    0.6018   -0.2689   -3.8067 H   0  0  0  0  0  0  0  0  0  0  0  0
   -0.3794    0.1139   -5.8006 H   0  0  0  0  0  0  0  0  0  0  0  0
   -3.0414   -0.0506   -4.2651 H   0  0  0  0  0  0  0  0  0  0  0  0
   -2.8741   -0.1044   -6.0241 H   0  0  0  0  0  0  0  0  0  0  0  0
   -2.2133   -1.4149   -5.0284 H   0  0  0  0  0  0  0  0  0  0  0  0
   -1.4811    2.3829   -6.2960 N   0  0  0  0  0  0  0  0  0  0  0  0
   -1.7236    3.7766   -6.5870 C   0  0  0  0  0  0  0  0  0  0  0  0
   -1.4403    1.7356   -7.0777 H   0  0  0  0  0  0  0  0  0  0  0  0
   -2.8064    3.9700   -6.5810 H   0  0  0  0  0  0  0  0  0  0  0  0
   -1.2356    4.4007   -5.8239 H   0  0  0  0  0  0  0  0  0  0  0  0
   -1.3131    4.0210   -7.5779 H   0  0  0  0  0  0  0  0  0  0  0  0
  1  3  1  0  0  0  0
  1  7  1  0  0  0  0
  1  2  2  0  0  0  0
 31 32  1  0  0  0  0
 32 40  1  0  0  0  0
 32 33  2  0  0  0  0
  8  9  1  0  0  0  0
  9 17  1  0  0  0  0
  9 10  2  0  0  0  0
 18 19  1  0  0  0  0
 19 30  1  0  0  0  0
 19 20  2  0  0  0  0
 21 22  1  0  0  0  0
 22 23  2  0  0  0  0
 22 24  1  0  0  0  0
 31 34  1  0  0  0  0
  8 11  1  0  0  0  0
 40 41  1  0  0  0  0
 18 21  1  0  0  0  0
 30 31  1  0  0  0  0
  7  8  1  0  0  0  0
 17 18  1  0  0  0  0
  3  4  1  0  0  0  0
  3  5  1  0  0  0  0
  3  6  1  0  0  0  0
 34 37  1  0  0  0  0
 34 38  1  0  0  0  0
 34 39  1  0  0  0  0
 11 14  1  0  0  0  0
 11 15  1  0  0  0  0
 11 16  1  0  0  0  0
 41 43  1  0  0  0  0
 41 44  1  0  0  0  0
 41 45  1  0  0  0  0
 21 27  1  0  0  0  0
 21 28  1  0  0  0  0
 31 36  1  0  0  0  0
  8 13  1  0  0  0  0
 18 26  1  0  0  0  0
 40 42  1  0  0  0  0
  7 12  1  0  0  0  0
 30 35  1  0  0  0  0
 17 25  1  0  0  0  0
 24 29  1  0  0  0  0
M  END
$$$$

  -OEChem-05262214473D

 45 44  0     1  0  0  0  0  0999 V2000
   -2.2987    4.1032   -0.3022 C   0  0  0  0  0  0  0  0  0  0  0  0
   -1.8049    3.7117   -1.3532 O   0  0  0  0  0  0  0  0  0  0  0  0
   -3.0791    5.3755   -0.2846 C   0  0  0  0  0  0  0  0  0  0  0  0
   -2.4478    6.2532   -0.0717 H   0  0  0  0  0  0  0  0  0  0  0  0
   -3.5571    5.5891   -1.2541 H   0  0  0  0  0  0  0  0  0  0  0  0
   -3.8940    5.4184    0.4556 H   0  0  0  0  0  0  0  0  0  0  0  0
   -2.2137    3.4712    0.9275 N   0  0  0  0  0  0  0  0  0  0  0  0
   -1.5102    2.2327    1.1338 C   0  0  2  0  0  0  0  0  0  0  0  0
   -1.3539    1.5497   -0.2184 C   0  0  0  0  0  0  0  0  0  0  0  0
   -2.0852    1.7861   -1.1778 O   0  0  0  0  0  0  0  0  0  0  0  0
   -2.2477    1.3342    2.1145 C   0  0  0  0  0  0  0  0  0  0  0  0
   -2.6724    3.9052    1.7265 H   0  0  0  0  0  0  0  0  0  0  0  0
   -0.5220    2.4922    1.5290 H   0  0  0  0  0  0  0  0  0  0  0  0
   -3.2400    1.0636    1.7358 H   0  0  0  0  0  0  0  0  0  0  0  0
   -1.6970    0.4046    2.2923 H   0  0  0  0  0  0  0  0  0  0  0  0
   -2.3854    1.8384    3.0772 H   0  0  0  0  0  0  0  0  0  0  0  0
   -0.3283    0.6116   -0.2182 N   0  0  0  0  0  0  0  0  0  0  0  0
    0.0090   -0.1762   -1.3759 C   0  0  2  0  0  0  0  0  0  0  0  0
   -0.9366    0.2224   -2.5018 C   0  0  0  0  0  0  0  0  0  0  0  0
   -1.9475    0.8978   -2.3194 O   0  0  0  0  0  0  0  0  0  0  0  0
   -0.0841   -1.6735   -1.0938 C   0  0  0  0  0  0  0  0  0  0  0  0
    1.0018   -2.1206   -0.1462 C   0  0  0  0  0  0  0  0  0  0  0  0
    2.0974   -1.5816   -0.0578 O   0  0  0  0  0  0  0  0  0  0  0  0
    0.6394   -3.2005    0.5894 O   0  0  0  0  0  0  0  0  0  0  0  0
    0.2381    0.4970    0.6194 H   0  0  0  0  0  0  0  0  0  0  0  0
    1.0314    0.1074   -1.6531 H   0  0  0  0  0  0  0  0  0  0  0  0
   -1.0396   -1.9282   -0.6183 H   0  0  0  0  0  0  0  0  0  0  0  0
   -0.0403   -2.2746   -2.0101 H   0  0  0  0  0  0  0  0  0  0  0  0
    1.3255   -3.5286    1.2093 H   0  0  0  0  0  0  0  0  0  0  0  0
   -0.4937   -0.2235   -3.7392 N   0  0  0  0  0  0  0  0  0  0  0  0
   -1.2104    0.0403   -4.9650 C   0  0  2  0  0  0  0  0  0  0  0  0
   -1.1418    1.5372   -5.2371 C   0  0  0  0  0  0  0  0  0  0  0  0
   -0.9324    2.3699   -4.3575 O   0  0  0  0  0  0  0  0  0  0  0  0
   -2.6538   -0.4300   -4.8742 C   0  0  0  0  0  0  0  0  0  0  0  0
    0.3695   -0.7571   -3.7845 H   0  0  0  0  0  0  0  0  0  0  0  0
   -0.6863   -0.5005   -5.7605 H   0  0  0  0  0  0  0  0  0  0  0  0
   -3.1951    0.1007   -4.0825 H   0  0  0  0  0  0  0  0  0  0  0  0
   -3.1879   -0.2553   -5.8140 H   0  0  0  0  0  0  0  0  0  0  0  0
   -2.7013   -1.5009   -4.6490 H   0  0  0  0  0  0  0  0  0  0  0  0
   -1.3846    1.8370   -6.5702 N   0  0  0  0  0  0  0  0  0  0  0  0
   -1.3875    3.1894   -7.0772 C   0  0  0  0  0  0  0  0  0  0  0  0
   -1.5301    1.0818   -7.2337 H   0  0  0  0  0  0  0  0  0  0  0  0
   -2.4112    3.5906   -7.0472 H   0  0  0  0  0  0  0  0  0  0  0  0
   -0.7301    3.8152   -6.4557 H   0  0  0  0  0  0  0  0  0  0  0  0
   -1.0228    3.1925   -8.1150 H   0  0  0  0  0  0  0  0  0  0  0  0
  1  3  1  0  0  0  0
  1  7  1  0  0  0  0
  1  2  2  0  0  0  0
 31 32  1  0  0  0  0
 32 40  1  0  0  0  0
 32 33  2  0  0  0  0
  8  9  1  0  0  0  0
  9 17  1  0  0  0  0
  9 10  2  0  0  0  0
 18 19  1  0  0  0  0
 19 30  1  0  0  0  0
 19 20  2  0  0  0  0
 21 22  1  0  0  0  0
 22 23  2  0  0  0  0
 22 24  1  0  0  0  0
 31 34  1  0  0  0  0
  8 11  1  0  0  0  0
 40 41  1  0  0  0  0
 18 21  1  0  0  0  0
 30 31  1  0  0  0  0
  7  8  1  0  0  0  0
 17 18  1  0  0  0  0
  3  4  1  0  0  0  0
  3  5  1  0  0  0  0
  3  6  1  0  0  0  0
 34 37  1  0  0  0  0
 34 38  1  0  0  0  0
 34 39  1  0  0  0  0
 11 14  1  0  0  0  0
 11 15  1  0  0  0  0
 11 16  1  0  0  0  0
 41 43  1  0  0  0  0
 41 44  1  0  0  0  0
 41 45  1  0  0  0  0
 21 27  1  0  0  0  0
 21 28  1  0  0  0  0
 31 36  1  0  0  0  0
  8 13  1  0  0  0  0
 18 26  1  0  0  0  0
 40 42  1  0  0  0  0
  7 12  1  0  0  0  0
 30 35  1  0  0  0  0
 17 25  1  0  0  0  0
 24 29  1  0  0  0  0
M  END
$$$$

  -OEChem-05262214473D

 45 44  0     1  0  0  0  0  0999 V2000
   -2.2987    4.1032   -0.3022 C   0  0  0  0  0  0  0  0  0  0  0  0
   -1.8049    3.7117   -1.3532 O   0  0  0  0  0  0  0  0  0  0  0  0
   -3.0791    5.3755   -0.2846 C   0  0  0  0  0  0  0  0  0  0  0  0
   -2.4478    6.2532   -0.0717 H   0  0  0  0  0  0  0  0  0  0  0  0
   -3.5571    5.5891   -1.2541 H   0  0  0  0  0  0  0  0  0  0  0  0
   -3.8940    5.4184    0.4556 H   0  0  0  0  0  0  0  0  0  0  0  0
   -2.2137    3.4712    0.9275 N   0  0  0  0  0  0  0  0  0  0  0  0
   -1.5102    2.2327    1.1338 C   0  0  2  0  0  0  0  0  0  0  0  0
   -1.3539    1.5497   -0.2184 C   0  0  0  0  0  0  0  0  0  0  0  0
   -2.0852    1.7861   -1.1778 O   0  0  0  0  0  0  0  0  0  0  0  0
   -2.2477    1.3342    2.1145 C   0  0  0  0  0  0  0  0  0  0  0  0
   -2.6724    3.9052    1.7265 H   0  0  0  0  0  0  0  0  0  0  0  0
   -0.5220    2.4922    1.5290 H   0  0  0  0  0  0  0  0  0  0  0  0
   -3.2400    1.0636    1.7358 H   0  0  0  0  0  0  0  0  0  0  0  0
   -1.6970    0.4046    2.2923 H   0  0  0  0  0  0  0  0  0  0  0  0
   -2.3854    1.8384    3.0772 H   0  0  0  0  0  0  0  0  0  0  0  0
   -0.3283    0.6116   -0.2182 N   0  0  0  0  0  0  0  0  0  0  0  0
    0.0090   -0.1762   -1.3759 C   0  0  2  0  0  0  0  0  0  0  0  0
   -0.6583    0.4651   -2.5859 C   0  0  0  0  0  0  0  0  0  0  0  0
   -1.3183    1.4999   -2.5162 O   0  0  0  0  0  0  0  0  0  0  0  0
   -0.4277   -1.6308   -1.2229 C   0  0  0  0  0  0  0  0  0  0  0  0
    0.3919   -2.3411   -0.1738 C   0  0  0  0  0  0  0  0  0  0  0  0
    1.5488   -2.0517    0.1023 O   0  0  0  0  0  0  0  0  0  0  0  0
   -0.2877   -3.3518    0.4223 O   0  0  0  0  0  0  0  0  0  0  0  0
    0.2381    0.4970    0.6194 H   0  0  0  0  0  0  0  0  0  0  0  0
    1.0973   -0.1039   -1.4901 H   0  0  0  0  0  0  0  0  0  0  0  0
   -1.4748   -1.6982   -0.9015 H   0  0  0  0  0  0  0  0  0  0  0  0
   -0.3722   -2.1851   -2.1677 H   0  0  0  0  0  0  0  0  0  0  0  0
    0.2178   -3.8461    1.1026 H   0  0  0  0  0  0  0  0  0  0  0  0
   -0.3905   -0.2269   -3.7587 N   0  0  0  0  0  0  0  0  0  0  0  0
   -0.8992    0.1915   -5.0441 C   0  0  2  0  0  0  0  0  0  0  0  0
   -0.2259    1.5075   -5.4106 C   0  0  0  0  0  0  0  0  0  0  0  0
    0.2706    2.2619   -4.5768 O   0  0  0  0  0  0  0  0  0  0  0  0
   -2.4121    0.3439   -5.0174 C   0  0  0  0  0  0  0  0  0  0  0  0
    0.1866   -1.0615   -3.7112 H   0  0  0  0  0  0  0  0  0  0  0  0
   -0.6101   -0.5807   -5.7653 H   0  0  0  0  0  0  0  0  0  0  0  0
   -2.7209    1.1133   -4.3004 H   0  0  0  0  0  0  0  0  0  0  0  0
   -2.7991    0.6334   -6.0000 H   0  0  0  0  0  0  0  0  0  0  0  0
   -2.8934   -0.5955   -4.7246 H   0  0  0  0  0  0  0  0  0  0  0  0
   -0.2829    1.7609   -6.7739 N   0  0  0  0  0  0  0  0  0  0  0  0
    0.2748    2.9526   -7.3694 C   0  0  0  0  0  0  0  0  0  0  0  0
   -0.6971    1.0707   -7.3936 H   0  0  0  0  0  0  0  0  0  0  0  0
   -0.5019    3.7289   -7.4339 H   0  0  0  0  0  0  0  0  0  0  0  0
    1.1069    3.3173   -6.7492 H   0  0  0  0  0  0  0  0  0  0  0  0
    0.6447    2.7194   -8.3788 H   0  0  0  0  0  0  0  0  0  0  0  0
  1  3  1  0  0  0  0
  1  7  1  0  0  0  0
  1  2  2  0  0  0  0
 31 32  1  0  0  0  0
 32 40  1  0  0  0  0
 32 33  2  0  0  0  0
  8  9  1  0  0  0  0
  9 17  1  0  0  0  0
  9 10  2  0  0  0  0
 18 19  1  0  0  0  0
 19 30  1  0  0  0  0
 19 20  2  0  0  0  0
 21 22  1  0  0  0  0
 22 23  2  0  0  0  0
 22 24  1  0  0  0  0
 31 34  1  0  0  0  0
  8 11  1  0  0  0  0
 40 41  1  0  0  0  0
 18 21  1  0  0  0  0
 30 31  1  0  0  0  0
  7  8  1  0  0  0  0
 17 18  1  0  0  0  0
  3  4  1  0  0  0  0
  3  5  1  0  0  0  0
  3  6  1  0  0  0  0
 34 37  1  0  0  0  0
 34 38  1  0  0  0  0
 34 39  1  0  0  0  0
 11 14  1  0  0  0  0
 11 15  1  0  0  0  0
 11 16  1  0  0  0  0
 41 43  1  0  0  0  0
 41 44  1  0  0  0  0
 41 45  1  0  0  0  0
 21 27  1  0  0  0  0
 21 28  1  0  0  0  0
 31 36  1  0  0  0  0
  8 13  1  0  0  0  0
 18 26  1  0  0  0  0
 40 42  1  0  0  0  0
  7 12  1  0  0  0  0
 30 35  1  0  0  0  0
 17 25  1  0  0  0  0
 24 29  1  0  0  0  0
M  END
$$$$

  -OEChem-05262214473D

 45 44  0     1  0  0  0  0  0999 V2000
   -2.2987    4.1032   -0.3022 C   0  0  0  0  0  0  0  0  0  0  0  0
   -1.8049    3.7117   -1.3532 O   0  0  0  0  0  0  0  0  0  0  0  0
   -3.0791    5.3755   -0.2846 C   0  0  0  0  0  0  0  0  0  0  0  0
   -2.4478    6.2532   -0.0717 H   0  0  0  0  0  0  0  0  0  0  0  0
   -3.5571    5.5891   -1.2541 H   0  0  0  0  0  0  0  0  0  0  0  0
   -3.8940    5.4184    0.4556 H   0  0  0  0  0  0  0  0  0  0  0  0
   -2.2137    3.4712    0.9275 N   0  0  0  0  0  0  0  0  0  0  0  0
   -1.5102    2.2327    1.1338 C   0  0  2  0  0  0  0  0  0  0  0  0
   -1.3539    1.5497   -0.2184 C   0  0  0  0  0  0  0  0  0  0  0  0
   -2.0852    1.7861   -1.1778 O   0  0  0  0  0  0  0  0  0  0  0  0
   -2.2477    1.3342    2.1145 C   0  0  0  0  0  0  0  0  0  0  0  0
   -2.6724    3.9052    1.7265 H   0  0  0  0  0  0  0  0  0  0  0  0
   -0.5220    2.4922    1.5290 H   0  0  0  0  0  0  0  0  0  0  0  0
   -3.2400    1.0636    1.7358 H   0  0  0  0  0  0  0  0  0  0  0  0
   -1.6970    0.4046    2.2923 H   0  0  0  0  0  0  0  0  0  0  0  0
   -2.3854    1.8384    3.0772 H   0  0  0  0  0  0  0  0  0  0  0  0
   -0.3283    0.6116   -0.2182 N   0  0  0  0  0  0  0  0  0  0  0  0
    0.0090   -0.1762   -1.3759 C   0  0  2  0  0  0  0  0  0  0  0  0
   -0.6583    0.4651   -2.5859 C   0  0  0  0  0  0  0  0  0  0  0  0
   -1.0855    1.6178   -2.5821 O   0  0  0  0  0  0  0  0  0  0  0  0
   -0.4277   -1.6308   -1.2229 C   0  0  0  0  0  0  0  0  0  0  0  0
    0.3919   -2.3411   -0.1738 C   0  0  0  0  0  0  0  0  0  0  0  0
    1.5488   -2.0517    0.1023 O   0  0  0  0  0  0  0  0  0  0  0  0
   -0.2877   -3.3518    0.4223 O   0  0  0  0  0  0  0  0  0  0  0  0
    0.2381    0.4970    0.6194 H   0  0  0  0  0  0  0  0  0  0  0  0
    1.0973   -0.1039   -1.4901 H   0  0  0  0  0  0  0  0  0  0  0  0
   -1.4748   -1.6982   -0.9015 H   0  0  0  0  0  0  0  0  0  0  0  0
   -0.3722   -2.1851   -2.1677 H   0  0  0  0  0  0  0  0  0  0  0  0
    0.2178   -3.8461    1.1026 H   0  0  0  0  0  0  0  0  0  0  0  0
   -0.6775   -0.3839   -3.6836 N   0  0  0  0  0  0  0  0  0  0  0  0
   -1.2441   -0.0005   -4.9556 C   0  0  2  0  0  0  0  0  0  0  0  0
   -0.3714    1.0986   -5.5471 C   0  0  0  0  0  0  0  0  0  0  0  0
    0.3626    1.8117   -4.8661 O   0  0  0  0  0  0  0  0  0  0  0  0
   -2.6817    0.4709   -4.8014 C   0  0  0  0  0  0  0  0  0  0  0  0
   -0.2769   -1.3124   -3.5886 H   0  0  0  0  0  0  0  0  0  0  0  0
   -1.2039   -0.8858   -5.5995 H   0  0  0  0  0  0  0  0  0  0  0  0
   -2.7421    1.3573   -4.1594 H   0  0  0  0  0  0  0  0  0  0  0  0
   -3.1191    0.7341   -5.7702 H   0  0  0  0  0  0  0  0  0  0  0  0
   -3.3016   -0.3104   -4.3484 H   0  0  0  0  0  0  0  0  0  0  0  0
   -0.5410    1.2179   -6.9194 N   0  0  0  0  0  0  0  0  0  0  0  0
    0.1669    2.1974   -7.7102 C   0  0  0  0  0  0  0  0  0  0  0  0
   -1.1562    0.5717   -7.4049 H   0  0  0  0  0  0  0  0  0  0  0  0
   -0.4415    3.1098   -7.7953 H   0  0  0  0  0  0  0  0  0  0  0  0
    1.1237    2.4388   -7.2241 H   0  0  0  0  0  0  0  0  0  0  0  0
    0.3582    1.7894   -8.7137 H   0  0  0  0  0  0  0  0  0  0  0  0
  1  3  1  0  0  0  0
  1  7  1  0  0  0  0
  1  2  2  0  0  0  0
 31 32  1  0  0  0  0
 32 40  1  0  0  0  0
 32 33  2  0  0  0  0
  8  9  1  0  0  0  0
  9 17  1  0  0  0  0
  9 10  2  0  0  0  0
 18 19  1  0  0  0  0
 19 30  1  0  0  0  0
 19 20  2  0  0  0  0
 21 22  1  0  0  0  0
 22 23  2  0  0  0  0
 22 24  1  0  0  0  0
 31 34  1  0  0  0  0
  8 11  1  0  0  0  0
 40 41  1  0  0  0  0
 18 21  1  0  0  0  0
 30 31  1  0  0  0  0
  7  8  1  0  0  0  0
 17 18  1  0  0  0  0
  3  4  1  0  0  0  0
  3  5  1  0  0  0  0
  3  6  1  0  0  0  0
 34 37  1  0  0  0  0
 34 38  1  0  0  0  0
 34 39  1  0  0  0  0
 11 14  1  0  0  0  0
 11 15  1  0  0  0  0
 11 16  1  0  0  0  0
 41 43  1  0  0  0  0
 41 44  1  0  0  0  0
 41 45  1  0  0  0  0
 21 27  1  0  0  0  0
 21 28  1  0  0  0  0
 31 36  1  0  0  0  0
  8 13  1  0  0  0  0
 18 26  1  0  0  0  0
 40 42  1  0  0  0  0
  7 12  1  0  0  0  0
 30 35  1  0  0  0  0
 17 25  1  0  0  0  0
 24 29  1  0  0  0  0
M  END
$$$$

  -OEChem-05262214473D

 45 44  0     1  0  0  0  0  0999 V2000
   -2.2987    4.1032   -0.3022 C   0  0  0  0  0  0  0  0  0  0  0  0
   -1.8049    3.7117   -1.3532 O   0  0  0  0  0  0  0  0  0  0  0  0
   -3.0791    5.3755   -0.2846 C   0  0  0  0  0  0  0  0  0  0  0  0
   -2.4478    6.2532   -0.0717 H   0  0  0  0  0  0  0  0  0  0  0  0
   -3.5571    5.5891   -1.2541 H   0  0  0  0  0  0  0  0  0  0  0  0
   -3.8940    5.4184    0.4556 H   0  0  0  0  0  0  0  0  0  0  0  0
   -2.2137    3.4712    0.9275 N   0  0  0  0  0  0  0  0  0  0  0  0
   -1.5102    2.2327    1.1338 C   0  0  2  0  0  0  0  0  0  0  0  0
   -1.3539    1.5497   -0.2184 C   0  0  0  0  0  0  0  0  0  0  0  0
   -2.0852    1.7861   -1.1778 O   0  0  0  0  0  0  0  0  0  0  0  0
   -2.2477    1.3342    2.1145 C   0  0  0  0  0  0  0  0  0  0  0  0
   -2.6724    3.9052    1.7265 H   0  0  0  0  0  0  0  0  0  0  0  0
   -0.5220    2.4922    1.5290 H   0  0  0  0  0  0  0  0  0  0  0  0
   -3.2400    1.0636    1.7358 H   0  0  0  0  0  0  0  0  0  0  0  0
   -1.6970    0.4046    2.2923 H   0  0  0  0  0  0  0  0  0  0  0  0
   -2.3854    1.8384    3.0772 H   0  0  0  0  0  0  0  0  0  0  0  0
   -0.3283    0.6116   -0.2182 N   0  0  0  0  0  0  0  0  0  0  0  0
    0.0090   -0.1762   -1.3759 C   0  0  2  0  0  0  0  0  0  0  0  0
   -0.6583    0.4651   -2.5859 C   0  0  0  0  0  0  0  0  0  0  0  0
   -0.8435    1.6764   -2.6845 O   0  0  0  0  0  0  0  0  0  0  0  0
   -0.4277   -1.6308   -1.2229 C   0  0  0  0  0  0  0  0  0  0  0  0
    0.3919   -2.3411   -0.1738 C   0  0  0  0  0  0  0  0  0  0  0  0
    1.5488   -2.0517    0.1023 O   0  0  0  0  0  0  0  0  0  0  0  0
   -0.2877   -3.3518    0.4223 O   0  0  0  0  0  0  0  0  0  0  0  0
    0.2381    0.4970    0.6194 H   0  0  0  0  0  0  0  0  0  0  0  0
    1.0973   -0.1039   -1.4901 H   0  0  0  0  0  0  0  0  0  0  0  0
   -1.4748   -1.6982   -0.9015 H   0  0  0  0  0  0  0  0  0  0  0  0
   -0.3722   -2.1851   -2.1677 H   0  0  0  0  0  0  0  0  0  0  0  0
    0.2178   -3.8461    1.1026 H   0  0  0  0  0  0  0  0  0  0  0  0
   -0.9788   -0.4679   -3.5620 N   0  0  0  0  0  0  0  0  0  0  0  0
   -1.6071   -0.1050   -4.8108 C   0  0  2  0  0  0  0  0  0  0  0  0
   -0.6108    0.7180   -5.6168 C   0  0  0  0  0  0  0  0  0  0  0  0
    0.3274    1.3252   -5.1046 O   0  0  0  0  0  0  0  0  0  0  0  0
   -2.8926    0.6735   -4.5778 C   0  0  0  0  0  0  0  0  0  0  0  0
   -0.7628   -1.4457   -3.3913 H   0  0  0  0  0  0  0  0  0  0  0  0
   -1.8222   -1.0397   -5.3400 H   0  0  0  0  0  0  0  0  0  0  0  0
   -2.6970    1.6133   -4.0486 H   0  0  0  0  0  0  0  0  0  0  0  0
   -3.3824    0.9231   -5.5247 H   0  0  0  0  0  0  0  0  0  0  0  0
   -3.5963    0.0917   -3.9728 H   0  0  0  0  0  0  0  0  0  0  0  0
   -0.9178    0.7300   -6.9702 N   0  0  0  0  0  0  0  0  0  0  0  0
   -0.1297    1.4514   -7.9420 C   0  0  0  0  0  0  0  0  0  0  0  0
   -1.7035    0.1828   -7.3092 H   0  0  0  0  0  0  0  0  0  0  0  0
   -0.5498    2.4585   -8.0809 H   0  0  0  0  0  0  0  0  0  0  0  0
    0.9076    1.5329   -7.5851 H   0  0  0  0  0  0  0  0  0  0  0  0
   -0.1462    0.9120   -8.9006 H   0  0  0  0  0  0  0  0  0  0  0  0
  1  3  1  0  0  0  0
  1  7  1  0  0  0  0
  1  2  2  0  0  0  0
 31 32  1  0  0  0  0
 32 40  1  0  0  0  0
 32 33  2  0  0  0  0
  8  9  1  0  0  0  0
  9 17  1  0  0  0  0
  9 10  2  0  0  0  0
 18 19  1  0  0  0  0
 19 30  1  0  0  0  0
 19 20  2  0  0  0  0
 21 22  1  0  0  0  0
 22 23  2  0  0  0  0
 22 24  1  0  0  0  0
 31 34  1  0  0  0  0
  8 11  1  0  0  0  0
 40 41  1  0  0  0  0
 18 21  1  0  0  0  0
 30 31  1  0  0  0  0
  7  8  1  0  0  0  0
 17 18  1  0  0  0  0
  3  4  1  0  0  0  0
  3  5  1  0  0  0  0
  3  6  1  0  0  0  0
 34 37  1  0  0  0  0
 34 38  1  0  0  0  0
 34 39  1  0  0  0  0
 11 14  1  0  0  0  0
 11 15  1  0  0  0  0
 11 16  1  0  0  0  0
 41 43  1  0  0  0  0
 41 44  1  0  0  0  0
 41 45  1  0  0  0  0
 21 27  1  0  0  0  0
 21 28  1  0  0  0  0
 31 36  1  0  0  0  0
  8 13  1  0  0  0  0
 18 26  1  0  0  0  0
 40 42  1  0  0  0  0
  7 12  1  0  0  0  0
 30 35  1  0  0  0  0
 17 25  1  0  0  0  0
 24 29  1  0  0  0  0
M  END
$$$$

  -OEChem-05262214473D

 45 44  0     1  0  0  0  0  0999 V2000
   -2.2987    4.1032   -0.3022 C   0  0  0  0  0  0  0  0  0  0  0  0
   -1.8049    3.7117   -1.3532 O   0  0  0  0  0  0  0  0  0  0  0  0
   -3.0791    5.3755   -0.2846 C   0  0  0  0  0  0  0  0  0  0  0  0
   -2.4478    6.2532   -0.0717 H   0  0  0  0  0  0  0  0  0  0  0  0
   -3.5571    5.5891   -1.2541 H   0  0  0  0  0  0  0  0  0  0  0  0
   -3.8940    5.4184    0.4556 H   0  0  0  0  0  0  0  0  0  0  0  0
   -2.2137    3.4712    0.9275 N   0  0  0  0  0  0  0  0  0  0  0  0
   -1.5102    2.2327    1.1338 C   0  0  2  0  0  0  0  0  0  0  0  0
   -1.3539    1.5497   -0.2184 C   0  0  0  0  0  0  0  0  0  0  0  0
   -2.0852    1.7861   -1.1778 O   0  0  0  0  0  0  0  0  0  0  0  0
   -2.2477    1.3342    2.1145 C   0  0  0  0  0  0  0  0  0  0  0  0
   -2.6724    3.9052    1.7265 H   0  0  0  0  0  0  0  0  0  0  0  0
   -0.5220    2.4922    1.5290 H   0  0  0  0  0  0  0  0  0  0  0  0
   -3.2400    1.0636    1.7358 H   0  0  0  0  0  0  0  0  0  0  0  0
   -1.6970    0.4046    2.2923 H   0  0  0  0  0  0  0  0  0  0  0  0
   -2.3854    1.8384    3.0772 H   0  0  0  0  0  0  0  0  0  0  0  0
   -0.3283    0.6116   -0.2182 N   0  0  0  0  0  0  0  0  0  0  0  0
    0.0090   -0.1762   -1.3759 C   0  0  2  0  0  0  0  0  0  0  0  0
   -0.6583    0.4651   -2.5859 C   0  0  0  0  0  0  0  0  0  0  0  0
   -0.6089    1.6716   -2.8164 O   0  0  0  0  0  0  0  0  0  0  0  0
   -0.4277   -1.6308   -1.2229 C   0  0  0  0  0  0  0  0  0  0  0  0
    0.3919   -2.3411   -0.1738 C   0  0  0  0  0  0  0  0  0  0  0  0
    1.5488   -2.0517    0.1023 O   0  0  0  0  0  0  0  0  0  0  0  0
   -0.2877   -3.3518    0.4223 O   0  0  0  0  0  0  0  0  0  0  0  0
    0.2381    0.4970    0.6194 H   0  0  0  0  0  0  0  0  0  0  0  0
    1.0973   -0.1039   -1.4901 H   0  0  0  0  0  0  0  0  0  0  0  0
   -1.4748   -1.6982   -0.9015 H   0  0  0  0  0  0  0  0  0  0  0  0
   -0.3722   -2.1851   -2.1677 H   0  0  0  0  0  0  0  0  0  0  0  0
    0.2178   -3.8461    1.1026 H   0  0  0  0  0  0  0  0  0  0  0  0
   -1.2739   -0.4734   -3.4022 N   0  0  0  0  0  0  0  0  0  0  0  0
   -1.9634   -0.1149   -4.6196 C   0  0  2  0  0  0  0  0  0  0  0  0
   -0.9279    0.3918   -5.6148 C   0  0  0  0  0  0  0  0  0  0  0  0
    0.1673    0.8354   -5.2760 O   0  0  0  0  0  0  0  0  0  0  0  0
   -3.0302    0.9379   -4.3618 C   0  0  0  0  0  0  0  0  0  0  0  0
   -1.2380   -1.4521   -3.1326 H   0  0  0  0  0  0  0  0  0  0  0  0
   -2.4228   -1.0318   -5.0046 H   0  0  0  0  0  0  0  0  0  0  0  0
   -2.5888    1.8638   -3.9755 H   0  0  0  0  0  0  0  0  0  0  0  0
   -3.5712    1.1877   -5.2804 H   0  0  0  0  0  0  0  0  0  0  0  0
   -3.7574    0.5831   -3.6234 H   0  0  0  0  0  0  0  0  0  0  0  0
   -1.3876    0.3305   -6.9229 N   0  0  0  0  0  0  0  0  0  0  0  0
   -0.5948    0.7655   -8.0491 C   0  0  0  0  0  0  0  0  0  0  0  0
   -2.3016   -0.0696   -7.1131 H   0  0  0  0  0  0  0  0  0  0  0  0
   -0.8194    1.8193   -8.2710 H   0  0  0  0  0  0  0  0  0  0  0  0
    0.4733    0.6614   -7.8075 H   0  0  0  0  0  0  0  0  0  0  0  0
   -0.8342    0.1470   -8.9266 H   0  0  0  0  0  0  0  0  0  0  0  0
  1  3  1  0  0  0  0
  1  7  1  0  0  0  0
  1  2  2  0  0  0  0
 31 32  1  0  0  0  0
 32 40  1  0  0  0  0
 32 33  2  0  0  0  0
  8  9  1  0  0  0  0
  9 17  1  0  0  0  0
  9 10  2  0  0  0  0
 18 19  1  0  0  0  0
 19 30  1  0  0  0  0
 19 20  2  0  0  0  0
 21 22  1  0  0  0  0
 22 23  2  0  0  0  0
 22 24  1  0  0  0  0
 31 34  1  0  0  0  0
  8 11  1  0  0  0  0
 40 41  1  0  0  0  0
 18 21  1  0  0  0  0
 30 31  1  0  0  0  0
  7  8  1  0  0  0  0
 17 18  1  0  0  0  0
  3  4  1  0  0  0  0
  3  5  1  0  0  0  0
  3  6  1  0  0  0  0
 34 37  1  0  0  0  0
 34 38  1  0  0  0  0
 34 39  1  0  0  0  0
 11 14  1  0  0  0  0
 11 15  1  0  0  0  0
 11 16  1  0  0  0  0
 41 43  1  0  0  0  0
 41 44  1  0  0  0  0
 41 45  1  0  0  0  0
 21 27  1  0  0  0  0
 21 28  1  0  0  0  0
 31 36  1  0  0  0  0
  8 13  1  0  0  0  0
 18 26  1  0  0  0  0
 40 42  1  0  0  0  0
  7 12  1  0  0  0  0
 30 35  1  0  0  0  0
 17 25  1  0  0  0  0
 24 29  1  0  0  0  0
M  END
$$$$

  -OEChem-05262214473D

 45 44  0     1  0  0  0  0  0999 V2000
   -2.2987    4.1032   -0.3022 C   0  0  0  0  0  0  0  0  0  0  0  0
   -1.8049    3.7117   -1.3532 O   0  0  0  0  0  0  0  0  0  0  0  0
   -3.0791    5.3755   -0.2846 C   0  0  0  0  0  0  0  0  0  0  0  0
   -2.4478    6.2532   -0.0717 H   0  0  0  0  0  0  0  0  0  0  0  0
   -3.5571    5.5891   -1.2541 H   0  0  0  0  0  0  0  0  0  0  0  0
   -3.8940    5.4184    0.4556 H   0  0  0  0  0  0  0  0  0  0  0  0
   -2.2137    3.4712    0.9275 N   0  0  0  0  0  0  0  0  0  0  0  0
   -1.5102    2.2327    1.1338 C   0  0  2  0  0  0  0  0  0  0  0  0
   -1.3539    1.5497   -0.2184 C   0  0  0  0  0  0  0  0  0  0  0  0
   -2.0852    1.7861   -1.1778 O   0  0  0  0  0  0  0  0  0  0  0  0
   -2.2477    1.3342    2.1145 C   0  0  0  0  0  0  0  0  0  0  0  0
   -2.6724    3.9052    1.7265 H   0  0  0  0  0  0  0  0  0  0  0  0
   -0.5220    2.4922    1.5290 H   0  0  0  0  0  0  0  0  0  0  0  0
   -3.2400    1.0636    1.7358 H   0  0  0  0  0  0  0  0  0  0  0  0
   -1.6970    0.4046    2.2923 H   0  0  0  0  0  0  0  0  0  0  0  0
   -2.3854    1.8384    3.0772 H   0  0  0  0  0  0  0  0  0  0  0  0
   -0.3283    0.6116   -0.2182 N   0  0  0  0  0  0  0  0  0  0  0  0
    0.0090   -0.1762   -1.3759 C   0  0  2  0  0  0  0  0  0  0  0  0
   -0.6583    0.4651   -2.5859 C   0  0  0  0  0  0  0  0  0  0  0  0
   -0.3977    1.6038   -2.9689 O   0  0  0  0  0  0  0  0  0  0  0  0
   -0.4277   -1.6308   -1.2229 C   0  0  0  0  0  0  0  0  0  0  0  0
    0.3919   -2.3411   -0.1738 C   0  0  0  0  0  0  0  0  0  0  0  0
    1.5488   -2.0517    0.1023 O   0  0  0  0  0  0  0  0  0  0  0  0
   -0.2877   -3.3518    0.4223 O   0  0  0  0  0  0  0  0  0  0  0  0
    0.2381    0.4970    0.6194 H   0  0  0  0  0  0  0  0  0  0  0  0
    1.0973   -0.1039   -1.4901 H   0  0  0  0  0  0  0  0  0  0  0  0
   -1.4748   -1.6982   -0.9015 H   0  0  0  0  0  0  0  0  0  0  0  0
   -0.3722   -2.1851   -2.1677 H   0  0  0  0  0  0  0  0  0  0  0  0
    0.2178   -3.8461    1.1026 H   0  0  0  0  0  0  0  0  0  0  0  0
   -1.5426   -0.4000   -3.2151 N   0  0  0  0  0  0  0  0  0  0  0  0
   -2.2888   -0.0295   -4.3949 C   0  0  2  0  0  0  0  0  0  0  0  0
   -1.3010    0.1421   -5.5414 C   0  0  0  0  0  0  0  0  0  0  0  0
   -0.1066    0.3757   -5.3685 O   0  0  0  0  0  0  0  0  0  0  0  0
   -3.0852    1.2460   -4.1681 C   0  0  0  0  0  0  0  0  0  0  0  0
   -1.6702   -1.3313   -2.8302 H   0  0  0  0  0  0  0  0  0  0  0  0
   -2.9648   -0.8626   -4.6161 H   0  0  0  0  0  0  0  0  0  0  0  0
   -2.4247    2.0919   -3.9451 H   0  0  0  0  0  0  0  0  0  0  0  0
   -3.6725    1.5098   -5.0538 H   0  0  0  0  0  0  0  0  0  0  0  0
   -3.7739    1.1306   -3.3242 H   0  0  0  0  0  0  0  0  0  0  0  0
   -1.9183    0.0465   -6.7807 N   0  0  0  0  0  0  0  0  0  0  0  0
   -1.1967    0.1865   -8.0240 C   0  0  0  0  0  0  0  0  0  0  0  0
   -2.9099   -0.1681   -6.8299 H   0  0  0  0  0  0  0  0  0  0  0  0
   -1.2319    1.2357   -8.3528 H   0  0  0  0  0  0  0  0  0  0  0  0
   -0.1496   -0.1163   -7.8762 H   0  0  0  0  0  0  0  0  0  0  0  0
   -1.6588   -0.4534   -8.7901 H   0  0  0  0  0  0  0  0  0  0  0  0
  1  3  1  0  0  0  0
  1  7  1  0  0  0  0
  1  2  2  0  0  0  0
 31 32  1  0  0  0  0
 32 40  1  0  0  0  0
 32 33  2  0  0  0  0
  8  9  1  0  0  0  0
  9 17  1  0  0  0  0
  9 10  2  0  0  0  0
 18 19  1  0  0  0  0
 19 30  1  0  0  0  0
 19 20  2  0  0  0  0
 21 22  1  0  0  0  0
 22 23  2  0  0  0  0
 22 24  1  0  0  0  0
 31 34  1  0  0  0  0
  8 11  1  0  0  0  0
 40 41  1  0  0  0  0
 18 21  1  0  0  0  0
 30 31  1  0  0  0  0
  7  8  1  0  0  0  0
 17 18  1  0  0  0  0
  3  4  1  0  0  0  0
  3  5  1  0  0  0  0
  3  6  1  0  0  0  0
 34 37  1  0  0  0  0
 34 38  1  0  0  0  0
 34 39  1  0  0  0  0
 11 14  1  0  0  0  0
 11 15  1  0  0  0  0
 11 16  1  0  0  0  0
 41 43  1  0  0  0  0
 41 44  1  0  0  0  0
 41 45  1  0  0  0  0
 21 27  1  0  0  0  0
 21 28  1  0  0  0  0
 31 36  1  0  0  0  0
  8 13  1  0  0  0  0
 18 26  1  0  0  0  0
 40 42  1  0  0  0  0
  7 12  1  0  0  0  0
 30 35  1  0  0  0  0
 17 25  1  0  0  0  0
 24 29  1  0  0  0  0
M  END
$$$$

  -OEChem-05262214473D

 45 44  0     1  0  0  0  0  0999 V2000
   -2.2987    4.1032   -0.3022 C   0  0  0  0  0  0  0  0  0  0  0  0
   -1.8049    3.7117   -1.3532 O   0  0  0  0  0  0  0  0  0  0  0  0
   -3.0791    5.3755   -0.2846 C   0  0  0  0  0  0  0  0  0  0  0  0
   -2.4478    6.2532   -0.0717 H   0  0  0  0  0  0  0  0  0  0  0  0
   -3.5571    5.5891   -1.2541 H   0  0  0  0  0  0  0  0  0  0  0  0
   -3.8940    5.4184    0.4556 H   0  0  0  0  0  0  0  0  0  0  0  0
   -2.2137    3.4712    0.9275 N   0  0  0  0  0  0  0  0  0  0  0  0
   -1.5102    2.2327    1.1338 C   0  0  2  0  0  0  0  0  0  0  0  0
   -1.3539    1.5497   -0.2184 C   0  0  0  0  0  0  0  0  0  0  0  0
   -2.0852    1.7861   -1.1778 O   0  0  0  0  0  0  0  0  0  0  0  0
   -2.2477    1.3342    2.1145 C   0  0  0  0  0  0  0  0  0  0  0  0
   -2.6724    3.9052    1.7265 H   0  0  0  0  0  0  0  0  0  0  0  0
   -0.5220    2.4922    1.5290 H   0  0  0  0  0  0  0  0  0  0  0  0
   -3.2400    1.0636    1.7358 H   0  0  0  0  0  0  0  0  0  0  0  0
   -1.6970    0.4046    2.2923 H   0  0  0  0  0  0  0  0  0  0  0  0
   -2.3854    1.8384    3.0772 H   0  0  0  0  0  0  0  0  0  0  0  0
   -0.3283    0.6116   -0.2182 N   0  0  0  0  0  0  0  0  0  0  0  0
    0.0090   -0.1762   -1.3759 C   0  0  2  0  0  0  0  0  0  0  0  0
   -0.6583    0.4651   -2.5859 C   0  0  0  0  0  0  0  0  0  0  0  0
   -0.2242    1.4776   -3.1314 O   0  0  0  0  0  0  0  0  0  0  0  0
   -0.4277   -1.6308   -1.2229 C   0  0  0  0  0  0  0  0  0  0  0  0
    0.3919   -2.3411   -0.1738 C   0  0  0  0  0  0  0  0  0  0  0  0
    1.5488   -2.0517    0.1023 O   0  0  0  0  0  0  0  0  0  0  0  0
   -0.2877   -3.3518    0.4223 O   0  0  0  0  0  0  0  0  0  0  0  0
    0.2381    0.4970    0.6194 H   0  0  0  0  0  0  0  0  0  0  0  0
    1.0973   -0.1039   -1.4901 H   0  0  0  0  0  0  0  0  0  0  0  0
   -1.4748   -1.6982   -0.9015 H   0  0  0  0  0  0  0  0  0  0  0  0
   -0.3722   -2.1851   -2.1677 H   0  0  0  0  0  0  0  0  0  0  0  0
    0.2178   -3.8461    1.1026 H   0  0  0  0  0  0  0  0  0  0  0  0
   -1.7667   -0.2525   -3.0134 N   0  0  0  0  0  0  0  0  0  0  0  0
   -2.5610    0.1453   -4.1521 C   0  0  2  0  0  0  0  0  0  0  0  0
   -1.7048   -0.0141   -5.4015 C   0  0  0  0  0  0  0  0  0  0  0  0
   -0.4758   -0.0224   -5.3759 O   0  0  0  0  0  0  0  0  0  0  0  0
   -3.0539    1.5769   -4.0099 C   0  0  0  0  0  0  0  0  0  0  0  0
   -2.0298   -1.0915   -2.5048 H   0  0  0  0  0  0  0  0  0  0  0  0
   -3.4112   -0.5438   -4.2009 H   0  0  0  0  0  0  0  0  0  0  0  0
   -2.2161    2.2819   -3.9594 H   0  0  0  0  0  0  0  0  0  0  0  0
   -3.6795    1.8675   -4.8604 H   0  0  0  0  0  0  0  0  0  0  0  0
   -3.6447    1.6967   -3.0954 H   0  0  0  0  0  0  0  0  0  0  0  0
   -2.4739   -0.1027   -6.5534 N   0  0  0  0  0  0  0  0  0  0  0  0
   -1.8944   -0.2462   -7.8686 C   0  0  0  0  0  0  0  0  0  0  0  0
   -3.4869   -0.1061   -6.4788 H   0  0  0  0  0  0  0  0  0  0  0  0
   -1.7593    0.7475   -8.3207 H   0  0  0  0  0  0  0  0  0  0  0  0
   -0.9186   -0.7473   -7.7865 H   0  0  0  0  0  0  0  0  0  0  0  0
   -2.5639   -0.8484   -8.5003 H   0  0  0  0  0  0  0  0  0  0  0  0
  1  3  1  0  0  0  0
  1  7  1  0  0  0  0
  1  2  2  0  0  0  0
 31 32  1  0  0  0  0
 32 40  1  0  0  0  0
 32 33  2  0  0  0  0
  8  9  1  0  0  0  0
  9 17  1  0  0  0  0
  9 10  2  0  0  0  0
 18 19  1  0  0  0  0
 19 30  1  0  0  0  0
 19 20  2  0  0  0  0
 21 22  1  0  0  0  0
 22 23  2  0  0  0  0
 22 24  1  0  0  0  0
 31 34  1  0  0  0  0
  8 11  1  0  0  0  0
 40 41  1  0  0  0  0
 18 21  1  0  0  0  0
 30 31  1  0  0  0  0
  7  8  1  0  0  0  0
 17 18  1  0  0  0  0
  3  4  1  0  0  0  0
  3  5  1  0  0  0  0
  3  6  1  0  0  0  0
 34 37  1  0  0  0  0
 34 38  1  0  0  0  0
 34 39  1  0  0  0  0
 11 14  1  0  0  0  0
 11 15  1  0  0  0  0
 11 16  1  0  0  0  0
 41 43  1  0  0  0  0
 41 44  1  0  0  0  0
 41 45  1  0  0  0  0
 21 27  1  0  0  0  0
 21 28  1  0  0  0  0
 31 36  1  0  0  0  0
  8 13  1  0  0  0  0
 18 26  1  0  0  0  0
 40 42  1  0  0  0  0
  7 12  1  0  0  0  0
 30 35  1  0  0  0  0
 17 25  1  0  0  0  0
 24 29  1  0  0  0  0
M  END
$$$$

  -OEChem-05262214473D

 45 44  0     1  0  0  0  0  0999 V2000
   -2.2987    4.1032   -0.3022 C   0  0  0  0  0  0  0  0  0  0  0  0
   -1.8049    3.7117   -1.3532 O   0  0  0  0  0  0  0  0  0  0  0  0
   -3.0791    5.3755   -0.2846 C   0  0  0  0  0  0  0  0  0  0  0  0
   -2.4478    6.2532   -0.0717 H   0  0  0  0  0  0  0  0  0  0  0  0
   -3.5571    5.5891   -1.2541 H   0  0  0  0  0  0  0  0  0  0  0  0
   -3.8940    5.4184    0.4556 H   0  0  0  0  0  0  0  0  0  0  0  0
   -2.2137    3.4712    0.9275 N   0  0  0  0  0  0  0  0  0  0  0  0
   -1.5102    2.2327    1.1338 C   0  0  2  0  0  0  0  0  0  0  0  0
   -1.3539    1.5497   -0.2184 C   0  0  0  0  0  0  0  0  0  0  0  0
   -2.0852    1.7861   -1.1778 O   0  0  0  0  0  0  0  0  0  0  0  0
   -2.2477    1.3342    2.1145 C   0  0  0  0  0  0  0  0  0  0  0  0
   -2.6724    3.9052    1.7265 H   0  0  0  0  0  0  0  0  0  0  0  0
   -0.5220    2.4922    1.5290 H   0  0  0  0  0  0  0  0  0  0  0  0
   -3.2400    1.0636    1.7358 H   0  0  0  0  0  0  0  0  0  0  0  0
   -1.6970    0.4046    2.2923 H   0  0  0  0  0  0  0  0  0  0  0  0
   -2.3854    1.8384    3.0772 H   0  0  0  0  0  0  0  0  0  0  0  0
   -0.3283    0.6116   -0.2182 N   0  0  0  0  0  0  0  0  0  0  0  0
    0.0090   -0.1762   -1.3759 C   0  0  2  0  0  0  0  0  0  0  0  0
   -0.6583    0.4651   -2.5859 C   0  0  0  0  0  0  0  0  0  0  0  0
   -0.1003    1.3017   -3.2930 O   0  0  0  0  0  0  0  0  0  0  0  0
   -0.4277   -1.6308   -1.2229 C   0  0  0  0  0  0  0  0  0  0  0  0
    0.3919   -2.3411   -0.1738 C   0  0  0  0  0  0  0  0  0  0  0  0
    1.5488   -2.0517    0.1023 O   0  0  0  0  0  0  0  0  0  0  0  0
   -0.2877   -3.3518    0.4223 O   0  0  0  0  0  0  0  0  0  0  0  0
    0.2381    0.4970    0.6194 H   0  0  0  0  0  0  0  0  0  0  0  0
    1.0973   -0.1039   -1.4901 H   0  0  0  0  0  0  0  0  0  0  0  0
   -1.4748   -1.6982   -0.9015 H   0  0  0  0  0  0  0  0  0  0  0  0
   -0.3722   -2.1851   -2.1677 H   0  0  0  0  0  0  0  0  0  0  0  0
    0.2178   -3.8461    1.1026 H   0  0  0  0  0  0  0  0  0  0  0  0
   -1.9308   -0.0412   -2.8108 N   0  0  0  0  0  0  0  0  0  0  0  0
   -2.7616    0.3976   -3.9077 C   0  0  2  0  0  0  0  0  0  0  0  0
   -2.1117   -0.0661   -5.2047 C   0  0  0  0  0  0  0  0  0  0  0  0
   -0.9151   -0.3319   -5.2977 O   0  0  0  0  0  0  0  0  0  0  0  0
   -2.9384    1.9080   -3.8981 C   0  0  0  0  0  0  0  0  0  0  0  0
   -2.2925   -0.7490   -2.1784 H   0  0  0  0  0  0  0  0  0  0  0  0
   -3.7316   -0.0970   -3.7874 H   0  0  0  0  0  0  0  0  0  0  0  0
   -1.9771    2.4209   -4.0175 H   0  0  0  0  0  0  0  0  0  0  0  0
   -3.5916    2.2363   -4.7134 H   0  0  0  0  0  0  0  0  0  0  0  0
   -3.3785    2.2429   -2.9526 H   0  0  0  0  0  0  0  0  0  0  0  0
   -3.0164   -0.1067   -6.2564 N   0  0  0  0  0  0  0  0  0  0  0  0
   -2.6404   -0.5030   -7.5933 C   0  0  0  0  0  0  0  0  0  0  0  0
   -3.9932    0.1121   -6.0839 H   0  0  0  0  0  0  0  0  0  0  0  0
   -2.3656    0.3880   -8.1769 H   0  0  0  0  0  0  0  0  0  0  0  0
   -1.7814   -1.1885   -7.5445 H   0  0  0  0  0  0  0  0  0  0  0  0
   -3.4878   -1.0110   -8.0770 H   0  0  0  0  0  0  0  0  0  0  0  0
  1  3  1  0  0  0  0
  1  7  1  0  0  0  0
  1  2  2  0  0  0  0
 31 32  1  0  0  0  0
 32 40  1  0  0  0  0
 32 33  2  0  0  0  0
  8  9  1  0  0  0  0
  9 17  1  0  0  0  0
  9 10  2  0  0  0  0
 18 19  1  0  0  0  0
 19 30  1  0  0  0  0
 19 20  2  0  0  0  0
 21 22  1  0  0  0  0
 22 23  2  0  0  0  0
 22 24  1  0  0  0  0
 31 34  1  0  0  0  0
  8 11  1  0  0  0  0
 40 41  1  0  0  0  0
 18 21  1  0  0  0  0
 30 31  1  0  0  0  0
  7  8  1  0  0  0  0
 17 18  1  0  0  0  0
  3  4  1  0  0  0  0
  3  5  1  0  0  0  0
  3  6  1  0  0  0  0
 34 37  1  0  0  0  0
 34 38  1  0  0  0  0
 34 39  1  0  0  0  0
 11 14  1  0  0  0  0
 11 15  1  0  0  0  0
 11 16  1  0  0  0  0
 41 43  1  0  0  0  0
 41 44  1  0  0  0  0
 41 45  1  0  0  0  0
 21 27  1  0  0  0  0
 21 28  1  0  0  0  0
 31 36  1  0  0  0  0
  8 13  1  0  0  0  0
 18 26  1  0  0  0  0
 40 42  1  0  0  0  0
  7 12  1  0  0  0  0
 30 35  1  0  0  0  0
 17 25  1  0  0  0  0
 24 29  1  0  0  0  0
M  END
$$$$

  -OEChem-05262214473D

 45 44  0     1  0  0  0  0  0999 V2000
   -2.2987    4.1032   -0.3022 C   0  0  0  0  0  0  0  0  0  0  0  0
   -1.8049    3.7117   -1.3532 O   0  0  0  0  0  0  0  0  0  0  0  0
   -3.0791    5.3755   -0.2846 C   0  0  0  0  0  0  0  0  0  0  0  0
   -2.4478    6.2532   -0.0717 H   0  0  0  0  0  0  0  0  0  0  0  0
   -3.5571    5.5891   -1.2541 H   0  0  0  0  0  0  0  0  0  0  0  0
   -3.8940    5.4184    0.4556 H   0  0  0  0  0  0  0  0  0  0  0  0
   -2.2137    3.4712    0.9275 N   0  0  0  0  0  0  0  0  0  0  0  0
   -1.5102    2.2327    1.1338 C   0  0  2  0  0  0  0  0  0  0  0  0
   -1.3539    1.5497   -0.2184 C   0  0  0  0  0  0  0  0  0  0  0  0
   -2.0852    1.7861   -1.1778 O   0  0  0  0  0  0  0  0  0  0  0  0
   -2.2477    1.3342    2.1145 C   0  0  0  0  0  0  0  0  0  0  0  0
   -2.6724    3.9052    1.7265 H   0  0  0  0  0  0  0  0  0  0  0  0
   -0.5220    2.4922    1.5290 H   0  0  0  0  0  0  0  0  0  0  0  0
   -3.2400    1.0636    1.7358 H   0  0  0  0  0  0  0  0  0  0  0  0
   -1.6970    0.4046    2.2923 H   0  0  0  0  0  0  0  0  0  0  0  0
   -2.3854    1.8384    3.0772 H   0  0  0  0  0  0  0  0  0  0  0  0
   -0.3283    0.6116   -0.2182 N   0  0  0  0  0  0  0  0  0  0  0  0
    0.0090   -0.1762   -1.3759 C   0  0  2  0  0  0  0  0  0  0  0  0
   -0.6583    0.4651   -2.5859 C   0  0  0  0  0  0  0  0  0  0  0  0
   -0.0344    1.0879   -3.4427 O   0  0  0  0  0  0  0  0  0  0  0  0
   -0.4277   -1.6308   -1.2229 C   0  0  0  0  0  0  0  0  0  0  0  0
    0.3919   -2.3411   -0.1738 C   0  0  0  0  0  0  0  0  0  0  0  0
    1.5488   -2.0517    0.1023 O   0  0  0  0  0  0  0  0  0  0  0  0
   -0.2877   -3.3518    0.4223 O   0  0  0  0  0  0  0  0  0  0  0  0
    0.2381    0.4970    0.6194 H   0  0  0  0  0  0  0  0  0  0  0  0
    1.0973   -0.1039   -1.4901 H   0  0  0  0  0  0  0  0  0  0  0  0
   -1.4748   -1.6982   -0.9015 H   0  0  0  0  0  0  0  0  0  0  0  0
   -0.3722   -2.1851   -2.1677 H   0  0  0  0  0  0  0  0  0  0  0  0
    0.2178   -3.8461    1.1026 H   0  0  0  0  0  0  0  0  0  0  0  0
   -2.0238    0.2197   -2.6212 N   0  0  0  0  0  0  0  0  0  0  0  0
   -2.8768    0.7103   -3.6784 C   0  0  2  0  0  0  0  0  0  0  0  0
   -2.4939   -0.0103   -4.9643 C   0  0  0  0  0  0  0  0  0  0  0  0
   -1.3945   -0.5317   -5.1392 O   0  0  0  0  0  0  0  0  0  0  0  0
   -2.7466    2.2168   -3.8402 C   0  0  0  0  0  0  0  0  0  0  0  0
   -2.4402   -0.3272   -1.8733 H   0  0  0  0  0  0  0  0  0  0  0  0
   -3.9041    0.4473   -3.4037 H   0  0  0  0  0  0  0  0  0  0  0  0
   -1.7240    2.4995   -4.1155 H   0  0  0  0  0  0  0  0  0  0  0  0
   -3.4149    2.5911   -4.6227 H   0  0  0  0  0  0  0  0  0  0  0  0
   -2.9936    2.7320   -2.9057 H   0  0  0  0  0  0  0  0  0  0  0  0
   -3.5088    0.0346   -5.9099 N   0  0  0  0  0  0  0  0  0  0  0  0
   -3.3837   -0.5666   -7.2171 C   0  0  0  0  0  0  0  0  0  0  0  0
   -4.3943    0.4718   -5.6721 H   0  0  0  0  0  0  0  0  0  0  0  0
   -3.0095    0.1817   -7.9312 H   0  0  0  0  0  0  0  0  0  0  0  0
   -2.6791   -1.4098   -7.1668 H   0  0  0  0  0  0  0  0  0  0  0  0
   -4.3675   -0.9301   -7.5490 H   0  0  0  0  0  0  0  0  0  0  0  0
  1  3  1  0  0  0  0
  1  7  1  0  0  0  0
  1  2  2  0  0  0  0
 31 32  1  0  0  0  0
 32 40  1  0  0  0  0
 32 33  2  0  0  0  0
  8  9  1  0  0  0  0
  9 17  1  0  0  0  0
  9 10  2  0  0  0  0
 18 19  1  0  0  0  0
 19 30  1  0  0  0  0
 19 20  2  0  0  0  0
 21 22  1  0  0  0  0
 22 23  2  0  0  0  0
 22 24  1  0  0  0  0
 31 34  1  0  0  0  0
  8 11  1  0  0  0  0
 40 41  1  0  0  0  0
 18 21  1  0  0  0  0
 30 31  1  0  0  0  0
  7  8  1  0  0  0  0
 17 18  1  0  0  0  0
  3  4  1  0  0  0  0
  3  5  1  0  0  0  0
  3  6  1  0  0  0  0
 34 37  1  0  0  0  0
 34 38  1  0  0  0  0
 34 39  1  0  0  0  0
 11 14  1  0  0  0  0
 11 15  1  0  0  0  0
 11 16  1  0  0  0  0
 41 43  1  0  0  0  0
 41 44  1  0  0  0  0
 41 45  1  0  0  0  0
 21 27  1  0  0  0  0
 21 28  1  0  0  0  0
 31 36  1  0  0  0  0
  8 13  1  0  0  0  0
 18 26  1  0  0  0  0
 40 42  1  0  0  0  0
  7 12  1  0  0  0  0
 30 35  1  0  0  0  0
 17 25  1  0  0  0  0
 24 29  1  0  0  0  0
M  END
$$$$

  -OEChem-05262214473D

 45 44  0     1  0  0  0  0  0999 V2000
   -2.2987    4.1032   -0.3022 C   0  0  0  0  0  0  0  0  0  0  0  0
   -1.8049    3.7117   -1.3532 O   0  0  0  0  0  0  0  0  0  0  0  0
   -3.0791    5.3755   -0.2846 C   0  0  0  0  0  0  0  0  0  0  0  0
   -2.4478    6.2532   -0.0717 H   0  0  0  0  0  0  0  0  0  0  0  0
   -3.5571    5.5891   -1.2541 H   0  0  0  0  0  0  0  0  0  0  0  0
   -3.8940    5.4184    0.4556 H   0  0  0  0  0  0  0  0  0  0  0  0
   -2.2137    3.4712    0.9275 N   0  0  0  0  0  0  0  0  0  0  0  0
   -1.5102    2.2327    1.1338 C   0  0  2  0  0  0  0  0  0  0  0  0
   -1.3539    1.5497   -0.2184 C   0  0  0  0  0  0  0  0  0  0  0  0
   -2.0852    1.7861   -1.1778 O   0  0  0  0  0  0  0  0  0  0  0  0
   -2.2477    1.3342    2.1145 C   0  0  0  0  0  0  0  0  0  0  0  0
   -2.6724    3.9052    1.7265 H   0  0  0  0  0  0  0  0  0  0  0  0
   -0.5220    2.4922    1.5290 H   0  0  0  0  0  0  0  0  0  0  0  0
   -3.2400    1.0636    1.7358 H   0  0  0  0  0  0  0  0  0  0  0  0
   -1.6970    0.4046    2.2923 H   0  0  0  0  0  0  0  0  0  0  0  0
   -2.3854    1.8384    3.0772 H   0  0  0  0  0  0  0  0  0  0  0  0
   -0.3283    0.6116   -0.2182 N   0  0  0  0  0  0  0  0  0  0  0  0
    0.0090   -0.1762   -1.3759 C   0  0  2  0  0  0  0  0  0  0  0  0
   -0.6583    0.4651   -2.5859 C   0  0  0  0  0  0  0  0  0  0  0  0
   -0.0310    0.8508   -3.5702 O   0  0  0  0  0  0  0  0  0  0  0  0
   -0.4277   -1.6308   -1.2229 C   0  0  0  0  0  0  0  0  0  0  0  0
    0.3919   -2.3411   -0.1738 C   0  0  0  0  0  0  0  0  0  0  0  0
    1.5488   -2.0517    0.1023 O   0  0  0  0  0  0  0  0  0  0  0  0
   -0.2877   -3.3518    0.4223 O   0  0  0  0  0  0  0  0  0  0  0  0
    0.2381    0.4970    0.6194 H   0  0  0  0  0  0  0  0  0  0  0  0
    1.0973   -0.1039   -1.4901 H   0  0  0  0  0  0  0  0  0  0  0  0
   -1.4748   -1.6982   -0.9015 H   0  0  0  0  0  0  0  0  0  0  0  0
   -0.3722   -2.1851   -2.1677 H   0  0  0  0  0  0  0  0  0  0  0  0
    0.2178   -3.8461    1.1026 H   0  0  0  0  0  0  0  0  0  0  0  0
   -2.0394    0.5122   -2.4576 N   0  0  0  0  0  0  0  0  0  0  0  0
   -2.8988    1.0620   -3.4799 C   0  0  2  0  0  0  0  0  0  0  0  0
   -2.8255    0.1493   -4.6969 C   0  0  0  0  0  0  0  0  0  0  0  0
   -1.8814   -0.6082   -4.9113 O   0  0  0  0  0  0  0  0  0  0  0  0
   -2.4915    2.4822   -3.8402 C   0  0  0  0  0  0  0  0  0  0  0  0
   -2.4630    0.1452   -1.6104 H   0  0  0  0  0  0  0  0  0  0  0  0
   -3.9171    1.0521   -3.0760 H   0  0  0  0  0  0  0  0  0  0  0  0
   -1.4740    2.5123   -4.2466 H   0  0  0  0  0  0  0  0  0  0  0  0
   -3.1614    2.9078   -4.5947 H   0  0  0  0  0  0  0  0  0  0  0  0
   -2.5162    3.1306   -2.9577 H   0  0  0  0  0  0  0  0  0  0  0  0
   -3.9177    0.3116   -5.5375 N   0  0  0  0  0  0  0  0  0  0  0  0
   -4.0738   -0.4326   -6.7655 C   0  0  0  0  0  0  0  0  0  0  0  0
   -4.6630    0.9484   -5.2713 H   0  0  0  0  0  0  0  0  0  0  0  0
   -3.6470    0.1427   -7.6003 H   0  0  0  0  0  0  0  0  0  0  0  0
   -3.5506   -1.3963   -6.6790 H   0  0  0  0  0  0  0  0  0  0  0  0
   -5.1430   -0.6113   -6.9523 H   0  0  0  0  0  0  0  0  0  0  0  0
  1  3  1  0  0  0  0
  1  7  1  0  0  0  0
  1  2  2  0  0  0  0
 31 32  1  0  0  0  0
 32 40  1  0  0  0  0
 32 33  2  0  0  0  0
  8  9  1  0  0  0  0
  9 17  1  0  0  0  0
  9 10  2  0  0  0  0
 18 19  1  0  0  0  0
 19 30  1  0  0  0  0
 19 20  2  0  0  0  0
 21 22  1  0  0  0  0
 22 23  2  0  0  0  0
 22 24  1  0  0  0  0
 31 34  1  0  0  0  0
  8 11  1  0  0  0  0
 40 41  1  0  0  0  0
 18 21  1  0  0  0  0
 30 31  1  0  0  0  0
  7  8  1  0  0  0  0
 17 18  1  0  0  0  0
  3  4  1  0  0  0  0
  3  5  1  0  0  0  0
  3  6  1  0  0  0  0
 34 37  1  0  0  0  0
 34 38  1  0  0  0  0
 34 39  1  0  0  0  0
 11 14  1  0  0  0  0
 11 15  1  0  0  0  0
 11 16  1  0  0  0  0
 41 43  1  0  0  0  0
 41 44  1  0  0  0  0
 41 45  1  0  0  0  0
 21 27  1  0  0  0  0
 21 28  1  0  0  0  0
 31 36  1  0  0  0  0
  8 13  1  0  0  0  0
 18 26  1  0  0  0  0
 40 42  1  0  0  0  0
  7 12  1  0  0  0  0
 30 35  1  0  0  0  0
 17 25  1  0  0  0  0
 24 29  1  0  0  0  0
M  END
$$$$

  -OEChem-05262214473D

 45 44  0     1  0  0  0  0  0999 V2000
   -2.2987    4.1032   -0.3022 C   0  0  0  0  0  0  0  0  0  0  0  0
   -1.8049    3.7117   -1.3532 O   0  0  0  0  0  0  0  0  0  0  0  0
   -3.0791    5.3755   -0.2846 C   0  0  0  0  0  0  0  0  0  0  0  0
   -2.4478    6.2532   -0.0717 H   0  0  0  0  0  0  0  0  0  0  0  0
   -3.5571    5.5891   -1.2541 H   0  0  0  0  0  0  0  0  0  0  0  0
   -3.8940    5.4184    0.4556 H   0  0  0  0  0  0  0  0  0  0  0  0
   -2.2137    3.4712    0.9275 N   0  0  0  0  0  0  0  0  0  0  0  0
   -1.5102    2.2327    1.1338 C   0  0  2  0  0  0  0  0  0  0  0  0
   -1.3539    1.5497   -0.2184 C   0  0  0  0  0  0  0  0  0  0  0  0
   -2.0852    1.7861   -1.1778 O   0  0  0  0  0  0  0  0  0  0  0  0
   -2.2477    1.3342    2.1145 C   0  0  0  0  0  0  0  0  0  0  0  0
   -2.6724    3.9052    1.7265 H   0  0  0  0  0  0  0  0  0  0  0  0
   -0.5220    2.4922    1.5290 H   0  0  0  0  0  0  0  0  0  0  0  0
   -3.2400    1.0636    1.7358 H   0  0  0  0  0  0  0  0  0  0  0  0
   -1.6970    0.4046    2.2923 H   0  0  0  0  0  0  0  0  0  0  0  0
   -2.3854    1.8384    3.0772 H   0  0  0  0  0  0  0  0  0  0  0  0
   -0.3283    0.6116   -0.2182 N   0  0  0  0  0  0  0  0  0  0  0  0
    0.0090   -0.1762   -1.3759 C   0  0  2  0  0  0  0  0  0  0  0  0
   -0.6583    0.4651   -2.5859 C   0  0  0  0  0  0  0  0  0  0  0  0
   -0.0903    0.6067   -3.6669 O   0  0  0  0  0  0  0  0  0  0  0  0
   -0.4277   -1.6308   -1.2229 C   0  0  0  0  0  0  0  0  0  0  0  0
    0.3919   -2.3411   -0.1738 C   0  0  0  0  0  0  0  0  0  0  0  0
    1.5488   -2.0517    0.1023 O   0  0  0  0  0  0  0  0  0  0  0  0
   -0.2877   -3.3518    0.4223 O   0  0  0  0  0  0  0  0  0  0  0  0
    0.2381    0.4970    0.6194 H   0  0  0  0  0  0  0  0  0  0  0  0
    1.0973   -0.1039   -1.4901 H   0  0  0  0  0  0  0  0  0  0  0  0
   -1.4748   -1.6982   -0.9015 H   0  0  0  0  0  0  0  0  0  0  0  0
   -0.3722   -2.1851   -2.1677 H   0  0  0  0  0  0  0  0  0  0  0  0
    0.2178   -3.8461    1.1026 H   0  0  0  0  0  0  0  0  0  0  0  0
   -1.9765    0.8166   -2.3310 N   0  0  0  0  0  0  0  0  0  0  0  0
   -2.8262    1.4288   -3.3255 C   0  0  2  0  0  0  0  0  0  0  0  0
   -3.0838    0.4020   -4.4205 C   0  0  0  0  0  0  0  0  0  0  0  0
   -2.3425   -0.5561   -4.6293 O   0  0  0  0  0  0  0  0  0  0  0  0
   -2.1906    2.6862   -3.8981 C   0  0  0  0  0  0  0  0  0  0  0  0
   -2.3592    0.6360   -1.4075 H   0  0  0  0  0  0  0  0  0  0  0  0
   -3.7696    1.6760   -2.8266 H   0  0  0  0  0  0  0  0  0  0  0  0
   -1.2442    2.4583   -4.4019 H   0  0  0  0  0  0  0  0  0  0  0  0
   -2.8484    3.1648   -4.6311 H   0  0  0  0  0  0  0  0  0  0  0  0
   -1.9788    3.4115   -3.1051 H   0  0  0  0  0  0  0  0  0  0  0  0
   -4.2152    0.7054   -5.1647 N   0  0  0  0  0  0  0  0  0  0  0  0
   -4.6637   -0.1100   -6.2692 C   0  0  0  0  0  0  0  0  0  0  0  0
   -4.7808    1.5094   -4.9089 H   0  0  0  0  0  0  0  0  0  0  0  0
   -4.2348    0.2735   -7.2067 H   0  0  0  0  0  0  0  0  0  0  0  0
   -4.3365   -1.1488   -6.1144 H   0  0  0  0  0  0  0  0  0  0  0  0
   -5.7616   -0.0763   -6.3276 H   0  0  0  0  0  0  0  0  0  0  0  0
  1  3  1  0  0  0  0
  1  7  1  0  0  0  0
  1  2  2  0  0  0  0
 31 32  1  0  0  0  0
 32 40  1  0  0  0  0
 32 33  2  0  0  0  0
  8  9  1  0  0  0  0
  9 17  1  0  0  0  0
  9 10  2  0  0  0  0
 18 19  1  0  0  0  0
 19 30  1  0  0  0  0
 19 20  2  0  0  0  0
 21 22  1  0  0  0  0
 22 23  2  0  0  0  0
 22 24  1  0  0  0  0
 31 34  1  0  0  0  0
  8 11  1  0  0  0  0
 40 41  1  0  0  0  0
 18 21  1  0  0  0  0
 30 31  1  0  0  0  0
  7  8  1  0  0  0  0
 17 18  1  0  0  0  0
  3  4  1  0  0  0  0
  3  5  1  0  0  0  0
  3  6  1  0  0  0  0
 34 37  1  0  0  0  0
 34 38  1  0  0  0  0
 34 39  1  0  0  0  0
 11 14  1  0  0  0  0
 11 15  1  0  0  0  0
 11 16  1  0  0  0  0
 41 43  1  0  0  0  0
 41 44  1  0  0  0  0
 41 45  1  0  0  0  0
 21 27  1  0  0  0  0
 21 28  1  0  0  0  0
 31 36  1  0  0  0  0
  8 13  1  0  0  0  0
 18 26  1  0  0  0  0
 40 42  1  0  0  0  0
  7 12  1  0  0  0  0
 30 35  1  0  0  0  0
 17 25  1  0  0  0  0
 24 29  1  0  0  0  0
M  END
$$$$

  -OEChem-05262214473D

 45 44  0     1  0  0  0  0  0999 V2000
   -2.2987    4.1032   -0.3022 C   0  0  0  0  0  0  0  0  0  0  0  0
   -1.8049    3.7117   -1.3532 O   0  0  0  0  0  0  0  0  0  0  0  0
   -3.0791    5.3755   -0.2846 C   0  0  0  0  0  0  0  0  0  0  0  0
   -2.4478    6.2532   -0.0717 H   0  0  0  0  0  0  0  0  0  0  0  0
   -3.5571    5.5891   -1.2541 H   0  0  0  0  0  0  0  0  0  0  0  0
   -3.8940    5.4184    0.4556 H   0  0  0  0  0  0  0  0  0  0  0  0
   -2.2137    3.4712    0.9275 N   0  0  0  0  0  0  0  0  0  0  0  0
   -1.5102    2.2327    1.1338 C   0  0  2  0  0  0  0  0  0  0  0  0
   -1.3539    1.5497   -0.2184 C   0  0  0  0  0  0  0  0  0  0  0  0
   -2.0852    1.7861   -1.1778 O   0  0  0  0  0  0  0  0  0  0  0  0
   -2.2477    1.3342    2.1145 C   0  0  0  0  0  0  0  0  0  0  0  0
   -2.6724    3.9052    1.7265 H   0  0  0  0  0  0  0  0  0  0  0  0
   -0.5220    2.4922    1.5290 H   0  0  0  0  0  0  0  0  0  0  0  0
   -3.2400    1.0636    1.7358 H   0  0  0  0  0  0  0  0  0  0  0  0
   -1.6970    0.4046    2.2923 H   0  0  0  0  0  0  0  0  0  0  0  0
   -2.3854    1.8384    3.0772 H   0  0  0  0  0  0  0  0  0  0  0  0
   -0.3283    0.6116   -0.2182 N   0  0  0  0  0  0  0  0  0  0  0  0
    0.0090   -0.1762   -1.3759 C   0  0  2  0  0  0  0  0  0  0  0  0
   -0.6583    0.4651   -2.5859 C   0  0  0  0  0  0  0  0  0  0  0  0
   -0.2083    0.3722   -3.7261 O   0  0  0  0  0  0  0  0  0  0  0  0
   -0.4277   -1.6308   -1.2229 C   0  0  0  0  0  0  0  0  0  0  0  0
    0.3919   -2.3411   -0.1738 C   0  0  0  0  0  0  0  0  0  0  0  0
    1.5488   -2.0517    0.1023 O   0  0  0  0  0  0  0  0  0  0  0  0
   -0.2877   -3.3518    0.4223 O   0  0  0  0  0  0  0  0  0  0  0  0
    0.2381    0.4970    0.6194 H   0  0  0  0  0  0  0  0  0  0  0  0
    1.0973   -0.1039   -1.4901 H   0  0  0  0  0  0  0  0  0  0  0  0
   -1.4748   -1.6982   -0.9015 H   0  0  0  0  0  0  0  0  0  0  0  0
   -0.3722   -2.1851   -2.1677 H   0  0  0  0  0  0  0  0  0  0  0  0
    0.2178   -3.8461    1.1026 H   0  0  0  0  0  0  0  0  0  0  0  0
   -1.8394    1.1120   -2.2500 N   0  0  0  0  0  0  0  0  0  0  0  0
   -2.6638    1.7857   -3.2259 C   0  0  2  0  0  0  0  0  0  0  0  0
   -3.2512    0.7306   -4.1540 C   0  0  0  0  0  0  0  0  0  0  0  0
   -2.7466   -0.3790   -4.3127 O   0  0  0  0  0  0  0  0  0  0  0  0
   -1.8643    2.8147   -4.0099 C   0  0  0  0  0  0  0  0  0  0  0  0
   -2.1359    1.1117   -1.2785 H   0  0  0  0  0  0  0  0  0  0  0  0
   -3.4717    2.2767   -2.6726 H   0  0  0  0  0  0  0  0  0  0  0  0
   -1.0502    2.3414   -4.5709 H   0  0  0  0  0  0  0  0  0  0  0  0
   -2.4972    3.3445   -4.7295 H   0  0  0  0  0  0  0  0  0  0  0  0
   -1.4180    3.5557   -3.3380 H   0  0  0  0  0  0  0  0  0  0  0  0
   -4.3809    1.1893   -4.8169 N   0  0  0  0  0  0  0  0  0  0  0  0
   -5.1130    0.3790   -5.7622 C   0  0  0  0  0  0  0  0  0  0  0  0
   -4.7398    2.1166   -4.6097 H   0  0  0  0  0  0  0  0  0  0  0  0
   -4.7328    0.5654   -6.7774 H   0  0  0  0  0  0  0  0  0  0  0  0
   -4.9831   -0.6841   -5.5115 H   0  0  0  0  0  0  0  0  0  0  0  0
   -6.1810    0.6385   -5.7174 H   0  0  0  0  0  0  0  0  0  0  0  0
  1  3  1  0  0  0  0
  1  7  1  0  0  0  0
  1  2  2  0  0  0  0
 31 32  1  0  0  0  0
 32 40  1  0  0  0  0
 32 33  2  0  0  0  0
  8  9  1  0  0  0  0
  9 17  1  0  0  0  0
  9 10  2  0  0  0  0
 18 19  1  0  0  0  0
 19 30  1  0  0  0  0
 19 20  2  0  0  0  0
 21 22  1  0  0  0  0
 22 23  2  0  0  0  0
 22 24  1  0  0  0  0
 31 34  1  0  0  0  0
  8 11  1  0  0  0  0
 40 41  1  0  0  0  0
 18 21  1  0  0  0  0
 30 31  1  0  0  0  0
  7  8  1  0  0  0  0
 17 18  1  0  0  0  0
  3  4  1  0  0  0  0
  3  5  1  0  0  0  0
  3  6  1  0  0  0  0
 34 37  1  0  0  0  0
 34 38  1  0  0  0  0
 34 39  1  0  0  0  0
 11 14  1  0  0  0  0
 11 15  1  0  0  0  0
 11 16  1  0  0  0  0
 41 43  1  0  0  0  0
 41 44  1  0  0  0  0
 41 45  1  0  0  0  0
 21 27  1  0  0  0  0
 21 28  1  0  0  0  0
 31 36  1  0  0  0  0
  8 13  1  0  0  0  0
 18 26  1  0  0  0  0
 40 42  1  0  0  0  0
  7 12  1  0  0  0  0
 30 35  1  0  0  0  0
 17 25  1  0  0  0  0
 24 29  1  0  0  0  0
M  END
$$$$

  -OEChem-05262214473D

 45 44  0     1  0  0  0  0  0999 V2000
   -2.2987    4.1032   -0.3022 C   0  0  0  0  0  0  0  0  0  0  0  0
   -1.8049    3.7117   -1.3532 O   0  0  0  0  0  0  0  0  0  0  0  0
   -3.0791    5.3755   -0.2846 C   0  0  0  0  0  0  0  0  0  0  0  0
   -2.4478    6.2532   -0.0717 H   0  0  0  0  0  0  0  0  0  0  0  0
   -3.5571    5.5891   -1.2541 H   0  0  0  0  0  0  0  0  0  0  0  0
   -3.8940    5.4184    0.4556 H   0  0  0  0  0  0  0  0  0  0  0  0
   -2.2137    3.4712    0.9275 N   0  0  0  0  0  0  0  0  0  0  0  0
   -1.5102    2.2327    1.1338 C   0  0  2  0  0  0  0  0  0  0  0  0
   -1.3539    1.5497   -0.2184 C   0  0  0  0  0  0  0  0  0  0  0  0
   -2.0852    1.7861   -1.1778 O   0  0  0  0  0  0  0  0  0  0  0  0
   -2.2477    1.3342    2.1145 C   0  0  0  0  0  0  0  0  0  0  0  0
   -2.6724    3.9052    1.7265 H   0  0  0  0  0  0  0  0  0  0  0  0
   -0.5220    2.4922    1.5290 H   0  0  0  0  0  0  0  0  0  0  0  0
   -3.2400    1.0636    1.7358 H   0  0  0  0  0  0  0  0  0  0  0  0
   -1.6970    0.4046    2.2923 H   0  0  0  0  0  0  0  0  0  0  0  0
   -2.3854    1.8384    3.0772 H   0  0  0  0  0  0  0  0  0  0  0  0
   -0.3283    0.6116   -0.2182 N   0  0  0  0  0  0  0  0  0  0  0  0
    0.0090   -0.1762   -1.3759 C   0  0  2  0  0  0  0  0  0  0  0  0
   -0.6583    0.4651   -2.5859 C   0  0  0  0  0  0  0  0  0  0  0  0
   -0.3770    0.1632   -3.7439 O   0  0  0  0  0  0  0  0  0  0  0  0
   -0.4277   -1.6308   -1.2229 C   0  0  0  0  0  0  0  0  0  0  0  0
    0.3919   -2.3411   -0.1738 C   0  0  0  0  0  0  0  0  0  0  0  0
    1.5488   -2.0517    0.1023 O   0  0  0  0  0  0  0  0  0  0  0  0
   -0.2877   -3.3518    0.4223 O   0  0  0  0  0  0  0  0  0  0  0  0
    0.2381    0.4970    0.6194 H   0  0  0  0  0  0  0  0  0  0  0  0
    1.0973   -0.1039   -1.4901 H   0  0  0  0  0  0  0  0  0  0  0  0
   -1.4748   -1.6982   -0.9015 H   0  0  0  0  0  0  0  0  0  0  0  0
   -0.3722   -2.1851   -2.1677 H   0  0  0  0  0  0  0  0  0  0  0  0
    0.2178   -3.8461    1.1026 H   0  0  0  0  0  0  0  0  0  0  0  0
   -1.6373    1.3784   -2.2203 N   0  0  0  0  0  0  0  0  0  0  0  0
   -2.4227    2.1082   -3.1879 C   0  0  2  0  0  0  0  0  0  0  0  0
   -3.3164    1.1125   -3.9156 C   0  0  0  0  0  0  0  0  0  0  0  0
   -3.0659   -0.0891   -3.9828 O   0  0  0  0  0  0  0  0  0  0  0  0
   -1.5349    2.8591   -4.1680 C   0  0  0  0  0  0  0  0  0  0  0  0
   -1.8084    1.5399   -1.2321 H   0  0  0  0  0  0  0  0  0  0  0  0
   -3.0437    2.8131   -2.6243 H   0  0  0  0  0  0  0  0  0  0  0  0
   -0.9053    2.1694   -4.7419 H   0  0  0  0  0  0  0  0  0  0  0  0
   -2.1317    3.4347   -4.8833 H   0  0  0  0  0  0  0  0  0  0  0  0
   -0.8720    3.5533   -3.6404 H   0  0  0  0  0  0  0  0  0  0  0  0
   -4.4037    1.7301   -4.5177 N   0  0  0  0  0  0  0  0  0  0  0  0
   -5.3913    1.0013   -5.2789 C   0  0  0  0  0  0  0  0  0  0  0  0
   -4.5428    2.7287   -4.3939 H   0  0  0  0  0  0  0  0  0  0  0  0
   -5.1070    0.9983   -6.3415 H   0  0  0  0  0  0  0  0  0  0  0  0
   -5.4465   -0.0340   -4.9114 H   0  0  0  0  0  0  0  0  0  0  0  0
   -6.3728    1.4843   -5.1634 H   0  0  0  0  0  0  0  0  0  0  0  0
  1  3  1  0  0  0  0
  1  7  1  0  0  0  0
  1  2  2  0  0  0  0
 31 32  1  0  0  0  0
 32 40  1  0  0  0  0
 32 33  2  0  0  0  0
  8  9  1  0  0  0  0
  9 17  1  0  0  0  0
  9 10  2  0  0  0  0
 18 19  1  0  0  0  0
 19 30  1  0  0  0  0
 19 20  2  0  0  0  0
 21 22  1  0  0  0  0
 22 23  2  0  0  0  0
 22 24  1  0  0  0  0
 31 34  1  0  0  0  0
  8 11  1  0  0  0  0
 40 41  1  0  0  0  0
 18 21  1  0  0  0  0
 30 31  1  0  0  0  0
  7  8  1  0  0  0  0
 17 18  1  0  0  0  0
  3  4  1  0  0  0  0
  3  5  1  0  0  0  0
  3  6  1  0  0  0  0
 34 37  1  0  0  0  0
 34 38  1  0  0  0  0
 34 39  1  0  0  0  0
 11 14  1  0  0  0  0
 11 15  1  0  0  0  0
 11 16  1  0  0  0  0
 41 43  1  0  0  0  0
 41 44  1  0  0  0  0
 41 45  1  0  0  0  0
 21 27  1  0  0  0  0
 21 28  1  0  0  0  0
 31 36  1  0  0  0  0
  8 13  1  0  0  0  0
 18 26  1  0  0  0  0
 40 42  1  0  0  0  0
  7 12  1  0  0  0  0
 30 35  1  0  0  0  0
 17 25  1  0  0  0  0
 24 29  1  0  0  0  0
M  END
$$$$

  -OEChem-05262214473D

 45 44  0     1  0  0  0  0  0999 V2000
   -2.2987    4.1032   -0.3022 C   0  0  0  0  0  0  0  0  0  0  0  0
   -1.8049    3.7117   -1.3532 O   0  0  0  0  0  0  0  0  0  0  0  0
   -3.0791    5.3755   -0.2846 C   0  0  0  0  0  0  0  0  0  0  0  0
   -2.4478    6.2532   -0.0717 H   0  0  0  0  0  0  0  0  0  0  0  0
   -3.5571    5.5891   -1.2541 H   0  0  0  0  0  0  0  0  0  0  0  0
   -3.8940    5.4184    0.4556 H   0  0  0  0  0  0  0  0  0  0  0  0
   -2.2137    3.4712    0.9275 N   0  0  0  0  0  0  0  0  0  0  0  0
   -1.5102    2.2327    1.1338 C   0  0  2  0  0  0  0  0  0  0  0  0
   -1.3539    1.5497   -0.2184 C   0  0  0  0  0  0  0  0  0  0  0  0
   -2.0852    1.7861   -1.1778 O   0  0  0  0  0  0  0  0  0  0  0  0
   -2.2477    1.3342    2.1145 C   0  0  0  0  0  0  0  0  0  0  0  0
   -2.6724    3.9052    1.7265 H   0  0  0  0  0  0  0  0  0  0  0  0
   -0.5220    2.4922    1.5290 H   0  0  0  0  0  0  0  0  0  0  0  0
   -3.2400    1.0636    1.7358 H   0  0  0  0  0  0  0  0  0  0  0  0
   -1.6970    0.4046    2.2923 H   0  0  0  0  0  0  0  0  0  0  0  0
   -2.3854    1.8384    3.0772 H   0  0  0  0  0  0  0  0  0  0  0  0
   -0.3283    0.6116   -0.2182 N   0  0  0  0  0  0  0  0  0  0  0  0
    0.0090   -0.1762   -1.3759 C   0  0  2  0  0  0  0  0  0  0  0  0
   -0.6583    0.4651   -2.5859 C   0  0  0  0  0  0  0  0  0  0  0  0
   -0.5848   -0.0060   -3.7190 O   0  0  0  0  0  0  0  0  0  0  0  0
   -0.4277   -1.6308   -1.2229 C   0  0  0  0  0  0  0  0  0  0  0  0
    0.3919   -2.3411   -0.1738 C   0  0  0  0  0  0  0  0  0  0  0  0
    1.5488   -2.0517    0.1023 O   0  0  0  0  0  0  0  0  0  0  0  0
   -0.2877   -3.3518    0.4223 O   0  0  0  0  0  0  0  0  0  0  0  0
    0.2381    0.4970    0.6194 H   0  0  0  0  0  0  0  0  0  0  0  0
    1.0973   -0.1039   -1.4901 H   0  0  0  0  0  0  0  0  0  0  0  0
   -1.4748   -1.6982   -0.9015 H   0  0  0  0  0  0  0  0  0  0  0  0
   -0.3722   -2.1851   -2.1677 H   0  0  0  0  0  0  0  0  0  0  0  0
    0.2178   -3.8461    1.1026 H   0  0  0  0  0  0  0  0  0  0  0  0
   -1.3842    1.5975   -2.2437 N   0  0  0  0  0  0  0  0  0  0  0  0
   -2.1194    2.3746   -3.2140 C   0  0  2  0  0  0  0  0  0  0  0  0
   -3.2748    1.5219   -3.7215 C   0  0  0  0  0  0  0  0  0  0  0  0
   -3.2789    0.2941   -3.6623 O   0  0  0  0  0  0  0  0  0  0  0  0
   -1.2248    2.8164   -4.3617 C   0  0  0  0  0  0  0  0  0  0  0  0
   -1.3990    1.8915   -1.2716 H   0  0  0  0  0  0  0  0  0  0  0  0
   -2.5147    3.2487   -2.6851 H   0  0  0  0  0  0  0  0  0  0  0  0
   -0.8194    1.9541   -4.9035 H   0  0  0  0  0  0  0  0  0  0  0  0
   -1.7769    3.4293   -5.0818 H   0  0  0  0  0  0  0  0  0  0  0  0
   -0.3780    3.4045   -3.9917 H   0  0  0  0  0  0  0  0  0  0  0  0
   -4.2818    2.2912   -4.2875 N   0  0  0  0  0  0  0  0  0  0  0  0
   -5.4794    1.7144   -4.8523 C   0  0  0  0  0  0  0  0  0  0  0  0
   -4.2032    3.3038   -4.2764 H   0  0  0  0  0  0  0  0  0  0  0  0
   -5.3320    1.5429   -5.9288 H   0  0  0  0  0  0  0  0  0  0  0  0
   -5.6951    0.7573   -4.3549 H   0  0  0  0  0  0  0  0  0  0  0  0
   -6.3237    2.4035   -4.7032 H   0  0  0  0  0  0  0  0  0  0  0  0
  1  3  1  0  0  0  0
  1  7  1  0  0  0  0
  1  2  2  0  0  0  0
 31 32  1  0  0  0  0
 32 40  1  0  0  0  0
 32 33  2  0  0  0  0
  8  9  1  0  0  0  0
  9 17  1  0  0  0  0
  9 10  2  0  0  0  0
 18 19  1  0  0  0  0
 19 30  1  0  0  0  0
 19 20  2  0  0  0  0
 21 22  1  0  0  0  0
 22 23  2  0  0  0  0
 22 24  1  0  0  0  0
 31 34  1  0  0  0  0
  8 11  1  0  0  0  0
 40 41  1  0  0  0  0
 18 21  1  0  0  0  0
 30 31  1  0  0  0  0
  7  8  1  0  0  0  0
 17 18  1  0  0  0  0
  3  4  1  0  0  0  0
  3  5  1  0  0  0  0
  3  6  1  0  0  0  0
 34 37  1  0  0  0  0
 34 38  1  0  0  0  0
 34 39  1  0  0  0  0
 11 14  1  0  0  0  0
 11 15  1  0  0  0  0
 11 16  1  0  0  0  0
 41 43  1  0  0  0  0
 41 44  1  0  0  0  0
 41 45  1  0  0  0  0
 21 27  1  0  0  0  0
 21 28  1  0  0  0  0
 31 36  1  0  0  0  0
  8 13  1  0  0  0  0
 18 26  1  0  0  0  0
 40 42  1  0  0  0  0
  7 12  1  0  0  0  0
 30 35  1  0  0  0  0
 17 25  1  0  0  0  0
 24 29  1  0  0  0  0
M  END
$$$$

  -OEChem-05262214473D

 45 44  0     1  0  0  0  0  0999 V2000
   -2.2987    4.1032   -0.3022 C   0  0  0  0  0  0  0  0  0  0  0  0
   -1.8049    3.7117   -1.3532 O   0  0  0  0  0  0  0  0  0  0  0  0
   -3.0791    5.3755   -0.2846 C   0  0  0  0  0  0  0  0  0  0  0  0
   -2.4478    6.2532   -0.0717 H   0  0  0  0  0  0  0  0  0  0  0  0
   -3.5571    5.5891   -1.2541 H   0  0  0  0  0  0  0  0  0  0  0  0
   -3.8940    5.4184    0.4556 H   0  0  0  0  0  0  0  0  0  0  0  0
   -2.2137    3.4712    0.9275 N   0  0  0  0  0  0  0  0  0  0  0  0
   -1.5102    2.2327    1.1338 C   0  0  2  0  0  0  0  0  0  0  0  0
   -1.3539    1.5497   -0.2184 C   0  0  0  0  0  0  0  0  0  0  0  0
   -2.0852    1.7861   -1.1778 O   0  0  0  0  0  0  0  0  0  0  0  0
   -2.2477    1.3342    2.1145 C   0  0  0  0  0  0  0  0  0  0  0  0
   -2.6724    3.9052    1.7265 H   0  0  0  0  0  0  0  0  0  0  0  0
   -0.5220    2.4922    1.5290 H   0  0  0  0  0  0  0  0  0  0  0  0
   -3.2400    1.0636    1.7358 H   0  0  0  0  0  0  0  0  0  0  0  0
   -1.6970    0.4046    2.2923 H   0  0  0  0  0  0  0  0  0  0  0  0
   -2.3854    1.8384    3.0772 H   0  0  0  0  0  0  0  0  0  0  0  0
   -0.3283    0.6116   -0.2182 N   0  0  0  0  0  0  0  0  0  0  0  0
    0.0090   -0.1762   -1.3759 C   0  0  2  0  0  0  0  0  0  0  0  0
   -0.6583    0.4651   -2.5859 C   0  0  0  0  0  0  0  0  0  0  0  0
   -0.8176   -0.1240   -3.6531 O   0  0  0  0  0  0  0  0  0  0  0  0
   -0.4277   -1.6308   -1.2229 C   0  0  0  0  0  0  0  0  0  0  0  0
    0.3919   -2.3411   -0.1738 C   0  0  0  0  0  0  0  0  0  0  0  0
    1.5488   -2.0517    0.1023 O   0  0  0  0  0  0  0  0  0  0  0  0
   -0.2877   -3.3518    0.4223 O   0  0  0  0  0  0  0  0  0  0  0  0
    0.2381    0.4970    0.6194 H   0  0  0  0  0  0  0  0  0  0  0  0
    1.0973   -0.1039   -1.4901 H   0  0  0  0  0  0  0  0  0  0  0  0
   -1.4748   -1.6982   -0.9015 H   0  0  0  0  0  0  0  0  0  0  0  0
   -0.3722   -2.1851   -2.1677 H   0  0  0  0  0  0  0  0  0  0  0  0
    0.2178   -3.8461    1.1026 H   0  0  0  0  0  0  0  0  0  0  0  0
   -1.0972    1.7544   -2.3188 N   0  0  0  0  0  0  0  0  0  0  0  0
   -1.7745    2.5666   -3.3025 C   0  0  2  0  0  0  0  0  0  0  0  0
   -3.1293    1.9308   -3.5850 C   0  0  0  0  0  0  0  0  0  0  0  0
   -3.3708    0.7443   -3.3730 O   0  0  0  0  0  0  0  0  0  0  0  0
   -0.9552    2.6894   -4.5777 C   0  0  0  0  0  0  0  0  0  0  0  0
   -0.9355    2.1425   -1.3941 H   0  0  0  0  0  0  0  0  0  0  0  0
   -1.9208    3.5539   -2.8509 H   0  0  0  0  0  0  0  0  0  0  0  0
   -0.7982    1.7101   -5.0444 H   0  0  0  0  0  0  0  0  0  0  0  0
   -1.4569    3.3287   -5.3116 H   0  0  0  0  0  0  0  0  0  0  0  0
    0.0302    3.1193   -4.3679 H   0  0  0  0  0  0  0  0  0  0  0  0
   -4.0237    2.8341   -4.1421 N   0  0  0  0  0  0  0  0  0  0  0  0
   -5.3715    2.4696   -4.5115 C   0  0  0  0  0  0  0  0  0  0  0  0
   -3.7441    3.8028   -4.2651 H   0  0  0  0  0  0  0  0  0  0  0  0
   -5.3924    2.1619   -5.5674 H   0  0  0  0  0  0  0  0  0  0  0  0
   -5.7119    1.6358   -3.8800 H   0  0  0  0  0  0  0  0  0  0  0  0
   -6.0372    3.3335   -4.3683 H   0  0  0  0  0  0  0  0  0  0  0  0
  1  3  1  0  0  0  0
  1  7  1  0  0  0  0
  1  2  2  0  0  0  0
 31 32  1  0  0  0  0
 32 40  1  0  0  0  0
 32 33  2  0  0  0  0
  8  9  1  0  0  0  0
  9 17  1  0  0  0  0
  9 10  2  0  0  0  0
 18 19  1  0  0  0  0
 19 30  1  0  0  0  0
 19 20  2  0  0  0  0
 21 22  1  0  0  0  0
 22 23  2  0  0  0  0
 22 24  1  0  0  0  0
 31 34  1  0  0  0  0
  8 11  1  0  0  0  0
 40 41  1  0  0  0  0
 18 21  1  0  0  0  0
 30 31  1  0  0  0  0
  7  8  1  0  0  0  0
 17 18  1  0  0  0  0
  3  4  1  0  0  0  0
  3  5  1  0  0  0  0
  3  6  1  0  0  0  0
 34 37  1  0  0  0  0
 34 38  1  0  0  0  0
 34 39  1  0  0  0  0
 11 14  1  0  0  0  0
 11 15  1  0  0  0  0
 11 16  1  0  0  0  0
 41 43  1  0  0  0  0
 41 44  1  0  0  0  0
 41 45  1  0  0  0  0
 21 27  1  0  0  0  0
 21 28  1  0  0  0  0
 31 36  1  0  0  0  0
  8 13  1  0  0  0  0
 18 26  1  0  0  0  0
 40 42  1  0  0  0  0
  7 12  1  0  0  0  0
 30 35  1  0  0  0  0
 17 25  1  0  0  0  0
 24 29  1  0  0  0  0
M  END
$$$$

  -OEChem-05262214473D

 45 44  0     1  0  0  0  0  0999 V2000
   -2.2987    4.1032   -0.3022 C   0  0  0  0  0  0  0  0  0  0  0  0
   -1.8049    3.7117   -1.3532 O   0  0  0  0  0  0  0  0  0  0  0  0
   -3.0791    5.3755   -0.2846 C   0  0  0  0  0  0  0  0  0  0  0  0
   -2.4478    6.2532   -0.0717 H   0  0  0  0  0  0  0  0  0  0  0  0
   -3.5571    5.5891   -1.2541 H   0  0  0  0  0  0  0  0  0  0  0  0
   -3.8940    5.4184    0.4556 H   0  0  0  0  0  0  0  0  0  0  0  0
   -2.2137    3.4712    0.9275 N   0  0  0  0  0  0  0  0  0  0  0  0
   -1.5102    2.2327    1.1338 C   0  0  2  0  0  0  0  0  0  0  0  0
   -1.3539    1.5497   -0.2184 C   0  0  0  0  0  0  0  0  0  0  0  0
   -2.0852    1.7861   -1.1778 O   0  0  0  0  0  0  0  0  0  0  0  0
   -2.2477    1.3342    2.1145 C   0  0  0  0  0  0  0  0  0  0  0  0
   -2.6724    3.9052    1.7265 H   0  0  0  0  0  0  0  0  0  0  0  0
   -0.5220    2.4922    1.5290 H   0  0  0  0  0  0  0  0  0  0  0  0
   -3.2400    1.0636    1.7358 H   0  0  0  0  0  0  0  0  0  0  0  0
   -1.6970    0.4046    2.2923 H   0  0  0  0  0  0  0  0  0  0  0  0
   -2.3854    1.8384    3.0772 H   0  0  0  0  0  0  0  0  0  0  0  0
   -0.3283    0.6116   -0.2182 N   0  0  0  0  0  0  0  0  0  0  0  0
    0.0090   -0.1762   -1.3759 C   0  0  2  0  0  0  0  0  0  0  0  0
   -0.6583    0.4651   -2.5859 C   0  0  0  0  0  0  0  0  0  0  0  0
   -1.0596   -0.1825   -3.5507 O   0  0  0  0  0  0  0  0  0  0  0  0
   -0.4277   -1.6308   -1.2229 C   0  0  0  0  0  0  0  0  0  0  0  0
    0.3919   -2.3411   -0.1738 C   0  0  0  0  0  0  0  0  0  0  0  0
    1.5488   -2.0517    0.1023 O   0  0  0  0  0  0  0  0  0  0  0  0
   -0.2877   -3.3518    0.4223 O   0  0  0  0  0  0  0  0  0  0  0  0
    0.2381    0.4970    0.6194 H   0  0  0  0  0  0  0  0  0  0  0  0
    1.0973   -0.1039   -1.4901 H   0  0  0  0  0  0  0  0  0  0  0  0
   -1.4748   -1.6982   -0.9015 H   0  0  0  0  0  0  0  0  0  0  0  0
   -0.3722   -2.1851   -2.1677 H   0  0  0  0  0  0  0  0  0  0  0  0
    0.2178   -3.8461    1.1026 H   0  0  0  0  0  0  0  0  0  0  0  0
   -0.7959    1.8385   -2.4404 N   0  0  0  0  0  0  0  0  0  0  0  0
   -1.4116    2.6711   -3.4472 C   0  0  2  0  0  0  0  0  0  0  0  0
   -2.8899    2.3113   -3.5154 C   0  0  0  0  0  0  0  0  0  0  0  0
   -3.3356    1.2309   -3.1345 O   0  0  0  0  0  0  0  0  0  0  0  0
   -0.7444    2.4868   -4.8013 C   0  0  0  0  0  0  0  0  0  0  0  0
   -0.4496    2.2757   -1.5915 H   0  0  0  0  0  0  0  0  0  0  0  0
   -1.3025    3.7077   -3.1104 H   0  0  0  0  0  0  0  0  0  0  0  0
   -0.8433    1.4541   -5.1553 H   0  0  0  0  0  0  0  0  0  0  0  0
   -1.1935    3.1396   -5.5571 H   0  0  0  0  0  0  0  0  0  0  0  0
    0.3249    2.7173   -4.7435 H   0  0  0  0  0  0  0  0  0  0  0  0
   -3.6469    3.3220   -4.0913 N   0  0  0  0  0  0  0  0  0  0  0  0
   -5.0749    3.2156   -4.2797 C   0  0  0  0  0  0  0  0  0  0  0  0
   -3.1968    4.1918   -4.3607 H   0  0  0  0  0  0  0  0  0  0  0  0
   -5.2841    2.8133   -5.2819 H   0  0  0  0  0  0  0  0  0  0  0  0
   -5.4958    2.5416   -3.5190 H   0  0  0  0  0  0  0  0  0  0  0  0
   -5.5328    4.2109   -4.1814 H   0  0  0  0  0  0  0  0  0  0  0  0
  1  3  1  0  0  0  0
  1  7  1  0  0  0  0
  1  2  2  0  0  0  0
 31 32  1  0  0  0  0
 32 40  1  0  0  0  0
 32 33  2  0  0  0  0
  8  9  1  0  0  0  0
  9 17  1  0  0  0  0
  9 10  2  0  0  0  0
 18 19  1  0  0  0  0
 19 30  1  0  0  0  0
 19 20  2  0  0  0  0
 21 22  1  0  0  0  0
 22 23  2  0  0  0  0
 22 24  1  0  0  0  0
 31 34  1  0  0  0  0
  8 11  1  0  0  0  0
 40 41  1  0  0  0  0
 18 21  1  0  0  0  0
 30 31  1  0  0  0  0
  7  8  1  0  0  0  0
 17 18  1  0  0  0  0
  3  4  1  0  0  0  0
  3  5  1  0  0  0  0
  3  6  1  0  0  0  0
 34 37  1  0  0  0  0
 34 38  1  0  0  0  0
 34 39  1  0  0  0  0
 11 14  1  0  0  0  0
 11 15  1  0  0  0  0
 11 16  1  0  0  0  0
 41 43  1  0  0  0  0
 41 44  1  0  0  0  0
 41 45  1  0  0  0  0
 21 27  1  0  0  0  0
 21 28  1  0  0  0  0
 31 36  1  0  0  0  0
  8 13  1  0  0  0  0
 18 26  1  0  0  0  0
 40 42  1  0  0  0  0
  7 12  1  0  0  0  0
 30 35  1  0  0  0  0
 17 25  1  0  0  0  0
 24 29  1  0  0  0  0
M  END
$$$$

  -OEChem-05262214473D

 45 44  0     1  0  0  0  0  0999 V2000
   -2.2987    4.1032   -0.3022 C   0  0  0  0  0  0  0  0  0  0  0  0
   -1.8049    3.7117   -1.3532 O   0  0  0  0  0  0  0  0  0  0  0  0
   -3.0791    5.3755   -0.2846 C   0  0  0  0  0  0  0  0  0  0  0  0
   -2.4478    6.2532   -0.0717 H   0  0  0  0  0  0  0  0  0  0  0  0
   -3.5571    5.5891   -1.2541 H   0  0  0  0  0  0  0  0  0  0  0  0
   -3.8940    5.4184    0.4556 H   0  0  0  0  0  0  0  0  0  0  0  0
   -2.2137    3.4712    0.9275 N   0  0  0  0  0  0  0  0  0  0  0  0
   -1.5102    2.2327    1.1338 C   0  0  2  0  0  0  0  0  0  0  0  0
   -1.3539    1.5497   -0.2184 C   0  0  0  0  0  0  0  0  0  0  0  0
   -2.0852    1.7861   -1.1778 O   0  0  0  0  0  0  0  0  0  0  0  0
   -2.2477    1.3342    2.1145 C   0  0  0  0  0  0  0  0  0  0  0  0
   -2.6724    3.9052    1.7265 H   0  0  0  0  0  0  0  0  0  0  0  0
   -0.5220    2.4922    1.5290 H   0  0  0  0  0  0  0  0  0  0  0  0
   -3.2400    1.0636    1.7358 H   0  0  0  0  0  0  0  0  0  0  0  0
   -1.6970    0.4046    2.2923 H   0  0  0  0  0  0  0  0  0  0  0  0
   -2.3854    1.8384    3.0772 H   0  0  0  0  0  0  0  0  0  0  0  0
   -0.3283    0.6116   -0.2182 N   0  0  0  0  0  0  0  0  0  0  0  0
    0.0090   -0.1762   -1.3759 C   0  0  2  0  0  0  0  0  0  0  0  0
   -0.6583    0.4651   -2.5859 C   0  0  0  0  0  0  0  0  0  0  0  0
   -1.2942   -0.1777   -3.4188 O   0  0  0  0  0  0  0  0  0  0  0  0
   -0.4277   -1.6308   -1.2229 C   0  0  0  0  0  0  0  0  0  0  0  0
    0.3919   -2.3411   -0.1738 C   0  0  0  0  0  0  0  0  0  0  0  0
    1.5488   -2.0517    0.1023 O   0  0  0  0  0  0  0  0  0  0  0  0
   -0.2877   -3.3518    0.4223 O   0  0  0  0  0  0  0  0  0  0  0  0
    0.2381    0.4970    0.6194 H   0  0  0  0  0  0  0  0  0  0  0  0
    1.0973   -0.1039   -1.4901 H   0  0  0  0  0  0  0  0  0  0  0  0
   -1.4748   -1.6982   -0.9015 H   0  0  0  0  0  0  0  0  0  0  0  0
   -0.3722   -2.1851   -2.1677 H   0  0  0  0  0  0  0  0  0  0  0  0
    0.2178   -3.8461    1.1026 H   0  0  0  0  0  0  0  0  0  0  0  0
   -0.5009    1.8439   -2.6002 N   0  0  0  0  0  0  0  0  0  0  0  0
   -1.0553    2.6810   -3.6385 C   0  0  2  0  0  0  0  0  0  0  0  0
   -2.5728    2.6376   -3.5173 C   0  0  0  0  0  0  0  0  0  0  0  0
   -3.1755    1.7207   -2.9632 O   0  0  0  0  0  0  0  0  0  0  0  0
   -0.6068    2.2224   -5.0174 C   0  0  0  0  0  0  0  0  0  0  0  0
    0.0256    2.2821   -1.8502 H   0  0  0  0  0  0  0  0  0  0  0  0
   -0.7019    3.6998   -3.4458 H   0  0  0  0  0  0  0  0  0  0  0  0
   -0.9515    1.2036   -5.2284 H   0  0  0  0  0  0  0  0  0  0  0  0
   -1.0047    2.8750   -5.8014 H   0  0  0  0  0  0  0  0  0  0  0  0
    0.4860    2.2258   -5.0929 H   0  0  0  0  0  0  0  0  0  0  0  0
   -3.1772    3.7215   -4.1386 N   0  0  0  0  0  0  0  0  0  0  0  0
   -4.6098    3.9014   -4.1727 C   0  0  0  0  0  0  0  0  0  0  0  0
   -2.5987    4.4441   -4.5569 H   0  0  0  0  0  0  0  0  0  0  0  0
   -5.0145    3.4525   -5.0917 H   0  0  0  0  0  0  0  0  0  0  0  0
   -5.0615    3.4131   -3.2966 H   0  0  0  0  0  0  0  0  0  0  0  0
   -4.8448    4.9759   -4.1553 H   0  0  0  0  0  0  0  0  0  0  0  0
  1  3  1  0  0  0  0
  1  7  1  0  0  0  0
  1  2  2  0  0  0  0
 31 32  1  0  0  0  0
 32 40  1  0  0  0  0
 32 33  2  0  0  0  0
  8  9  1  0  0  0  0
  9 17  1  0  0  0  0
  9 10  2  0  0  0  0
 18 19  1  0  0  0  0
 19 30  1  0  0  0  0
 19 20  2  0  0  0  0
 21 22  1  0  0  0  0
 22 23  2  0  0  0  0
 22 24  1  0  0  0  0
 31 34  1  0  0  0  0
  8 11  1  0  0  0  0
 40 41  1  0  0  0  0
 18 21  1  0  0  0  0
 30 31  1  0  0  0  0
  7  8  1  0  0  0  0
 17 18  1  0  0  0  0
  3  4  1  0  0  0  0
  3  5  1  0  0  0  0
  3  6  1  0  0  0  0
 34 37  1  0  0  0  0
 34 38  1  0  0  0  0
 34 39  1  0  0  0  0
 11 14  1  0  0  0  0
 11 15  1  0  0  0  0
 11 16  1  0  0  0  0
 41 43  1  0  0  0  0
 41 44  1  0  0  0  0
 41 45  1  0  0  0  0
 21 27  1  0  0  0  0
 21 28  1  0  0  0  0
 31 36  1  0  0  0  0
  8 13  1  0  0  0  0
 18 26  1  0  0  0  0
 40 42  1  0  0  0  0
  7 12  1  0  0  0  0
 30 35  1  0  0  0  0
 17 25  1  0  0  0  0
 24 29  1  0  0  0  0
M  END
$$$$

  -OEChem-05262214473D

 45 44  0     1  0  0  0  0  0999 V2000
   -2.2987    4.1032   -0.3022 C   0  0  0  0  0  0  0  0  0  0  0  0
   -1.8049    3.7117   -1.3532 O   0  0  0  0  0  0  0  0  0  0  0  0
   -3.0791    5.3755   -0.2846 C   0  0  0  0  0  0  0  0  0  0  0  0
   -2.4478    6.2532   -0.0717 H   0  0  0  0  0  0  0  0  0  0  0  0
   -3.5571    5.5891   -1.2541 H   0  0  0  0  0  0  0  0  0  0  0  0
   -3.8940    5.4184    0.4556 H   0  0  0  0  0  0  0  0  0  0  0  0
   -2.2137    3.4712    0.9275 N   0  0  0  0  0  0  0  0  0  0  0  0
   -1.5102    2.2327    1.1338 C   0  0  2  0  0  0  0  0  0  0  0  0
   -1.3539    1.5497   -0.2184 C   0  0  0  0  0  0  0  0  0  0  0  0
   -2.0852    1.7861   -1.1778 O   0  0  0  0  0  0  0  0  0  0  0  0
   -2.2477    1.3342    2.1145 C   0  0  0  0  0  0  0  0  0  0  0  0
   -2.6724    3.9052    1.7265 H   0  0  0  0  0  0  0  0  0  0  0  0
   -0.5220    2.4922    1.5290 H   0  0  0  0  0  0  0  0  0  0  0  0
   -3.2400    1.0636    1.7358 H   0  0  0  0  0  0  0  0  0  0  0  0
   -1.6970    0.4046    2.2923 H   0  0  0  0  0  0  0  0  0  0  0  0
   -2.3854    1.8384    3.0772 H   0  0  0  0  0  0  0  0  0  0  0  0
   -0.3283    0.6116   -0.2182 N   0  0  0  0  0  0  0  0  0  0  0  0
    0.0090   -0.1762   -1.3759 C   0  0  2  0  0  0  0  0  0  0  0  0
   -0.6583    0.4651   -2.5859 C   0  0  0  0  0  0  0  0  0  0  0  0
   -1.5054   -0.1099   -3.2663 O   0  0  0  0  0  0  0  0  0  0  0  0
   -0.4277   -1.6308   -1.2229 C   0  0  0  0  0  0  0  0  0  0  0  0
    0.3919   -2.3411   -0.1738 C   0  0  0  0  0  0  0  0  0  0  0  0
    1.5488   -2.0517    0.1023 O   0  0  0  0  0  0  0  0  0  0  0  0
   -0.2877   -3.3518    0.4223 O   0  0  0  0  0  0  0  0  0  0  0  0
    0.2381    0.4970    0.6194 H   0  0  0  0  0  0  0  0  0  0  0  0
    1.0973   -0.1039   -1.4901 H   0  0  0  0  0  0  0  0  0  0  0  0
   -1.4748   -1.6982   -0.9015 H   0  0  0  0  0  0  0  0  0  0  0  0
   -0.3722   -2.1851   -2.1677 H   0  0  0  0  0  0  0  0  0  0  0  0
    0.2178   -3.8461    1.1026 H   0  0  0  0  0  0  0  0  0  0  0  0
   -0.2321    1.7705   -2.7874 N   0  0  0  0  0  0  0  0  0  0  0  0
   -0.7299    2.5956   -3.8632 C   0  0  2  0  0  0  0  0  0  0  0  0
   -2.1997    2.8873   -3.5907 C   0  0  0  0  0  0  0  0  0  0  0  0
   -2.9016    2.1803   -2.8706 O   0  0  0  0  0  0  0  0  0  0  0  0
   -0.5517    1.9143   -5.2110 C   0  0  0  0  0  0  0  0  0  0  0  0
    0.4578    2.1613   -2.1525 H   0  0  0  0  0  0  0  0  0  0  0  0
   -0.1600    3.5307   -3.8343 H   0  0  0  0  0  0  0  0  0  0  0  0
   -1.1155    0.9755   -5.2588 H   0  0  0  0  0  0  0  0  0  0  0  0
   -0.9034    2.5530   -6.0280 H   0  0  0  0  0  0  0  0  0  0  0  0
    0.5025    1.6784   -5.3922 H   0  0  0  0  0  0  0  0  0  0  0  0
   -2.6464    4.0055   -4.2807 N   0  0  0  0  0  0  0  0  0  0  0  0
   -4.0079    4.4804   -4.1977 C   0  0  0  0  0  0  0  0  0  0  0  0
   -1.9904    4.5426   -4.8401 H   0  0  0  0  0  0  0  0  0  0  0  0
   -4.6019    4.0361   -5.0099 H   0  0  0  0  0  0  0  0  0  0  0  0
   -4.4386    4.1909   -3.2279 H   0  0  0  0  0  0  0  0  0  0  0  0
   -4.0202    5.5763   -4.2918 H   0  0  0  0  0  0  0  0  0  0  0  0
  1  3  1  0  0  0  0
  1  7  1  0  0  0  0
  1  2  2  0  0  0  0
 31 32  1  0  0  0  0
 32 40  1  0  0  0  0
 32 33  2  0  0  0  0
  8  9  1  0  0  0  0
  9 17  1  0  0  0  0
  9 10  2  0  0  0  0
 18 19  1  0  0  0  0
 19 30  1  0  0  0  0
 19 20  2  0  0  0  0
 21 22  1  0  0  0  0
 22 23  2  0  0  0  0
 22 24  1  0  0  0  0
 31 34  1  0  0  0  0
  8 11  1  0  0  0  0
 40 41  1  0  0  0  0
 18 21  1  0  0  0  0
 30 31  1  0  0  0  0
  7  8  1  0  0  0  0
 17 18  1  0  0  0  0
  3  4  1  0  0  0  0
  3  5  1  0  0  0  0
  3  6  1  0  0  0  0
 34 37  1  0  0  0  0
 34 38  1  0  0  0  0
 34 39  1  0  0  0  0
 11 14  1  0  0  0  0
 11 15  1  0  0  0  0
 11 16  1  0  0  0  0
 41 43  1  0  0  0  0
 41 44  1  0  0  0  0
 41 45  1  0  0  0  0
 21 27  1  0  0  0  0
 21 28  1  0  0  0  0
 31 36  1  0  0  0  0
  8 13  1  0  0  0  0
 18 26  1  0  0  0  0
 40 42  1  0  0  0  0
  7 12  1  0  0  0  0
 30 35  1  0  0  0  0
 17 25  1  0  0  0  0
 24 29  1  0  0  0  0
M  END
$$$$

  -OEChem-05262214473D

 45 44  0     1  0  0  0  0  0999 V2000
   -2.2987    4.1032   -0.3022 C   0  0  0  0  0  0  0  0  0  0  0  0
   -1.8049    3.7117   -1.3532 O   0  0  0  0  0  0  0  0  0  0  0  0
   -3.0791    5.3755   -0.2846 C   0  0  0  0  0  0  0  0  0  0  0  0
   -2.4478    6.2532   -0.0717 H   0  0  0  0  0  0  0  0  0  0  0  0
   -3.5571    5.5891   -1.2541 H   0  0  0  0  0  0  0  0  0  0  0  0
   -3.8940    5.4184    0.4556 H   0  0  0  0  0  0  0  0  0  0  0  0
   -2.2137    3.4712    0.9275 N   0  0  0  0  0  0  0  0  0  0  0  0
   -1.5102    2.2327    1.1338 C   0  0  2  0  0  0  0  0  0  0  0  0
   -1.3539    1.5497   -0.2184 C   0  0  0  0  0  0  0  0  0  0  0  0
   -2.0852    1.7861   -1.1778 O   0  0  0  0  0  0  0  0  0  0  0  0
   -2.2477    1.3342    2.1145 C   0  0  0  0  0  0  0  0  0  0  0  0
   -2.6724    3.9052    1.7265 H   0  0  0  0  0  0  0  0  0  0  0  0
   -0.5220    2.4922    1.5290 H   0  0  0  0  0  0  0  0  0  0  0  0
   -3.2400    1.0636    1.7358 H   0  0  0  0  0  0  0  0  0  0  0  0
   -1.6970    0.4046    2.2923 H   0  0  0  0  0  0  0  0  0  0  0  0
   -2.3854    1.8384    3.0772 H   0  0  0  0  0  0  0  0  0  0  0  0
   -0.3283    0.6116   -0.2182 N   0  0  0  0  0  0  0  0  0  0  0  0
    0.0090   -0.1762   -1.3759 C   0  0  2  0  0  0  0  0  0  0  0  0
   -0.6583    0.4651   -2.5859 C   0  0  0  0  0  0  0  0  0  0  0  0
   -1.6789    0.0162   -3.1038 O   0  0  0  0  0  0  0  0  0  0  0  0
   -0.4277   -1.6308   -1.2229 C   0  0  0  0  0  0  0  0  0  0  0  0
    0.3919   -2.3411   -0.1738 C   0  0  0  0  0  0  0  0  0  0  0  0
    1.5488   -2.0517    0.1023 O   0  0  0  0  0  0  0  0  0  0  0  0
   -0.2877   -3.3518    0.4223 O   0  0  0  0  0  0  0  0  0  0  0  0
    0.2381    0.4970    0.6194 H   0  0  0  0  0  0  0  0  0  0  0  0
    1.0973   -0.1039   -1.4901 H   0  0  0  0  0  0  0  0  0  0  0  0
   -1.4748   -1.6982   -0.9015 H   0  0  0  0  0  0  0  0  0  0  0  0
   -0.3722   -2.1851   -2.1677 H   0  0  0  0  0  0  0  0  0  0  0  0
    0.2178   -3.8461    1.1026 H   0  0  0  0  0  0  0  0  0  0  0  0
   -0.0081    1.6230   -2.9891 N   0  0  0  0  0  0  0  0  0  0  0  0
   -0.4577    2.4208   -4.1060 C   0  0  2  0  0  0  0  0  0  0  0  0
   -1.7959    3.0435   -3.7306 C   0  0  0  0  0  0  0  0  0  0  0  0
   -2.5324    2.5784   -2.8632 O   0  0  0  0  0  0  0  0  0  0  0  0
   -0.5830    1.5834   -5.3692 C   0  0  0  0  0  0  0  0  0  0  0  0
    0.8175    1.9215   -2.4780 H   0  0  0  0  0  0  0  0  0  0  0  0
    0.2864    3.2118   -4.2495 H   0  0  0  0  0  0  0  0  0  0  0  0
   -1.3242    0.7855   -5.2445 H   0  0  0  0  0  0  0  0  0  0  0  0
   -0.8964    2.1953   -6.2214 H   0  0  0  0  0  0  0  0  0  0  0  0
    0.3733    1.1123   -5.6210 H   0  0  0  0  0  0  0  0  0  0  0  0
   -2.0909    4.1547   -4.5081 N   0  0  0  0  0  0  0  0  0  0  0  0
   -3.3102    4.9131   -4.3532 C   0  0  0  0  0  0  0  0  0  0  0  0
   -1.4134    4.4807   -5.1911 H   0  0  0  0  0  0  0  0  0  0  0  0
   -4.0745    4.5243   -5.0420 H   0  0  0  0  0  0  0  0  0  0  0  0
   -3.6696    4.8218   -3.3176 H   0  0  0  0  0  0  0  0  0  0  0  0
   -3.1151    5.9713   -4.5816 H   0  0  0  0  0  0  0  0  0  0  0  0
  1  3  1  0  0  0  0
  1  7  1  0  0  0  0
  1  2  2  0  0  0  0
 31 32  1  0  0  0  0
 32 40  1  0  0  0  0
 32 33  2  0  0  0  0
  8  9  1  0  0  0  0
  9 17  1  0  0  0  0
  9 10  2  0  0  0  0
 18 19  1  0  0  0  0
 19 30  1  0  0  0  0
 19 20  2  0  0  0  0
 21 22  1  0  0  0  0
 22 23  2  0  0  0  0
 22 24  1  0  0  0  0
 31 34  1  0  0  0  0
  8 11  1  0  0  0  0
 40 41  1  0  0  0  0
 18 21  1  0  0  0  0
 30 31  1  0  0  0  0
  7  8  1  0  0  0  0
 17 18  1  0  0  0  0
  3  4  1  0  0  0  0
  3  5  1  0  0  0  0
  3  6  1  0  0  0  0
 34 37  1  0  0  0  0
 34 38  1  0  0  0  0
 34 39  1  0  0  0  0
 11 14  1  0  0  0  0
 11 15  1  0  0  0  0
 11 16  1  0  0  0  0
 41 43  1  0  0  0  0
 41 44  1  0  0  0  0
 41 45  1  0  0  0  0
 21 27  1  0  0  0  0
 21 28  1  0  0  0  0
 31 36  1  0  0  0  0
  8 13  1  0  0  0  0
 18 26  1  0  0  0  0
 40 42  1  0  0  0  0
  7 12  1  0  0  0  0
 30 35  1  0  0  0  0
 17 25  1  0  0  0  0
 24 29  1  0  0  0  0
M  END
$$$$

  -OEChem-05262214473D

 45 44  0     1  0  0  0  0  0999 V2000
   -2.2987    4.1032   -0.3022 C   0  0  0  0  0  0  0  0  0  0  0  0
   -1.8049    3.7117   -1.3532 O   0  0  0  0  0  0  0  0  0  0  0  0
   -3.0791    5.3755   -0.2846 C   0  0  0  0  0  0  0  0  0  0  0  0
   -2.4478    6.2532   -0.0717 H   0  0  0  0  0  0  0  0  0  0  0  0
   -3.5571    5.5891   -1.2541 H   0  0  0  0  0  0  0  0  0  0  0  0
   -3.8940    5.4184    0.4556 H   0  0  0  0  0  0  0  0  0  0  0  0
   -2.2137    3.4712    0.9275 N   0  0  0  0  0  0  0  0  0  0  0  0
   -1.5102    2.2327    1.1338 C   0  0  2  0  0  0  0  0  0  0  0  0
   -1.3539    1.5497   -0.2184 C   0  0  0  0  0  0  0  0  0  0  0  0
   -2.0852    1.7861   -1.1778 O   0  0  0  0  0  0  0  0  0  0  0  0
   -2.2477    1.3342    2.1145 C   0  0  0  0  0  0  0  0  0  0  0  0
   -2.6724    3.9052    1.7265 H   0  0  0  0  0  0  0  0  0  0  0  0
   -0.5220    2.4922    1.5290 H   0  0  0  0  0  0  0  0  0  0  0  0
   -3.2400    1.0636    1.7358 H   0  0  0  0  0  0  0  0  0  0  0  0
   -1.6970    0.4046    2.2923 H   0  0  0  0  0  0  0  0  0  0  0  0
   -2.3854    1.8384    3.0772 H   0  0  0  0  0  0  0  0  0  0  0  0
   -0.3283    0.6116   -0.2182 N   0  0  0  0  0  0  0  0  0  0  0  0
    0.0090   -0.1762   -1.3759 C   0  0  2  0  0  0  0  0  0  0  0  0
   -0.6583    0.4651   -2.5859 C   0  0  0  0  0  0  0  0  0  0  0  0
   -1.8028    0.1922   -2.9422 O   0  0  0  0  0  0  0  0  0  0  0  0
   -0.4277   -1.6308   -1.2229 C   0  0  0  0  0  0  0  0  0  0  0  0
    0.3919   -2.3411   -0.1738 C   0  0  0  0  0  0  0  0  0  0  0  0
    1.5488   -2.0517    0.1023 O   0  0  0  0  0  0  0  0  0  0  0  0
   -0.2877   -3.3518    0.4223 O   0  0  0  0  0  0  0  0  0  0  0  0
    0.2381    0.4970    0.6194 H   0  0  0  0  0  0  0  0  0  0  0  0
    1.0973   -0.1039   -1.4901 H   0  0  0  0  0  0  0  0  0  0  0  0
   -1.4748   -1.6982   -0.9015 H   0  0  0  0  0  0  0  0  0  0  0  0
   -0.3722   -2.1851   -2.1677 H   0  0  0  0  0  0  0  0  0  0  0  0
    0.2178   -3.8461    1.1026 H   0  0  0  0  0  0  0  0  0  0  0  0
    0.1561    1.4117   -3.1916 N   0  0  0  0  0  0  0  0  0  0  0  0
   -0.2571    2.1684   -4.3503 C   0  0  2  0  0  0  0  0  0  0  0  0
   -1.3891    3.0955   -3.9275 C   0  0  0  0  0  0  0  0  0  0  0  0
   -2.0931    2.8879   -2.9414 O   0  0  0  0  0  0  0  0  0  0  0  0
   -0.6985    1.2522   -5.4810 C   0  0  0  0  0  0  0  0  0  0  0  0
    1.0801    1.5790   -2.8044 H   0  0  0  0  0  0  0  0  0  0  0  0
    0.6068    2.7650   -4.6630 H   0  0  0  0  0  0  0  0  0  0  0  0
   -1.5632    0.6465   -5.1863 H   0  0  0  0  0  0  0  0  0  0  0  0
   -0.9843    1.8265   -6.3684 H   0  0  0  0  0  0  0  0  0  0  0  0
    0.1071    0.5661   -5.7637 H   0  0  0  0  0  0  0  0  0  0  0  0
   -1.5484    4.1587   -4.8051 N   0  0  0  0  0  0  0  0  0  0  0  0
   -2.5642    5.1700   -4.6284 C   0  0  0  0  0  0  0  0  0  0  0  0
   -0.9072    4.2624   -5.5860 H   0  0  0  0  0  0  0  0  0  0  0  0
   -3.4683    4.8838   -5.1859 H   0  0  0  0  0  0  0  0  0  0  0  0
   -2.8068    5.2630   -3.5595 H   0  0  0  0  0  0  0  0  0  0  0  0
   -2.1912    6.1339   -5.0049 H   0  0  0  0  0  0  0  0  0  0  0  0
  1  3  1  0  0  0  0
  1  7  1  0  0  0  0
  1  2  2  0  0  0  0
 31 32  1  0  0  0  0
 32 40  1  0  0  0  0
 32 33  2  0  0  0  0
  8  9  1  0  0  0  0
  9 17  1  0  0  0  0
  9 10  2  0  0  0  0
 18 19  1  0  0  0  0
 19 30  1  0  0  0  0
 19 20  2  0  0  0  0
 21 22  1  0  0  0  0
 22 23  2  0  0  0  0
 22 24  1  0  0  0  0
 31 34  1  0  0  0  0
  8 11  1  0  0  0  0
 40 41  1  0  0  0  0
 18 21  1  0  0  0  0
 30 31  1  0  0  0  0
  7  8  1  0  0  0  0
 17 18  1  0  0  0  0
  3  4  1  0  0  0  0
  3  5  1  0  0  0  0
  3  6  1  0  0  0  0
 34 37  1  0  0  0  0
 34 38  1  0  0  0  0
 34 39  1  0  0  0  0
 11 14  1  0  0  0  0
 11 15  1  0  0  0  0
 11 16  1  0  0  0  0
 41 43  1  0  0  0  0
 41 44  1  0  0  0  0
 41 45  1  0  0  0  0
 21 27  1  0  0  0  0
 21 28  1  0  0  0  0
 31 36  1  0  0  0  0
  8 13  1  0  0  0  0
 18 26  1  0  0  0  0
 40 42  1  0  0  0  0
  7 12  1  0  0  0  0
 30 35  1  0  0  0  0
 17 25  1  0  0  0  0
 24 29  1  0  0  0  0
M  END
$$$$

  -OEChem-05262214473D

 45 44  0     1  0  0  0  0  0999 V2000
   -2.2987    4.1032   -0.3022 C   0  0  0  0  0  0  0  0  0  0  0  0
   -1.8049    3.7117   -1.3532 O   0  0  0  0  0  0  0  0  0  0  0  0
   -3.0791    5.3755   -0.2846 C   0  0  0  0  0  0  0  0  0  0  0  0
   -2.4478    6.2532   -0.0717 H   0  0  0  0  0  0  0  0  0  0  0  0
   -3.5571    5.5891   -1.2541 H   0  0  0  0  0  0  0  0  0  0  0  0
   -3.8940    5.4184    0.4556 H   0  0  0  0  0  0  0  0  0  0  0  0
   -2.2137    3.4712    0.9275 N   0  0  0  0  0  0  0  0  0  0  0  0
   -1.5102    2.2327    1.1338 C   0  0  2  0  0  0  0  0  0  0  0  0
   -1.3539    1.5497   -0.2184 C   0  0  0  0  0  0  0  0  0  0  0  0
   -2.0852    1.7861   -1.1778 O   0  0  0  0  0  0  0  0  0  0  0  0
   -2.2477    1.3342    2.1145 C   0  0  0  0  0  0  0  0  0  0  0  0
   -2.6724    3.9052    1.7265 H   0  0  0  0  0  0  0  0  0  0  0  0
   -0.5220    2.4922    1.5290 H   0  0  0  0  0  0  0  0  0  0  0  0
   -3.2400    1.0636    1.7358 H   0  0  0  0  0  0  0  0  0  0  0  0
   -1.6970    0.4046    2.2923 H   0  0  0  0  0  0  0  0  0  0  0  0
   -2.3854    1.8384    3.0772 H   0  0  0  0  0  0  0  0  0  0  0  0
   -0.3283    0.6116   -0.2182 N   0  0  0  0  0  0  0  0  0  0  0  0
    0.0090   -0.1762   -1.3759 C   0  0  2  0  0  0  0  0  0  0  0  0
   -0.6583    0.4651   -2.5859 C   0  0  0  0  0  0  0  0  0  0  0  0
   -1.8687    0.4060   -2.7925 O   0  0  0  0  0  0  0  0  0  0  0  0
   -0.4277   -1.6308   -1.2229 C   0  0  0  0  0  0  0  0  0  0  0  0
    0.3919   -2.3411   -0.1738 C   0  0  0  0  0  0  0  0  0  0  0  0
    1.5488   -2.0517    0.1023 O   0  0  0  0  0  0  0  0  0  0  0  0
   -0.2877   -3.3518    0.4223 O   0  0  0  0  0  0  0  0  0  0  0  0
    0.2381    0.4970    0.6194 H   0  0  0  0  0  0  0  0  0  0  0  0
    1.0973   -0.1039   -1.4901 H   0  0  0  0  0  0  0  0  0  0  0  0
   -1.4748   -1.6982   -0.9015 H   0  0  0  0  0  0  0  0  0  0  0  0
   -0.3722   -2.1851   -2.1677 H   0  0  0  0  0  0  0  0  0  0  0  0
    0.2178   -3.8461    1.1026 H   0  0  0  0  0  0  0  0  0  0  0  0
    0.2491    1.1509   -3.3812 N   0  0  0  0  0  0  0  0  0  0  0  0
   -0.1419    1.8558   -4.5796 C   0  0  2  0  0  0  0  0  0  0  0  0
   -1.0068    3.0397   -4.1678 C   0  0  0  0  0  0  0  0  0  0  0  0
   -1.6137    3.0877   -3.0999 O   0  0  0  0  0  0  0  0  0  0  0  0
   -0.8903    0.9434   -5.5389 C   0  0  0  0  0  0  0  0  0  0  0  0
    1.2278    1.1572   -3.1094 H   0  0  0  0  0  0  0  0  0  0  0  0
    0.7794    2.2207   -5.0467 H   0  0  0  0  0  0  0  0  0  0  0  0
   -1.8163    0.5679   -5.0884 H   0  0  0  0  0  0  0  0  0  0  0  0
   -1.1610    1.4717   -6.4591 H   0  0  0  0  0  0  0  0  0  0  0  0
   -0.2778    0.0770   -5.8107 H   0  0  0  0  0  0  0  0  0  0  0  0
   -1.0559    4.0174   -5.1516 N   0  0  0  0  0  0  0  0  0  0  0  0
   -1.8209    5.2336   -5.0046 C   0  0  0  0  0  0  0  0  0  0  0  0
   -0.5060    3.9027   -5.9979 H   0  0  0  0  0  0  0  0  0  0  0  0
   -2.8244    5.0901   -5.4316 H   0  0  0  0  0  0  0  0  0  0  0  0
   -1.9091    5.4844   -3.9372 H   0  0  0  0  0  0  0  0  0  0  0  0
   -1.3116    6.0531   -5.5329 H   0  0  0  0  0  0  0  0  0  0  0  0
  1  3  1  0  0  0  0
  1  7  1  0  0  0  0
  1  2  2  0  0  0  0
 31 32  1  0  0  0  0
 32 40  1  0  0  0  0
 32 33  2  0  0  0  0
  8  9  1  0  0  0  0
  9 17  1  0  0  0  0
  9 10  2  0  0  0  0
 18 19  1  0  0  0  0
 19 30  1  0  0  0  0
 19 20  2  0  0  0  0
 21 22  1  0  0  0  0
 22 23  2  0  0  0  0
 22 24  1  0  0  0  0
 31 34  1  0  0  0  0
  8 11  1  0  0  0  0
 40 41  1  0  0  0  0
 18 21  1  0  0  0  0
 30 31  1  0  0  0  0
  7  8  1  0  0  0  0
 17 18  1  0  0  0  0
  3  4  1  0  0  0  0
  3  5  1  0  0  0  0
  3  6  1  0  0  0  0
 34 37  1  0  0  0  0
 34 38  1  0  0  0  0
 34 39  1  0  0  0  0
 11 14  1  0  0  0  0
 11 15  1  0  0  0  0
 11 16  1  0  0  0  0
 41 43  1  0  0  0  0
 41 44  1  0  0  0  0
 41 45  1  0  0  0  0
 21 27  1  0  0  0  0
 21 28  1  0  0  0  0
 31 36  1  0  0  0  0
  8 13  1  0  0  0  0
 18 26  1  0  0  0  0
 40 42  1  0  0  0  0
  7 12  1  0  0  0  0
 30 35  1  0  0  0  0
 17 25  1  0  0  0  0
 24 29  1  0  0  0  0
M  END
$$$$

  -OEChem-05262214473D

 45 44  0     1  0  0  0  0  0999 V2000
   -2.2987    4.1032   -0.3022 C   0  0  0  0  0  0  0  0  0  0  0  0
   -1.8049    3.7117   -1.3532 O   0  0  0  0  0  0  0  0  0  0  0  0
   -3.0791    5.3755   -0.2846 C   0  0  0  0  0  0  0  0  0  0  0  0
   -2.4478    6.2532   -0.0717 H   0  0  0  0  0  0  0  0  0  0  0  0
   -3.5571    5.5891   -1.2541 H   0  0  0  0  0  0  0  0  0  0  0  0
   -3.8940    5.4184    0.4556 H   0  0  0  0  0  0  0  0  0  0  0  0
   -2.2137    3.4712    0.9275 N   0  0  0  0  0  0  0  0  0  0  0  0
   -1.5102    2.2327    1.1338 C   0  0  2  0  0  0  0  0  0  0  0  0
   -1.3539    1.5497   -0.2184 C   0  0  0  0  0  0  0  0  0  0  0  0
   -2.0852    1.7861   -1.1778 O   0  0  0  0  0  0  0  0  0  0  0  0
   -2.2477    1.3342    2.1145 C   0  0  0  0  0  0  0  0  0  0  0  0
   -2.6724    3.9052    1.7265 H   0  0  0  0  0  0  0  0  0  0  0  0
   -0.5220    2.4922    1.5290 H   0  0  0  0  0  0  0  0  0  0  0  0
   -3.2400    1.0636    1.7358 H   0  0  0  0  0  0  0  0  0  0  0  0
   -1.6970    0.4046    2.2923 H   0  0  0  0  0  0  0  0  0  0  0  0
   -2.3854    1.8384    3.0772 H   0  0  0  0  0  0  0  0  0  0  0  0
   -0.3283    0.6116   -0.2182 N   0  0  0  0  0  0  0  0  0  0  0  0
    0.0090   -0.1762   -1.3759 C   0  0  2  0  0  0  0  0  0  0  0  0
   -0.6583    0.4651   -2.5859 C   0  0  0  0  0  0  0  0  0  0  0  0
   -1.8721    0.6430   -2.6650 O   0  0  0  0  0  0  0  0  0  0  0  0
   -0.4277   -1.6308   -1.2229 C   0  0  0  0  0  0  0  0  0  0  0  0
    0.3919   -2.3411   -0.1738 C   0  0  0  0  0  0  0  0  0  0  0  0
    1.5488   -2.0517    0.1023 O   0  0  0  0  0  0  0  0  0  0  0  0
   -0.2877   -3.3518    0.4223 O   0  0  0  0  0  0  0  0  0  0  0  0
    0.2381    0.4970    0.6194 H   0  0  0  0  0  0  0  0  0  0  0  0
    1.0973   -0.1039   -1.4901 H   0  0  0  0  0  0  0  0  0  0  0  0
   -1.4748   -1.6982   -0.9015 H   0  0  0  0  0  0  0  0  0  0  0  0
   -0.3722   -2.1851   -2.1677 H   0  0  0  0  0  0  0  0  0  0  0  0
    0.2178   -3.8461    1.1026 H   0  0  0  0  0  0  0  0  0  0  0  0
    0.2647    0.8583   -3.5449 N   0  0  0  0  0  0  0  0  0  0  0  0
   -0.1198    1.5040   -4.7782 C   0  0  2  0  0  0  0  0  0  0  0  0
   -0.6753    2.8801   -4.4353 C   0  0  0  0  0  0  0  0  0  0  0  0
   -1.1269    3.1642   -3.3279 O   0  0  0  0  0  0  0  0  0  0  0  0
   -1.1454    0.6780   -5.5389 C   0  0  0  0  0  0  0  0  0  0  0  0
    1.2506    0.6848   -3.3724 H   0  0  0  0  0  0  0  0  0  0  0  0
    0.7924    1.6160   -5.3744 H   0  0  0  0  0  0  0  0  0  0  0  0
   -2.0663    0.5551   -4.9573 H   0  0  0  0  0  0  0  0  0  0  0  0
   -1.4145    1.1550   -6.4871 H   0  0  0  0  0  0  0  0  0  0  0  0
   -0.7552   -0.3216   -5.7586 H   0  0  0  0  0  0  0  0  0  0  0  0
   -0.6470    3.7404   -5.5239 N   0  0  0  0  0  0  0  0  0  0  0  0
   -1.1308    5.0996   -5.4563 C   0  0  0  0  0  0  0  0  0  0  0  0
   -0.2374    3.4261   -6.3987 H   0  0  0  0  0  0  0  0  0  0  0  0
   -2.1869    5.1291   -5.7625 H   0  0  0  0  0  0  0  0  0  0  0  0
   -1.0376    5.4709   -4.4250 H   0  0  0  0  0  0  0  0  0  0  0  0
   -0.5360    5.7343   -6.1296 H   0  0  0  0  0  0  0  0  0  0  0  0
  1  3  1  0  0  0  0
  1  7  1  0  0  0  0
  1  2  2  0  0  0  0
 31 32  1  0  0  0  0
 32 40  1  0  0  0  0
 32 33  2  0  0  0  0
  8  9  1  0  0  0  0
  9 17  1  0  0  0  0
  9 10  2  0  0  0  0
 18 19  1  0  0  0  0
 19 30  1  0  0  0  0
 19 20  2  0  0  0  0
 21 22  1  0  0  0  0
 22 23  2  0  0  0  0
 22 24  1  0  0  0  0
 31 34  1  0  0  0  0
  8 11  1  0  0  0  0
 40 41  1  0  0  0  0
 18 21  1  0  0  0  0
 30 31  1  0  0  0  0
  7  8  1  0  0  0  0
 17 18  1  0  0  0  0
  3  4  1  0  0  0  0
  3  5  1  0  0  0  0
  3  6  1  0  0  0  0
 34 37  1  0  0  0  0
 34 38  1  0  0  0  0
 34 39  1  0  0  0  0
 11 14  1  0  0  0  0
 11 15  1  0  0  0  0
 11 16  1  0  0  0  0
 41 43  1  0  0  0  0
 41 44  1  0  0  0  0
 41 45  1  0  0  0  0
 21 27  1  0  0  0  0
 21 28  1  0  0  0  0
 31 36  1  0  0  0  0
  8 13  1  0  0  0  0
 18 26  1  0  0  0  0
 40 42  1  0  0  0  0
  7 12  1  0  0  0  0
 30 35  1  0  0  0  0
 17 25  1  0  0  0  0
 24 29  1  0  0  0  0
M  END
$$$$

  -OEChem-05262214473D

 45 44  0     1  0  0  0  0  0999 V2000
   -2.2987    4.1032   -0.3022 C   0  0  0  0  0  0  0  0  0  0  0  0
   -1.8049    3.7117   -1.3532 O   0  0  0  0  0  0  0  0  0  0  0  0
   -3.0791    5.3755   -0.2846 C   0  0  0  0  0  0  0  0  0  0  0  0
   -2.4478    6.2532   -0.0717 H   0  0  0  0  0  0  0  0  0  0  0  0
   -3.5571    5.5891   -1.2541 H   0  0  0  0  0  0  0  0  0  0  0  0
   -3.8940    5.4184    0.4556 H   0  0  0  0  0  0  0  0  0  0  0  0
   -2.2137    3.4712    0.9275 N   0  0  0  0  0  0  0  0  0  0  0  0
   -1.5102    2.2327    1.1338 C   0  0  2  0  0  0  0  0  0  0  0  0
   -1.3539    1.5497   -0.2184 C   0  0  0  0  0  0  0  0  0  0  0  0
   -2.0852    1.7861   -1.1778 O   0  0  0  0  0  0  0  0  0  0  0  0
   -2.2477    1.3342    2.1145 C   0  0  0  0  0  0  0  0  0  0  0  0
   -2.6724    3.9052    1.7265 H   0  0  0  0  0  0  0  0  0  0  0  0
   -0.5220    2.4922    1.5290 H   0  0  0  0  0  0  0  0  0  0  0  0
   -3.2400    1.0636    1.7358 H   0  0  0  0  0  0  0  0  0  0  0  0
   -1.6970    0.4046    2.2923 H   0  0  0  0  0  0  0  0  0  0  0  0
   -2.3854    1.8384    3.0772 H   0  0  0  0  0  0  0  0  0  0  0  0
   -0.3283    0.6116   -0.2182 N   0  0  0  0  0  0  0  0  0  0  0  0
    0.0090   -0.1762   -1.3759 C   0  0  2  0  0  0  0  0  0  0  0  0
   -0.6583    0.4651   -2.5859 C   0  0  0  0  0  0  0  0  0  0  0  0
   -1.8128    0.8871   -2.5683 O   0  0  0  0  0  0  0  0  0  0  0  0
   -0.4277   -1.6308   -1.2229 C   0  0  0  0  0  0  0  0  0  0  0  0
    0.3919   -2.3411   -0.1738 C   0  0  0  0  0  0  0  0  0  0  0  0
    1.5488   -2.0517    0.1023 O   0  0  0  0  0  0  0  0  0  0  0  0
   -0.2877   -3.3518    0.4223 O   0  0  0  0  0  0  0  0  0  0  0  0
    0.2381    0.4970    0.6194 H   0  0  0  0  0  0  0  0  0  0  0  0
    1.0973   -0.1039   -1.4901 H   0  0  0  0  0  0  0  0  0  0  0  0
   -1.4748   -1.6982   -0.9015 H   0  0  0  0  0  0  0  0  0  0  0  0
   -0.3722   -2.1851   -2.1677 H   0  0  0  0  0  0  0  0  0  0  0  0
    0.2178   -3.8461    1.1026 H   0  0  0  0  0  0  0  0  0  0  0  0
    0.2018    0.5539   -3.6715 N   0  0  0  0  0  0  0  0  0  0  0  0
   -0.1925    1.1373   -4.9325 C   0  0  2  0  0  0  0  0  0  0  0  0
   -0.4170    2.6273   -4.7117 C   0  0  0  0  0  0  0  0  0  0  0  0
   -0.6657    3.1122   -3.6098 O   0  0  0  0  0  0  0  0  0  0  0  0
   -1.4463    0.4741   -5.4810 C   0  0  0  0  0  0  0  0  0  0  0  0
    1.1468    0.1941   -3.5752 H   0  0  0  0  0  0  0  0  0  0  0  0
    0.6449    0.9920   -5.6237 H   0  0  0  0  0  0  0  0  0  0  0  0
   -2.2961    0.6091   -4.8020 H   0  0  0  0  0  0  0  0  0  0  0  0
   -1.7276    0.8980   -6.4507 H   0  0  0  0  0  0  0  0  0  0  0  0
   -1.2926   -0.6026   -5.6112 H   0  0  0  0  0  0  0  0  0  0  0  0
   -0.3495    3.3466   -5.8967 N   0  0  0  0  0  0  0  0  0  0  0  0
   -0.5409    4.7770   -5.9525 C   0  0  0  0  0  0  0  0  0  0  0  0
   -0.1195    2.8651   -6.7610 H   0  0  0  0  0  0  0  0  0  0  0  0
   -1.5991    4.9982   -6.1560 H   0  0  0  0  0  0  0  0  0  0  0  0
   -0.2518    5.2233   -4.9896 H   0  0  0  0  0  0  0  0  0  0  0  0
    0.0826    5.1993   -6.7544 H   0  0  0  0  0  0  0  0  0  0  0  0
  1  3  1  0  0  0  0
  1  7  1  0  0  0  0
  1  2  2  0  0  0  0
 31 32  1  0  0  0  0
 32 40  1  0  0  0  0
 32 33  2  0  0  0  0
  8  9  1  0  0  0  0
  9 17  1  0  0  0  0
  9 10  2  0  0  0  0
 18 19  1  0  0  0  0
 19 30  1  0  0  0  0
 19 20  2  0  0  0  0
 21 22  1  0  0  0  0
 22 23  2  0  0  0  0
 22 24  1  0  0  0  0
 31 34  1  0  0  0  0
  8 11  1  0  0  0  0
 40 41  1  0  0  0  0
 18 21  1  0  0  0  0
 30 31  1  0  0  0  0
  7  8  1  0  0  0  0
 17 18  1  0  0  0  0
  3  4  1  0  0  0  0
  3  5  1  0  0  0  0
  3  6  1  0  0  0  0
 34 37  1  0  0  0  0
 34 38  1  0  0  0  0
 34 39  1  0  0  0  0
 11 14  1  0  0  0  0
 11 15  1  0  0  0  0
 11 16  1  0  0  0  0
 41 43  1  0  0  0  0
 41 44  1  0  0  0  0
 41 45  1  0  0  0  0
 21 27  1  0  0  0  0
 21 28  1  0  0  0  0
 31 36  1  0  0  0  0
  8 13  1  0  0  0  0
 18 26  1  0  0  0  0
 40 42  1  0  0  0  0
  7 12  1  0  0  0  0
 30 35  1  0  0  0  0
 17 25  1  0  0  0  0
 24 29  1  0  0  0  0
M  END
$$$$

  -OEChem-05262214473D

 45 44  0     1  0  0  0  0  0999 V2000
   -2.2987    4.1032   -0.3022 C   0  0  0  0  0  0  0  0  0  0  0  0
   -1.8049    3.7117   -1.3532 O   0  0  0  0  0  0  0  0  0  0  0  0
   -3.0791    5.3755   -0.2846 C   0  0  0  0  0  0  0  0  0  0  0  0
   -2.4478    6.2532   -0.0717 H   0  0  0  0  0  0  0  0  0  0  0  0
   -3.5571    5.5891   -1.2541 H   0  0  0  0  0  0  0  0  0  0  0  0
   -3.8940    5.4184    0.4556 H   0  0  0  0  0  0  0  0  0  0  0  0
   -2.2137    3.4712    0.9275 N   0  0  0  0  0  0  0  0  0  0  0  0
   -1.5102    2.2327    1.1338 C   0  0  2  0  0  0  0  0  0  0  0  0
   -1.3539    1.5497   -0.2184 C   0  0  0  0  0  0  0  0  0  0  0  0
   -2.0852    1.7861   -1.1778 O   0  0  0  0  0  0  0  0  0  0  0  0
   -2.2477    1.3342    2.1145 C   0  0  0  0  0  0  0  0  0  0  0  0
   -2.6724    3.9052    1.7265 H   0  0  0  0  0  0  0  0  0  0  0  0
   -0.5220    2.4922    1.5290 H   0  0  0  0  0  0  0  0  0  0  0  0
   -3.2400    1.0636    1.7358 H   0  0  0  0  0  0  0  0  0  0  0  0
   -1.6970    0.4046    2.2923 H   0  0  0  0  0  0  0  0  0  0  0  0
   -2.3854    1.8384    3.0772 H   0  0  0  0  0  0  0  0  0  0  0  0
   -0.3283    0.6116   -0.2182 N   0  0  0  0  0  0  0  0  0  0  0  0
    0.0090   -0.1762   -1.3759 C   0  0  2  0  0  0  0  0  0  0  0  0
   -0.6583    0.4651   -2.5859 C   0  0  0  0  0  0  0  0  0  0  0  0
   -1.6948    1.1217   -2.5091 O   0  0  0  0  0  0  0  0  0  0  0  0
   -0.4277   -1.6308   -1.2229 C   0  0  0  0  0  0  0  0  0  0  0  0
    0.3919   -2.3411   -0.1738 C   0  0  0  0  0  0  0  0  0  0  0  0
    1.5488   -2.0517    0.1023 O   0  0  0  0  0  0  0  0  0  0  0  0
   -0.2877   -3.3518    0.4223 O   0  0  0  0  0  0  0  0  0  0  0  0
    0.2381    0.4970    0.6194 H   0  0  0  0  0  0  0  0  0  0  0  0
    1.0973   -0.1039   -1.4901 H   0  0  0  0  0  0  0  0  0  0  0  0
   -1.4748   -1.6982   -0.9015 H   0  0  0  0  0  0  0  0  0  0  0  0
   -0.3722   -2.1851   -2.1677 H   0  0  0  0  0  0  0  0  0  0  0  0
    0.2178   -3.8461    1.1026 H   0  0  0  0  0  0  0  0  0  0  0  0
    0.0646    0.2585   -3.7524 N   0  0  0  0  0  0  0  0  0  0  0  0
   -0.3549    0.7804   -5.0321 C   0  0  2  0  0  0  0  0  0  0  0  0
   -0.2495    2.2988   -4.9782 C   0  0  0  0  0  0  0  0  0  0  0  0
   -0.2617    2.9351   -3.9265 O   0  0  0  0  0  0  0  0  0  0  0  0
   -1.7726    0.3456   -5.3692 C   0  0  0  0  0  0  0  0  0  0  0  0
    0.9235   -0.2817   -3.7043 H   0  0  0  0  0  0  0  0  0  0  0  0
    0.3470    0.3913   -5.7778 H   0  0  0  0  0  0  0  0  0  0  0  0
   -2.4900    0.7260   -4.6330 H   0  0  0  0  0  0  0  0  0  0  0  0
   -2.0788    0.7183   -6.3523 H   0  0  0  0  0  0  0  0  0  0  0  0
   -1.8534   -0.7468   -5.3783 H   0  0  0  0  0  0  0  0  0  0  0  0
   -0.1838    2.8627   -6.2446 N   0  0  0  0  0  0  0  0  0  0  0  0
   -0.0916    4.2879   -6.4596 C   0  0  0  0  0  0  0  0  0  0  0  0
   -0.1605    2.2579   -7.0603 H   0  0  0  0  0  0  0  0  0  0  0  0
   -1.1011    4.7064   -6.5853 H   0  0  0  0  0  0  0  0  0  0  0  0
    0.3949    4.7587   -5.5925 H   0  0  0  0  0  0  0  0  0  0  0  0
    0.5020    4.4845   -7.3645 H   0  0  0  0  0  0  0  0  0  0  0  0
  1  3  1  0  0  0  0
  1  7  1  0  0  0  0
  1  2  2  0  0  0  0
 31 32  1  0  0  0  0
 32 40  1  0  0  0  0
 32 33  2  0  0  0  0
  8  9  1  0  0  0  0
  9 17  1  0  0  0  0
  9 10  2  0  0  0  0
 18 19  1  0  0  0  0
 19 30  1  0  0  0  0
 19 20  2  0  0  0  0
 21 22  1  0  0  0  0
 22 23  2  0  0  0  0
 22 24  1  0  0  0  0
 31 34  1  0  0  0  0
  8 11  1  0  0  0  0
 40 41  1  0  0  0  0
 18 21  1  0  0  0  0
 30 31  1  0  0  0  0
  7  8  1  0  0  0  0
 17 18  1  0  0  0  0
  3  4  1  0  0  0  0
  3  5  1  0  0  0  0
  3  6  1  0  0  0  0
 34 37  1  0  0  0  0
 34 38  1  0  0  0  0
 34 39  1  0  0  0  0
 11 14  1  0  0  0  0
 11 15  1  0  0  0  0
 11 16  1  0  0  0  0
 41 43  1  0  0  0  0
 41 44  1  0  0  0  0
 41 45  1  0  0  0  0
 21 27  1  0  0  0  0
 21 28  1  0  0  0  0
 31 36  1  0  0  0  0
  8 13  1  0  0  0  0
 18 26  1  0  0  0  0
 40 42  1  0  0  0  0
  7 12  1  0  0  0  0
 30 35  1  0  0  0  0
 17 25  1  0  0  0  0
 24 29  1  0  0  0  0
M  END
$$$$

  -OEChem-05262214473D

 45 44  0     1  0  0  0  0  0999 V2000
   -2.2987    4.1032   -0.3022 C   0  0  0  0  0  0  0  0  0  0  0  0
   -1.8049    3.7117   -1.3532 O   0  0  0  0  0  0  0  0  0  0  0  0
   -3.0791    5.3755   -0.2846 C   0  0  0  0  0  0  0  0  0  0  0  0
   -2.4478    6.2532   -0.0717 H   0  0  0  0  0  0  0  0  0  0  0  0
   -3.5571    5.5891   -1.2541 H   0  0  0  0  0  0  0  0  0  0  0  0
   -3.8940    5.4184    0.4556 H   0  0  0  0  0  0  0  0  0  0  0  0
   -2.2137    3.4712    0.9275 N   0  0  0  0  0  0  0  0  0  0  0  0
   -1.5102    2.2327    1.1338 C   0  0  2  0  0  0  0  0  0  0  0  0
   -1.3539    1.5497   -0.2184 C   0  0  0  0  0  0  0  0  0  0  0  0
   -2.0852    1.7861   -1.1778 O   0  0  0  0  0  0  0  0  0  0  0  0
   -2.2477    1.3342    2.1145 C   0  0  0  0  0  0  0  0  0  0  0  0
   -2.6724    3.9052    1.7265 H   0  0  0  0  0  0  0  0  0  0  0  0
   -0.5220    2.4922    1.5290 H   0  0  0  0  0  0  0  0  0  0  0  0
   -3.2400    1.0636    1.7358 H   0  0  0  0  0  0  0  0  0  0  0  0
   -1.6970    0.4046    2.2923 H   0  0  0  0  0  0  0  0  0  0  0  0
   -2.3854    1.8384    3.0772 H   0  0  0  0  0  0  0  0  0  0  0  0
   -0.3283    0.6116   -0.2182 N   0  0  0  0  0  0  0  0  0  0  0  0
    0.0090   -0.1762   -1.3759 C   0  0  2  0  0  0  0  0  0  0  0  0
   -0.6583    0.4651   -2.5859 C   0  0  0  0  0  0  0  0  0  0  0  0
   -1.5261    1.3307   -2.4913 O   0  0  0  0  0  0  0  0  0  0  0  0
   -0.4277   -1.6308   -1.2229 C   0  0  0  0  0  0  0  0  0  0  0  0
    0.3919   -2.3411   -0.1738 C   0  0  0  0  0  0  0  0  0  0  0  0
    1.5488   -2.0517    0.1023 O   0  0  0  0  0  0  0  0  0  0  0  0
   -0.2877   -3.3518    0.4223 O   0  0  0  0  0  0  0  0  0  0  0  0
    0.2381    0.4970    0.6194 H   0  0  0  0  0  0  0  0  0  0  0  0
    1.0973   -0.1039   -1.4901 H   0  0  0  0  0  0  0  0  0  0  0  0
   -1.4748   -1.6982   -0.9015 H   0  0  0  0  0  0  0  0  0  0  0  0
   -0.3722   -2.1851   -2.1677 H   0  0  0  0  0  0  0  0  0  0  0  0
    0.2178   -3.8461    1.1026 H   0  0  0  0  0  0  0  0  0  0  0  0
   -0.1374   -0.0078   -3.7822 N   0  0  0  0  0  0  0  0  0  0  0  0
   -0.5959    0.4578   -5.0702 C   0  0  2  0  0  0  0  0  0  0  0  0
   -0.1844    1.9168   -5.2165 C   0  0  0  0  0  0  0  0  0  0  0  0
    0.0577    2.6451   -4.2563 O   0  0  0  0  0  0  0  0  0  0  0  0
   -2.1020    0.3012   -5.2111 C   0  0  0  0  0  0  0  0  0  0  0  0
    0.5960   -0.7099   -3.7506 H   0  0  0  0  0  0  0  0  0  0  0  0
   -0.0811   -0.1451   -5.8261 H   0  0  0  0  0  0  0  0  0  0  0  0
   -2.6349    0.8980   -4.4619 H   0  0  0  0  0  0  0  0  0  0  0  0
   -2.4443    0.6280   -6.1985 H   0  0  0  0  0  0  0  0  0  0  0  0
   -2.3994   -0.7443   -5.0759 H   0  0  0  0  0  0  0  0  0  0  0  0
   -0.1611    2.3219   -6.5438 N   0  0  0  0  0  0  0  0  0  0  0  0
    0.1867    3.6657   -6.9428 C   0  0  0  0  0  0  0  0  0  0  0  0
   -0.3575    1.6459   -7.2760 H   0  0  0  0  0  0  0  0  0  0  0  0
   -0.7269    4.2734   -7.0212 H   0  0  0  0  0  0  0  0  0  0  0  0
    0.8583    4.1086   -6.1927 H   0  0  0  0  0  0  0  0  0  0  0  0
    0.6938    3.6386   -7.9186 H   0  0  0  0  0  0  0  0  0  0  0  0
  1  3  1  0  0  0  0
  1  7  1  0  0  0  0
  1  2  2  0  0  0  0
 31 32  1  0  0  0  0
 32 40  1  0  0  0  0
 32 33  2  0  0  0  0
  8  9  1  0  0  0  0
  9 17  1  0  0  0  0
  9 10  2  0  0  0  0
 18 19  1  0  0  0  0
 19 30  1  0  0  0  0
 19 20  2  0  0  0  0
 21 22  1  0  0  0  0
 22 23  2  0  0  0  0
 22 24  1  0  0  0  0
 31 34  1  0  0  0  0
  8 11  1  0  0  0  0
 40 41  1  0  0  0  0
 18 21  1  0  0  0  0
 30 31  1  0  0  0  0
  7  8  1  0  0  0  0
 17 18  1  0  0  0  0
  3  4  1  0  0  0  0
  3  5  1  0  0  0  0
  3  6  1  0  0  0  0
 34 37  1  0  0  0  0
 34 38  1  0  0  0  0
 34 39  1  0  0  0  0
 11 14  1  0  0  0  0
 11 15  1  0  0  0  0
 11 16  1  0  0  0  0
 41 43  1  0  0  0  0
 41 44  1  0  0  0  0
 41 45  1  0  0  0  0
 21 27  1  0  0  0  0
 21 28  1  0  0  0  0
 31 36  1  0  0  0  0
  8 13  1  0  0  0  0
 18 26  1  0  0  0  0
 40 42  1  0  0  0  0
  7 12  1  0  0  0  0
 30 35  1  0  0  0  0
 17 25  1  0  0  0  0
 24 29  1  0  0  0  0
M  END
$$$$

  -OEChem-05262214473D

 45 44  0     1  0  0  0  0  0999 V2000
   -2.2987    4.1032   -0.3022 C   0  0  0  0  0  0  0  0  0  0  0  0
   -1.8049    3.7117   -1.3532 O   0  0  0  0  0  0  0  0  0  0  0  0
   -3.0791    5.3755   -0.2846 C   0  0  0  0  0  0  0  0  0  0  0  0
   -2.4478    6.2532   -0.0717 H   0  0  0  0  0  0  0  0  0  0  0  0
   -3.5571    5.5891   -1.2541 H   0  0  0  0  0  0  0  0  0  0  0  0
   -3.8940    5.4184    0.4556 H   0  0  0  0  0  0  0  0  0  0  0  0
   -2.2137    3.4712    0.9275 N   0  0  0  0  0  0  0  0  0  0  0  0
   -1.5102    2.2327    1.1338 C   0  0  2  0  0  0  0  0  0  0  0  0
   -1.3539    1.5497   -0.2184 C   0  0  0  0  0  0  0  0  0  0  0  0
   -2.0852    1.7861   -1.1778 O   0  0  0  0  0  0  0  0  0  0  0  0
   -2.2477    1.3342    2.1145 C   0  0  0  0  0  0  0  0  0  0  0  0
   -2.6724    3.9052    1.7265 H   0  0  0  0  0  0  0  0  0  0  0  0
   -0.5220    2.4922    1.5290 H   0  0  0  0  0  0  0  0  0  0  0  0
   -3.2400    1.0636    1.7358 H   0  0  0  0  0  0  0  0  0  0  0  0
   -1.6970    0.4046    2.2923 H   0  0  0  0  0  0  0  0  0  0  0  0
   -2.3854    1.8384    3.0772 H   0  0  0  0  0  0  0  0  0  0  0  0
   -0.3283    0.6116   -0.2182 N   0  0  0  0  0  0  0  0  0  0  0  0
    0.0090   -0.1762   -1.3759 C   0  0  2  0  0  0  0  0  0  0  0  0
   -0.3271    0.6467   -2.6130 C   0  0  0  0  0  0  0  0  0  0  0  0
   -0.7654    1.7938   -2.5552 O   0  0  0  0  0  0  0  0  0  0  0  0
   -0.7325   -1.5103   -1.3937 C   0  0  0  0  0  0  0  0  0  0  0  0
   -0.2392   -2.4256   -0.3002 C   0  0  0  0  0  0  0  0  0  0  0  0
    0.8985   -2.4014    0.1508 O   0  0  0  0  0  0  0  0  0  0  0  0
   -1.1909   -3.2950    0.1205 O   0  0  0  0  0  0  0  0  0  0  0  0
    0.2381    0.4970    0.6194 H   0  0  0  0  0  0  0  0  0  0  0  0
    1.0939   -0.3316   -1.3362 H   0  0  0  0  0  0  0  0  0  0  0  0
   -1.8071   -1.3684   -1.2228 H   0  0  0  0  0  0  0  0  0  0  0  0
   -0.6519   -2.0201   -2.3615 H   0  0  0  0  0  0  0  0  0  0  0  0
   -0.9031   -3.9159    0.8236 H   0  0  0  0  0  0  0  0  0  0  0  0
   -0.0354   -0.0322   -3.7878 N   0  0  0  0  0  0  0  0  0  0  0  0
   -0.2523    0.5429   -5.0948 C   0  0  2  0  0  0  0  0  0  0  0  0
    0.7216    1.7012   -5.2664 C   0  0  0  0  0  0  0  0  0  0  0  0
    1.2324    2.2942   -4.3185 O   0  0  0  0  0  0  0  0  0  0  0  0
   -1.6893    1.0118   -5.2614 C   0  0  0  0  0  0  0  0  0  0  0  0
    0.3462   -0.9715   -3.7259 H   0  0  0  0  0  0  0  0  0  0  0  0
   -0.0229   -0.2393   -5.8266 H   0  0  0  0  0  0  0  0  0  0  0  0
   -1.9376    1.7958   -4.5366 H   0  0  0  0  0  0  0  0  0  0  0  0
   -1.8595    1.4214   -6.2626 H   0  0  0  0  0  0  0  0  0  0  0  0
   -2.3897    0.1837   -5.1082 H   0  0  0  0  0  0  0  0  0  0  0  0
    0.9198    2.0229   -6.6019 N   0  0  0  0  0  0  0  0  0  0  0  0
    1.7904    3.0949   -7.0247 C   0  0  0  0  0  0  0  0  0  0  0  0
    0.4701    1.4655   -7.3222 H   0  0  0  0  0  0  0  0  0  0  0  0
    1.2064    4.0205   -7.1347 H   0  0  0  0  0  0  0  0  0  0  0  0
    2.5782    3.2458   -6.2719 H   0  0  0  0  0  0  0  0  0  0  0  0
    2.2502    2.8347   -7.9895 H   0  0  0  0  0  0  0  0  0  0  0  0
  1  3  1  0  0  0  0
  1  7  1  0  0  0  0
  1  2  2  0  0  0  0
 31 32  1  0  0  0  0
 32 40  1  0  0  0  0
 32 33  2  0  0  0  0
  8  9  1  0  0  0  0
  9 17  1  0  0  0  0
  9 10  2  0  0  0  0
 18 19  1  0  0  0  0
 19 30  1  0  0  0  0
 19 20  2  0  0  0  0
 21 22  1  0  0  0  0
 22 23  2  0  0  0  0
 22 24  1  0  0  0  0
 31 34  1  0  0  0  0
  8 11  1  0  0  0  0
 40 41  1  0  0  0  0
 18 21  1  0  0  0  0
 30 31  1  0  0  0  0
  7  8  1  0  0  0  0
 17 18  1  0  0  0  0
  3  4  1  0  0  0  0
  3  5  1  0  0  0  0
  3  6  1  0  0  0  0
 34 37  1  0  0  0  0
 34 38  1  0  0  0  0
 34 39  1  0  0  0  0
 11 14  1  0  0  0  0
 11 15  1  0  0  0  0
 11 16  1  0  0  0  0
 41 43  1  0  0  0  0
 41 44  1  0  0  0  0
 41 45  1  0  0  0  0
 21 27  1  0  0  0  0
 21 28  1  0  0  0  0
 31 36  1  0  0  0  0
  8 13  1  0  0  0  0
 18 26  1  0  0  0  0
 40 42  1  0  0  0  0
  7 12  1  0  0  0  0
 30 35  1  0  0  0  0
 17 25  1  0  0  0  0
 24 29  1  0  0  0  0
M  END
$$$$

  -OEChem-05262214473D

 45 44  0     1  0  0  0  0  0999 V2000
   -2.2987    4.1032   -0.3022 C   0  0  0  0  0  0  0  0  0  0  0  0
   -1.8049    3.7117   -1.3532 O   0  0  0  0  0  0  0  0  0  0  0  0
   -3.0791    5.3755   -0.2846 C   0  0  0  0  0  0  0  0  0  0  0  0
   -2.4478    6.2532   -0.0717 H   0  0  0  0  0  0  0  0  0  0  0  0
   -3.5571    5.5891   -1.2541 H   0  0  0  0  0  0  0  0  0  0  0  0
   -3.8940    5.4184    0.4556 H   0  0  0  0  0  0  0  0  0  0  0  0
   -2.2137    3.4712    0.9275 N   0  0  0  0  0  0  0  0  0  0  0  0
   -1.5102    2.2327    1.1338 C   0  0  2  0  0  0  0  0  0  0  0  0
   -1.3539    1.5497   -0.2184 C   0  0  0  0  0  0  0  0  0  0  0  0
   -2.0852    1.7861   -1.1778 O   0  0  0  0  0  0  0  0  0  0  0  0
   -2.2477    1.3342    2.1145 C   0  0  0  0  0  0  0  0  0  0  0  0
   -2.6724    3.9052    1.7265 H   0  0  0  0  0  0  0  0  0  0  0  0
   -0.5220    2.4922    1.5290 H   0  0  0  0  0  0  0  0  0  0  0  0
   -3.2400    1.0636    1.7358 H   0  0  0  0  0  0  0  0  0  0  0  0
   -1.6970    0.4046    2.2923 H   0  0  0  0  0  0  0  0  0  0  0  0
   -2.3854    1.8384    3.0772 H   0  0  0  0  0  0  0  0  0  0  0  0
   -0.3283    0.6116   -0.2182 N   0  0  0  0  0  0  0  0  0  0  0  0
    0.0090   -0.1762   -1.3759 C   0  0  2  0  0  0  0  0  0  0  0  0
   -0.3271    0.6467   -2.6130 C   0  0  0  0  0  0  0  0  0  0  0  0
   -0.5063    1.8625   -2.5799 O   0  0  0  0  0  0  0  0  0  0  0  0
   -0.7325   -1.5103   -1.3937 C   0  0  0  0  0  0  0  0  0  0  0  0
   -0.2392   -2.4256   -0.3002 C   0  0  0  0  0  0  0  0  0  0  0  0
    0.8985   -2.4014    0.1508 O   0  0  0  0  0  0  0  0  0  0  0  0
   -1.1909   -3.2950    0.1205 O   0  0  0  0  0  0  0  0  0  0  0  0
    0.2381    0.4970    0.6194 H   0  0  0  0  0  0  0  0  0  0  0  0
    1.0939   -0.3316   -1.3362 H   0  0  0  0  0  0  0  0  0  0  0  0
   -1.8071   -1.3684   -1.2228 H   0  0  0  0  0  0  0  0  0  0  0  0
   -0.6519   -2.0201   -2.3615 H   0  0  0  0  0  0  0  0  0  0  0  0
   -0.9031   -3.9159    0.8236 H   0  0  0  0  0  0  0  0  0  0  0  0
   -0.3562   -0.1278   -3.7643 N   0  0  0  0  0  0  0  0  0  0  0  0
   -0.6382    0.4248   -5.0685 C   0  0  2  0  0  0  0  0  0  0  0  0
    0.5178    1.3392   -5.4519 C   0  0  0  0  0  0  0  0  0  0  0  0
    1.2726    1.8484   -4.6260 O   0  0  0  0  0  0  0  0  0  0  0  0
   -1.9564    1.1832   -5.0748 C   0  0  0  0  0  0  0  0  0  0  0  0
   -0.1716   -1.1236   -3.6864 H   0  0  0  0  0  0  0  0  0  0  0  0
   -0.6844   -0.4186   -5.7661 H   0  0  0  0  0  0  0  0  0  0  0  0
   -1.9292    2.0320   -4.3818 H   0  0  0  0  0  0  0  0  0  0  0  0
   -2.1827    1.5772   -6.0711 H   0  0  0  0  0  0  0  0  0  0  0  0
   -2.7824    0.5316   -4.7701 H   0  0  0  0  0  0  0  0  0  0  0  0
    0.5810    1.5543   -6.8215 N   0  0  0  0  0  0  0  0  0  0  0  0
    1.5826    2.3961   -7.4331 C   0  0  0  0  0  0  0  0  0  0  0  0
   -0.0742    1.0764   -7.4331 H   0  0  0  0  0  0  0  0  0  0  0  0
    1.1922    3.4199   -7.5304 H   0  0  0  0  0  0  0  0  0  0  0  0
    2.4858    2.4064   -6.8052 H   0  0  0  0  0  0  0  0  0  0  0  0
    1.8331    2.0031   -8.4294 H   0  0  0  0  0  0  0  0  0  0  0  0
  1  3  1  0  0  0  0
  1  7  1  0  0  0  0
  1  2  2  0  0  0  0
 31 32  1  0  0  0  0
 32 40  1  0  0  0  0
 32 33  2  0  0  0  0
  8  9  1  0  0  0  0
  9 17  1  0  0  0  0
  9 10  2  0  0  0  0
 18 19  1  0  0  0  0
 19 30  1  0  0  0  0
 19 20  2  0  0  0  0
 21 22  1  0  0  0  0
 22 23  2  0  0  0  0
 22 24  1  0  0  0  0
 31 34  1  0  0  0  0
  8 11  1  0  0  0  0
 40 41  1  0  0  0  0
 18 21  1  0  0  0  0
 30 31  1  0  0  0  0
  7  8  1  0  0  0  0
 17 18  1  0  0  0  0
  3  4  1  0  0  0  0
  3  5  1  0  0  0  0
  3  6  1  0  0  0  0
 34 37  1  0  0  0  0
 34 38  1  0  0  0  0
 34 39  1  0  0  0  0
 11 14  1  0  0  0  0
 11 15  1  0  0  0  0
 11 16  1  0  0  0  0
 41 43  1  0  0  0  0
 41 44  1  0  0  0  0
 41 45  1  0  0  0  0
 21 27  1  0  0  0  0
 21 28  1  0  0  0  0
 31 36  1  0  0  0  0
  8 13  1  0  0  0  0
 18 26  1  0  0  0  0
 40 42  1  0  0  0  0
  7 12  1  0  0  0  0
 30 35  1  0  0  0  0
 17 25  1  0  0  0  0
 24 29  1  0  0  0  0
M  END
$$$$

  -OEChem-05262214473D

 45 44  0     1  0  0  0  0  0999 V2000
   -2.2987    4.1032   -0.3022 C   0  0  0  0  0  0  0  0  0  0  0  0
   -1.8049    3.7117   -1.3532 O   0  0  0  0  0  0  0  0  0  0  0  0
   -3.0791    5.3755   -0.2846 C   0  0  0  0  0  0  0  0  0  0  0  0
   -2.4478    6.2532   -0.0717 H   0  0  0  0  0  0  0  0  0  0  0  0
   -3.5571    5.5891   -1.2541 H   0  0  0  0  0  0  0  0  0  0  0  0
   -3.8940    5.4184    0.4556 H   0  0  0  0  0  0  0  0  0  0  0  0
   -2.2137    3.4712    0.9275 N   0  0  0  0  0  0  0  0  0  0  0  0
   -1.5102    2.2327    1.1338 C   0  0  2  0  0  0  0  0  0  0  0  0
   -1.3539    1.5497   -0.2184 C   0  0  0  0  0  0  0  0  0  0  0  0
   -2.0852    1.7861   -1.1778 O   0  0  0  0  0  0  0  0  0  0  0  0
   -2.2477    1.3342    2.1145 C   0  0  0  0  0  0  0  0  0  0  0  0
   -2.6724    3.9052    1.7265 H   0  0  0  0  0  0  0  0  0  0  0  0
   -0.5220    2.4922    1.5290 H   0  0  0  0  0  0  0  0  0  0  0  0
   -3.2400    1.0636    1.7358 H   0  0  0  0  0  0  0  0  0  0  0  0
   -1.6970    0.4046    2.2923 H   0  0  0  0  0  0  0  0  0  0  0  0
   -2.3854    1.8384    3.0772 H   0  0  0  0  0  0  0  0  0  0  0  0
   -0.3283    0.6116   -0.2182 N   0  0  0  0  0  0  0  0  0  0  0  0
    0.0090   -0.1762   -1.3759 C   0  0  2  0  0  0  0  0  0  0  0  0
   -0.3271    0.6467   -2.6130 C   0  0  0  0  0  0  0  0  0  0  0  0
   -0.2451    1.8729   -2.6439 O   0  0  0  0  0  0  0  0  0  0  0  0
   -0.7325   -1.5103   -1.3937 C   0  0  0  0  0  0  0  0  0  0  0  0
   -0.2392   -2.4256   -0.3002 C   0  0  0  0  0  0  0  0  0  0  0  0
    0.8985   -2.4014    0.1508 O   0  0  0  0  0  0  0  0  0  0  0  0
   -1.1909   -3.2950    0.1205 O   0  0  0  0  0  0  0  0  0  0  0  0
    0.2381    0.4970    0.6194 H   0  0  0  0  0  0  0  0  0  0  0  0
    1.0939   -0.3316   -1.3362 H   0  0  0  0  0  0  0  0  0  0  0  0
   -1.8071   -1.3684   -1.2228 H   0  0  0  0  0  0  0  0  0  0  0  0
   -0.6519   -2.0201   -2.3615 H   0  0  0  0  0  0  0  0  0  0  0  0
   -0.9031   -3.9159    0.8236 H   0  0  0  0  0  0  0  0  0  0  0  0
   -0.6829   -0.1514   -3.6912 N   0  0  0  0  0  0  0  0  0  0  0  0
   -1.0322    0.3933   -4.9824 C   0  0  2  0  0  0  0  0  0  0  0  0
    0.2189    1.0218   -5.5818 C   0  0  0  0  0  0  0  0  0  0  0  0
    1.1747    1.3918   -4.9031 O   0  0  0  0  0  0  0  0  0  0  0  0
   -2.1522    1.4155   -4.8671 C   0  0  0  0  0  0  0  0  0  0  0  0
   -0.6982   -1.1595   -3.5672 H   0  0  0  0  0  0  0  0  0  0  0  0
   -1.3525   -0.4493   -5.6050 H   0  0  0  0  0  0  0  0  0  0  0  0
   -1.8499    2.2672   -4.2469 H   0  0  0  0  0  0  0  0  0  0  0  0
   -2.4354    1.8065   -5.8500 H   0  0  0  0  0  0  0  0  0  0  0  0
   -3.0413    0.9694   -4.4085 H   0  0  0  0  0  0  0  0  0  0  0  0
    0.1245    1.1604   -6.9595 N   0  0  0  0  0  0  0  0  0  0  0  0
    1.1780    1.7415   -7.7586 C   0  0  0  0  0  0  0  0  0  0  0  0
   -0.6972    0.8086   -7.4420 H   0  0  0  0  0  0  0  0  0  0  0  0
    0.9970    2.8202   -7.8764 H   0  0  0  0  0  0  0  0  0  0  0  0
    2.1456    1.5846   -7.2595 H   0  0  0  0  0  0  0  0  0  0  0  0
    1.1939    1.2623   -8.7485 H   0  0  0  0  0  0  0  0  0  0  0  0
  1  3  1  0  0  0  0
  1  7  1  0  0  0  0
  1  2  2  0  0  0  0
 31 32  1  0  0  0  0
 32 40  1  0  0  0  0
 32 33  2  0  0  0  0
  8  9  1  0  0  0  0
  9 17  1  0  0  0  0
  9 10  2  0  0  0  0
 18 19  1  0  0  0  0
 19 30  1  0  0  0  0
 19 20  2  0  0  0  0
 21 22  1  0  0  0  0
 22 23  2  0  0  0  0
 22 24  1  0  0  0  0
 31 34  1  0  0  0  0
  8 11  1  0  0  0  0
 40 41  1  0  0  0  0
 18 21  1  0  0  0  0
 30 31  1  0  0  0  0
  7  8  1  0  0  0  0
 17 18  1  0  0  0  0
  3  4  1  0  0  0  0
  3  5  1  0  0  0  0
  3  6  1  0  0  0  0
 34 37  1  0  0  0  0
 34 38  1  0  0  0  0
 34 39  1  0  0  0  0
 11 14  1  0  0  0  0
 11 15  1  0  0  0  0
 11 16  1  0  0  0  0
 41 43  1  0  0  0  0
 41 44  1  0  0  0  0
 41 45  1  0  0  0  0
 21 27  1  0  0  0  0
 21 28  1  0  0  0  0
 31 36  1  0  0  0  0
  8 13  1  0  0  0  0
 18 26  1  0  0  0  0
 40 42  1  0  0  0  0
  7 12  1  0  0  0  0
 30 35  1  0  0  0  0
 17 25  1  0  0  0  0
 24 29  1  0  0  0  0
M  END
$$$$

  -OEChem-05262214473D

 45 44  0     1  0  0  0  0  0999 V2000
   -2.2987    4.1032   -0.3022 C   0  0  0  0  0  0  0  0  0  0  0  0
   -1.8049    3.7117   -1.3532 O   0  0  0  0  0  0  0  0  0  0  0  0
   -3.0791    5.3755   -0.2846 C   0  0  0  0  0  0  0  0  0  0  0  0
   -2.4478    6.2532   -0.0717 H   0  0  0  0  0  0  0  0  0  0  0  0
   -3.5571    5.5891   -1.2541 H   0  0  0  0  0  0  0  0  0  0  0  0
   -3.8940    5.4184    0.4556 H   0  0  0  0  0  0  0  0  0  0  0  0
   -2.2137    3.4712    0.9275 N   0  0  0  0  0  0  0  0  0  0  0  0
   -1.5102    2.2327    1.1338 C   0  0  2  0  0  0  0  0  0  0  0  0
   -1.3539    1.5497   -0.2184 C   0  0  0  0  0  0  0  0  0  0  0  0
   -2.0852    1.7861   -1.1778 O   0  0  0  0  0  0  0  0  0  0  0  0
   -2.2477    1.3342    2.1145 C   0  0  0  0  0  0  0  0  0  0  0  0
   -2.6724    3.9052    1.7265 H   0  0  0  0  0  0  0  0  0  0  0  0
   -0.5220    2.4922    1.5290 H   0  0  0  0  0  0  0  0  0  0  0  0
   -3.2400    1.0636    1.7358 H   0  0  0  0  0  0  0  0  0  0  0  0
   -1.6970    0.4046    2.2923 H   0  0  0  0  0  0  0  0  0  0  0  0
   -2.3854    1.8384    3.0772 H   0  0  0  0  0  0  0  0  0  0  0  0
   -0.3283    0.6116   -0.2182 N   0  0  0  0  0  0  0  0  0  0  0  0
    0.0090   -0.1762   -1.3759 C   0  0  2  0  0  0  0  0  0  0  0  0
   -0.3271    0.6467   -2.6130 C   0  0  0  0  0  0  0  0  0  0  0  0
    0.0005    1.8245   -2.7429 O   0  0  0  0  0  0  0  0  0  0  0  0
   -0.7325   -1.5103   -1.3937 C   0  0  0  0  0  0  0  0  0  0  0  0
   -0.2392   -2.4256   -0.3002 C   0  0  0  0  0  0  0  0  0  0  0  0
    0.8985   -2.4014    0.1508 O   0  0  0  0  0  0  0  0  0  0  0  0
   -1.1909   -3.2950    0.1205 O   0  0  0  0  0  0  0  0  0  0  0  0
    0.2381    0.4970    0.6194 H   0  0  0  0  0  0  0  0  0  0  0  0
    1.0939   -0.3316   -1.3362 H   0  0  0  0  0  0  0  0  0  0  0  0
   -1.8071   -1.3684   -1.2228 H   0  0  0  0  0  0  0  0  0  0  0  0
   -0.6519   -2.0201   -2.3615 H   0  0  0  0  0  0  0  0  0  0  0  0
   -0.9031   -3.9159    0.8236 H   0  0  0  0  0  0  0  0  0  0  0  0
   -0.9932   -0.1014   -3.5736 N   0  0  0  0  0  0  0  0  0  0  0  0
   -1.4074    0.4505   -4.8424 C   0  0  2  0  0  0  0  0  0  0  0  0
   -0.1548    0.7706   -5.6474 C   0  0  0  0  0  0  0  0  0  0  0  0
    0.9454    0.9555   -5.1311 O   0  0  0  0  0  0  0  0  0  0  0  0
   -2.2635    1.6929   -4.6523 C   0  0  0  0  0  0  0  0  0  0  0  0
   -1.1977   -1.0767   -3.3764 H   0  0  0  0  0  0  0  0  0  0  0  0
   -1.9817   -0.3293   -5.3542 H   0  0  0  0  0  0  0  0  0  0  0  0
   -1.7049    2.4854   -4.1411 H   0  0  0  0  0  0  0  0  0  0  0  0
   -2.6003    2.0937   -5.6141 H   0  0  0  0  0  0  0  0  0  0  0  0
   -3.1488    1.4675   -4.0480 H   0  0  0  0  0  0  0  0  0  0  0  0
   -0.4185    0.8680   -7.0065 N   0  0  0  0  0  0  0  0  0  0  0  0
    0.6040    1.1757   -7.9790 C   0  0  0  0  0  0  0  0  0  0  0  0
   -1.3565    0.6804   -7.3481 H   0  0  0  0  0  0  0  0  0  0  0  0
    0.6341    2.2621   -8.1490 H   0  0  0  0  0  0  0  0  0  0  0  0
    1.5807    0.8363   -7.6038 H   0  0  0  0  0  0  0  0  0  0  0  0
    0.3762    0.6629   -8.9251 H   0  0  0  0  0  0  0  0  0  0  0  0
  1  3  1  0  0  0  0
  1  7  1  0  0  0  0
  1  2  2  0  0  0  0
 31 32  1  0  0  0  0
 32 40  1  0  0  0  0
 32 33  2  0  0  0  0
  8  9  1  0  0  0  0
  9 17  1  0  0  0  0
  9 10  2  0  0  0  0
 18 19  1  0  0  0  0
 19 30  1  0  0  0  0
 19 20  2  0  0  0  0
 21 22  1  0  0  0  0
 22 23  2  0  0  0  0
 22 24  1  0  0  0  0
 31 34  1  0  0  0  0
  8 11  1  0  0  0  0
 40 41  1  0  0  0  0
 18 21  1  0  0  0  0
 30 31  1  0  0  0  0
  7  8  1  0  0  0  0
 17 18  1  0  0  0  0
  3  4  1  0  0  0  0
  3  5  1  0  0  0  0
  3  6  1  0  0  0  0
 34 37  1  0  0  0  0
 34 38  1  0  0  0  0
 34 39  1  0  0  0  0
 11 14  1  0  0  0  0
 11 15  1  0  0  0  0
 11 16  1  0  0  0  0
 41 43  1  0  0  0  0
 41 44  1  0  0  0  0
 41 45  1  0  0  0  0
 21 27  1  0  0  0  0
 21 28  1  0  0  0  0
 31 36  1  0  0  0  0
  8 13  1  0  0  0  0
 18 26  1  0  0  0  0
 40 42  1  0  0  0  0
  7 12  1  0  0  0  0
 30 35  1  0  0  0  0
 17 25  1  0  0  0  0
 24 29  1  0  0  0  0
M  END
$$$$

  -OEChem-05262214473D

 45 44  0     1  0  0  0  0  0999 V2000
   -2.2987    4.1032   -0.3022 C   0  0  0  0  0  0  0  0  0  0  0  0
   -1.8049    3.7117   -1.3532 O   0  0  0  0  0  0  0  0  0  0  0  0
   -3.0791    5.3755   -0.2846 C   0  0  0  0  0  0  0  0  0  0  0  0
   -2.4478    6.2532   -0.0717 H   0  0  0  0  0  0  0  0  0  0  0  0
   -3.5571    5.5891   -1.2541 H   0  0  0  0  0  0  0  0  0  0  0  0
   -3.8940    5.4184    0.4556 H   0  0  0  0  0  0  0  0  0  0  0  0
   -2.2137    3.4712    0.9275 N   0  0  0  0  0  0  0  0  0  0  0  0
   -1.5102    2.2327    1.1338 C   0  0  2  0  0  0  0  0  0  0  0  0
   -1.3539    1.5497   -0.2184 C   0  0  0  0  0  0  0  0  0  0  0  0
   -2.0852    1.7861   -1.1778 O   0  0  0  0  0  0  0  0  0  0  0  0
   -2.2477    1.3342    2.1145 C   0  0  0  0  0  0  0  0  0  0  0  0
   -2.6724    3.9052    1.7265 H   0  0  0  0  0  0  0  0  0  0  0  0
   -0.5220    2.4922    1.5290 H   0  0  0  0  0  0  0  0  0  0  0  0
   -3.2400    1.0636    1.7358 H   0  0  0  0  0  0  0  0  0  0  0  0
   -1.6970    0.4046    2.2923 H   0  0  0  0  0  0  0  0  0  0  0  0
   -2.3854    1.8384    3.0772 H   0  0  0  0  0  0  0  0  0  0  0  0
   -0.3283    0.6116   -0.2182 N   0  0  0  0  0  0  0  0  0  0  0  0
    0.0090   -0.1762   -1.3759 C   0  0  2  0  0  0  0  0  0  0  0  0
   -0.3271    0.6467   -2.6130 C   0  0  0  0  0  0  0  0  0  0  0  0
    0.2137    1.7204   -2.8701 O   0  0  0  0  0  0  0  0  0  0  0  0
   -0.7325   -1.5103   -1.3937 C   0  0  0  0  0  0  0  0  0  0  0  0
   -0.2392   -2.4256   -0.3002 C   0  0  0  0  0  0  0  0  0  0  0  0
    0.8985   -2.4014    0.1508 O   0  0  0  0  0  0  0  0  0  0  0  0
   -1.1909   -3.2950    0.1205 O   0  0  0  0  0  0  0  0  0  0  0  0
    0.2381    0.4970    0.6194 H   0  0  0  0  0  0  0  0  0  0  0  0
    1.0939   -0.3316   -1.3362 H   0  0  0  0  0  0  0  0  0  0  0  0
   -1.8071   -1.3684   -1.2228 H   0  0  0  0  0  0  0  0  0  0  0  0
   -0.6519   -2.0201   -2.3615 H   0  0  0  0  0  0  0  0  0  0  0  0
   -0.9031   -3.9159    0.8236 H   0  0  0  0  0  0  0  0  0  0  0  0
   -1.2660    0.0188   -3.4195 N   0  0  0  0  0  0  0  0  0  0  0  0
   -1.7381    0.5927   -4.6579 C   0  0  2  0  0  0  0  0  0  0  0  0
   -0.5776    0.6028   -5.6441 C   0  0  0  0  0  0  0  0  0  0  0  0
    0.6003    0.5693   -5.2942 O   0  0  0  0  0  0  0  0  0  0  0  0
   -2.2827    1.9966   -4.4451 C   0  0  0  0  0  0  0  0  0  0  0  0
   -1.6361   -0.8807   -3.1269 H   0  0  0  0  0  0  0  0  0  0  0  0
   -2.5293   -0.0668   -5.0308 H   0  0  0  0  0  0  0  0  0  0  0  0
   -1.5042    2.6718   -4.0716 H   0  0  0  0  0  0  0  0  0  0  0  0
   -2.6663    2.4193   -5.3796 H   0  0  0  0  0  0  0  0  0  0  0  0
   -3.0976    1.9917   -3.7132 H   0  0  0  0  0  0  0  0  0  0  0  0
   -1.0111    0.6970   -6.9592 N   0  0  0  0  0  0  0  0  0  0  0  0
   -0.1002    0.7373   -8.0793 C   0  0  0  0  0  0  0  0  0  0  0  0
   -2.0072    0.7004   -7.1580 H   0  0  0  0  0  0  0  0  0  0  0  0
    0.1280    1.7838   -8.3297 H   0  0  0  0  0  0  0  0  0  0  0  0
    0.8296    0.2125   -7.8147 H   0  0  0  0  0  0  0  0  0  0  0  0
   -0.5644    0.2457   -8.9471 H   0  0  0  0  0  0  0  0  0  0  0  0
  1  3  1  0  0  0  0
  1  7  1  0  0  0  0
  1  2  2  0  0  0  0
 31 32  1  0  0  0  0
 32 40  1  0  0  0  0
 32 33  2  0  0  0  0
  8  9  1  0  0  0  0
  9 17  1  0  0  0  0
  9 10  2  0  0  0  0
 18 19  1  0  0  0  0
 19 30  1  0  0  0  0
 19 20  2  0  0  0  0
 21 22  1  0  0  0  0
 22 23  2  0  0  0  0
 22 24  1  0  0  0  0
 31 34  1  0  0  0  0
  8 11  1  0  0  0  0
 40 41  1  0  0  0  0
 18 21  1  0  0  0  0
 30 31  1  0  0  0  0
  7  8  1  0  0  0  0
 17 18  1  0  0  0  0
  3  4  1  0  0  0  0
  3  5  1  0  0  0  0
  3  6  1  0  0  0  0
 34 37  1  0  0  0  0
 34 38  1  0  0  0  0
 34 39  1  0  0  0  0
 11 14  1  0  0  0  0
 11 15  1  0  0  0  0
 11 16  1  0  0  0  0
 41 43  1  0  0  0  0
 41 44  1  0  0  0  0
 41 45  1  0  0  0  0
 21 27  1  0  0  0  0
 21 28  1  0  0  0  0
 31 36  1  0  0  0  0
  8 13  1  0  0  0  0
 18 26  1  0  0  0  0
 40 42  1  0  0  0  0
  7 12  1  0  0  0  0
 30 35  1  0  0  0  0
 17 25  1  0  0  0  0
 24 29  1  0  0  0  0
M  END
$$$$

  -OEChem-05262214473D

 45 44  0     1  0  0  0  0  0999 V2000
   -2.2987    4.1032   -0.3022 C   0  0  0  0  0  0  0  0  0  0  0  0
   -1.8049    3.7117   -1.3532 O   0  0  0  0  0  0  0  0  0  0  0  0
   -3.0791    5.3755   -0.2846 C   0  0  0  0  0  0  0  0  0  0  0  0
   -2.4478    6.2532   -0.0717 H   0  0  0  0  0  0  0  0  0  0  0  0
   -3.5571    5.5891   -1.2541 H   0  0  0  0  0  0  0  0  0  0  0  0
   -3.8940    5.4184    0.4556 H   0  0  0  0  0  0  0  0  0  0  0  0
   -2.2137    3.4712    0.9275 N   0  0  0  0  0  0  0  0  0  0  0  0
   -1.5102    2.2327    1.1338 C   0  0  2  0  0  0  0  0  0  0  0  0
   -1.3539    1.5497   -0.2184 C   0  0  0  0  0  0  0  0  0  0  0  0
   -2.0852    1.7861   -1.1778 O   0  0  0  0  0  0  0  0  0  0  0  0
   -2.2477    1.3342    2.1145 C   0  0  0  0  0  0  0  0  0  0  0  0
   -2.6724    3.9052    1.7265 H   0  0  0  0  0  0  0  0  0  0  0  0
   -0.5220    2.4922    1.5290 H   0  0  0  0  0  0  0  0  0  0  0  0
   -3.2400    1.0636    1.7358 H   0  0  0  0  0  0  0  0  0  0  0  0
   -1.6970    0.4046    2.2923 H   0  0  0  0  0  0  0  0  0  0  0  0
   -2.3854    1.8384    3.0772 H   0  0  0  0  0  0  0  0  0  0  0  0
   -0.3283    0.6116   -0.2182 N   0  0  0  0  0  0  0  0  0  0  0  0
    0.0090   -0.1762   -1.3759 C   0  0  2  0  0  0  0  0  0  0  0  0
   -0.3271    0.6467   -2.6130 C   0  0  0  0  0  0  0  0  0  0  0  0
    0.3799    1.5678   -3.0168 O   0  0  0  0  0  0  0  0  0  0  0  0
   -0.7325   -1.5103   -1.3937 C   0  0  0  0  0  0  0  0  0  0  0  0
   -0.2392   -2.4256   -0.3002 C   0  0  0  0  0  0  0  0  0  0  0  0
    0.8985   -2.4014    0.1508 O   0  0  0  0  0  0  0  0  0  0  0  0
   -1.1909   -3.2950    0.1205 O   0  0  0  0  0  0  0  0  0  0  0  0
    0.2381    0.4970    0.6194 H   0  0  0  0  0  0  0  0  0  0  0  0
    1.0939   -0.3316   -1.3362 H   0  0  0  0  0  0  0  0  0  0  0  0
   -1.8071   -1.3684   -1.2228 H   0  0  0  0  0  0  0  0  0  0  0  0
   -0.6519   -2.0201   -2.3615 H   0  0  0  0  0  0  0  0  0  0  0  0
   -0.9031   -3.9159    0.8236 H   0  0  0  0  0  0  0  0  0  0  0  0
   -1.4827    0.2011   -3.2394 N   0  0  0  0  0  0  0  0  0  0  0  0
   -2.0019    0.8101   -4.4417 C   0  0  2  0  0  0  0  0  0  0  0  0
   -1.0209    0.5297   -5.5723 C   0  0  0  0  0  0  0  0  0  0  0  0
    0.1631    0.2594   -5.3816 O   0  0  0  0  0  0  0  0  0  0  0  0
   -2.2084    2.3057   -4.2596 C   0  0  0  0  0  0  0  0  0  0  0  0
   -1.9835   -0.5851   -2.8359 H   0  0  0  0  0  0  0  0  0  0  0  0
   -2.9578    0.3202   -4.6569 H   0  0  0  0  0  0  0  0  0  0  0  0
   -1.2615    2.8137   -4.0432 H   0  0  0  0  0  0  0  0  0  0  0  0
   -2.6288    2.7610   -5.1624 H   0  0  0  0  0  0  0  0  0  0  0  0
   -2.8911    2.5064   -3.4269 H   0  0  0  0  0  0  0  0  0  0  0  0
   -1.6127    0.6591   -6.8210 N   0  0  0  0  0  0  0  0  0  0  0  0
   -0.8866    0.4560   -8.0528 C   0  0  0  0  0  0  0  0  0  0  0  0
   -2.6048    0.8675   -6.8845 H   0  0  0  0  0  0  0  0  0  0  0  0
   -0.4865    1.4178   -8.4061 H   0  0  0  0  0  0  0  0  0  0  0  0
   -0.0564   -0.2441   -7.8777 H   0  0  0  0  0  0  0  0  0  0  0  0
   -1.5636    0.0391   -8.8129 H   0  0  0  0  0  0  0  0  0  0  0  0
  1  3  1  0  0  0  0
  1  7  1  0  0  0  0
  1  2  2  0  0  0  0
 31 32  1  0  0  0  0
 32 40  1  0  0  0  0
 32 33  2  0  0  0  0
  8  9  1  0  0  0  0
  9 17  1  0  0  0  0
  9 10  2  0  0  0  0
 18 19  1  0  0  0  0
 19 30  1  0  0  0  0
 19 20  2  0  0  0  0
 21 22  1  0  0  0  0
 22 23  2  0  0  0  0
 22 24  1  0  0  0  0
 31 34  1  0  0  0  0
  8 11  1  0  0  0  0
 40 41  1  0  0  0  0
 18 21  1  0  0  0  0
 30 31  1  0  0  0  0
  7  8  1  0  0  0  0
 17 18  1  0  0  0  0
  3  4  1  0  0  0  0
  3  5  1  0  0  0  0
  3  6  1  0  0  0  0
 34 37  1  0  0  0  0
 34 38  1  0  0  0  0
 34 39  1  0  0  0  0
 11 14  1  0  0  0  0
 11 15  1  0  0  0  0
 11 16  1  0  0  0  0
 41 43  1  0  0  0  0
 41 44  1  0  0  0  0
 41 45  1  0  0  0  0
 21 27  1  0  0  0  0
 21 28  1  0  0  0  0
 31 36  1  0  0  0  0
  8 13  1  0  0  0  0
 18 26  1  0  0  0  0
 40 42  1  0  0  0  0
  7 12  1  0  0  0  0
 30 35  1  0  0  0  0
 17 25  1  0  0  0  0
 24 29  1  0  0  0  0
M  END
$$$$

  -OEChem-05262214473D

 45 44  0     1  0  0  0  0  0999 V2000
   -2.2987    4.1032   -0.3022 C   0  0  0  0  0  0  0  0  0  0  0  0
   -1.8049    3.7117   -1.3532 O   0  0  0  0  0  0  0  0  0  0  0  0
   -3.0791    5.3755   -0.2846 C   0  0  0  0  0  0  0  0  0  0  0  0
   -2.4478    6.2532   -0.0717 H   0  0  0  0  0  0  0  0  0  0  0  0
   -3.5571    5.5891   -1.2541 H   0  0  0  0  0  0  0  0  0  0  0  0
   -3.8940    5.4184    0.4556 H   0  0  0  0  0  0  0  0  0  0  0  0
   -2.2137    3.4712    0.9275 N   0  0  0  0  0  0  0  0  0  0  0  0
   -1.5102    2.2327    1.1338 C   0  0  2  0  0  0  0  0  0  0  0  0
   -1.3539    1.5497   -0.2184 C   0  0  0  0  0  0  0  0  0  0  0  0
   -2.0852    1.7861   -1.1778 O   0  0  0  0  0  0  0  0  0  0  0  0
   -2.2477    1.3342    2.1145 C   0  0  0  0  0  0  0  0  0  0  0  0
   -2.6724    3.9052    1.7265 H   0  0  0  0  0  0  0  0  0  0  0  0
   -0.5220    2.4922    1.5290 H   0  0  0  0  0  0  0  0  0  0  0  0
   -3.2400    1.0636    1.7358 H   0  0  0  0  0  0  0  0  0  0  0  0
   -1.6970    0.4046    2.2923 H   0  0  0  0  0  0  0  0  0  0  0  0
   -2.3854    1.8384    3.0772 H   0  0  0  0  0  0  0  0  0  0  0  0
   -0.3283    0.6116   -0.2182 N   0  0  0  0  0  0  0  0  0  0  0  0
    0.0090   -0.1762   -1.3759 C   0  0  2  0  0  0  0  0  0  0  0  0
   -0.3271    0.6467   -2.6130 C   0  0  0  0  0  0  0  0  0  0  0  0
    0.4879    1.3770   -3.1730 O   0  0  0  0  0  0  0  0  0  0  0  0
   -0.7325   -1.5103   -1.3937 C   0  0  0  0  0  0  0  0  0  0  0  0
   -0.2392   -2.4256   -0.3002 C   0  0  0  0  0  0  0  0  0  0  0  0
    0.8985   -2.4014    0.1508 O   0  0  0  0  0  0  0  0  0  0  0  0
   -1.1909   -3.2950    0.1205 O   0  0  0  0  0  0  0  0  0  0  0  0
    0.2381    0.4970    0.6194 H   0  0  0  0  0  0  0  0  0  0  0  0
    1.0939   -0.3316   -1.3362 H   0  0  0  0  0  0  0  0  0  0  0  0
   -1.8071   -1.3684   -1.2228 H   0  0  0  0  0  0  0  0  0  0  0  0
   -0.6519   -2.0201   -2.3615 H   0  0  0  0  0  0  0  0  0  0  0  0
   -0.9031   -3.9159    0.8236 H   0  0  0  0  0  0  0  0  0  0  0  0
   -1.6285    0.4330   -3.0455 N   0  0  0  0  0  0  0  0  0  0  0  0
   -2.1808    1.0879   -4.2083 C   0  0  2  0  0  0  0  0  0  0  0  0
   -1.4543    0.5564   -5.4368 C   0  0  0  0  0  0  0  0  0  0  0  0
   -0.3367    0.0470   -5.3871 O   0  0  0  0  0  0  0  0  0  0  0  0
   -2.0458    2.5993   -4.1085 C   0  0  0  0  0  0  0  0  0  0  0  0
   -2.2163   -0.2099   -2.5231 H   0  0  0  0  0  0  0  0  0  0  0  0
   -3.2381    0.8056   -4.2579 H   0  0  0  0  0  0  0  0  0  0  0  0
   -0.9933    2.9013   -4.0578 H   0  0  0  0  0  0  0  0  0  0  0  0
   -2.4905    3.0956   -4.9774 H   0  0  0  0  0  0  0  0  0  0  0  0
   -2.5434    2.9765   -3.2086 H   0  0  0  0  0  0  0  0  0  0  0  0
   -2.1825    0.7568   -6.6011 N   0  0  0  0  0  0  0  0  0  0  0  0
   -1.7015    0.3511   -7.9011 C   0  0  0  0  0  0  0  0  0  0  0  0
   -3.1088    1.1700   -6.5463 H   0  0  0  0  0  0  0  0  0  0  0  0
   -1.1678    1.1891   -8.3731 H   0  0  0  0  0  0  0  0  0  0  0  0
   -1.0170   -0.5026   -7.7886 H   0  0  0  0  0  0  0  0  0  0  0  0
   -2.5535    0.0573   -8.5319 H   0  0  0  0  0  0  0  0  0  0  0  0
  1  3  1  0  0  0  0
  1  7  1  0  0  0  0
  1  2  2  0  0  0  0
 31 32  1  0  0  0  0
 32 40  1  0  0  0  0
 32 33  2  0  0  0  0
  8  9  1  0  0  0  0
  9 17  1  0  0  0  0
  9 10  2  0  0  0  0
 18 19  1  0  0  0  0
 19 30  1  0  0  0  0
 19 20  2  0  0  0  0
 21 22  1  0  0  0  0
 22 23  2  0  0  0  0
 22 24  1  0  0  0  0
 31 34  1  0  0  0  0
  8 11  1  0  0  0  0
 40 41  1  0  0  0  0
 18 21  1  0  0  0  0
 30 31  1  0  0  0  0
  7  8  1  0  0  0  0
 17 18  1  0  0  0  0
  3  4  1  0  0  0  0
  3  5  1  0  0  0  0
  3  6  1  0  0  0  0
 34 37  1  0  0  0  0
 34 38  1  0  0  0  0
 34 39  1  0  0  0  0
 11 14  1  0  0  0  0
 11 15  1  0  0  0  0
 11 16  1  0  0  0  0
 41 43  1  0  0  0  0
 41 44  1  0  0  0  0
 41 45  1  0  0  0  0
 21 27  1  0  0  0  0
 21 28  1  0  0  0  0
 31 36  1  0  0  0  0
  8 13  1  0  0  0  0
 18 26  1  0  0  0  0
 40 42  1  0  0  0  0
  7 12  1  0  0  0  0
 30 35  1  0  0  0  0
 17 25  1  0  0  0  0
 24 29  1  0  0  0  0
M  END
$$$$

  -OEChem-05262214473D

 45 44  0     1  0  0  0  0  0999 V2000
   -2.2987    4.1032   -0.3022 C   0  0  0  0  0  0  0  0  0  0  0  0
   -1.8049    3.7117   -1.3532 O   0  0  0  0  0  0  0  0  0  0  0  0
   -3.0791    5.3755   -0.2846 C   0  0  0  0  0  0  0  0  0  0  0  0
   -2.4478    6.2532   -0.0717 H   0  0  0  0  0  0  0  0  0  0  0  0
   -3.5571    5.5891   -1.2541 H   0  0  0  0  0  0  0  0  0  0  0  0
   -3.8940    5.4184    0.4556 H   0  0  0  0  0  0  0  0  0  0  0  0
   -2.2137    3.4712    0.9275 N   0  0  0  0  0  0  0  0  0  0  0  0
   -1.5102    2.2327    1.1338 C   0  0  2  0  0  0  0  0  0  0  0  0
   -1.3539    1.5497   -0.2184 C   0  0  0  0  0  0  0  0  0  0  0  0
   -2.0852    1.7861   -1.1778 O   0  0  0  0  0  0  0  0  0  0  0  0
   -2.2477    1.3342    2.1145 C   0  0  0  0  0  0  0  0  0  0  0  0
   -2.6724    3.9052    1.7265 H   0  0  0  0  0  0  0  0  0  0  0  0
   -0.5220    2.4922    1.5290 H   0  0  0  0  0  0  0  0  0  0  0  0
   -3.2400    1.0636    1.7358 H   0  0  0  0  0  0  0  0  0  0  0  0
   -1.6970    0.4046    2.2923 H   0  0  0  0  0  0  0  0  0  0  0  0
   -2.3854    1.8384    3.0772 H   0  0  0  0  0  0  0  0  0  0  0  0
   -0.3283    0.6116   -0.2182 N   0  0  0  0  0  0  0  0  0  0  0  0
    0.0090   -0.1762   -1.3759 C   0  0  2  0  0  0  0  0  0  0  0  0
   -0.3271    0.6467   -2.6130 C   0  0  0  0  0  0  0  0  0  0  0  0
    0.5303    1.1612   -3.3281 O   0  0  0  0  0  0  0  0  0  0  0  0
   -0.7325   -1.5103   -1.3937 C   0  0  0  0  0  0  0  0  0  0  0  0
   -0.2392   -2.4256   -0.3002 C   0  0  0  0  0  0  0  0  0  0  0  0
    0.8985   -2.4014    0.1508 O   0  0  0  0  0  0  0  0  0  0  0  0
   -1.1909   -3.2950    0.1205 O   0  0  0  0  0  0  0  0  0  0  0  0
    0.2381    0.4970    0.6194 H   0  0  0  0  0  0  0  0  0  0  0  0
    1.0939   -0.3316   -1.3362 H   0  0  0  0  0  0  0  0  0  0  0  0
   -1.8071   -1.3684   -1.2228 H   0  0  0  0  0  0  0  0  0  0  0  0
   -0.6519   -2.0201   -2.3615 H   0  0  0  0  0  0  0  0  0  0  0  0
   -0.9031   -3.9159    0.8236 H   0  0  0  0  0  0  0  0  0  0  0  0
   -1.6935    0.6988   -2.8511 N   0  0  0  0  0  0  0  0  0  0  0  0
   -2.2626    1.4071   -3.9737 C   0  0  2  0  0  0  0  0  0  0  0  0
   -1.8485    0.6810   -5.2468 C   0  0  0  0  0  0  0  0  0  0  0  0
   -0.8648   -0.0534   -5.3104 O   0  0  0  0  0  0  0  0  0  0  0  0
   -1.8058    2.8574   -4.0021 C   0  0  0  0  0  0  0  0  0  0  0  0
   -2.3185    0.2193   -2.2098 H   0  0  0  0  0  0  0  0  0  0  0  0
   -3.3510    1.3560   -3.8610 H   0  0  0  0  0  0  0  0  0  0  0  0
   -0.7178    2.9287   -4.1144 H   0  0  0  0  0  0  0  0  0  0  0  0
   -2.2606    3.4003   -4.8372 H   0  0  0  0  0  0  0  0  0  0  0  0
   -2.0783    3.3700   -3.0732 H   0  0  0  0  0  0  0  0  0  0  0  0
   -2.6817    0.9836   -6.3147 N   0  0  0  0  0  0  0  0  0  0  0  0
   -2.4896    0.4297   -7.6347 C   0  0  0  0  0  0  0  0  0  0  0  0
   -3.4847    1.5875   -6.1664 H   0  0  0  0  0  0  0  0  0  0  0  0
   -1.8693    1.1133   -8.2330 H   0  0  0  0  0  0  0  0  0  0  0  0
   -1.9868   -0.5453   -7.5535 H   0  0  0  0  0  0  0  0  0  0  0  0
   -3.4665    0.2990   -8.1230 H   0  0  0  0  0  0  0  0  0  0  0  0
  1  3  1  0  0  0  0
  1  7  1  0  0  0  0
  1  2  2  0  0  0  0
 31 32  1  0  0  0  0
 32 40  1  0  0  0  0
 32 33  2  0  0  0  0
  8  9  1  0  0  0  0
  9 17  1  0  0  0  0
  9 10  2  0  0  0  0
 18 19  1  0  0  0  0
 19 30  1  0  0  0  0
 19 20  2  0  0  0  0
 21 22  1  0  0  0  0
 22 23  2  0  0  0  0
 22 24  1  0  0  0  0
 31 34  1  0  0  0  0
  8 11  1  0  0  0  0
 40 41  1  0  0  0  0
 18 21  1  0  0  0  0
 30 31  1  0  0  0  0
  7  8  1  0  0  0  0
 17 18  1  0  0  0  0
  3  4  1  0  0  0  0
  3  5  1  0  0  0  0
  3  6  1  0  0  0  0
 34 37  1  0  0  0  0
 34 38  1  0  0  0  0
 34 39  1  0  0  0  0
 11 14  1  0  0  0  0
 11 15  1  0  0  0  0
 11 16  1  0  0  0  0
 41 43  1  0  0  0  0
 41 44  1  0  0  0  0
 41 45  1  0  0  0  0
 21 27  1  0  0  0  0
 21 28  1  0  0  0  0
 31 36  1  0  0  0  0
  8 13  1  0  0  0  0
 18 26  1  0  0  0  0
 40 42  1  0  0  0  0
  7 12  1  0  0  0  0
 30 35  1  0  0  0  0
 17 25  1  0  0  0  0
 24 29  1  0  0  0  0
M  END
$$$$

  -OEChem-05262214473D

 45 44  0     1  0  0  0  0  0999 V2000
   -2.2987    4.1032   -0.3022 C   0  0  0  0  0  0  0  0  0  0  0  0
   -1.8049    3.7117   -1.3532 O   0  0  0  0  0  0  0  0  0  0  0  0
   -3.0791    5.3755   -0.2846 C   0  0  0  0  0  0  0  0  0  0  0  0
   -2.4478    6.2532   -0.0717 H   0  0  0  0  0  0  0  0  0  0  0  0
   -3.5571    5.5891   -1.2541 H   0  0  0  0  0  0  0  0  0  0  0  0
   -3.8940    5.4184    0.4556 H   0  0  0  0  0  0  0  0  0  0  0  0
   -2.2137    3.4712    0.9275 N   0  0  0  0  0  0  0  0  0  0  0  0
   -1.5102    2.2327    1.1338 C   0  0  2  0  0  0  0  0  0  0  0  0
   -1.3539    1.5497   -0.2184 C   0  0  0  0  0  0  0  0  0  0  0  0
   -2.0852    1.7861   -1.1778 O   0  0  0  0  0  0  0  0  0  0  0  0
   -2.2477    1.3342    2.1145 C   0  0  0  0  0  0  0  0  0  0  0  0
   -2.6724    3.9052    1.7265 H   0  0  0  0  0  0  0  0  0  0  0  0
   -0.5220    2.4922    1.5290 H   0  0  0  0  0  0  0  0  0  0  0  0
   -3.2400    1.0636    1.7358 H   0  0  0  0  0  0  0  0  0  0  0  0
   -1.6970    0.4046    2.2923 H   0  0  0  0  0  0  0  0  0  0  0  0
   -2.3854    1.8384    3.0772 H   0  0  0  0  0  0  0  0  0  0  0  0
   -0.3283    0.6116   -0.2182 N   0  0  0  0  0  0  0  0  0  0  0  0
    0.0090   -0.1762   -1.3759 C   0  0  2  0  0  0  0  0  0  0  0  0
   -0.3271    0.6467   -2.6130 C   0  0  0  0  0  0  0  0  0  0  0  0
    0.5042    0.9349   -3.4715 O   0  0  0  0  0  0  0  0  0  0  0  0
   -0.7325   -1.5103   -1.3937 C   0  0  0  0  0  0  0  0  0  0  0  0
   -0.2392   -2.4256   -0.3002 C   0  0  0  0  0  0  0  0  0  0  0  0
    0.8985   -2.4014    0.1508 O   0  0  0  0  0  0  0  0  0  0  0  0
   -1.1909   -3.2950    0.1205 O   0  0  0  0  0  0  0  0  0  0  0  0
    0.2381    0.4970    0.6194 H   0  0  0  0  0  0  0  0  0  0  0  0
    1.0939   -0.3316   -1.3362 H   0  0  0  0  0  0  0  0  0  0  0  0
   -1.8071   -1.3684   -1.2228 H   0  0  0  0  0  0  0  0  0  0  0  0
   -0.6519   -2.0201   -2.3615 H   0  0  0  0  0  0  0  0  0  0  0  0
   -0.9031   -3.9159    0.8236 H   0  0  0  0  0  0  0  0  0  0  0  0
   -1.6732    0.9802   -2.6694 N   0  0  0  0  0  0  0  0  0  0  0  0
   -2.2417    1.7460   -3.7539 C   0  0  2  0  0  0  0  0  0  0  0  0
   -2.1764    0.8951   -5.0153 C   0  0  0  0  0  0  0  0  0  0  0  0
   -1.3853   -0.0351   -5.1568 O   0  0  0  0  0  0  0  0  0  0  0  0
   -1.5049    3.0623   -3.9475 C   0  0  0  0  0  0  0  0  0  0  0  0
   -2.2832    0.6732   -1.9174 H   0  0  0  0  0  0  0  0  0  0  0  0
   -3.2889    1.9341   -3.4933 H   0  0  0  0  0  0  0  0  0  0  0  0
   -0.4539    2.8940   -4.2092 H   0  0  0  0  0  0  0  0  0  0  0  0
   -1.9549    3.6543   -4.7513 H   0  0  0  0  0  0  0  0  0  0  0  0
   -1.5273    3.6601   -3.0300 H   0  0  0  0  0  0  0  0  0  0  0  0
   -3.0761    1.3238   -5.9812 N   0  0  0  0  0  0  0  0  0  0  0  0
   -3.1970    0.6865   -7.2716 C   0  0  0  0  0  0  0  0  0  0  0  0
   -3.7070    2.0915   -5.7707 H   0  0  0  0  0  0  0  0  0  0  0  0
   -2.5432    1.1955   -7.9952 H   0  0  0  0  0  0  0  0  0  0  0  0
   -2.8997   -0.3692   -7.1884 H   0  0  0  0  0  0  0  0  0  0  0  0
   -4.2405    0.7477   -7.6143 H   0  0  0  0  0  0  0  0  0  0  0  0
  1  3  1  0  0  0  0
  1  7  1  0  0  0  0
  1  2  2  0  0  0  0
 31 32  1  0  0  0  0
 32 40  1  0  0  0  0
 32 33  2  0  0  0  0
  8  9  1  0  0  0  0
  9 17  1  0  0  0  0
  9 10  2  0  0  0  0
 18 19  1  0  0  0  0
 19 30  1  0  0  0  0
 19 20  2  0  0  0  0
 21 22  1  0  0  0  0
 22 23  2  0  0  0  0
 22 24  1  0  0  0  0
 31 34  1  0  0  0  0
  8 11  1  0  0  0  0
 40 41  1  0  0  0  0
 18 21  1  0  0  0  0
 30 31  1  0  0  0  0
  7  8  1  0  0  0  0
 17 18  1  0  0  0  0
  3  4  1  0  0  0  0
  3  5  1  0  0  0  0
  3  6  1  0  0  0  0
 34 37  1  0  0  0  0
 34 38  1  0  0  0  0
 34 39  1  0  0  0  0
 11 14  1  0  0  0  0
 11 15  1  0  0  0  0
 11 16  1  0  0  0  0
 41 43  1  0  0  0  0
 41 44  1  0  0  0  0
 41 45  1  0  0  0  0
 21 27  1  0  0  0  0
 21 28  1  0  0  0  0
 31 36  1  0  0  0  0
  8 13  1  0  0  0  0
 18 26  1  0  0  0  0
 40 42  1  0  0  0  0
  7 12  1  0  0  0  0
 30 35  1  0  0  0  0
 17 25  1  0  0  0  0
 24 29  1  0  0  0  0
M  END
$$$$

  -OEChem-05262214473D

 45 44  0     1  0  0  0  0  0999 V2000
   -2.2987    4.1032   -0.3022 C   0  0  0  0  0  0  0  0  0  0  0  0
   -1.8049    3.7117   -1.3532 O   0  0  0  0  0  0  0  0  0  0  0  0
   -3.0791    5.3755   -0.2846 C   0  0  0  0  0  0  0  0  0  0  0  0
   -2.4478    6.2532   -0.0717 H   0  0  0  0  0  0  0  0  0  0  0  0
   -3.5571    5.5891   -1.2541 H   0  0  0  0  0  0  0  0  0  0  0  0
   -3.8940    5.4184    0.4556 H   0  0  0  0  0  0  0  0  0  0  0  0
   -2.2137    3.4712    0.9275 N   0  0  0  0  0  0  0  0  0  0  0  0
   -1.5102    2.2327    1.1338 C   0  0  2  0  0  0  0  0  0  0  0  0
   -1.3539    1.5497   -0.2184 C   0  0  0  0  0  0  0  0  0  0  0  0
   -2.0852    1.7861   -1.1778 O   0  0  0  0  0  0  0  0  0  0  0  0
   -2.2477    1.3342    2.1145 C   0  0  0  0  0  0  0  0  0  0  0  0
   -2.6724    3.9052    1.7265 H   0  0  0  0  0  0  0  0  0  0  0  0
   -0.5220    2.4922    1.5290 H   0  0  0  0  0  0  0  0  0  0  0  0
   -3.2400    1.0636    1.7358 H   0  0  0  0  0  0  0  0  0  0  0  0
   -1.6970    0.4046    2.2923 H   0  0  0  0  0  0  0  0  0  0  0  0
   -2.3854    1.8384    3.0772 H   0  0  0  0  0  0  0  0  0  0  0  0
   -0.3283    0.6116   -0.2182 N   0  0  0  0  0  0  0  0  0  0  0  0
    0.0090   -0.1762   -1.3759 C   0  0  2  0  0  0  0  0  0  0  0  0
   -0.3271    0.6467   -2.6130 C   0  0  0  0  0  0  0  0  0  0  0  0
    0.4114    0.7137   -3.5935 O   0  0  0  0  0  0  0  0  0  0  0  0
   -0.7325   -1.5103   -1.3937 C   0  0  0  0  0  0  0  0  0  0  0  0
   -0.2392   -2.4256   -0.3002 C   0  0  0  0  0  0  0  0  0  0  0  0
    0.8985   -2.4014    0.1508 O   0  0  0  0  0  0  0  0  0  0  0  0
   -1.1909   -3.2950    0.1205 O   0  0  0  0  0  0  0  0  0  0  0  0
    0.2381    0.4970    0.6194 H   0  0  0  0  0  0  0  0  0  0  0  0
    1.0939   -0.3316   -1.3362 H   0  0  0  0  0  0  0  0  0  0  0  0
   -1.8071   -1.3684   -1.2228 H   0  0  0  0  0  0  0  0  0  0  0  0
   -0.6519   -2.0201   -2.3615 H   0  0  0  0  0  0  0  0  0  0  0  0
   -0.9031   -3.9159    0.8236 H   0  0  0  0  0  0  0  0  0  0  0  0
   -1.5690    1.2582   -2.5127 N   0  0  0  0  0  0  0  0  0  0  0  0
   -2.1195    2.0816   -3.5639 C   0  0  2  0  0  0  0  0  0  0  0  0
   -2.4158    1.1840   -4.7580 C   0  0  0  0  0  0  0  0  0  0  0  0
   -1.8627    0.1008   -4.9366 O   0  0  0  0  0  0  0  0  0  0  0  0
   -1.1636    3.2000   -3.9486 C   0  0  0  0  0  0  0  0  0  0  0  0
   -2.1128    1.1210   -1.6658 H   0  0  0  0  0  0  0  0  0  0  0  0
   -3.0560    2.5005   -3.1799 H   0  0  0  0  0  0  0  0  0  0  0  0
   -0.2195    2.7996   -4.3357 H   0  0  0  0  0  0  0  0  0  0  0  0
   -1.5942    3.8403   -4.7255 H   0  0  0  0  0  0  0  0  0  0  0  0
   -0.9282    3.8269   -3.0818 H   0  0  0  0  0  0  0  0  0  0  0  0
   -3.3389    1.7544   -5.6233 N   0  0  0  0  0  0  0  0  0  0  0  0
   -3.7756    1.1040   -6.8367 C   0  0  0  0  0  0  0  0  0  0  0  0
   -3.7604    2.6476   -5.3863 H   0  0  0  0  0  0  0  0  0  0  0  0
   -3.1437    1.4301   -7.6760 H   0  0  0  0  0  0  0  0  0  0  0  0
   -3.6933    0.0135   -6.7181 H   0  0  0  0  0  0  0  0  0  0  0  0
   -4.8226    1.3728   -7.0403 H   0  0  0  0  0  0  0  0  0  0  0  0
  1  3  1  0  0  0  0
  1  7  1  0  0  0  0
  1  2  2  0  0  0  0
 31 32  1  0  0  0  0
 32 40  1  0  0  0  0
 32 33  2  0  0  0  0
  8  9  1  0  0  0  0
  9 17  1  0  0  0  0
  9 10  2  0  0  0  0
 18 19  1  0  0  0  0
 19 30  1  0  0  0  0
 19 20  2  0  0  0  0
 21 22  1  0  0  0  0
 22 23  2  0  0  0  0
 22 24  1  0  0  0  0
 31 34  1  0  0  0  0
  8 11  1  0  0  0  0
 40 41  1  0  0  0  0
 18 21  1  0  0  0  0
 30 31  1  0  0  0  0
  7  8  1  0  0  0  0
 17 18  1  0  0  0  0
  3  4  1  0  0  0  0
  3  5  1  0  0  0  0
  3  6  1  0  0  0  0
 34 37  1  0  0  0  0
 34 38  1  0  0  0  0
 34 39  1  0  0  0  0
 11 14  1  0  0  0  0
 11 15  1  0  0  0  0
 11 16  1  0  0  0  0
 41 43  1  0  0  0  0
 41 44  1  0  0  0  0
 41 45  1  0  0  0  0
 21 27  1  0  0  0  0
 21 28  1  0  0  0  0
 31 36  1  0  0  0  0
  8 13  1  0  0  0  0
 18 26  1  0  0  0  0
 40 42  1  0  0  0  0
  7 12  1  0  0  0  0
 30 35  1  0  0  0  0
 17 25  1  0  0  0  0
 24 29  1  0  0  0  0
M  END
$$$$

  -OEChem-05262214473D

 45 44  0     1  0  0  0  0  0999 V2000
   -2.2987    4.1032   -0.3022 C   0  0  0  0  0  0  0  0  0  0  0  0
   -1.8049    3.7117   -1.3532 O   0  0  0  0  0  0  0  0  0  0  0  0
   -3.0791    5.3755   -0.2846 C   0  0  0  0  0  0  0  0  0  0  0  0
   -2.4478    6.2532   -0.0717 H   0  0  0  0  0  0  0  0  0  0  0  0
   -3.5571    5.5891   -1.2541 H   0  0  0  0  0  0  0  0  0  0  0  0
   -3.8940    5.4184    0.4556 H   0  0  0  0  0  0  0  0  0  0  0  0
   -2.2137    3.4712    0.9275 N   0  0  0  0  0  0  0  0  0  0  0  0
   -1.5102    2.2327    1.1338 C   0  0  2  0  0  0  0  0  0  0  0  0
   -1.3539    1.5497   -0.2184 C   0  0  0  0  0  0  0  0  0  0  0  0
   -2.0852    1.7861   -1.1778 O   0  0  0  0  0  0  0  0  0  0  0  0
   -2.2477    1.3342    2.1145 C   0  0  0  0  0  0  0  0  0  0  0  0
   -2.6724    3.9052    1.7265 H   0  0  0  0  0  0  0  0  0  0  0  0
   -0.5220    2.4922    1.5290 H   0  0  0  0  0  0  0  0  0  0  0  0
   -3.2400    1.0636    1.7358 H   0  0  0  0  0  0  0  0  0  0  0  0
   -1.6970    0.4046    2.2923 H   0  0  0  0  0  0  0  0  0  0  0  0
   -2.3854    1.8384    3.0772 H   0  0  0  0  0  0  0  0  0  0  0  0
   -0.3283    0.6116   -0.2182 N   0  0  0  0  0  0  0  0  0  0  0  0
    0.0090   -0.1762   -1.3759 C   0  0  2  0  0  0  0  0  0  0  0  0
   -0.3271    0.6467   -2.6130 C   0  0  0  0  0  0  0  0  0  0  0  0
    0.2582    0.5125   -3.6857 O   0  0  0  0  0  0  0  0  0  0  0  0
   -0.7325   -1.5103   -1.3937 C   0  0  0  0  0  0  0  0  0  0  0  0
   -0.2392   -2.4256   -0.3002 C   0  0  0  0  0  0  0  0  0  0  0  0
    0.8985   -2.4014    0.1508 O   0  0  0  0  0  0  0  0  0  0  0  0
   -1.1909   -3.2950    0.1205 O   0  0  0  0  0  0  0  0  0  0  0  0
    0.2381    0.4970    0.6194 H   0  0  0  0  0  0  0  0  0  0  0  0
    1.0939   -0.3316   -1.3362 H   0  0  0  0  0  0  0  0  0  0  0  0
   -1.8071   -1.3684   -1.2228 H   0  0  0  0  0  0  0  0  0  0  0  0
   -0.6519   -2.0201   -2.3615 H   0  0  0  0  0  0  0  0  0  0  0  0
   -0.9031   -3.9159    0.8236 H   0  0  0  0  0  0  0  0  0  0  0  0
   -1.3881    1.5137   -2.3919 N   0  0  0  0  0  0  0  0  0  0  0  0
   -1.9044    2.3909   -3.4166 C   0  0  2  0  0  0  0  0  0  0  0  0
   -2.5504    1.5281   -4.4926 C   0  0  0  0  0  0  0  0  0  0  0  0
   -2.2645    0.3450   -4.6650 O   0  0  0  0  0  0  0  0  0  0  0  0
   -0.8051    3.2613   -4.0053 C   0  0  0  0  0  0  0  0  0  0  0  0
   -1.8189    1.5320   -1.4722 H   0  0  0  0  0  0  0  0  0  0  0  0
   -2.6682    3.0165   -2.9420 H   0  0  0  0  0  0  0  0  0  0  0  0
   -0.0306    2.6520   -4.4852 H   0  0  0  0  0  0  0  0  0  0  0  0
   -1.2031    3.9457   -4.7617 H   0  0  0  0  0  0  0  0  0  0  0  0
   -0.3216    3.8592   -3.2251 H   0  0  0  0  0  0  0  0  0  0  0  0
   -3.4522    2.2460   -5.2655 N   0  0  0  0  0  0  0  0  0  0  0  0
   -4.1859    1.6537   -6.3596 C   0  0  0  0  0  0  0  0  0  0  0  0
   -3.6414    3.2180   -5.0392 H   0  0  0  0  0  0  0  0  0  0  0  0
   -3.6297    1.8012   -7.2971 H   0  0  0  0  0  0  0  0  0  0  0  0
   -4.3138    0.5769   -6.1747 H   0  0  0  0  0  0  0  0  0  0  0  0
   -5.1733    2.1318   -6.4401 H   0  0  0  0  0  0  0  0  0  0  0  0
  1  3  1  0  0  0  0
  1  7  1  0  0  0  0
  1  2  2  0  0  0  0
 31 32  1  0  0  0  0
 32 40  1  0  0  0  0
 32 33  2  0  0  0  0
  8  9  1  0  0  0  0
  9 17  1  0  0  0  0
  9 10  2  0  0  0  0
 18 19  1  0  0  0  0
 19 30  1  0  0  0  0
 19 20  2  0  0  0  0
 21 22  1  0  0  0  0
 22 23  2  0  0  0  0
 22 24  1  0  0  0  0
 31 34  1  0  0  0  0
  8 11  1  0  0  0  0
 40 41  1  0  0  0  0
 18 21  1  0  0  0  0
 30 31  1  0  0  0  0
  7  8  1  0  0  0  0
 17 18  1  0  0  0  0
  3  4  1  0  0  0  0
  3  5  1  0  0  0  0
  3  6  1  0  0  0  0
 34 37  1  0  0  0  0
 34 38  1  0  0  0  0
 34 39  1  0  0  0  0
 11 14  1  0  0  0  0
 11 15  1  0  0  0  0
 11 16  1  0  0  0  0
 41 43  1  0  0  0  0
 41 44  1  0  0  0  0
 41 45  1  0  0  0  0
 21 27  1  0  0  0  0
 21 28  1  0  0  0  0
 31 36  1  0  0  0  0
  8 13  1  0  0  0  0
 18 26  1  0  0  0  0
 40 42  1  0  0  0  0
  7 12  1  0  0  0  0
 30 35  1  0  0  0  0
 17 25  1  0  0  0  0
 24 29  1  0  0  0  0
M  END
$$$$

  -OEChem-05262214473D

 45 44  0     1  0  0  0  0  0999 V2000
   -2.2987    4.1032   -0.3022 C   0  0  0  0  0  0  0  0  0  0  0  0
   -1.8049    3.7117   -1.3532 O   0  0  0  0  0  0  0  0  0  0  0  0
   -3.0791    5.3755   -0.2846 C   0  0  0  0  0  0  0  0  0  0  0  0
   -2.4478    6.2532   -0.0717 H   0  0  0  0  0  0  0  0  0  0  0  0
   -3.5571    5.5891   -1.2541 H   0  0  0  0  0  0  0  0  0  0  0  0
   -3.8940    5.4184    0.4556 H   0  0  0  0  0  0  0  0  0  0  0  0
   -2.2137    3.4712    0.9275 N   0  0  0  0  0  0  0  0  0  0  0  0
   -1.5102    2.2327    1.1338 C   0  0  2  0  0  0  0  0  0  0  0  0
   -1.3539    1.5497   -0.2184 C   0  0  0  0  0  0  0  0  0  0  0  0
   -2.0852    1.7861   -1.1778 O   0  0  0  0  0  0  0  0  0  0  0  0
   -2.2477    1.3342    2.1145 C   0  0  0  0  0  0  0  0  0  0  0  0
   -2.6724    3.9052    1.7265 H   0  0  0  0  0  0  0  0  0  0  0  0
   -0.5220    2.4922    1.5290 H   0  0  0  0  0  0  0  0  0  0  0  0
   -3.2400    1.0636    1.7358 H   0  0  0  0  0  0  0  0  0  0  0  0
   -1.6970    0.4046    2.2923 H   0  0  0  0  0  0  0  0  0  0  0  0
   -2.3854    1.8384    3.0772 H   0  0  0  0  0  0  0  0  0  0  0  0
   -0.3283    0.6116   -0.2182 N   0  0  0  0  0  0  0  0  0  0  0  0
    0.0090   -0.1762   -1.3759 C   0  0  2  0  0  0  0  0  0  0  0  0
   -0.3271    0.6467   -2.6130 C   0  0  0  0  0  0  0  0  0  0  0  0
    0.0550    0.3451   -3.7418 O   0  0  0  0  0  0  0  0  0  0  0  0
   -0.7325   -1.5103   -1.3937 C   0  0  0  0  0  0  0  0  0  0  0  0
   -0.2392   -2.4256   -0.3002 C   0  0  0  0  0  0  0  0  0  0  0  0
    0.8985   -2.4014    0.1508 O   0  0  0  0  0  0  0  0  0  0  0  0
   -1.1909   -3.2950    0.1205 O   0  0  0  0  0  0  0  0  0  0  0  0
    0.2381    0.4970    0.6194 H   0  0  0  0  0  0  0  0  0  0  0  0
    1.0939   -0.3316   -1.3362 H   0  0  0  0  0  0  0  0  0  0  0  0
   -1.8071   -1.3684   -1.2228 H   0  0  0  0  0  0  0  0  0  0  0  0
   -0.6519   -2.0201   -2.3615 H   0  0  0  0  0  0  0  0  0  0  0  0
   -0.9031   -3.9159    0.8236 H   0  0  0  0  0  0  0  0  0  0  0  0
   -1.1428    1.7294   -2.3151 N   0  0  0  0  0  0  0  0  0  0  0  0
   -1.6110    2.6528   -3.3220 C   0  0  2  0  0  0  0  0  0  0  0  0
   -2.5710    1.9039   -4.2370 C   0  0  0  0  0  0  0  0  0  0  0  0
   -2.5634    0.6809   -4.3604 O   0  0  0  0  0  0  0  0  0  0  0  0
   -0.4538    3.2419   -4.1136 C   0  0  0  0  0  0  0  0  0  0  0  0
   -1.4216    1.8784   -1.3498 H   0  0  0  0  0  0  0  0  0  0  0  0
   -2.1518    3.4470   -2.7959 H   0  0  0  0  0  0  0  0  0  0  0  0
    0.0999    2.4611   -4.6476 H   0  0  0  0  0  0  0  0  0  0  0  0
   -0.8083    3.9632   -4.8574 H   0  0  0  0  0  0  0  0  0  0  0  0
    0.2511    3.7547   -3.4502 H   0  0  0  0  0  0  0  0  0  0  0  0
   -3.4084    2.7651   -4.9321 N   0  0  0  0  0  0  0  0  0  0  0  0
   -4.3999    2.2982   -5.8727 C   0  0  0  0  0  0  0  0  0  0  0  0
   -3.3580    3.7637   -4.7532 H   0  0  0  0  0  0  0  0  0  0  0  0
   -3.9682    2.2834   -6.8843 H   0  0  0  0  0  0  0  0  0  0  0  0
   -4.7187    1.2826   -5.5953 H   0  0  0  0  0  0  0  0  0  0  0  0
   -5.2686    2.9728   -5.8547 H   0  0  0  0  0  0  0  0  0  0  0  0
  1  3  1  0  0  0  0
  1  7  1  0  0  0  0
  1  2  2  0  0  0  0
 31 32  1  0  0  0  0
 32 40  1  0  0  0  0
 32 33  2  0  0  0  0
  8  9  1  0  0  0  0
  9 17  1  0  0  0  0
  9 10  2  0  0  0  0
 18 19  1  0  0  0  0
 19 30  1  0  0  0  0
 19 20  2  0  0  0  0
 21 22  1  0  0  0  0
 22 23  2  0  0  0  0
 22 24  1  0  0  0  0
 31 34  1  0  0  0  0
  8 11  1  0  0  0  0
 40 41  1  0  0  0  0
 18 21  1  0  0  0  0
 30 31  1  0  0  0  0
  7  8  1  0  0  0  0
 17 18  1  0  0  0  0
  3  4  1  0  0  0  0
  3  5  1  0  0  0  0
  3  6  1  0  0  0  0
 34 37  1  0  0  0  0
 34 38  1  0  0  0  0
 34 39  1  0  0  0  0
 11 14  1  0  0  0  0
 11 15  1  0  0  0  0
 11 16  1  0  0  0  0
 41 43  1  0  0  0  0
 41 44  1  0  0  0  0
 41 45  1  0  0  0  0
 21 27  1  0  0  0  0
 21 28  1  0  0  0  0
 31 36  1  0  0  0  0
  8 13  1  0  0  0  0
 18 26  1  0  0  0  0
 40 42  1  0  0  0  0
  7 12  1  0  0  0  0
 30 35  1  0  0  0  0
 17 25  1  0  0  0  0
 24 29  1  0  0  0  0
M  END
$$$$

  -OEChem-05262214473D

 45 44  0     1  0  0  0  0  0999 V2000
   -2.2987    4.1032   -0.3022 C   0  0  0  0  0  0  0  0  0  0  0  0
   -1.8049    3.7117   -1.3532 O   0  0  0  0  0  0  0  0  0  0  0  0
   -3.0791    5.3755   -0.2846 C   0  0  0  0  0  0  0  0  0  0  0  0
   -2.4478    6.2532   -0.0717 H   0  0  0  0  0  0  0  0  0  0  0  0
   -3.5571    5.5891   -1.2541 H   0  0  0  0  0  0  0  0  0  0  0  0
   -3.8940    5.4184    0.4556 H   0  0  0  0  0  0  0  0  0  0  0  0
   -2.2137    3.4712    0.9275 N   0  0  0  0  0  0  0  0  0  0  0  0
   -1.5102    2.2327    1.1338 C   0  0  2  0  0  0  0  0  0  0  0  0
   -1.3539    1.5497   -0.2184 C   0  0  0  0  0  0  0  0  0  0  0  0
   -2.0852    1.7861   -1.1778 O   0  0  0  0  0  0  0  0  0  0  0  0
   -2.2477    1.3342    2.1145 C   0  0  0  0  0  0  0  0  0  0  0  0
   -2.6724    3.9052    1.7265 H   0  0  0  0  0  0  0  0  0  0  0  0
   -0.5220    2.4922    1.5290 H   0  0  0  0  0  0  0  0  0  0  0  0
   -3.2400    1.0636    1.7358 H   0  0  0  0  0  0  0  0  0  0  0  0
   -1.6970    0.4046    2.2923 H   0  0  0  0  0  0  0  0  0  0  0  0
   -2.3854    1.8384    3.0772 H   0  0  0  0  0  0  0  0  0  0  0  0
   -0.3283    0.6116   -0.2182 N   0  0  0  0  0  0  0  0  0  0  0  0
    0.0090   -0.1762   -1.3759 C   0  0  2  0  0  0  0  0  0  0  0  0
   -0.3271    0.6467   -2.6130 C   0  0  0  0  0  0  0  0  0  0  0  0
   -0.1843    0.2229   -3.7581 O   0  0  0  0  0  0  0  0  0  0  0  0
   -0.7325   -1.5103   -1.3937 C   0  0  0  0  0  0  0  0  0  0  0  0
   -0.2392   -2.4256   -0.3002 C   0  0  0  0  0  0  0  0  0  0  0  0
    0.8985   -2.4014    0.1508 O   0  0  0  0  0  0  0  0  0  0  0  0
   -1.1909   -3.2950    0.1205 O   0  0  0  0  0  0  0  0  0  0  0  0
    0.2381    0.4970    0.6194 H   0  0  0  0  0  0  0  0  0  0  0  0
    1.0939   -0.3316   -1.3362 H   0  0  0  0  0  0  0  0  0  0  0  0
   -1.8071   -1.3684   -1.2228 H   0  0  0  0  0  0  0  0  0  0  0  0
   -0.6519   -2.0201   -2.3615 H   0  0  0  0  0  0  0  0  0  0  0  0
   -0.9031   -3.9159    0.8236 H   0  0  0  0  0  0  0  0  0  0  0  0
   -0.8497    1.8906   -2.2875 N   0  0  0  0  0  0  0  0  0  0  0  0
   -1.2594    2.8496   -3.2867 C   0  0  2  0  0  0  0  0  0  0  0  0
   -2.4761    2.2858   -4.0087 C   0  0  0  0  0  0  0  0  0  0  0  0
   -2.7388    1.0855   -4.0436 O   0  0  0  0  0  0  0  0  0  0  0  0
   -0.1338    3.1432   -4.2662 C   0  0  0  0  0  0  0  0  0  0  0  0
   -0.9480    2.1364   -1.3068 H   0  0  0  0  0  0  0  0  0  0  0  0
   -1.5421    3.7627   -2.7516 H   0  0  0  0  0  0  0  0  0  0  0  0
    0.1632    2.2401   -4.8119 H   0  0  0  0  0  0  0  0  0  0  0  0
   -0.4366    3.8916   -5.0059 H   0  0  0  0  0  0  0  0  0  0  0  0
    0.7508    3.5205   -3.7418 H   0  0  0  0  0  0  0  0  0  0  0  0
   -3.2102    3.2764   -4.6458 N   0  0  0  0  0  0  0  0  0  0  0  0
   -4.4032    2.9935   -5.4093 C   0  0  0  0  0  0  0  0  0  0  0  0
   -2.9296    4.2476   -4.5477 H   0  0  0  0  0  0  0  0  0  0  0  0
   -4.1361    2.8439   -6.4658 H   0  0  0  0  0  0  0  0  0  0  0  0
   -4.8804    2.0823   -5.0193 H   0  0  0  0  0  0  0  0  0  0  0  0
   -5.1020    3.8387   -5.3240 H   0  0  0  0  0  0  0  0  0  0  0  0
  1  3  1  0  0  0  0
  1  7  1  0  0  0  0
  1  2  2  0  0  0  0
 31 32  1  0  0  0  0
 32 40  1  0  0  0  0
 32 33  2  0  0  0  0
  8  9  1  0  0  0  0
  9 17  1  0  0  0  0
  9 10  2  0  0  0  0
 18 19  1  0  0  0  0
 19 30  1  0  0  0  0
 19 20  2  0  0  0  0
 21 22  1  0  0  0  0
 22 23  2  0  0  0  0
 22 24  1  0  0  0  0
 31 34  1  0  0  0  0
  8 11  1  0  0  0  0
 40 41  1  0  0  0  0
 18 21  1  0  0  0  0
 30 31  1  0  0  0  0
  7  8  1  0  0  0  0
 17 18  1  0  0  0  0
  3  4  1  0  0  0  0
  3  5  1  0  0  0  0
  3  6  1  0  0  0  0
 34 37  1  0  0  0  0
 34 38  1  0  0  0  0
 34 39  1  0  0  0  0
 11 14  1  0  0  0  0
 11 15  1  0  0  0  0
 11 16  1  0  0  0  0
 41 43  1  0  0  0  0
 41 44  1  0  0  0  0
 41 45  1  0  0  0  0
 21 27  1  0  0  0  0
 21 28  1  0  0  0  0
 31 36  1  0  0  0  0
  8 13  1  0  0  0  0
 18 26  1  0  0  0  0
 40 42  1  0  0  0  0
  7 12  1  0  0  0  0
 30 35  1  0  0  0  0
 17 25  1  0  0  0  0
 24 29  1  0  0  0  0
M  END
$$$$

  -OEChem-05262214473D

 45 44  0     1  0  0  0  0  0999 V2000
   -2.2987    4.1032   -0.3022 C   0  0  0  0  0  0  0  0  0  0  0  0
   -1.8049    3.7117   -1.3532 O   0  0  0  0  0  0  0  0  0  0  0  0
   -3.0791    5.3755   -0.2846 C   0  0  0  0  0  0  0  0  0  0  0  0
   -2.4478    6.2532   -0.0717 H   0  0  0  0  0  0  0  0  0  0  0  0
   -3.5571    5.5891   -1.2541 H   0  0  0  0  0  0  0  0  0  0  0  0
   -3.8940    5.4184    0.4556 H   0  0  0  0  0  0  0  0  0  0  0  0
   -2.2137    3.4712    0.9275 N   0  0  0  0  0  0  0  0  0  0  0  0
   -1.5102    2.2327    1.1338 C   0  0  2  0  0  0  0  0  0  0  0  0
   -1.3539    1.5497   -0.2184 C   0  0  0  0  0  0  0  0  0  0  0  0
   -2.0852    1.7861   -1.1778 O   0  0  0  0  0  0  0  0  0  0  0  0
   -2.2477    1.3342    2.1145 C   0  0  0  0  0  0  0  0  0  0  0  0
   -2.6724    3.9052    1.7265 H   0  0  0  0  0  0  0  0  0  0  0  0
   -0.5220    2.4922    1.5290 H   0  0  0  0  0  0  0  0  0  0  0  0
   -3.2400    1.0636    1.7358 H   0  0  0  0  0  0  0  0  0  0  0  0
   -1.6970    0.4046    2.2923 H   0  0  0  0  0  0  0  0  0  0  0  0
   -2.3854    1.8384    3.0772 H   0  0  0  0  0  0  0  0  0  0  0  0
   -0.3283    0.6116   -0.2182 N   0  0  0  0  0  0  0  0  0  0  0  0
    0.0090   -0.1762   -1.3759 C   0  0  2  0  0  0  0  0  0  0  0  0
   -0.3271    0.6467   -2.6130 C   0  0  0  0  0  0  0  0  0  0  0  0
   -0.4434    0.1542   -3.7334 O   0  0  0  0  0  0  0  0  0  0  0  0
   -0.7325   -1.5103   -1.3937 C   0  0  0  0  0  0  0  0  0  0  0  0
   -0.2392   -2.4256   -0.3002 C   0  0  0  0  0  0  0  0  0  0  0  0
    0.8985   -2.4014    0.1508 O   0  0  0  0  0  0  0  0  0  0  0  0
   -1.1909   -3.2950    0.1205 O   0  0  0  0  0  0  0  0  0  0  0  0
    0.2381    0.4970    0.6194 H   0  0  0  0  0  0  0  0  0  0  0  0
    1.0939   -0.3316   -1.3362 H   0  0  0  0  0  0  0  0  0  0  0  0
   -1.8071   -1.3684   -1.2228 H   0  0  0  0  0  0  0  0  0  0  0  0
   -0.6519   -2.0201   -2.3615 H   0  0  0  0  0  0  0  0  0  0  0  0
   -0.9031   -3.9159    0.8236 H   0  0  0  0  0  0  0  0  0  0  0  0
   -0.5289    1.9862   -2.3110 N   0  0  0  0  0  0  0  0  0  0  0  0
   -0.8734    2.9678   -3.3130 C   0  0  2  0  0  0  0  0  0  0  0  0
   -2.2722    2.6478   -3.8233 C   0  0  0  0  0  0  0  0  0  0  0  0
   -2.7790    1.5313   -3.7361 O   0  0  0  0  0  0  0  0  0  0  0  0
    0.1333    2.9718   -4.4528 C   0  0  0  0  0  0  0  0  0  0  0  0
   -0.4302    2.2885   -1.3463 H   0  0  0  0  0  0  0  0  0  0  0  0
   -0.8807    3.9419   -2.8120 H   0  0  0  0  0  0  0  0  0  0  0  0
    0.1548    2.0039   -4.9667 H   0  0  0  0  0  0  0  0  0  0  0  0
   -0.1134    3.7359   -5.1974 H   0  0  0  0  0  0  0  0  0  0  0  0
    1.1434    3.1726   -4.0799 H   0  0  0  0  0  0  0  0  0  0  0  0
   -2.8714    3.7449   -4.4262 N   0  0  0  0  0  0  0  0  0  0  0  0
   -4.1954    3.6922   -5.0009 C   0  0  0  0  0  0  0  0  0  0  0  0
   -2.3853    4.6367   -4.4367 H   0  0  0  0  0  0  0  0  0  0  0  0
   -4.1220    3.4445   -6.0702 H   0  0  0  0  0  0  0  0  0  0  0  0
   -4.7881    2.9218   -4.4860 H   0  0  0  0  0  0  0  0  0  0  0  0
   -4.6849    4.6704   -4.8841 H   0  0  0  0  0  0  0  0  0  0  0  0
  1  3  1  0  0  0  0
  1  7  1  0  0  0  0
  1  2  2  0  0  0  0
 31 32  1  0  0  0  0
 32 40  1  0  0  0  0
 32 33  2  0  0  0  0
  8  9  1  0  0  0  0
  9 17  1  0  0  0  0
  9 10  2  0  0  0  0
 18 19  1  0  0  0  0
 19 30  1  0  0  0  0
 19 20  2  0  0  0  0
 21 22  1  0  0  0  0
 22 23  2  0  0  0  0
 22 24  1  0  0  0  0
 31 34  1  0  0  0  0
  8 11  1  0  0  0  0
 40 41  1  0  0  0  0
 18 21  1  0  0  0  0
 30 31  1  0  0  0  0
  7  8  1  0  0  0  0
 17 18  1  0  0  0  0
  3  4  1  0  0  0  0
  3  5  1  0  0  0  0
  3  6  1  0  0  0  0
 34 37  1  0  0  0  0
 34 38  1  0  0  0  0
 34 39  1  0  0  0  0
 11 14  1  0  0  0  0
 11 15  1  0  0  0  0
 11 16  1  0  0  0  0
 41 43  1  0  0  0  0
 41 44  1  0  0  0  0
 41 45  1  0  0  0  0
 21 27  1  0  0  0  0
 21 28  1  0  0  0  0
 31 36  1  0  0  0  0
  8 13  1  0  0  0  0
 18 26  1  0  0  0  0
 40 42  1  0  0  0  0
  7 12  1  0  0  0  0
 30 35  1  0  0  0  0
 17 25  1  0  0  0  0
 24 29  1  0  0  0  0
M  END
$$$$

  -OEChem-05262214473D

 45 44  0     1  0  0  0  0  0999 V2000
   -2.2987    4.1032   -0.3022 C   0  0  0  0  0  0  0  0  0  0  0  0
   -1.8049    3.7117   -1.3532 O   0  0  0  0  0  0  0  0  0  0  0  0
   -3.0791    5.3755   -0.2846 C   0  0  0  0  0  0  0  0  0  0  0  0
   -2.4478    6.2532   -0.0717 H   0  0  0  0  0  0  0  0  0  0  0  0
   -3.5571    5.5891   -1.2541 H   0  0  0  0  0  0  0  0  0  0  0  0
   -3.8940    5.4184    0.4556 H   0  0  0  0  0  0  0  0  0  0  0  0
   -2.2137    3.4712    0.9275 N   0  0  0  0  0  0  0  0  0  0  0  0
   -1.5102    2.2327    1.1338 C   0  0  2  0  0  0  0  0  0  0  0  0
   -1.3539    1.5497   -0.2184 C   0  0  0  0  0  0  0  0  0  0  0  0
   -2.0852    1.7861   -1.1778 O   0  0  0  0  0  0  0  0  0  0  0  0
   -2.2477    1.3342    2.1145 C   0  0  0  0  0  0  0  0  0  0  0  0
   -2.6724    3.9052    1.7265 H   0  0  0  0  0  0  0  0  0  0  0  0
   -0.5220    2.4922    1.5290 H   0  0  0  0  0  0  0  0  0  0  0  0
   -3.2400    1.0636    1.7358 H   0  0  0  0  0  0  0  0  0  0  0  0
   -1.6970    0.4046    2.2923 H   0  0  0  0  0  0  0  0  0  0  0  0
   -2.3854    1.8384    3.0772 H   0  0  0  0  0  0  0  0  0  0  0  0
   -0.3283    0.6116   -0.2182 N   0  0  0  0  0  0  0  0  0  0  0  0
    0.0090   -0.1762   -1.3759 C   0  0  2  0  0  0  0  0  0  0  0  0
   -0.3271    0.6467   -2.6130 C   0  0  0  0  0  0  0  0  0  0  0  0
   -0.7046    0.1438   -3.6693 O   0  0  0  0  0  0  0  0  0  0  0  0
   -0.7325   -1.5103   -1.3937 C   0  0  0  0  0  0  0  0  0  0  0  0
   -0.2392   -2.4256   -0.3002 C   0  0  0  0  0  0  0  0  0  0  0  0
    0.8985   -2.4014    0.1508 O   0  0  0  0  0  0  0  0  0  0  0  0
   -1.1909   -3.2950    0.1205 O   0  0  0  0  0  0  0  0  0  0  0  0
    0.2381    0.4970    0.6194 H   0  0  0  0  0  0  0  0  0  0  0  0
    1.0939   -0.3316   -1.3362 H   0  0  0  0  0  0  0  0  0  0  0  0
   -1.8071   -1.3684   -1.2228 H   0  0  0  0  0  0  0  0  0  0  0  0
   -0.6519   -2.0201   -2.3615 H   0  0  0  0  0  0  0  0  0  0  0  0
   -0.9031   -3.9159    0.8236 H   0  0  0  0  0  0  0  0  0  0  0  0
   -0.2021    2.0099   -2.3841 N   0  0  0  0  0  0  0  0  0  0  0  0
   -0.4794    2.9993   -3.3991 C   0  0  2  0  0  0  0  0  0  0  0  0
   -1.9733    2.9652   -3.6934 C   0  0  0  0  0  0  0  0  0  0  0  0
   -2.6811    1.9879   -3.4590 O   0  0  0  0  0  0  0  0  0  0  0  0
    0.3292    2.7395   -4.6606 C   0  0  0  0  0  0  0  0  0  0  0  0
    0.0964    2.3244   -1.4656 H   0  0  0  0  0  0  0  0  0  0  0  0
   -0.2126    3.9726   -2.9731 H   0  0  0  0  0  0  0  0  0  0  0  0
    0.0755    1.7686   -5.1016 H   0  0  0  0  0  0  0  0  0  0  0  0
    0.1393    3.5066   -5.4185 H   0  0  0  0  0  0  0  0  0  0  0  0
    1.4024    2.7348   -4.4415 H   0  0  0  0  0  0  0  0  0  0  0  0
   -2.4149    4.1388   -4.2882 N   0  0  0  0  0  0  0  0  0  0  0  0
   -3.7907    4.3468   -4.6754 C   0  0  0  0  0  0  0  0  0  0  0  0
   -1.7623    4.9045   -4.4279 H   0  0  0  0  0  0  0  0  0  0  0  0
   -3.9268    4.0443   -5.7242 H   0  0  0  0  0  0  0  0  0  0  0  0
   -4.4479    3.7436   -4.0317 H   0  0  0  0  0  0  0  0  0  0  0  0
   -4.0457    5.4111   -4.5650 H   0  0  0  0  0  0  0  0  0  0  0  0
  1  3  1  0  0  0  0
  1  7  1  0  0  0  0
  1  2  2  0  0  0  0
 31 32  1  0  0  0  0
 32 40  1  0  0  0  0
 32 33  2  0  0  0  0
  8  9  1  0  0  0  0
  9 17  1  0  0  0  0
  9 10  2  0  0  0  0
 18 19  1  0  0  0  0
 19 30  1  0  0  0  0
 19 20  2  0  0  0  0
 21 22  1  0  0  0  0
 22 23  2  0  0  0  0
 22 24  1  0  0  0  0
 31 34  1  0  0  0  0
  8 11  1  0  0  0  0
 40 41  1  0  0  0  0
 18 21  1  0  0  0  0
 30 31  1  0  0  0  0
  7  8  1  0  0  0  0
 17 18  1  0  0  0  0
  3  4  1  0  0  0  0
  3  5  1  0  0  0  0
  3  6  1  0  0  0  0
 34 37  1  0  0  0  0
 34 38  1  0  0  0  0
 34 39  1  0  0  0  0
 11 14  1  0  0  0  0
 11 15  1  0  0  0  0
 11 16  1  0  0  0  0
 41 43  1  0  0  0  0
 41 44  1  0  0  0  0
 41 45  1  0  0  0  0
 21 27  1  0  0  0  0
 21 28  1  0  0  0  0
 31 36  1  0  0  0  0
  8 13  1  0  0  0  0
 18 26  1  0  0  0  0
 40 42  1  0  0  0  0
  7 12  1  0  0  0  0
 30 35  1  0  0  0  0
 17 25  1  0  0  0  0
 24 29  1  0  0  0  0
M  END
$$$$

  -OEChem-05262214473D

 45 44  0     1  0  0  0  0  0999 V2000
   -2.2987    4.1032   -0.3022 C   0  0  0  0  0  0  0  0  0  0  0  0
   -1.8049    3.7117   -1.3532 O   0  0  0  0  0  0  0  0  0  0  0  0
   -3.0791    5.3755   -0.2846 C   0  0  0  0  0  0  0  0  0  0  0  0
   -2.4478    6.2532   -0.0717 H   0  0  0  0  0  0  0  0  0  0  0  0
   -3.5571    5.5891   -1.2541 H   0  0  0  0  0  0  0  0  0  0  0  0
   -3.8940    5.4184    0.4556 H   0  0  0  0  0  0  0  0  0  0  0  0
   -2.2137    3.4712    0.9275 N   0  0  0  0  0  0  0  0  0  0  0  0
   -1.5102    2.2327    1.1338 C   0  0  2  0  0  0  0  0  0  0  0  0
   -1.3539    1.5497   -0.2184 C   0  0  0  0  0  0  0  0  0  0  0  0
   -2.0852    1.7861   -1.1778 O   0  0  0  0  0  0  0  0  0  0  0  0
   -2.2477    1.3342    2.1145 C   0  0  0  0  0  0  0  0  0  0  0  0
   -2.6724    3.9052    1.7265 H   0  0  0  0  0  0  0  0  0  0  0  0
   -0.5220    2.4922    1.5290 H   0  0  0  0  0  0  0  0  0  0  0  0
   -3.2400    1.0636    1.7358 H   0  0  0  0  0  0  0  0  0  0  0  0
   -1.6970    0.4046    2.2923 H   0  0  0  0  0  0  0  0  0  0  0  0
   -2.3854    1.8384    3.0772 H   0  0  0  0  0  0  0  0  0  0  0  0
   -0.3283    0.6116   -0.2182 N   0  0  0  0  0  0  0  0  0  0  0  0
    0.0090   -0.1762   -1.3759 C   0  0  2  0  0  0  0  0  0  0  0  0
   -0.3271    0.6467   -2.6130 C   0  0  0  0  0  0  0  0  0  0  0  0
   -0.9502    0.1923   -3.5704 O   0  0  0  0  0  0  0  0  0  0  0  0
   -0.7325   -1.5103   -1.3937 C   0  0  0  0  0  0  0  0  0  0  0  0
   -0.2392   -2.4256   -0.3002 C   0  0  0  0  0  0  0  0  0  0  0  0
    0.8985   -2.4014    0.1508 O   0  0  0  0  0  0  0  0  0  0  0  0
   -1.1909   -3.2950    0.1205 O   0  0  0  0  0  0  0  0  0  0  0  0
    0.2381    0.4970    0.6194 H   0  0  0  0  0  0  0  0  0  0  0  0
    1.0939   -0.3316   -1.3362 H   0  0  0  0  0  0  0  0  0  0  0  0
   -1.8071   -1.3684   -1.2228 H   0  0  0  0  0  0  0  0  0  0  0  0
   -0.6519   -2.0201   -2.3615 H   0  0  0  0  0  0  0  0  0  0  0  0
   -0.9031   -3.9159    0.8236 H   0  0  0  0  0  0  0  0  0  0  0  0
    0.1082    1.9598   -2.5017 N   0  0  0  0  0  0  0  0  0  0  0  0
   -0.1043    2.9420   -3.5391 C   0  0  2  0  0  0  0  0  0  0  0  0
   -1.5997    3.2164   -3.6278 C   0  0  0  0  0  0  0  0  0  0  0  0
   -2.4518    2.4241   -3.2311 O   0  0  0  0  0  0  0  0  0  0  0  0
    0.4405    2.4621   -4.8754 C   0  0  0  0  0  0  0  0  0  0  0  0
    0.5959    2.2416   -1.6564 H   0  0  0  0  0  0  0  0  0  0  0  0
    0.4167    3.8527   -3.2239 H   0  0  0  0  0  0  0  0  0  0  0  0
   -0.0695    1.5504   -5.2074 H   0  0  0  0  0  0  0  0  0  0  0  0
    0.3042    3.2194   -5.6544 H   0  0  0  0  0  0  0  0  0  0  0  0
    1.5099    2.2368   -4.8020 H   0  0  0  0  0  0  0  0  0  0  0  0
   -1.8719    4.4312   -4.2413 N   0  0  0  0  0  0  0  0  0  0  0  0
   -3.2167    4.9126   -4.4550 C   0  0  0  0  0  0  0  0  0  0  0  0
   -1.1030    5.0327   -4.5217 H   0  0  0  0  0  0  0  0  0  0  0  0
   -3.5638    4.6023   -5.4516 H   0  0  0  0  0  0  0  0  0  0  0  0
   -3.8830    4.4919   -3.6874 H   0  0  0  0  0  0  0  0  0  0  0  0
   -3.2279    6.0106   -4.3884 H   0  0  0  0  0  0  0  0  0  0  0  0
  1  3  1  0  0  0  0
  1  7  1  0  0  0  0
  1  2  2  0  0  0  0
 31 32  1  0  0  0  0
 32 40  1  0  0  0  0
 32 33  2  0  0  0  0
  8  9  1  0  0  0  0
  9 17  1  0  0  0  0
  9 10  2  0  0  0  0
 18 19  1  0  0  0  0
 19 30  1  0  0  0  0
 19 20  2  0  0  0  0
 21 22  1  0  0  0  0
 22 23  2  0  0  0  0
 22 24  1  0  0  0  0
 31 34  1  0  0  0  0
  8 11  1  0  0  0  0
 40 41  1  0  0  0  0
 18 21  1  0  0  0  0
 30 31  1  0  0  0  0
  7  8  1  0  0  0  0
 17 18  1  0  0  0  0
  3  4  1  0  0  0  0
  3  5  1  0  0  0  0
  3  6  1  0  0  0  0
 34 37  1  0  0  0  0
 34 38  1  0  0  0  0
 34 39  1  0  0  0  0
 11 14  1  0  0  0  0
 11 15  1  0  0  0  0
 11 16  1  0  0  0  0
 41 43  1  0  0  0  0
 41 44  1  0  0  0  0
 41 45  1  0  0  0  0
 21 27  1  0  0  0  0
 21 28  1  0  0  0  0
 31 36  1  0  0  0  0
  8 13  1  0  0  0  0
 18 26  1  0  0  0  0
 40 42  1  0  0  0  0
  7 12  1  0  0  0  0
 30 35  1  0  0  0  0
 17 25  1  0  0  0  0
 24 29  1  0  0  0  0
M  END
$$$$

  -OEChem-05262214473D

 45 44  0     1  0  0  0  0  0999 V2000
   -2.2987    4.1032   -0.3022 C   0  0  0  0  0  0  0  0  0  0  0  0
   -1.8049    3.7117   -1.3532 O   0  0  0  0  0  0  0  0  0  0  0  0
   -3.0791    5.3755   -0.2846 C   0  0  0  0  0  0  0  0  0  0  0  0
   -2.4478    6.2532   -0.0717 H   0  0  0  0  0  0  0  0  0  0  0  0
   -3.5571    5.5891   -1.2541 H   0  0  0  0  0  0  0  0  0  0  0  0
   -3.8940    5.4184    0.4556 H   0  0  0  0  0  0  0  0  0  0  0  0
   -2.2137    3.4712    0.9275 N   0  0  0  0  0  0  0  0  0  0  0  0
   -1.5102    2.2327    1.1338 C   0  0  2  0  0  0  0  0  0  0  0  0
   -1.3539    1.5497   -0.2184 C   0  0  0  0  0  0  0  0  0  0  0  0
   -2.0852    1.7861   -1.1778 O   0  0  0  0  0  0  0  0  0  0  0  0
   -2.2477    1.3342    2.1145 C   0  0  0  0  0  0  0  0  0  0  0  0
   -2.6724    3.9052    1.7265 H   0  0  0  0  0  0  0  0  0  0  0  0
   -0.5220    2.4922    1.5290 H   0  0  0  0  0  0  0  0  0  0  0  0
   -3.2400    1.0636    1.7358 H   0  0  0  0  0  0  0  0  0  0  0  0
   -1.6970    0.4046    2.2923 H   0  0  0  0  0  0  0  0  0  0  0  0
   -2.3854    1.8384    3.0772 H   0  0  0  0  0  0  0  0  0  0  0  0
   -0.3283    0.6116   -0.2182 N   0  0  0  0  0  0  0  0  0  0  0  0
    0.0090   -0.1762   -1.3759 C   0  0  2  0  0  0  0  0  0  0  0  0
   -0.3271    0.6467   -2.6130 C   0  0  0  0  0  0  0  0  0  0  0  0
   -1.1634    0.2964   -3.4432 O   0  0  0  0  0  0  0  0  0  0  0  0
   -0.7325   -1.5103   -1.3937 C   0  0  0  0  0  0  0  0  0  0  0  0
   -0.2392   -2.4256   -0.3002 C   0  0  0  0  0  0  0  0  0  0  0  0
    0.8985   -2.4014    0.1508 O   0  0  0  0  0  0  0  0  0  0  0  0
   -1.1909   -3.2950    0.1205 O   0  0  0  0  0  0  0  0  0  0  0  0
    0.2381    0.4970    0.6194 H   0  0  0  0  0  0  0  0  0  0  0  0
    1.0939   -0.3316   -1.3362 H   0  0  0  0  0  0  0  0  0  0  0  0
   -1.8071   -1.3684   -1.2228 H   0  0  0  0  0  0  0  0  0  0  0  0
   -0.6519   -2.0201   -2.3615 H   0  0  0  0  0  0  0  0  0  0  0  0
   -0.9031   -3.9159    0.8236 H   0  0  0  0  0  0  0  0  0  0  0  0
    0.3810    1.8396   -2.6558 N   0  0  0  0  0  0  0  0  0  0  0  0
    0.2265    2.7998   -3.7235 C   0  0  2  0  0  0  0  0  0  0  0  0
   -1.1769    3.3843   -3.6310 C   0  0  0  0  0  0  0  0  0  0  0  0
   -2.1067    2.8104   -3.0679 O   0  0  0  0  0  0  0  0  0  0  0  0
    0.4596    2.1584   -5.0826 C   0  0  0  0  0  0  0  0  0  0  0  0
    1.0343    2.0456   -1.9058 H   0  0  0  0  0  0  0  0  0  0  0  0
    0.9642    3.5902   -3.5473 H   0  0  0  0  0  0  0  0  0  0  0  0
   -0.2702    1.3640   -5.2769 H   0  0  0  0  0  0  0  0  0  0  0  0
    0.3702    2.8938   -5.8889 H   0  0  0  0  0  0  0  0  0  0  0  0
    1.4586    1.7125   -5.1368 H   0  0  0  0  0  0  0  0  0  0  0  0
   -1.2794    4.6022   -4.2885 N   0  0  0  0  0  0  0  0  0  0  0  0
   -2.5126    5.3511   -4.3546 C   0  0  0  0  0  0  0  0  0  0  0  0
   -0.4523    5.0126   -4.7119 H   0  0  0  0  0  0  0  0  0  0  0  0
   -3.0578    5.0806   -5.2709 H   0  0  0  0  0  0  0  0  0  0  0  0
   -3.1319    5.1157   -3.4766 H   0  0  0  0  0  0  0  0  0  0  0  0
   -2.2874    6.4277   -4.3665 H   0  0  0  0  0  0  0  0  0  0  0  0
  1  3  1  0  0  0  0
  1  7  1  0  0  0  0
  1  2  2  0  0  0  0
 31 32  1  0  0  0  0
 32 40  1  0  0  0  0
 32 33  2  0  0  0  0
  8  9  1  0  0  0  0
  9 17  1  0  0  0  0
  9 10  2  0  0  0  0
 18 19  1  0  0  0  0
 19 30  1  0  0  0  0
 19 20  2  0  0  0  0
 21 22  1  0  0  0  0
 22 23  2  0  0  0  0
 22 24  1  0  0  0  0
 31 34  1  0  0  0  0
  8 11  1  0  0  0  0
 40 41  1  0  0  0  0
 18 21  1  0  0  0  0
 30 31  1  0  0  0  0
  7  8  1  0  0  0  0
 17 18  1  0  0  0  0
  3  4  1  0  0  0  0
  3  5  1  0  0  0  0
  3  6  1  0  0  0  0
 34 37  1  0  0  0  0
 34 38  1  0  0  0  0
 34 39  1  0  0  0  0
 11 14  1  0  0  0  0
 11 15  1  0  0  0  0
 11 16  1  0  0  0  0
 41 43  1  0  0  0  0
 41 44  1  0  0  0  0
 41 45  1  0  0  0  0
 21 27  1  0  0  0  0
 21 28  1  0  0  0  0
 31 36  1  0  0  0  0
  8 13  1  0  0  0  0
 18 26  1  0  0  0  0
 40 42  1  0  0  0  0
  7 12  1  0  0  0  0
 30 35  1  0  0  0  0
 17 25  1  0  0  0  0
 24 29  1  0  0  0  0
M  END
$$$$

  -OEChem-05262214473D

 45 44  0     1  0  0  0  0  0999 V2000
   -2.2987    4.1032   -0.3022 C   0  0  0  0  0  0  0  0  0  0  0  0
   -1.8049    3.7117   -1.3532 O   0  0  0  0  0  0  0  0  0  0  0  0
   -3.0791    5.3755   -0.2846 C   0  0  0  0  0  0  0  0  0  0  0  0
   -2.4478    6.2532   -0.0717 H   0  0  0  0  0  0  0  0  0  0  0  0
   -3.5571    5.5891   -1.2541 H   0  0  0  0  0  0  0  0  0  0  0  0
   -3.8940    5.4184    0.4556 H   0  0  0  0  0  0  0  0  0  0  0  0
   -2.2137    3.4712    0.9275 N   0  0  0  0  0  0  0  0  0  0  0  0
   -1.5102    2.2327    1.1338 C   0  0  2  0  0  0  0  0  0  0  0  0
   -1.3539    1.5497   -0.2184 C   0  0  0  0  0  0  0  0  0  0  0  0
   -2.0852    1.7861   -1.1778 O   0  0  0  0  0  0  0  0  0  0  0  0
   -2.2477    1.3342    2.1145 C   0  0  0  0  0  0  0  0  0  0  0  0
   -2.6724    3.9052    1.7265 H   0  0  0  0  0  0  0  0  0  0  0  0
   -0.5220    2.4922    1.5290 H   0  0  0  0  0  0  0  0  0  0  0  0
   -3.2400    1.0636    1.7358 H   0  0  0  0  0  0  0  0  0  0  0  0
   -1.6970    0.4046    2.2923 H   0  0  0  0  0  0  0  0  0  0  0  0
   -2.3854    1.8384    3.0772 H   0  0  0  0  0  0  0  0  0  0  0  0
   -0.3283    0.6116   -0.2182 N   0  0  0  0  0  0  0  0  0  0  0  0
    0.0090   -0.1762   -1.3759 C   0  0  2  0  0  0  0  0  0  0  0  0
   -0.3271    0.6467   -2.6130 C   0  0  0  0  0  0  0  0  0  0  0  0
   -1.3296    0.4490   -3.2965 O   0  0  0  0  0  0  0  0  0  0  0  0
   -0.7325   -1.5103   -1.3937 C   0  0  0  0  0  0  0  0  0  0  0  0
   -0.2392   -2.4256   -0.3002 C   0  0  0  0  0  0  0  0  0  0  0  0
    0.8985   -2.4014    0.1508 O   0  0  0  0  0  0  0  0  0  0  0  0
   -1.1909   -3.2950    0.1205 O   0  0  0  0  0  0  0  0  0  0  0  0
    0.2381    0.4970    0.6194 H   0  0  0  0  0  0  0  0  0  0  0  0
    1.0939   -0.3316   -1.3362 H   0  0  0  0  0  0  0  0  0  0  0  0
   -1.8071   -1.3684   -1.2228 H   0  0  0  0  0  0  0  0  0  0  0  0
   -0.6519   -2.0201   -2.3615 H   0  0  0  0  0  0  0  0  0  0  0  0
   -0.9031   -3.9159    0.8236 H   0  0  0  0  0  0  0  0  0  0  0  0
    0.5977    1.6573   -2.8359 N   0  0  0  0  0  0  0  0  0  0  0  0
    0.4903    2.5824   -3.9398 C   0  0  2  0  0  0  0  0  0  0  0  0
   -0.7336    3.4573   -3.7028 C   0  0  0  0  0  0  0  0  0  0  0  0
   -1.6694    3.1203   -2.9805 O   0  0  0  0  0  0  0  0  0  0  0  0
    0.3853    1.8493   -5.2680 C   0  0  0  0  0  0  0  0  0  0  0  0
    1.3817    1.7500   -2.1969 H   0  0  0  0  0  0  0  0  0  0  0  0
    1.3927    3.2031   -3.9212 H   0  0  0  0  0  0  0  0  0  0  0  0
   -0.5129    1.2222   -5.3053 H   0  0  0  0  0  0  0  0  0  0  0  0
    0.3328    2.5521   -6.1061 H   0  0  0  0  0  0  0  0  0  0  0  0
    1.2521    1.1978   -5.4231 H   0  0  0  0  0  0  0  0  0  0  0  0
   -0.6777    4.6401   -4.4268 N   0  0  0  0  0  0  0  0  0  0  0  0
   -1.7262    5.6324   -4.3812 C   0  0  0  0  0  0  0  0  0  0  0  0
    0.1454    4.8456   -4.9854 H   0  0  0  0  0  0  0  0  0  0  0  0
   -2.4432    5.4466   -5.1945 H   0  0  0  0  0  0  0  0  0  0  0  0
   -2.2459    5.5723   -3.4136 H   0  0  0  0  0  0  0  0  0  0  0  0
   -1.2881    6.6343   -4.5006 H   0  0  0  0  0  0  0  0  0  0  0  0
  1  3  1  0  0  0  0
  1  7  1  0  0  0  0
  1  2  2  0  0  0  0
 31 32  1  0  0  0  0
 32 40  1  0  0  0  0
 32 33  2  0  0  0  0
  8  9  1  0  0  0  0
  9 17  1  0  0  0  0
  9 10  2  0  0  0  0
 18 19  1  0  0  0  0
 19 30  1  0  0  0  0
 19 20  2  0  0  0  0
 21 22  1  0  0  0  0
 22 23  2  0  0  0  0
 22 24  1  0  0  0  0
 31 34  1  0  0  0  0
  8 11  1  0  0  0  0
 40 41  1  0  0  0  0
 18 21  1  0  0  0  0
 30 31  1  0  0  0  0
  7  8  1  0  0  0  0
 17 18  1  0  0  0  0
  3  4  1  0  0  0  0
  3  5  1  0  0  0  0
  3  6  1  0  0  0  0
 34 37  1  0  0  0  0
 34 38  1  0  0  0  0
 34 39  1  0  0  0  0
 11 14  1  0  0  0  0
 11 15  1  0  0  0  0
 11 16  1  0  0  0  0
 41 43  1  0  0  0  0
 41 44  1  0  0  0  0
 41 45  1  0  0  0  0
 21 27  1  0  0  0  0
 21 28  1  0  0  0  0
 31 36  1  0  0  0  0
  8 13  1  0  0  0  0
 18 26  1  0  0  0  0
 40 42  1  0  0  0  0
  7 12  1  0  0  0  0
 30 35  1  0  0  0  0
 17 25  1  0  0  0  0
 24 29  1  0  0  0  0
M  END
$$$$

  -OEChem-05262214473D

 45 44  0     1  0  0  0  0  0999 V2000
   -2.2987    4.1032   -0.3022 C   0  0  0  0  0  0  0  0  0  0  0  0
   -1.8049    3.7117   -1.3532 O   0  0  0  0  0  0  0  0  0  0  0  0
   -3.0791    5.3755   -0.2846 C   0  0  0  0  0  0  0  0  0  0  0  0
   -2.4478    6.2532   -0.0717 H   0  0  0  0  0  0  0  0  0  0  0  0
   -3.5571    5.5891   -1.2541 H   0  0  0  0  0  0  0  0  0  0  0  0
   -3.8940    5.4184    0.4556 H   0  0  0  0  0  0  0  0  0  0  0  0
   -2.2137    3.4712    0.9275 N   0  0  0  0  0  0  0  0  0  0  0  0
   -1.5102    2.2327    1.1338 C   0  0  2  0  0  0  0  0  0  0  0  0
   -1.3539    1.5497   -0.2184 C   0  0  0  0  0  0  0  0  0  0  0  0
   -2.0852    1.7861   -1.1778 O   0  0  0  0  0  0  0  0  0  0  0  0
   -2.2477    1.3342    2.1145 C   0  0  0  0  0  0  0  0  0  0  0  0
   -2.6724    3.9052    1.7265 H   0  0  0  0  0  0  0  0  0  0  0  0
   -0.5220    2.4922    1.5290 H   0  0  0  0  0  0  0  0  0  0  0  0
   -3.2400    1.0636    1.7358 H   0  0  0  0  0  0  0  0  0  0  0  0
   -1.6970    0.4046    2.2923 H   0  0  0  0  0  0  0  0  0  0  0  0
   -2.3854    1.8384    3.0772 H   0  0  0  0  0  0  0  0  0  0  0  0
   -0.3283    0.6116   -0.2182 N   0  0  0  0  0  0  0  0  0  0  0  0
    0.0090   -0.1762   -1.3759 C   0  0  2  0  0  0  0  0  0  0  0  0
   -0.3271    0.6467   -2.6130 C   0  0  0  0  0  0  0  0  0  0  0  0
   -1.4376    0.6397   -3.1403 O   0  0  0  0  0  0  0  0  0  0  0  0
   -0.7325   -1.5103   -1.3937 C   0  0  0  0  0  0  0  0  0  0  0  0
   -0.2392   -2.4256   -0.3002 C   0  0  0  0  0  0  0  0  0  0  0  0
    0.8985   -2.4014    0.1508 O   0  0  0  0  0  0  0  0  0  0  0  0
   -1.1909   -3.2950    0.1205 O   0  0  0  0  0  0  0  0  0  0  0  0
    0.2381    0.4970    0.6194 H   0  0  0  0  0  0  0  0  0  0  0  0
    1.0939   -0.3316   -1.3362 H   0  0  0  0  0  0  0  0  0  0  0  0
   -1.8071   -1.3684   -1.2228 H   0  0  0  0  0  0  0  0  0  0  0  0
   -0.6519   -2.0201   -2.3615 H   0  0  0  0  0  0  0  0  0  0  0  0
   -0.9031   -3.9159    0.8236 H   0  0  0  0  0  0  0  0  0  0  0  0
    0.7434    1.4254   -3.0298 N   0  0  0  0  0  0  0  0  0  0  0  0
    0.6691    2.3047   -4.1732 C   0  0  2  0  0  0  0  0  0  0  0  0
   -0.3001    3.4307   -3.8384 C   0  0  0  0  0  0  0  0  0  0  0  0
   -1.1697    3.3327   -2.9750 O   0  0  0  0  0  0  0  0  0  0  0  0
    0.2227    1.5557   -5.4191 C   0  0  0  0  0  0  0  0  0  0  0  0
    1.6145    1.3748   -2.5097 H   0  0  0  0  0  0  0  0  0  0  0  0
    1.6730    2.7178   -4.3202 H   0  0  0  0  0  0  0  0  0  0  0  0
   -0.7811    1.1346   -5.2907 H   0  0  0  0  0  0  0  0  0  0  0  0
    0.1944    2.2174   -6.2911 H   0  0  0  0  0  0  0  0  0  0  0  0
    0.9045    0.7277   -5.6414 H   0  0  0  0  0  0  0  0  0  0  0  0
   -0.1079    4.5424   -4.6466 N   0  0  0  0  0  0  0  0  0  0  0  0
   -0.9112    5.7373   -4.5329 C   0  0  0  0  0  0  0  0  0  0  0  0
    0.6493    4.5430   -5.3236 H   0  0  0  0  0  0  0  0  0  0  0  0
   -1.7619    5.6753   -5.2274 H   0  0  0  0  0  0  0  0  0  0  0  0
   -1.2852    5.8308   -3.5026 H   0  0  0  0  0  0  0  0  0  0  0  0
   -0.2982    6.6161   -4.7816 H   0  0  0  0  0  0  0  0  0  0  0  0
  1  3  1  0  0  0  0
  1  7  1  0  0  0  0
  1  2  2  0  0  0  0
 31 32  1  0  0  0  0
 32 40  1  0  0  0  0
 32 33  2  0  0  0  0
  8  9  1  0  0  0  0
  9 17  1  0  0  0  0
  9 10  2  0  0  0  0
 18 19  1  0  0  0  0
 19 30  1  0  0  0  0
 19 20  2  0  0  0  0
 21 22  1  0  0  0  0
 22 23  2  0  0  0  0
 22 24  1  0  0  0  0
 31 34  1  0  0  0  0
  8 11  1  0  0  0  0
 40 41  1  0  0  0  0
 18 21  1  0  0  0  0
 30 31  1  0  0  0  0
  7  8  1  0  0  0  0
 17 18  1  0  0  0  0
  3  4  1  0  0  0  0
  3  5  1  0  0  0  0
  3  6  1  0  0  0  0
 34 37  1  0  0  0  0
 34 38  1  0  0  0  0
 34 39  1  0  0  0  0
 11 14  1  0  0  0  0
 11 15  1  0  0  0  0
 11 16  1  0  0  0  0
 41 43  1  0  0  0  0
 41 44  1  0  0  0  0
 41 45  1  0  0  0  0
 21 27  1  0  0  0  0
 21 28  1  0  0  0  0
 31 36  1  0  0  0  0
  8 13  1  0  0  0  0
 18 26  1  0  0  0  0
 40 42  1  0  0  0  0
  7 12  1  0  0  0  0
 30 35  1  0  0  0  0
 17 25  1  0  0  0  0
 24 29  1  0  0  0  0
M  END
$$$$

  -OEChem-05262214473D

 45 44  0     1  0  0  0  0  0999 V2000
   -2.2987    4.1032   -0.3022 C   0  0  0  0  0  0  0  0  0  0  0  0
   -1.8049    3.7117   -1.3532 O   0  0  0  0  0  0  0  0  0  0  0  0
   -3.0791    5.3755   -0.2846 C   0  0  0  0  0  0  0  0  0  0  0  0
   -2.4478    6.2532   -0.0717 H   0  0  0  0  0  0  0  0  0  0  0  0
   -3.5571    5.5891   -1.2541 H   0  0  0  0  0  0  0  0  0  0  0  0
   -3.8940    5.4184    0.4556 H   0  0  0  0  0  0  0  0  0  0  0  0
   -2.2137    3.4712    0.9275 N   0  0  0  0  0  0  0  0  0  0  0  0
   -1.5102    2.2327    1.1338 C   0  0  2  0  0  0  0  0  0  0  0  0
   -1.3539    1.5497   -0.2184 C   0  0  0  0  0  0  0  0  0  0  0  0
   -2.0852    1.7861   -1.1778 O   0  0  0  0  0  0  0  0  0  0  0  0
   -2.2477    1.3342    2.1145 C   0  0  0  0  0  0  0  0  0  0  0  0
   -2.6724    3.9052    1.7265 H   0  0  0  0  0  0  0  0  0  0  0  0
   -0.5220    2.4922    1.5290 H   0  0  0  0  0  0  0  0  0  0  0  0
   -3.2400    1.0636    1.7358 H   0  0  0  0  0  0  0  0  0  0  0  0
   -1.6970    0.4046    2.2923 H   0  0  0  0  0  0  0  0  0  0  0  0
   -2.3854    1.8384    3.0772 H   0  0  0  0  0  0  0  0  0  0  0  0
   -0.3283    0.6116   -0.2182 N   0  0  0  0  0  0  0  0  0  0  0  0
    0.0090   -0.1762   -1.3759 C   0  0  2  0  0  0  0  0  0  0  0  0
   -0.3271    0.6467   -2.6130 C   0  0  0  0  0  0  0  0  0  0  0  0
   -1.4800    0.8555   -2.9852 O   0  0  0  0  0  0  0  0  0  0  0  0
   -0.7325   -1.5103   -1.3937 C   0  0  0  0  0  0  0  0  0  0  0  0
   -0.2392   -2.4256   -0.3002 C   0  0  0  0  0  0  0  0  0  0  0  0
    0.8985   -2.4014    0.1508 O   0  0  0  0  0  0  0  0  0  0  0  0
   -1.1909   -3.2950    0.1205 O   0  0  0  0  0  0  0  0  0  0  0  0
    0.2381    0.4970    0.6194 H   0  0  0  0  0  0  0  0  0  0  0  0
    1.0939   -0.3316   -1.3362 H   0  0  0  0  0  0  0  0  0  0  0  0
   -1.8071   -1.3684   -1.2228 H   0  0  0  0  0  0  0  0  0  0  0  0
   -0.6519   -2.0201   -2.3615 H   0  0  0  0  0  0  0  0  0  0  0  0
   -0.9031   -3.9159    0.8236 H   0  0  0  0  0  0  0  0  0  0  0  0
    0.8084    1.1597   -3.2242 N   0  0  0  0  0  0  0  0  0  0  0  0
    0.7509    1.9854   -4.4078 C   0  0  2  0  0  0  0  0  0  0  0  0
    0.0940    3.3060   -4.0283 C   0  0  0  0  0  0  0  0  0  0  0  0
   -0.6416    3.4331   -3.0517 O   0  0  0  0  0  0  0  0  0  0  0  0
   -0.0173    1.2976   -5.5256 C   0  0  0  0  0  0  0  0  0  0  0  0
    1.7167    0.9456   -2.8230 H   0  0  0  0  0  0  0  0  0  0  0  0
    1.7859    2.1673   -4.7171 H   0  0  0  0  0  0  0  0  0  0  0  0
   -1.0566    1.1072   -5.2341 H   0  0  0  0  0  0  0  0  0  0  0  0
   -0.0355    1.9127   -6.4313 H   0  0  0  0  0  0  0  0  0  0  0  0
    0.4393    0.3342   -5.7768 H   0  0  0  0  0  0  0  0  0  0  0  0
    0.3912    4.3157   -4.9330 N   0  0  0  0  0  0  0  0  0  0  0  0
   -0.1232    5.6586   -4.7993 C   0  0  0  0  0  0  0  0  0  0  0  0
    1.0253    4.1255   -5.7035 H   0  0  0  0  0  0  0  0  0  0  0  0
   -1.0605    5.7511   -5.3676 H   0  0  0  0  0  0  0  0  0  0  0  0
   -0.3154    5.8735   -3.7378 H   0  0  0  0  0  0  0  0  0  0  0  0
    0.6148    6.3744   -5.1905 H   0  0  0  0  0  0  0  0  0  0  0  0
  1  3  1  0  0  0  0
  1  7  1  0  0  0  0
  1  2  2  0  0  0  0
 31 32  1  0  0  0  0
 32 40  1  0  0  0  0
 32 33  2  0  0  0  0
  8  9  1  0  0  0  0
  9 17  1  0  0  0  0
  9 10  2  0  0  0  0
 18 19  1  0  0  0  0
 19 30  1  0  0  0  0
 19 20  2  0  0  0  0
 21 22  1  0  0  0  0
 22 23  2  0  0  0  0
 22 24  1  0  0  0  0
 31 34  1  0  0  0  0
  8 11  1  0  0  0  0
 40 41  1  0  0  0  0
 18 21  1  0  0  0  0
 30 31  1  0  0  0  0
  7  8  1  0  0  0  0
 17 18  1  0  0  0  0
  3  4  1  0  0  0  0
  3  5  1  0  0  0  0
  3  6  1  0  0  0  0
 34 37  1  0  0  0  0
 34 38  1  0  0  0  0
 34 39  1  0  0  0  0
 11 14  1  0  0  0  0
 11 15  1  0  0  0  0
 11 16  1  0  0  0  0
 41 43  1  0  0  0  0
 41 44  1  0  0  0  0
 41 45  1  0  0  0  0
 21 27  1  0  0  0  0
 21 28  1  0  0  0  0
 31 36  1  0  0  0  0
  8 13  1  0  0  0  0
 18 26  1  0  0  0  0
 40 42  1  0  0  0  0
  7 12  1  0  0  0  0
 30 35  1  0  0  0  0
 17 25  1  0  0  0  0
 24 29  1  0  0  0  0
M  END
$$$$

  -OEChem-05262214473D

 45 44  0     1  0  0  0  0  0999 V2000
   -2.2987    4.1032   -0.3022 C   0  0  0  0  0  0  0  0  0  0  0  0
   -1.8049    3.7117   -1.3532 O   0  0  0  0  0  0  0  0  0  0  0  0
   -3.0791    5.3755   -0.2846 C   0  0  0  0  0  0  0  0  0  0  0  0
   -2.4478    6.2532   -0.0717 H   0  0  0  0  0  0  0  0  0  0  0  0
   -3.5571    5.5891   -1.2541 H   0  0  0  0  0  0  0  0  0  0  0  0
   -3.8940    5.4184    0.4556 H   0  0  0  0  0  0  0  0  0  0  0  0
   -2.2137    3.4712    0.9275 N   0  0  0  0  0  0  0  0  0  0  0  0
   -1.5102    2.2327    1.1338 C   0  0  2  0  0  0  0  0  0  0  0  0
   -1.3539    1.5497   -0.2184 C   0  0  0  0  0  0  0  0  0  0  0  0
   -2.0852    1.7861   -1.1778 O   0  0  0  0  0  0  0  0  0  0  0  0
   -2.2477    1.3342    2.1145 C   0  0  0  0  0  0  0  0  0  0  0  0
   -2.6724    3.9052    1.7265 H   0  0  0  0  0  0  0  0  0  0  0  0
   -0.5220    2.4922    1.5290 H   0  0  0  0  0  0  0  0  0  0  0  0
   -3.2400    1.0636    1.7358 H   0  0  0  0  0  0  0  0  0  0  0  0
   -1.6970    0.4046    2.2923 H   0  0  0  0  0  0  0  0  0  0  0  0
   -2.3854    1.8384    3.0772 H   0  0  0  0  0  0  0  0  0  0  0  0
   -0.3283    0.6116   -0.2182 N   0  0  0  0  0  0  0  0  0  0  0  0
    0.0090   -0.1762   -1.3759 C   0  0  2  0  0  0  0  0  0  0  0  0
   -0.3271    0.6467   -2.6130 C   0  0  0  0  0  0  0  0  0  0  0  0
   -1.4539    1.0818   -2.8418 O   0  0  0  0  0  0  0  0  0  0  0  0
   -0.7325   -1.5103   -1.3937 C   0  0  0  0  0  0  0  0  0  0  0  0
   -0.2392   -2.4256   -0.3002 C   0  0  0  0  0  0  0  0  0  0  0  0
    0.8985   -2.4014    0.1508 O   0  0  0  0  0  0  0  0  0  0  0  0
   -1.1909   -3.2950    0.1205 O   0  0  0  0  0  0  0  0  0  0  0  0
    0.2381    0.4970    0.6194 H   0  0  0  0  0  0  0  0  0  0  0  0
    1.0939   -0.3316   -1.3362 H   0  0  0  0  0  0  0  0  0  0  0  0
   -1.8071   -1.3684   -1.2228 H   0  0  0  0  0  0  0  0  0  0  0  0
   -0.6519   -2.0201   -2.3615 H   0  0  0  0  0  0  0  0  0  0  0  0
   -0.9031   -3.9159    0.8236 H   0  0  0  0  0  0  0  0  0  0  0  0
    0.7881    0.8782   -3.4060 N   0  0  0  0  0  0  0  0  0  0  0  0
    0.7300    1.6465   -4.6276 C   0  0  2  0  0  0  0  0  0  0  0  0
    0.4220    3.0920   -4.2599 C   0  0  0  0  0  0  0  0  0  0  0  0
   -0.1211    3.4147   -3.2054 O   0  0  0  0  0  0  0  0  0  0  0  0
   -0.3182    1.0927   -5.5801 C   0  0  0  0  0  0  0  0  0  0  0  0
    1.6814    0.4917   -3.1154 H   0  0  0  0  0  0  0  0  0  0  0  0
    1.7238    1.5892   -5.0848 H   0  0  0  0  0  0  0  0  0  0  0  0
   -1.3205    1.1418   -5.1393 H   0  0  0  0  0  0  0  0  0  0  0  0
   -0.3412    1.6587   -6.5172 H   0  0  0  0  0  0  0  0  0  0  0  0
   -0.1116    0.0441   -5.8200 H   0  0  0  0  0  0  0  0  0  0  0  0
    0.7856    3.9754   -5.2665 N   0  0  0  0  0  0  0  0  0  0  0  0
    0.5842    5.4018   -5.1623 C   0  0  0  0  0  0  0  0  0  0  0  0
    1.2475    3.6216   -6.0991 H   0  0  0  0  0  0  0  0  0  0  0  0
   -0.3865    5.6689   -5.6054 H   0  0  0  0  0  0  0  0  0  0  0  0
    0.5974    5.6974   -4.1029 H   0  0  0  0  0  0  0  0  0  0  0  0
    1.3888    5.9258   -5.6992 H   0  0  0  0  0  0  0  0  0  0  0  0
  1  3  1  0  0  0  0
  1  7  1  0  0  0  0
  1  2  2  0  0  0  0
 31 32  1  0  0  0  0
 32 40  1  0  0  0  0
 32 33  2  0  0  0  0
  8  9  1  0  0  0  0
  9 17  1  0  0  0  0
  9 10  2  0  0  0  0
 18 19  1  0  0  0  0
 19 30  1  0  0  0  0
 19 20  2  0  0  0  0
 21 22  1  0  0  0  0
 22 23  2  0  0  0  0
 22 24  1  0  0  0  0
 31 34  1  0  0  0  0
  8 11  1  0  0  0  0
 40 41  1  0  0  0  0
 18 21  1  0  0  0  0
 30 31  1  0  0  0  0
  7  8  1  0  0  0  0
 17 18  1  0  0  0  0
  3  4  1  0  0  0  0
  3  5  1  0  0  0  0
  3  6  1  0  0  0  0
 34 37  1  0  0  0  0
 34 38  1  0  0  0  0
 34 39  1  0  0  0  0
 11 14  1  0  0  0  0
 11 15  1  0  0  0  0
 11 16  1  0  0  0  0
 41 43  1  0  0  0  0
 41 44  1  0  0  0  0
 41 45  1  0  0  0  0
 21 27  1  0  0  0  0
 21 28  1  0  0  0  0
 31 36  1  0  0  0  0
  8 13  1  0  0  0  0
 18 26  1  0  0  0  0
 40 42  1  0  0  0  0
  7 12  1  0  0  0  0
 30 35  1  0  0  0  0
 17 25  1  0  0  0  0
 24 29  1  0  0  0  0
M  END
$$$$

  -OEChem-05262214473D

 45 44  0     1  0  0  0  0  0999 V2000
   -2.2987    4.1032   -0.3022 C   0  0  0  0  0  0  0  0  0  0  0  0
   -1.8049    3.7117   -1.3532 O   0  0  0  0  0  0  0  0  0  0  0  0
   -3.0791    5.3755   -0.2846 C   0  0  0  0  0  0  0  0  0  0  0  0
   -2.4478    6.2532   -0.0717 H   0  0  0  0  0  0  0  0  0  0  0  0
   -3.5571    5.5891   -1.2541 H   0  0  0  0  0  0  0  0  0  0  0  0
   -3.8940    5.4184    0.4556 H   0  0  0  0  0  0  0  0  0  0  0  0
   -2.2137    3.4712    0.9275 N   0  0  0  0  0  0  0  0  0  0  0  0
   -1.5102    2.2327    1.1338 C   0  0  2  0  0  0  0  0  0  0  0  0
   -1.3539    1.5497   -0.2184 C   0  0  0  0  0  0  0  0  0  0  0  0
   -2.0852    1.7861   -1.1778 O   0  0  0  0  0  0  0  0  0  0  0  0
   -2.2477    1.3342    2.1145 C   0  0  0  0  0  0  0  0  0  0  0  0
   -2.6724    3.9052    1.7265 H   0  0  0  0  0  0  0  0  0  0  0  0
   -0.5220    2.4922    1.5290 H   0  0  0  0  0  0  0  0  0  0  0  0
   -3.2400    1.0636    1.7358 H   0  0  0  0  0  0  0  0  0  0  0  0
   -1.6970    0.4046    2.2923 H   0  0  0  0  0  0  0  0  0  0  0  0
   -2.3854    1.8384    3.0772 H   0  0  0  0  0  0  0  0  0  0  0  0
   -0.3283    0.6116   -0.2182 N   0  0  0  0  0  0  0  0  0  0  0  0
    0.0090   -0.1762   -1.3759 C   0  0  2  0  0  0  0  0  0  0  0  0
   -0.3271    0.6467   -2.6130 C   0  0  0  0  0  0  0  0  0  0  0  0
   -1.3611    1.3031   -2.7198 O   0  0  0  0  0  0  0  0  0  0  0  0
   -0.7325   -1.5103   -1.3937 C   0  0  0  0  0  0  0  0  0  0  0  0
   -0.2392   -2.4256   -0.3002 C   0  0  0  0  0  0  0  0  0  0  0  0
    0.8985   -2.4014    0.1508 O   0  0  0  0  0  0  0  0  0  0  0  0
   -1.1909   -3.2950    0.1205 O   0  0  0  0  0  0  0  0  0  0  0  0
    0.2381    0.4970    0.6194 H   0  0  0  0  0  0  0  0  0  0  0  0
    1.0939   -0.3316   -1.3362 H   0  0  0  0  0  0  0  0  0  0  0  0
   -1.8071   -1.3684   -1.2228 H   0  0  0  0  0  0  0  0  0  0  0  0
   -0.6519   -2.0201   -2.3615 H   0  0  0  0  0  0  0  0  0  0  0  0
   -0.9031   -3.9159    0.8236 H   0  0  0  0  0  0  0  0  0  0  0  0
    0.6840    0.6003   -3.5626 N   0  0  0  0  0  0  0  0  0  0  0  0
    0.6078    1.3110   -4.8176 C   0  0  2  0  0  0  0  0  0  0  0  0
    0.6614    2.8030   -4.5171 C   0  0  0  0  0  0  0  0  0  0  0  0
    0.3563    3.2788   -3.4255 O   0  0  0  0  0  0  0  0  0  0  0  0
   -0.6595    0.9550   -5.5791 C   0  0  0  0  0  0  0  0  0  0  0  0
    1.5110    0.0439   -3.3669 H   0  0  0  0  0  0  0  0  0  0  0  0
    1.4909    1.0228   -5.3983 H   0  0  0  0  0  0  0  0  0  0  0  0
   -1.5549    1.2362   -5.0128 H   0  0  0  0  0  0  0  0  0  0  0  0
   -0.7019    1.4727   -6.5430 H   0  0  0  0  0  0  0  0  0  0  0  0
   -0.7108   -0.1227   -5.7682 H   0  0  0  0  0  0  0  0  0  0  0  0
    1.0485    3.5448   -5.6244 N   0  0  0  0  0  0  0  0  0  0  0  0
    1.1628    4.9843   -5.5973 C   0  0  0  0  0  0  0  0  0  0  0  0
    1.3009    3.0654   -6.4836 H   0  0  0  0  0  0  0  0  0  0  0  0
    0.2139    5.4343   -5.9246 H   0  0  0  0  0  0  0  0  0  0  0  0
    1.3911    5.3147   -4.5732 H   0  0  0  0  0  0  0  0  0  0  0  0
    1.9709    5.3006   -6.2732 H   0  0  0  0  0  0  0  0  0  0  0  0
  1  3  1  0  0  0  0
  1  7  1  0  0  0  0
  1  2  2  0  0  0  0
 31 32  1  0  0  0  0
 32 40  1  0  0  0  0
 32 33  2  0  0  0  0
  8  9  1  0  0  0  0
  9 17  1  0  0  0  0
  9 10  2  0  0  0  0
 18 19  1  0  0  0  0
 19 30  1  0  0  0  0
 19 20  2  0  0  0  0
 21 22  1  0  0  0  0
 22 23  2  0  0  0  0
 22 24  1  0  0  0  0
 31 34  1  0  0  0  0
  8 11  1  0  0  0  0
 40 41  1  0  0  0  0
 18 21  1  0  0  0  0
 30 31  1  0  0  0  0
  7  8  1  0  0  0  0
 17 18  1  0  0  0  0
  3  4  1  0  0  0  0
  3  5  1  0  0  0  0
  3  6  1  0  0  0  0
 34 37  1  0  0  0  0
 34 38  1  0  0  0  0
 34 39  1  0  0  0  0
 11 14  1  0  0  0  0
 11 15  1  0  0  0  0
 11 16  1  0  0  0  0
 41 43  1  0  0  0  0
 41 44  1  0  0  0  0
 41 45  1  0  0  0  0
 21 27  1  0  0  0  0
 21 28  1  0  0  0  0
 31 36  1  0  0  0  0
  8 13  1  0  0  0  0
 18 26  1  0  0  0  0
 40 42  1  0  0  0  0
  7 12  1  0  0  0  0
 30 35  1  0  0  0  0
 17 25  1  0  0  0  0
 24 29  1  0  0  0  0
M  END
$$$$

  -OEChem-05262214473D

 45 44  0     1  0  0  0  0  0999 V2000
   -2.2987    4.1032   -0.3022 C   0  0  0  0  0  0  0  0  0  0  0  0
   -1.8049    3.7117   -1.3532 O   0  0  0  0  0  0  0  0  0  0  0  0
   -3.0791    5.3755   -0.2846 C   0  0  0  0  0  0  0  0  0  0  0  0
   -2.4478    6.2532   -0.0717 H   0  0  0  0  0  0  0  0  0  0  0  0
   -3.5571    5.5891   -1.2541 H   0  0  0  0  0  0  0  0  0  0  0  0
   -3.8940    5.4184    0.4556 H   0  0  0  0  0  0  0  0  0  0  0  0
   -2.2137    3.4712    0.9275 N   0  0  0  0  0  0  0  0  0  0  0  0
   -1.5102    2.2327    1.1338 C   0  0  2  0  0  0  0  0  0  0  0  0
   -1.3539    1.5497   -0.2184 C   0  0  0  0  0  0  0  0  0  0  0  0
   -2.0852    1.7861   -1.1778 O   0  0  0  0  0  0  0  0  0  0  0  0
   -2.2477    1.3342    2.1145 C   0  0  0  0  0  0  0  0  0  0  0  0
   -2.6724    3.9052    1.7265 H   0  0  0  0  0  0  0  0  0  0  0  0
   -0.5220    2.4922    1.5290 H   0  0  0  0  0  0  0  0  0  0  0  0
   -3.2400    1.0636    1.7358 H   0  0  0  0  0  0  0  0  0  0  0  0
   -1.6970    0.4046    2.2923 H   0  0  0  0  0  0  0  0  0  0  0  0
   -2.3854    1.8384    3.0772 H   0  0  0  0  0  0  0  0  0  0  0  0
   -0.3283    0.6116   -0.2182 N   0  0  0  0  0  0  0  0  0  0  0  0
    0.0090   -0.1762   -1.3759 C   0  0  2  0  0  0  0  0  0  0  0  0
   -0.3271    0.6467   -2.6130 C   0  0  0  0  0  0  0  0  0  0  0  0
   -1.2079    1.5043   -2.6276 O   0  0  0  0  0  0  0  0  0  0  0  0
   -0.7325   -1.5103   -1.3937 C   0  0  0  0  0  0  0  0  0  0  0  0
   -0.2392   -2.4256   -0.3002 C   0  0  0  0  0  0  0  0  0  0  0  0
    0.8985   -2.4014    0.1508 O   0  0  0  0  0  0  0  0  0  0  0  0
   -1.1909   -3.2950    0.1205 O   0  0  0  0  0  0  0  0  0  0  0  0
    0.2381    0.4970    0.6194 H   0  0  0  0  0  0  0  0  0  0  0  0
    1.0939   -0.3316   -1.3362 H   0  0  0  0  0  0  0  0  0  0  0  0
   -1.8071   -1.3684   -1.2228 H   0  0  0  0  0  0  0  0  0  0  0  0
   -0.6519   -2.0201   -2.3615 H   0  0  0  0  0  0  0  0  0  0  0  0
   -0.9031   -3.9159    0.8236 H   0  0  0  0  0  0  0  0  0  0  0  0
    0.5031    0.3447   -3.6834 N   0  0  0  0  0  0  0  0  0  0  0  0
    0.3927    1.0017   -4.9649 C   0  0  2  0  0  0  0  0  0  0  0  0
    0.7959    2.4590   -4.7826 C   0  0  0  0  0  0  0  0  0  0  0  0
    0.7581    3.0346   -3.6971 O   0  0  0  0  0  0  0  0  0  0  0  0
   -1.0180    0.8937   -5.5224 C   0  0  0  0  0  0  0  0  0  0  0  0
    1.2172   -0.3671   -3.5605 H   0  0  0  0  0  0  0  0  0  0  0  0
    1.1031    0.5068   -5.6362 H   0  0  0  0  0  0  0  0  0  0  0  0
   -1.7438    1.3838   -4.8633 H   0  0  0  0  0  0  0  0  0  0  0  0
   -1.0929    1.3674   -6.5068 H   0  0  0  0  0  0  0  0  0  0  0  0
   -1.3174   -0.1550   -5.6249 H   0  0  0  0  0  0  0  0  0  0  0  0
    1.1618    3.0532   -5.9822 N   0  0  0  0  0  0  0  0  0  0  0  0
    1.5731    4.4346   -6.0744 C   0  0  0  0  0  0  0  0  0  0  0  0
    1.1819    2.4951   -6.8306 H   0  0  0  0  0  0  0  0  0  0  0  0
    0.7000    5.0632   -6.3035 H   0  0  0  0  0  0  0  0  0  0  0  0
    2.0115    4.7513   -5.1165 H   0  0  0  0  0  0  0  0  0  0  0  0
    2.3216    4.5417   -6.8734 H   0  0  0  0  0  0  0  0  0  0  0  0
  1  3  1  0  0  0  0
  1  7  1  0  0  0  0
  1  2  2  0  0  0  0
 31 32  1  0  0  0  0
 32 40  1  0  0  0  0
 32 33  2  0  0  0  0
  8  9  1  0  0  0  0
  9 17  1  0  0  0  0
  9 10  2  0  0  0  0
 18 19  1  0  0  0  0
 19 30  1  0  0  0  0
 19 20  2  0  0  0  0
 21 22  1  0  0  0  0
 22 23  2  0  0  0  0
 22 24  1  0  0  0  0
 31 34  1  0  0  0  0
  8 11  1  0  0  0  0
 40 41  1  0  0  0  0
 18 21  1  0  0  0  0
 30 31  1  0  0  0  0
  7  8  1  0  0  0  0
 17 18  1  0  0  0  0
  3  4  1  0  0  0  0
  3  5  1  0  0  0  0
  3  6  1  0  0  0  0
 34 37  1  0  0  0  0
 34 38  1  0  0  0  0
 34 39  1  0  0  0  0
 11 14  1  0  0  0  0
 11 15  1  0  0  0  0
 11 16  1  0  0  0  0
 41 43  1  0  0  0  0
 41 44  1  0  0  0  0
 41 45  1  0  0  0  0
 21 27  1  0  0  0  0
 21 28  1  0  0  0  0
 31 36  1  0  0  0  0
  8 13  1  0  0  0  0
 18 26  1  0  0  0  0
 40 42  1  0  0  0  0
  7 12  1  0  0  0  0
 30 35  1  0  0  0  0
 17 25  1  0  0  0  0
 24 29  1  0  0  0  0
M  END
$$$$

  -OEChem-05262214473D

 45 44  0     1  0  0  0  0  0999 V2000
   -2.2987    4.1032   -0.3022 C   0  0  0  0  0  0  0  0  0  0  0  0
   -1.8049    3.7117   -1.3532 O   0  0  0  0  0  0  0  0  0  0  0  0
   -3.0791    5.3755   -0.2846 C   0  0  0  0  0  0  0  0  0  0  0  0
   -2.4478    6.2532   -0.0717 H   0  0  0  0  0  0  0  0  0  0  0  0
   -3.5571    5.5891   -1.2541 H   0  0  0  0  0  0  0  0  0  0  0  0
   -3.8940    5.4184    0.4556 H   0  0  0  0  0  0  0  0  0  0  0  0
   -2.2137    3.4712    0.9275 N   0  0  0  0  0  0  0  0  0  0  0  0
   -1.5102    2.2327    1.1338 C   0  0  2  0  0  0  0  0  0  0  0  0
   -1.3539    1.5497   -0.2184 C   0  0  0  0  0  0  0  0  0  0  0  0
   -2.0852    1.7861   -1.1778 O   0  0  0  0  0  0  0  0  0  0  0  0
   -2.2477    1.3342    2.1145 C   0  0  0  0  0  0  0  0  0  0  0  0
   -2.6724    3.9052    1.7265 H   0  0  0  0  0  0  0  0  0  0  0  0
   -0.5220    2.4922    1.5290 H   0  0  0  0  0  0  0  0  0  0  0  0
   -3.2400    1.0636    1.7358 H   0  0  0  0  0  0  0  0  0  0  0  0
   -1.6970    0.4046    2.2923 H   0  0  0  0  0  0  0  0  0  0  0  0
   -2.3854    1.8384    3.0772 H   0  0  0  0  0  0  0  0  0  0  0  0
   -0.3283    0.6116   -0.2182 N   0  0  0  0  0  0  0  0  0  0  0  0
    0.0090   -0.1762   -1.3759 C   0  0  2  0  0  0  0  0  0  0  0  0
   -0.3271    0.6467   -2.6130 C   0  0  0  0  0  0  0  0  0  0  0  0
   -1.0047    1.6716   -2.5714 O   0  0  0  0  0  0  0  0  0  0  0  0
   -0.7325   -1.5103   -1.3937 C   0  0  0  0  0  0  0  0  0  0  0  0
   -0.2392   -2.4256   -0.3002 C   0  0  0  0  0  0  0  0  0  0  0  0
    0.8985   -2.4014    0.1508 O   0  0  0  0  0  0  0  0  0  0  0  0
   -1.1909   -3.2950    0.1205 O   0  0  0  0  0  0  0  0  0  0  0  0
    0.2381    0.4970    0.6194 H   0  0  0  0  0  0  0  0  0  0  0  0
    1.0939   -0.3316   -1.3362 H   0  0  0  0  0  0  0  0  0  0  0  0
   -1.8071   -1.3684   -1.2228 H   0  0  0  0  0  0  0  0  0  0  0  0
   -0.6519   -2.0201   -2.3615 H   0  0  0  0  0  0  0  0  0  0  0  0
   -0.9031   -3.9159    0.8236 H   0  0  0  0  0  0  0  0  0  0  0  0
    0.2577    0.1290   -3.7602 N   0  0  0  0  0  0  0  0  0  0  0  0
    0.0994    0.7397   -5.0594 C   0  0  2  0  0  0  0  0  0  0  0  0
    0.8165    2.0831   -5.0382 C   0  0  0  0  0  0  0  0  0  0  0  0
    1.0570    2.6988   -4.0017 O   0  0  0  0  0  0  0  0  0  0  0  0
   -1.3693    0.9131   -5.4141 C   0  0  0  0  0  0  0  0  0  0  0  0
    0.8199   -0.7135   -3.6830 H   0  0  0  0  0  0  0  0  0  0  0  0
    0.5867    0.0763   -5.7822 H   0  0  0  0  0  0  0  0  0  0  0  0
   -1.8743    1.5747   -4.7009 H   0  0  0  0  0  0  0  0  0  0  0  0
   -1.4878    1.3499   -6.4112 H   0  0  0  0  0  0  0  0  0  0  0  0
   -1.8900   -0.0505   -5.3998 H   0  0  0  0  0  0  0  0  0  0  0  0
    1.1179    2.5341   -6.3156 N   0  0  0  0  0  0  0  0  0  0  0  0
    1.7872    3.7902   -6.5613 C   0  0  0  0  0  0  0  0  0  0  0  0
    0.8985    1.9494   -7.1167 H   0  0  0  0  0  0  0  0  0  0  0  0
    1.0385    4.5810   -6.7163 H   0  0  0  0  0  0  0  0  0  0  0  0
    2.4164    4.0456   -5.6959 H   0  0  0  0  0  0  0  0  0  0  0  0
    2.4168    3.7006   -7.4588 H   0  0  0  0  0  0  0  0  0  0  0  0
  1  3  1  0  0  0  0
  1  7  1  0  0  0  0
  1  2  2  0  0  0  0
 31 32  1  0  0  0  0
 32 40  1  0  0  0  0
 32 33  2  0  0  0  0
  8  9  1  0  0  0  0
  9 17  1  0  0  0  0
  9 10  2  0  0  0  0
 18 19  1  0  0  0  0
 19 30  1  0  0  0  0
 19 20  2  0  0  0  0
 21 22  1  0  0  0  0
 22 23  2  0  0  0  0
 22 24  1  0  0  0  0
 31 34  1  0  0  0  0
  8 11  1  0  0  0  0
 40 41  1  0  0  0  0
 18 21  1  0  0  0  0
 30 31  1  0  0  0  0
  7  8  1  0  0  0  0
 17 18  1  0  0  0  0
  3  4  1  0  0  0  0
  3  5  1  0  0  0  0
  3  6  1  0  0  0  0
 34 37  1  0  0  0  0
 34 38  1  0  0  0  0
 34 39  1  0  0  0  0
 11 14  1  0  0  0  0
 11 15  1  0  0  0  0
 11 16  1  0  0  0  0
 41 43  1  0  0  0  0
 41 44  1  0  0  0  0
 41 45  1  0  0  0  0
 21 27  1  0  0  0  0
 21 28  1  0  0  0  0
 31 36  1  0  0  0  0
  8 13  1  0  0  0  0
 18 26  1  0  0  0  0
 40 42  1  0  0  0  0
  7 12  1  0  0  0  0
 30 35  1  0  0  0  0
 17 25  1  0  0  0  0
 24 29  1  0  0  0  0
M  END
$$$$

  -OEChem-05262214473D

 45 44  0     1  0  0  0  0  0999 V2000
   -2.2987    4.1032   -0.3022 C   0  0  0  0  0  0  0  0  0  0  0  0
   -1.8049    3.7117   -1.3532 O   0  0  0  0  0  0  0  0  0  0  0  0
   -3.0791    5.3755   -0.2846 C   0  0  0  0  0  0  0  0  0  0  0  0
   -2.4478    6.2532   -0.0717 H   0  0  0  0  0  0  0  0  0  0  0  0
   -3.5571    5.5891   -1.2541 H   0  0  0  0  0  0  0  0  0  0  0  0
   -3.8940    5.4184    0.4556 H   0  0  0  0  0  0  0  0  0  0  0  0
   -2.2137    3.4712    0.9275 N   0  0  0  0  0  0  0  0  0  0  0  0
   -1.5102    2.2327    1.1338 C   0  0  2  0  0  0  0  0  0  0  0  0
   -1.3539    1.5497   -0.2184 C   0  0  0  0  0  0  0  0  0  0  0  0
   -2.0852    1.7861   -1.1778 O   0  0  0  0  0  0  0  0  0  0  0  0
   -2.2477    1.3342    2.1145 C   0  0  0  0  0  0  0  0  0  0  0  0
   -2.6724    3.9052    1.7265 H   0  0  0  0  0  0  0  0  0  0  0  0
   -0.5220    2.4922    1.5290 H   0  0  0  0  0  0  0  0  0  0  0  0
   -3.2400    1.0636    1.7358 H   0  0  0  0  0  0  0  0  0  0  0  0
   -1.6970    0.4046    2.2923 H   0  0  0  0  0  0  0  0  0  0  0  0
   -2.3854    1.8384    3.0772 H   0  0  0  0  0  0  0  0  0  0  0  0
   -0.3283    0.6116   -0.2182 N   0  0  0  0  0  0  0  0  0  0  0  0
    0.0090   -0.1762   -1.3759 C   0  0  2  0  0  0  0  0  0  0  0  0
    0.0344    0.7549   -2.5813 C   0  0  0  0  0  0  0  0  0  0  0  0
   -0.1647    1.9651   -2.4967 O   0  0  0  0  0  0  0  0  0  0  0  0
   -0.9777   -1.3202   -1.5946 C   0  0  0  0  0  0  0  0  0  0  0  0
   -0.8485   -2.3682   -0.5167 C   0  0  0  0  0  0  0  0  0  0  0  0
    0.1908   -2.6069    0.0845 O   0  0  0  0  0  0  0  0  0  0  0  0
   -2.0089   -3.0340   -0.2955 O   0  0  0  0  0  0  0  0  0  0  0  0
    0.2381    0.4970    0.6194 H   0  0  0  0  0  0  0  0  0  0  0  0
    1.0214   -0.5601   -1.2018 H   0  0  0  0  0  0  0  0  0  0  0  0
   -2.0141   -0.9612   -1.5603 H   0  0  0  0  0  0  0  0  0  0  0  0
   -0.8602   -1.7907   -2.5783 H   0  0  0  0  0  0  0  0  0  0  0  0
   -1.9608   -3.7332    0.3911 H   0  0  0  0  0  0  0  0  0  0  0  0
    0.3523    0.0839   -3.7538 N   0  0  0  0  0  0  0  0  0  0  0  0
    0.4529    0.7509   -5.0309 C   0  0  2  0  0  0  0  0  0  0  0  0
    1.6567    1.6825   -4.9813 C   0  0  0  0  0  0  0  0  0  0  0  0
    2.1316    2.1096   -3.9310 O   0  0  0  0  0  0  0  0  0  0  0  0
   -0.8177    1.5214   -5.3543 C   0  0  0  0  0  0  0  0  0  0  0  0
    0.5211   -0.9169   -3.7121 H   0  0  0  0  0  0  0  0  0  0  0  0
    0.6239   -0.0280   -5.7819 H   0  0  0  0  0  0  0  0  0  0  0  0
   -1.0055    2.3063   -4.6126 H   0  0  0  0  0  0  0  0  0  0  0  0
   -0.7508    2.0031   -6.3354 H   0  0  0  0  0  0  0  0  0  0  0  0
   -1.6868    0.8548   -5.3602 H   0  0  0  0  0  0  0  0  0  0  0  0
    2.1117    2.0153   -6.2495 N   0  0  0  0  0  0  0  0  0  0  0  0
    3.2352    2.8961   -6.4685 C   0  0  0  0  0  0  0  0  0  0  0  0
    1.6695    1.5996   -7.0640 H   0  0  0  0  0  0  0  0  0  0  0  0
    2.8747    3.9287   -6.5862 H   0  0  0  0  0  0  0  0  0  0  0  0
    3.9169    2.8418   -5.6070 H   0  0  0  0  0  0  0  0  0  0  0  0
    3.7700    2.5885   -7.3792 H   0  0  0  0  0  0  0  0  0  0  0  0
  1  3  1  0  0  0  0
  1  7  1  0  0  0  0
  1  2  2  0  0  0  0
 31 32  1  0  0  0  0
 32 40  1  0  0  0  0
 32 33  2  0  0  0  0
  8  9  1  0  0  0  0
  9 17  1  0  0  0  0
  9 10  2  0  0  0  0
 18 19  1  0  0  0  0
 19 30  1  0  0  0  0
 19 20  2  0  0  0  0
 21 22  1  0  0  0  0
 22 23  2  0  0  0  0
 22 24  1  0  0  0  0
 31 34  1  0  0  0  0
  8 11  1  0  0  0  0
 40 41  1  0  0  0  0
 18 21  1  0  0  0  0
 30 31  1  0  0  0  0
  7  8  1  0  0  0  0
 17 18  1  0  0  0  0
  3  4  1  0  0  0  0
  3  5  1  0  0  0  0
  3  6  1  0  0  0  0
 34 37  1  0  0  0  0
 34 38  1  0  0  0  0
 34 39  1  0  0  0  0
 11 14  1  0  0  0  0
 11 15  1  0  0  0  0
 11 16  1  0  0  0  0
 41 43  1  0  0  0  0
 41 44  1  0  0  0  0
 41 45  1  0  0  0  0
 21 27  1  0  0  0  0
 21 28  1  0  0  0  0
 31 36  1  0  0  0  0
  8 13  1  0  0  0  0
 18 26  1  0  0  0  0
 40 42  1  0  0  0  0
  7 12  1  0  0  0  0
 30 35  1  0  0  0  0
 17 25  1  0  0  0  0
 24 29  1  0  0  0  0
M  END
$$$$

  -OEChem-05262214473D

 45 44  0     1  0  0  0  0  0999 V2000
   -2.2987    4.1032   -0.3022 C   0  0  0  0  0  0  0  0  0  0  0  0
   -1.8049    3.7117   -1.3532 O   0  0  0  0  0  0  0  0  0  0  0  0
   -3.0791    5.3755   -0.2846 C   0  0  0  0  0  0  0  0  0  0  0  0
   -2.4478    6.2532   -0.0717 H   0  0  0  0  0  0  0  0  0  0  0  0
   -3.5571    5.5891   -1.2541 H   0  0  0  0  0  0  0  0  0  0  0  0
   -3.8940    5.4184    0.4556 H   0  0  0  0  0  0  0  0  0  0  0  0
   -2.2137    3.4712    0.9275 N   0  0  0  0  0  0  0  0  0  0  0  0
   -1.5102    2.2327    1.1338 C   0  0  2  0  0  0  0  0  0  0  0  0
   -1.3539    1.5497   -0.2184 C   0  0  0  0  0  0  0  0  0  0  0  0
   -2.0852    1.7861   -1.1778 O   0  0  0  0  0  0  0  0  0  0  0  0
   -2.2477    1.3342    2.1145 C   0  0  0  0  0  0  0  0  0  0  0  0
   -2.6724    3.9052    1.7265 H   0  0  0  0  0  0  0  0  0  0  0  0
   -0.5220    2.4922    1.5290 H   0  0  0  0  0  0  0  0  0  0  0  0
   -3.2400    1.0636    1.7358 H   0  0  0  0  0  0  0  0  0  0  0  0
   -1.6970    0.4046    2.2923 H   0  0  0  0  0  0  0  0  0  0  0  0
   -2.3854    1.8384    3.0772 H   0  0  0  0  0  0  0  0  0  0  0  0
   -0.3283    0.6116   -0.2182 N   0  0  0  0  0  0  0  0  0  0  0  0
    0.0090   -0.1762   -1.3759 C   0  0  2  0  0  0  0  0  0  0  0  0
    0.0344    0.7549   -2.5813 C   0  0  0  0  0  0  0  0  0  0  0  0
    0.1036    1.9782   -2.4809 O   0  0  0  0  0  0  0  0  0  0  0  0
   -0.9777   -1.3202   -1.5946 C   0  0  0  0  0  0  0  0  0  0  0  0
   -0.8485   -2.3682   -0.5167 C   0  0  0  0  0  0  0  0  0  0  0  0
    0.1908   -2.6069    0.0845 O   0  0  0  0  0  0  0  0  0  0  0  0
   -2.0089   -3.0340   -0.2955 O   0  0  0  0  0  0  0  0  0  0  0  0
    0.2381    0.4970    0.6194 H   0  0  0  0  0  0  0  0  0  0  0  0
    1.0214   -0.5601   -1.2018 H   0  0  0  0  0  0  0  0  0  0  0  0
   -2.0141   -0.9612   -1.5603 H   0  0  0  0  0  0  0  0  0  0  0  0
   -0.8602   -1.7907   -2.5783 H   0  0  0  0  0  0  0  0  0  0  0  0
   -1.9608   -3.7332    0.3911 H   0  0  0  0  0  0  0  0  0  0  0  0
    0.0189    0.0575   -3.7812 N   0  0  0  0  0  0  0  0  0  0  0  0
    0.0515    0.7164   -5.0660 C   0  0  2  0  0  0  0  0  0  0  0  0
    1.4132    1.3809   -5.2194 C   0  0  0  0  0  0  0  0  0  0  0  0
    2.1252    1.6800   -4.2630 O   0  0  0  0  0  0  0  0  0  0  0  0
   -1.0688    1.7369   -5.1931 C   0  0  0  0  0  0  0  0  0  0  0  0
   -0.0168   -0.9572   -3.7546 H   0  0  0  0  0  0  0  0  0  0  0  0
   -0.0617   -0.0653   -5.8252 H   0  0  0  0  0  0  0  0  0  0  0  0
   -0.9723    2.5280   -4.4406 H   0  0  0  0  0  0  0  0  0  0  0  0
   -1.0602    2.2150   -6.1782 H   0  0  0  0  0  0  0  0  0  0  0  0
   -2.0461    1.2624   -5.0529 H   0  0  0  0  0  0  0  0  0  0  0  0
    1.7208    1.6400   -6.5477 N   0  0  0  0  0  0  0  0  0  0  0  0
    2.9522    2.2768   -6.9529 C   0  0  0  0  0  0  0  0  0  0  0  0
    1.0800    1.3405   -7.2766 H   0  0  0  0  0  0  0  0  0  0  0  0
    2.7973    3.3635   -7.0245 H   0  0  0  0  0  0  0  0  0  0  0  0
    3.7355    2.0664   -6.2098 H   0  0  0  0  0  0  0  0  0  0  0  0
    3.2620    1.8854   -7.9331 H   0  0  0  0  0  0  0  0  0  0  0  0
  1  3  1  0  0  0  0
  1  7  1  0  0  0  0
  1  2  2  0  0  0  0
 31 32  1  0  0  0  0
 32 40  1  0  0  0  0
 32 33  2  0  0  0  0
  8  9  1  0  0  0  0
  9 17  1  0  0  0  0
  9 10  2  0  0  0  0
 18 19  1  0  0  0  0
 19 30  1  0  0  0  0
 19 20  2  0  0  0  0
 21 22  1  0  0  0  0
 22 23  2  0  0  0  0
 22 24  1  0  0  0  0
 31 34  1  0  0  0  0
  8 11  1  0  0  0  0
 40 41  1  0  0  0  0
 18 21  1  0  0  0  0
 30 31  1  0  0  0  0
  7  8  1  0  0  0  0
 17 18  1  0  0  0  0
  3  4  1  0  0  0  0
  3  5  1  0  0  0  0
  3  6  1  0  0  0  0
 34 37  1  0  0  0  0
 34 38  1  0  0  0  0
 34 39  1  0  0  0  0
 11 14  1  0  0  0  0
 11 15  1  0  0  0  0
 11 16  1  0  0  0  0
 41 43  1  0  0  0  0
 41 44  1  0  0  0  0
 41 45  1  0  0  0  0
 21 27  1  0  0  0  0
 21 28  1  0  0  0  0
 31 36  1  0  0  0  0
  8 13  1  0  0  0  0
 18 26  1  0  0  0  0
 40 42  1  0  0  0  0
  7 12  1  0  0  0  0
 30 35  1  0  0  0  0
 17 25  1  0  0  0  0
 24 29  1  0  0  0  0
M  END
$$$$

  -OEChem-05262214473D

 45 44  0     1  0  0  0  0  0999 V2000
   -2.2987    4.1032   -0.3022 C   0  0  0  0  0  0  0  0  0  0  0  0
   -1.8049    3.7117   -1.3532 O   0  0  0  0  0  0  0  0  0  0  0  0
   -3.0791    5.3755   -0.2846 C   0  0  0  0  0  0  0  0  0  0  0  0
   -2.4478    6.2532   -0.0717 H   0  0  0  0  0  0  0  0  0  0  0  0
   -3.5571    5.5891   -1.2541 H   0  0  0  0  0  0  0  0  0  0  0  0
   -3.8940    5.4184    0.4556 H   0  0  0  0  0  0  0  0  0  0  0  0
   -2.2137    3.4712    0.9275 N   0  0  0  0  0  0  0  0  0  0  0  0
   -1.5102    2.2327    1.1338 C   0  0  2  0  0  0  0  0  0  0  0  0
   -1.3539    1.5497   -0.2184 C   0  0  0  0  0  0  0  0  0  0  0  0
   -2.0852    1.7861   -1.1778 O   0  0  0  0  0  0  0  0  0  0  0  0
   -2.2477    1.3342    2.1145 C   0  0  0  0  0  0  0  0  0  0  0  0
   -2.6724    3.9052    1.7265 H   0  0  0  0  0  0  0  0  0  0  0  0
   -0.5220    2.4922    1.5290 H   0  0  0  0  0  0  0  0  0  0  0  0
   -3.2400    1.0636    1.7358 H   0  0  0  0  0  0  0  0  0  0  0  0
   -1.6970    0.4046    2.2923 H   0  0  0  0  0  0  0  0  0  0  0  0
   -2.3854    1.8384    3.0772 H   0  0  0  0  0  0  0  0  0  0  0  0
   -0.3283    0.6116   -0.2182 N   0  0  0  0  0  0  0  0  0  0  0  0
    0.0090   -0.1762   -1.3759 C   0  0  2  0  0  0  0  0  0  0  0  0
    0.0344    0.7549   -2.5813 C   0  0  0  0  0  0  0  0  0  0  0  0
    0.3681    1.9358   -2.5081 O   0  0  0  0  0  0  0  0  0  0  0  0
   -0.9777   -1.3202   -1.5946 C   0  0  0  0  0  0  0  0  0  0  0  0
   -0.8485   -2.3682   -0.5167 C   0  0  0  0  0  0  0  0  0  0  0  0
    0.1908   -2.6069    0.0845 O   0  0  0  0  0  0  0  0  0  0  0  0
   -2.0089   -3.0340   -0.2955 O   0  0  0  0  0  0  0  0  0  0  0  0
    0.2381    0.4970    0.6194 H   0  0  0  0  0  0  0  0  0  0  0  0
    1.0214   -0.5601   -1.2018 H   0  0  0  0  0  0  0  0  0  0  0  0
   -2.0141   -0.9612   -1.5603 H   0  0  0  0  0  0  0  0  0  0  0  0
   -0.8602   -1.7907   -2.5783 H   0  0  0  0  0  0  0  0  0  0  0  0
   -1.9608   -3.7332    0.3911 H   0  0  0  0  0  0  0  0  0  0  0  0
   -0.3129    0.1005   -3.7549 N   0  0  0  0  0  0  0  0  0  0  0  0
   -0.3490    0.7653   -5.0366 C   0  0  2  0  0  0  0  0  0  0  0  0
    1.0785    1.1405   -5.4121 C   0  0  0  0  0  0  0  0  0  0  0  0
    1.9784    1.2677   -4.5845 O   0  0  0  0  0  0  0  0  0  0  0  0
   -1.2418    1.9958   -4.9968 C   0  0  0  0  0  0  0  0  0  0  0  0
   -0.5514   -0.8859   -3.7107 H   0  0  0  0  0  0  0  0  0  0  0  0
   -0.7384    0.0393   -5.7586 H   0  0  0  0  0  0  0  0  0  0  0  0
   -0.8675    2.7346   -4.2788 H   0  0  0  0  0  0  0  0  0  0  0  0
   -1.2908    2.4824   -5.9765 H   0  0  0  0  0  0  0  0  0  0  0  0
   -2.2610    1.7283   -4.6976 H   0  0  0  0  0  0  0  0  0  0  0  0
    1.2193    1.3587   -6.7755 N   0  0  0  0  0  0  0  0  0  0  0  0
    2.4754    1.7387   -7.3786 C   0  0  0  0  0  0  0  0  0  0  0  0
    0.4238    1.2118   -7.3898 H   0  0  0  0  0  0  0  0  0  0  0  0
    2.5374    2.8353   -7.4379 H   0  0  0  0  0  0  0  0  0  0  0  0
    3.3061    1.3571   -6.7667 H   0  0  0  0  0  0  0  0  0  0  0  0
    2.5398    1.3126   -8.3907 H   0  0  0  0  0  0  0  0  0  0  0  0
  1  3  1  0  0  0  0
  1  7  1  0  0  0  0
  1  2  2  0  0  0  0
 31 32  1  0  0  0  0
 32 40  1  0  0  0  0
 32 33  2  0  0  0  0
  8  9  1  0  0  0  0
  9 17  1  0  0  0  0
  9 10  2  0  0  0  0
 18 19  1  0  0  0  0
 19 30  1  0  0  0  0
 19 20  2  0  0  0  0
 21 22  1  0  0  0  0
 22 23  2  0  0  0  0
 22 24  1  0  0  0  0
 31 34  1  0  0  0  0
  8 11  1  0  0  0  0
 40 41  1  0  0  0  0
 18 21  1  0  0  0  0
 30 31  1  0  0  0  0
  7  8  1  0  0  0  0
 17 18  1  0  0  0  0
  3  4  1  0  0  0  0
  3  5  1  0  0  0  0
  3  6  1  0  0  0  0
 34 37  1  0  0  0  0
 34 38  1  0  0  0  0
 34 39  1  0  0  0  0
 11 14  1  0  0  0  0
 11 15  1  0  0  0  0
 11 16  1  0  0  0  0
 41 43  1  0  0  0  0
 41 44  1  0  0  0  0
 41 45  1  0  0  0  0
 21 27  1  0  0  0  0
 21 28  1  0  0  0  0
 31 36  1  0  0  0  0
  8 13  1  0  0  0  0
 18 26  1  0  0  0  0
 40 42  1  0  0  0  0
  7 12  1  0  0  0  0
 30 35  1  0  0  0  0
 17 25  1  0  0  0  0
 24 29  1  0  0  0  0
M  END
$$$$

  -OEChem-05262214473D

 45 44  0     1  0  0  0  0  0999 V2000
   -2.2987    4.1032   -0.3022 C   0  0  0  0  0  0  0  0  0  0  0  0
   -1.8049    3.7117   -1.3532 O   0  0  0  0  0  0  0  0  0  0  0  0
   -3.0791    5.3755   -0.2846 C   0  0  0  0  0  0  0  0  0  0  0  0
   -2.4478    6.2532   -0.0717 H   0  0  0  0  0  0  0  0  0  0  0  0
   -3.5571    5.5891   -1.2541 H   0  0  0  0  0  0  0  0  0  0  0  0
   -3.8940    5.4184    0.4556 H   0  0  0  0  0  0  0  0  0  0  0  0
   -2.2137    3.4712    0.9275 N   0  0  0  0  0  0  0  0  0  0  0  0
   -1.5102    2.2327    1.1338 C   0  0  2  0  0  0  0  0  0  0  0  0
   -1.3539    1.5497   -0.2184 C   0  0  0  0  0  0  0  0  0  0  0  0
   -2.0852    1.7861   -1.1778 O   0  0  0  0  0  0  0  0  0  0  0  0
   -2.2477    1.3342    2.1145 C   0  0  0  0  0  0  0  0  0  0  0  0
   -2.6724    3.9052    1.7265 H   0  0  0  0  0  0  0  0  0  0  0  0
   -0.5220    2.4922    1.5290 H   0  0  0  0  0  0  0  0  0  0  0  0
   -3.2400    1.0636    1.7358 H   0  0  0  0  0  0  0  0  0  0  0  0
   -1.6970    0.4046    2.2923 H   0  0  0  0  0  0  0  0  0  0  0  0
   -2.3854    1.8384    3.0772 H   0  0  0  0  0  0  0  0  0  0  0  0
   -0.3283    0.6116   -0.2182 N   0  0  0  0  0  0  0  0  0  0  0  0
    0.0090   -0.1762   -1.3759 C   0  0  2  0  0  0  0  0  0  0  0  0
    0.0344    0.7549   -2.5813 C   0  0  0  0  0  0  0  0  0  0  0  0
    0.6105    1.8409   -2.5764 O   0  0  0  0  0  0  0  0  0  0  0  0
   -0.9777   -1.3202   -1.5946 C   0  0  0  0  0  0  0  0  0  0  0  0
   -0.8485   -2.3682   -0.5167 C   0  0  0  0  0  0  0  0  0  0  0  0
    0.1908   -2.6069    0.0845 O   0  0  0  0  0  0  0  0  0  0  0  0
   -2.0089   -3.0340   -0.2955 O   0  0  0  0  0  0  0  0  0  0  0  0
    0.2381    0.4970    0.6194 H   0  0  0  0  0  0  0  0  0  0  0  0
    1.0214   -0.5601   -1.2018 H   0  0  0  0  0  0  0  0  0  0  0  0
   -2.0141   -0.9612   -1.5603 H   0  0  0  0  0  0  0  0  0  0  0  0
   -0.8602   -1.7907   -2.5783 H   0  0  0  0  0  0  0  0  0  0  0  0
   -1.9608   -3.7332    0.3911 H   0  0  0  0  0  0  0  0  0  0  0  0
   -0.6205    0.2099   -3.6769 N   0  0  0  0  0  0  0  0  0  0  0  0
   -0.7211    0.8945   -4.9446 C   0  0  2  0  0  0  0  0  0  0  0  0
    0.6755    0.9777   -5.5464 C   0  0  0  0  0  0  0  0  0  0  0  0
    1.7014    0.9009   -4.8737 O   0  0  0  0  0  0  0  0  0  0  0  0
   -1.3248    2.2804   -4.7786 C   0  0  0  0  0  0  0  0  0  0  0  0
   -1.0462   -0.7076   -3.5834 H   0  0  0  0  0  0  0  0  0  0  0  0
   -1.3601    0.2786   -5.5868 H   0  0  0  0  0  0  0  0  0  0  0  0
   -0.6984    2.9120   -4.1382 H   0  0  0  0  0  0  0  0  0  0  0  0
   -1.4268    2.7870   -5.7441 H   0  0  0  0  0  0  0  0  0  0  0  0
   -2.3169    2.2208   -4.3183 H   0  0  0  0  0  0  0  0  0  0  0  0
    0.6412    1.1908   -6.9174 N   0  0  0  0  0  0  0  0  0  0  0  0
    1.8373    1.3183   -7.7167 C   0  0  0  0  0  0  0  0  0  0  0  0
   -0.2543    1.2224   -7.3959 H   0  0  0  0  0  0  0  0  0  0  0  0
    2.1128    2.3801   -7.7985 H   0  0  0  0  0  0  0  0  0  0  0  0
    2.6579    0.7624   -7.2397 H   0  0  0  0  0  0  0  0  0  0  0  0
    1.6524    0.9093   -8.7210 H   0  0  0  0  0  0  0  0  0  0  0  0
  1  3  1  0  0  0  0
  1  7  1  0  0  0  0
  1  2  2  0  0  0  0
 31 32  1  0  0  0  0
 32 40  1  0  0  0  0
 32 33  2  0  0  0  0
  8  9  1  0  0  0  0
  9 17  1  0  0  0  0
  9 10  2  0  0  0  0
 18 19  1  0  0  0  0
 19 30  1  0  0  0  0
 19 20  2  0  0  0  0
 21 22  1  0  0  0  0
 22 23  2  0  0  0  0
 22 24  1  0  0  0  0
 31 34  1  0  0  0  0
  8 11  1  0  0  0  0
 40 41  1  0  0  0  0
 18 21  1  0  0  0  0
 30 31  1  0  0  0  0
  7  8  1  0  0  0  0
 17 18  1  0  0  0  0
  3  4  1  0  0  0  0
  3  5  1  0  0  0  0
  3  6  1  0  0  0  0
 34 37  1  0  0  0  0
 34 38  1  0  0  0  0
 34 39  1  0  0  0  0
 11 14  1  0  0  0  0
 11 15  1  0  0  0  0
 11 16  1  0  0  0  0
 41 43  1  0  0  0  0
 41 44  1  0  0  0  0
 41 45  1  0  0  0  0
 21 27  1  0  0  0  0
 21 28  1  0  0  0  0
 31 36  1  0  0  0  0
  8 13  1  0  0  0  0
 18 26  1  0  0  0  0
 40 42  1  0  0  0  0
  7 12  1  0  0  0  0
 30 35  1  0  0  0  0
 17 25  1  0  0  0  0
 24 29  1  0  0  0  0
M  END
$$$$

  -OEChem-05262214473D

 45 44  0     1  0  0  0  0  0999 V2000
   -2.2987    4.1032   -0.3022 C   0  0  0  0  0  0  0  0  0  0  0  0
   -1.8049    3.7117   -1.3532 O   0  0  0  0  0  0  0  0  0  0  0  0
   -3.0791    5.3755   -0.2846 C   0  0  0  0  0  0  0  0  0  0  0  0
   -2.4478    6.2532   -0.0717 H   0  0  0  0  0  0  0  0  0  0  0  0
   -3.5571    5.5891   -1.2541 H   0  0  0  0  0  0  0  0  0  0  0  0
   -3.8940    5.4184    0.4556 H   0  0  0  0  0  0  0  0  0  0  0  0
   -2.2137    3.4712    0.9275 N   0  0  0  0  0  0  0  0  0  0  0  0
   -1.5102    2.2327    1.1338 C   0  0  2  0  0  0  0  0  0  0  0  0
   -1.3539    1.5497   -0.2184 C   0  0  0  0  0  0  0  0  0  0  0  0
   -2.0852    1.7861   -1.1778 O   0  0  0  0  0  0  0  0  0  0  0  0
   -2.2477    1.3342    2.1145 C   0  0  0  0  0  0  0  0  0  0  0  0
   -2.6724    3.9052    1.7265 H   0  0  0  0  0  0  0  0  0  0  0  0
   -0.5220    2.4922    1.5290 H   0  0  0  0  0  0  0  0  0  0  0  0
   -3.2400    1.0636    1.7358 H   0  0  0  0  0  0  0  0  0  0  0  0
   -1.6970    0.4046    2.2923 H   0  0  0  0  0  0  0  0  0  0  0  0
   -2.3854    1.8384    3.0772 H   0  0  0  0  0  0  0  0  0  0  0  0
   -0.3283    0.6116   -0.2182 N   0  0  0  0  0  0  0  0  0  0  0  0
    0.0090   -0.1762   -1.3759 C   0  0  2  0  0  0  0  0  0  0  0  0
    0.0344    0.7549   -2.5813 C   0  0  0  0  0  0  0  0  0  0  0  0
    0.8144    1.6998   -2.6810 O   0  0  0  0  0  0  0  0  0  0  0  0
   -0.9777   -1.3202   -1.5946 C   0  0  0  0  0  0  0  0  0  0  0  0
   -0.8485   -2.3682   -0.5167 C   0  0  0  0  0  0  0  0  0  0  0  0
    0.1908   -2.6069    0.0845 O   0  0  0  0  0  0  0  0  0  0  0  0
   -2.0089   -3.0340   -0.2955 O   0  0  0  0  0  0  0  0  0  0  0  0
    0.2381    0.4970    0.6194 H   0  0  0  0  0  0  0  0  0  0  0  0
    1.0214   -0.5601   -1.2018 H   0  0  0  0  0  0  0  0  0  0  0  0
   -2.0141   -0.9612   -1.5603 H   0  0  0  0  0  0  0  0  0  0  0  0
   -0.8602   -1.7907   -2.5783 H   0  0  0  0  0  0  0  0  0  0  0  0
   -1.9608   -3.7332    0.3911 H   0  0  0  0  0  0  0  0  0  0  0  0
   -0.8828    0.3782   -3.5524 N   0  0  0  0  0  0  0  0  0  0  0  0
   -1.0395    1.0951   -4.7964 C   0  0  2  0  0  0  0  0  0  0  0  0
    0.2316    0.9035   -5.6131 C   0  0  0  0  0  0  0  0  0  0  0  0
    1.3130    0.6046   -5.1107 O   0  0  0  0  0  0  0  0  0  0  0  0
   -1.3122    2.5714   -4.5536 C   0  0  0  0  0  0  0  0  0  0  0  0
   -1.4675   -0.4346   -3.3814 H   0  0  0  0  0  0  0  0  0  0  0  0
   -1.8844    0.6364   -5.3215 H   0  0  0  0  0  0  0  0  0  0  0  0
   -0.4765    3.0482   -4.0283 H   0  0  0  0  0  0  0  0  0  0  0  0
   -1.4591    3.1081   -5.4967 H   0  0  0  0  0  0  0  0  0  0  0  0
   -2.2101    2.7063   -3.9410 H   0  0  0  0  0  0  0  0  0  0  0  0
    0.0259    1.1476   -6.9637 N   0  0  0  0  0  0  0  0  0  0  0  0
    1.0814    1.0444   -7.9442 C   0  0  0  0  0  0  0  0  0  0  0  0
   -0.9080    1.3715   -7.2945 H   0  0  0  0  0  0  0  0  0  0  0  0
    1.5524    2.0290   -8.0815 H   0  0  0  0  0  0  0  0  0  0  0  0
    1.8352    0.3227   -7.5967 H   0  0  0  0  0  0  0  0  0  0  0  0
    0.6604    0.7028   -8.9013 H   0  0  0  0  0  0  0  0  0  0  0  0
  1  3  1  0  0  0  0
  1  7  1  0  0  0  0
  1  2  2  0  0  0  0
 31 32  1  0  0  0  0
 32 40  1  0  0  0  0
 32 33  2  0  0  0  0
  8  9  1  0  0  0  0
  9 17  1  0  0  0  0
  9 10  2  0  0  0  0
 18 19  1  0  0  0  0
 19 30  1  0  0  0  0
 19 20  2  0  0  0  0
 21 22  1  0  0  0  0
 22 23  2  0  0  0  0
 22 24  1  0  0  0  0
 31 34  1  0  0  0  0
  8 11  1  0  0  0  0
 40 41  1  0  0  0  0
 18 21  1  0  0  0  0
 30 31  1  0  0  0  0
  7  8  1  0  0  0  0
 17 18  1  0  0  0  0
  3  4  1  0  0  0  0
  3  5  1  0  0  0  0
  3  6  1  0  0  0  0
 34 37  1  0  0  0  0
 34 38  1  0  0  0  0
 34 39  1  0  0  0  0
 11 14  1  0  0  0  0
 11 15  1  0  0  0  0
 11 16  1  0  0  0  0
 41 43  1  0  0  0  0
 41 44  1  0  0  0  0
 41 45  1  0  0  0  0
 21 27  1  0  0  0  0
 21 28  1  0  0  0  0
 31 36  1  0  0  0  0
  8 13  1  0  0  0  0
 18 26  1  0  0  0  0
 40 42  1  0  0  0  0
  7 12  1  0  0  0  0
 30 35  1  0  0  0  0
 17 25  1  0  0  0  0
 24 29  1  0  0  0  0
M  END
$$$$

  -OEChem-05262214473D

 45 44  0     1  0  0  0  0  0999 V2000
   -2.2987    4.1032   -0.3022 C   0  0  0  0  0  0  0  0  0  0  0  0
   -1.8049    3.7117   -1.3532 O   0  0  0  0  0  0  0  0  0  0  0  0
   -3.0791    5.3755   -0.2846 C   0  0  0  0  0  0  0  0  0  0  0  0
   -2.4478    6.2532   -0.0717 H   0  0  0  0  0  0  0  0  0  0  0  0
   -3.5571    5.5891   -1.2541 H   0  0  0  0  0  0  0  0  0  0  0  0
   -3.8940    5.4184    0.4556 H   0  0  0  0  0  0  0  0  0  0  0  0
   -2.2137    3.4712    0.9275 N   0  0  0  0  0  0  0  0  0  0  0  0
   -1.5102    2.2327    1.1338 C   0  0  2  0  0  0  0  0  0  0  0  0
   -1.3539    1.5497   -0.2184 C   0  0  0  0  0  0  0  0  0  0  0  0
   -2.0852    1.7861   -1.1778 O   0  0  0  0  0  0  0  0  0  0  0  0
   -2.2477    1.3342    2.1145 C   0  0  0  0  0  0  0  0  0  0  0  0
   -2.6724    3.9052    1.7265 H   0  0  0  0  0  0  0  0  0  0  0  0
   -0.5220    2.4922    1.5290 H   0  0  0  0  0  0  0  0  0  0  0  0
   -3.2400    1.0636    1.7358 H   0  0  0  0  0  0  0  0  0  0  0  0
   -1.6970    0.4046    2.2923 H   0  0  0  0  0  0  0  0  0  0  0  0
   -2.3854    1.8384    3.0772 H   0  0  0  0  0  0  0  0  0  0  0  0
   -0.3283    0.6116   -0.2182 N   0  0  0  0  0  0  0  0  0  0  0  0
    0.0090   -0.1762   -1.3759 C   0  0  2  0  0  0  0  0  0  0  0  0
    0.0344    0.7549   -2.5813 C   0  0  0  0  0  0  0  0  0  0  0  0
    0.9660    1.5222   -2.8150 O   0  0  0  0  0  0  0  0  0  0  0  0
   -0.9777   -1.3202   -1.5946 C   0  0  0  0  0  0  0  0  0  0  0  0
   -0.8485   -2.3682   -0.5167 C   0  0  0  0  0  0  0  0  0  0  0  0
    0.1908   -2.6069    0.0845 O   0  0  0  0  0  0  0  0  0  0  0  0
   -2.0089   -3.0340   -0.2955 O   0  0  0  0  0  0  0  0  0  0  0  0
    0.2381    0.4970    0.6194 H   0  0  0  0  0  0  0  0  0  0  0  0
    1.0214   -0.5601   -1.2018 H   0  0  0  0  0  0  0  0  0  0  0  0
   -2.0141   -0.9612   -1.5603 H   0  0  0  0  0  0  0  0  0  0  0  0
   -0.8602   -1.7907   -2.5783 H   0  0  0  0  0  0  0  0  0  0  0  0
   -1.9608   -3.7332    0.3911 H   0  0  0  0  0  0  0  0  0  0  0  0
   -1.0820    0.5939   -3.3900 N   0  0  0  0  0  0  0  0  0  0  0  0
   -1.2826    1.3535   -4.6019 C   0  0  2  0  0  0  0  0  0  0  0  0
   -0.2229    0.9230   -5.6075 C   0  0  0  0  0  0  0  0  0  0  0  0
    0.8396    0.3990   -5.2795 O   0  0  0  0  0  0  0  0  0  0  0  0
   -1.2048    2.8490   -4.3370 C   0  0  0  0  0  0  0  0  0  0  0  0
   -1.7866   -0.0856   -3.1185 H   0  0  0  0  0  0  0  0  0  0  0  0
   -2.2756    1.0882   -4.9808 H   0  0  0  0  0  0  0  0  0  0  0  0
   -0.2170    3.1338   -3.9568 H   0  0  0  0  0  0  0  0  0  0  0  0
   -1.3854    3.4238   -5.2513 H   0  0  0  0  0  0  0  0  0  0  0  0
   -1.9478    3.1518   -3.5913 H   0  0  0  0  0  0  0  0  0  0  0  0
   -0.5846    1.2320   -6.9113 N   0  0  0  0  0  0  0  0  0  0  0  0
    0.2591    0.9357   -8.0455 C   0  0  0  0  0  0  0  0  0  0  0  0
   -1.4929    1.6490   -7.0924 H   0  0  0  0  0  0  0  0  0  0  0  0
    0.8944    1.8057   -8.2678 H   0  0  0  0  0  0  0  0  0  0  0  0
    0.8940    0.0680   -7.8132 H   0  0  0  0  0  0  0  0  0  0  0  0
   -0.3686    0.7073   -8.9195 H   0  0  0  0  0  0  0  0  0  0  0  0
  1  3  1  0  0  0  0
  1  7  1  0  0  0  0
  1  2  2  0  0  0  0
 31 32  1  0  0  0  0
 32 40  1  0  0  0  0
 32 33  2  0  0  0  0
  8  9  1  0  0  0  0
  9 17  1  0  0  0  0
  9 10  2  0  0  0  0
 18 19  1  0  0  0  0
 19 30  1  0  0  0  0
 19 20  2  0  0  0  0
 21 22  1  0  0  0  0
 22 23  2  0  0  0  0
 22 24  1  0  0  0  0
 31 34  1  0  0  0  0
  8 11  1  0  0  0  0
 40 41  1  0  0  0  0
 18 21  1  0  0  0  0
 30 31  1  0  0  0  0
  7  8  1  0  0  0  0
 17 18  1  0  0  0  0
  3  4  1  0  0  0  0
  3  5  1  0  0  0  0
  3  6  1  0  0  0  0
 34 37  1  0  0  0  0
 34 38  1  0  0  0  0
 34 39  1  0  0  0  0
 11 14  1  0  0  0  0
 11 15  1  0  0  0  0
 11 16  1  0  0  0  0
 41 43  1  0  0  0  0
 41 44  1  0  0  0  0
 41 45  1  0  0  0  0
 21 27  1  0  0  0  0
 21 28  1  0  0  0  0
 31 36  1  0  0  0  0
  8 13  1  0  0  0  0
 18 26  1  0  0  0  0
 40 42  1  0  0  0  0
  7 12  1  0  0  0  0
 30 35  1  0  0  0  0
 17 25  1  0  0  0  0
 24 29  1  0  0  0  0
M  END
$$$$

  -OEChem-05262214473D

 45 44  0     1  0  0  0  0  0999 V2000
   -2.2987    4.1032   -0.3022 C   0  0  0  0  0  0  0  0  0  0  0  0
   -1.8049    3.7117   -1.3532 O   0  0  0  0  0  0  0  0  0  0  0  0
   -3.0791    5.3755   -0.2846 C   0  0  0  0  0  0  0  0  0  0  0  0
   -2.4478    6.2532   -0.0717 H   0  0  0  0  0  0  0  0  0  0  0  0
   -3.5571    5.5891   -1.2541 H   0  0  0  0  0  0  0  0  0  0  0  0
   -3.8940    5.4184    0.4556 H   0  0  0  0  0  0  0  0  0  0  0  0
   -2.2137    3.4712    0.9275 N   0  0  0  0  0  0  0  0  0  0  0  0
   -1.5102    2.2327    1.1338 C   0  0  2  0  0  0  0  0  0  0  0  0
   -1.3539    1.5497   -0.2184 C   0  0  0  0  0  0  0  0  0  0  0  0
   -2.0852    1.7861   -1.1778 O   0  0  0  0  0  0  0  0  0  0  0  0
   -2.2477    1.3342    2.1145 C   0  0  0  0  0  0  0  0  0  0  0  0
   -2.6724    3.9052    1.7265 H   0  0  0  0  0  0  0  0  0  0  0  0
   -0.5220    2.4922    1.5290 H   0  0  0  0  0  0  0  0  0  0  0  0
   -3.2400    1.0636    1.7358 H   0  0  0  0  0  0  0  0  0  0  0  0
   -1.6970    0.4046    2.2923 H   0  0  0  0  0  0  0  0  0  0  0  0
   -2.3854    1.8384    3.0772 H   0  0  0  0  0  0  0  0  0  0  0  0
   -0.3283    0.6116   -0.2182 N   0  0  0  0  0  0  0  0  0  0  0  0
    0.0090   -0.1762   -1.3759 C   0  0  2  0  0  0  0  0  0  0  0  0
    0.0344    0.7549   -2.5813 C   0  0  0  0  0  0  0  0  0  0  0  0
    1.0548    1.3202   -2.9692 O   0  0  0  0  0  0  0  0  0  0  0  0
   -0.9777   -1.3202   -1.5946 C   0  0  0  0  0  0  0  0  0  0  0  0
   -0.8485   -2.3682   -0.5167 C   0  0  0  0  0  0  0  0  0  0  0  0
    0.1908   -2.6069    0.0845 O   0  0  0  0  0  0  0  0  0  0  0  0
   -2.0089   -3.0340   -0.2955 O   0  0  0  0  0  0  0  0  0  0  0  0
    0.2381    0.4970    0.6194 H   0  0  0  0  0  0  0  0  0  0  0  0
    1.0214   -0.5601   -1.2018 H   0  0  0  0  0  0  0  0  0  0  0  0
   -2.0141   -0.9612   -1.5603 H   0  0  0  0  0  0  0  0  0  0  0  0
   -0.8602   -1.7907   -2.5783 H   0  0  0  0  0  0  0  0  0  0  0  0
   -1.9608   -3.7332    0.3911 H   0  0  0  0  0  0  0  0  0  0  0  0
   -1.2046    0.8424   -3.2006 N   0  0  0  0  0  0  0  0  0  0  0  0
   -1.4337    1.6520   -4.3745 C   0  0  2  0  0  0  0  0  0  0  0  0
   -0.6570    1.0349   -5.5302 C   0  0  0  0  0  0  0  0  0  0  0  0
    0.3135    0.2981   -5.3685 O   0  0  0  0  0  0  0  0  0  0  0  0
   -1.0099    3.0941   -4.1435 C   0  0  0  0  0  0  0  0  0  0  0  0
   -1.9817    0.3158   -2.8125 H   0  0  0  0  0  0  0  0  0  0  0  0
   -2.5071    1.6032   -4.5878 H   0  0  0  0  0  0  0  0  0  0  0  0
    0.0626    3.1630   -3.9283 H   0  0  0  0  0  0  0  0  0  0  0  0
   -1.2106    3.7126   -5.0245 H   0  0  0  0  0  0  0  0  0  0  0  0
   -1.5479    3.5269   -3.2932 H   0  0  0  0  0  0  0  0  0  0  0  0
   -1.1487    1.4384   -6.7638 N   0  0  0  0  0  0  0  0  0  0  0  0
   -0.5734    0.9995   -8.0137 C   0  0  0  0  0  0  0  0  0  0  0  0
   -1.9691    2.0359   -6.8035 H   0  0  0  0  0  0  0  0  0  0  0  0
    0.1837    1.7257   -8.3446 H   0  0  0  0  0  0  0  0  0  0  0  0
   -0.1015    0.0157   -7.8746 H   0  0  0  0  0  0  0  0  0  0  0  0
   -1.3644    0.9225   -8.7743 H   0  0  0  0  0  0  0  0  0  0  0  0
  1  3  1  0  0  0  0
  1  7  1  0  0  0  0
  1  2  2  0  0  0  0
 31 32  1  0  0  0  0
 32 40  1  0  0  0  0
 32 33  2  0  0  0  0
  8  9  1  0  0  0  0
  9 17  1  0  0  0  0
  9 10  2  0  0  0  0
 18 19  1  0  0  0  0
 19 30  1  0  0  0  0
 19 20  2  0  0  0  0
 21 22  1  0  0  0  0
 22 23  2  0  0  0  0
 22 24  1  0  0  0  0
 31 34  1  0  0  0  0
  8 11  1  0  0  0  0
 40 41  1  0  0  0  0
 18 21  1  0  0  0  0
 30 31  1  0  0  0  0
  7  8  1  0  0  0  0
 17 18  1  0  0  0  0
  3  4  1  0  0  0  0
  3  5  1  0  0  0  0
  3  6  1  0  0  0  0
 34 37  1  0  0  0  0
 34 38  1  0  0  0  0
 34 39  1  0  0  0  0
 11 14  1  0  0  0  0
 11 15  1  0  0  0  0
 11 16  1  0  0  0  0
 41 43  1  0  0  0  0
 41 44  1  0  0  0  0
 41 45  1  0  0  0  0
 21 27  1  0  0  0  0
 21 28  1  0  0  0  0
 31 36  1  0  0  0  0
  8 13  1  0  0  0  0
 18 26  1  0  0  0  0
 40 42  1  0  0  0  0
  7 12  1  0  0  0  0
 30 35  1  0  0  0  0
 17 25  1  0  0  0  0
 24 29  1  0  0  0  0
M  END
$$$$

  -OEChem-05262214473D

 45 44  0     1  0  0  0  0  0999 V2000
   -2.2987    4.1032   -0.3022 C   0  0  0  0  0  0  0  0  0  0  0  0
   -1.8049    3.7117   -1.3532 O   0  0  0  0  0  0  0  0  0  0  0  0
   -3.0791    5.3755   -0.2846 C   0  0  0  0  0  0  0  0  0  0  0  0
   -2.4478    6.2532   -0.0717 H   0  0  0  0  0  0  0  0  0  0  0  0
   -3.5571    5.5891   -1.2541 H   0  0  0  0  0  0  0  0  0  0  0  0
   -3.8940    5.4184    0.4556 H   0  0  0  0  0  0  0  0  0  0  0  0
   -2.2137    3.4712    0.9275 N   0  0  0  0  0  0  0  0  0  0  0  0
   -1.5102    2.2327    1.1338 C   0  0  2  0  0  0  0  0  0  0  0  0
   -1.3539    1.5497   -0.2184 C   0  0  0  0  0  0  0  0  0  0  0  0
   -2.0852    1.7861   -1.1778 O   0  0  0  0  0  0  0  0  0  0  0  0
   -2.2477    1.3342    2.1145 C   0  0  0  0  0  0  0  0  0  0  0  0
   -2.6724    3.9052    1.7265 H   0  0  0  0  0  0  0  0  0  0  0  0
   -0.5220    2.4922    1.5290 H   0  0  0  0  0  0  0  0  0  0  0  0
   -3.2400    1.0636    1.7358 H   0  0  0  0  0  0  0  0  0  0  0  0
   -1.6970    0.4046    2.2923 H   0  0  0  0  0  0  0  0  0  0  0  0
   -2.3854    1.8384    3.0772 H   0  0  0  0  0  0  0  0  0  0  0  0
   -0.3283    0.6116   -0.2182 N   0  0  0  0  0  0  0  0  0  0  0  0
    0.0090   -0.1762   -1.3759 C   0  0  2  0  0  0  0  0  0  0  0  0
    0.0344    0.7549   -2.5813 C   0  0  0  0  0  0  0  0  0  0  0  0
    1.0748    1.1076   -3.1330 O   0  0  0  0  0  0  0  0  0  0  0  0
   -0.9777   -1.3202   -1.5946 C   0  0  0  0  0  0  0  0  0  0  0  0
   -0.8485   -2.3682   -0.5167 C   0  0  0  0  0  0  0  0  0  0  0  0
    0.1908   -2.6069    0.0845 O   0  0  0  0  0  0  0  0  0  0  0  0
   -2.0089   -3.0340   -0.2955 O   0  0  0  0  0  0  0  0  0  0  0  0
    0.2381    0.4970    0.6194 H   0  0  0  0  0  0  0  0  0  0  0  0
    1.0214   -0.5601   -1.2018 H   0  0  0  0  0  0  0  0  0  0  0  0
   -2.0141   -0.9612   -1.5603 H   0  0  0  0  0  0  0  0  0  0  0  0
   -0.8602   -1.7907   -2.5783 H   0  0  0  0  0  0  0  0  0  0  0  0
   -1.9608   -3.7332    0.3911 H   0  0  0  0  0  0  0  0  0  0  0  0
   -1.2421    1.1068   -2.9972 N   0  0  0  0  0  0  0  0  0  0  0  0
   -1.4825    1.9703   -4.1297 C   0  0  2  0  0  0  0  0  0  0  0  0
   -1.0412    1.2316   -5.3864 C   0  0  0  0  0  0  0  0  0  0  0  0
   -0.2294    0.3087   -5.3718 O   0  0  0  0  0  0  0  0  0  0  0  0
   -0.7409    3.2902   -3.9864 C   0  0  0  0  0  0  0  0  0  0  0  0
   -2.0395    0.7422   -2.4844 H   0  0  0  0  0  0  0  0  0  0  0  0
   -2.5630    2.1464   -4.1694 H   0  0  0  0  0  0  0  0  0  0  0  0
    0.3432    3.1338   -3.9450 H   0  0  0  0  0  0  0  0  0  0  0  0
   -0.9469    3.9549   -4.8319 H   0  0  0  0  0  0  0  0  0  0  0  0
   -1.0377    3.8061   -3.0668 H   0  0  0  0  0  0  0  0  0  0  0  0
   -1.6279    1.7526   -6.5311 N   0  0  0  0  0  0  0  0  0  0  0  0
   -1.3595    1.2315   -7.8511 C   0  0  0  0  0  0  0  0  0  0  0  0
   -2.3041    2.5060   -6.4475 H   0  0  0  0  0  0  0  0  0  0  0  0
   -0.5314    1.7943   -8.3067 H   0  0  0  0  0  0  0  0  0  0  0  0
   -1.0835    0.1693   -7.7766 H   0  0  0  0  0  0  0  0  0  0  0  0
   -2.2593    1.3336   -8.4755 H   0  0  0  0  0  0  0  0  0  0  0  0
  1  3  1  0  0  0  0
  1  7  1  0  0  0  0
  1  2  2  0  0  0  0
 31 32  1  0  0  0  0
 32 40  1  0  0  0  0
 32 33  2  0  0  0  0
  8  9  1  0  0  0  0
  9 17  1  0  0  0  0
  9 10  2  0  0  0  0
 18 19  1  0  0  0  0
 19 30  1  0  0  0  0
 19 20  2  0  0  0  0
 21 22  1  0  0  0  0
 22 23  2  0  0  0  0
 22 24  1  0  0  0  0
 31 34  1  0  0  0  0
  8 11  1  0  0  0  0
 40 41  1  0  0  0  0
 18 21  1  0  0  0  0
 30 31  1  0  0  0  0
  7  8  1  0  0  0  0
 17 18  1  0  0  0  0
  3  4  1  0  0  0  0
  3  5  1  0  0  0  0
  3  6  1  0  0  0  0
 34 37  1  0  0  0  0
 34 38  1  0  0  0  0
 34 39  1  0  0  0  0
 11 14  1  0  0  0  0
 11 15  1  0  0  0  0
 11 16  1  0  0  0  0
 41 43  1  0  0  0  0
 41 44  1  0  0  0  0
 41 45  1  0  0  0  0
 21 27  1  0  0  0  0
 21 28  1  0  0  0  0
 31 36  1  0  0  0  0
  8 13  1  0  0  0  0
 18 26  1  0  0  0  0
 40 42  1  0  0  0  0
  7 12  1  0  0  0  0
 30 35  1  0  0  0  0
 17 25  1  0  0  0  0
 24 29  1  0  0  0  0
M  END
$$$$

  -OEChem-05262214473D

 45 44  0     1  0  0  0  0  0999 V2000
   -2.2987    4.1032   -0.3022 C   0  0  0  0  0  0  0  0  0  0  0  0
   -1.8049    3.7117   -1.3532 O   0  0  0  0  0  0  0  0  0  0  0  0
   -3.0791    5.3755   -0.2846 C   0  0  0  0  0  0  0  0  0  0  0  0
   -2.4478    6.2532   -0.0717 H   0  0  0  0  0  0  0  0  0  0  0  0
   -3.5571    5.5891   -1.2541 H   0  0  0  0  0  0  0  0  0  0  0  0
   -3.8940    5.4184    0.4556 H   0  0  0  0  0  0  0  0  0  0  0  0
   -2.2137    3.4712    0.9275 N   0  0  0  0  0  0  0  0  0  0  0  0
   -1.5102    2.2327    1.1338 C   0  0  2  0  0  0  0  0  0  0  0  0
   -1.3539    1.5497   -0.2184 C   0  0  0  0  0  0  0  0  0  0  0  0
   -2.0852    1.7861   -1.1778 O   0  0  0  0  0  0  0  0  0  0  0  0
   -2.2477    1.3342    2.1145 C   0  0  0  0  0  0  0  0  0  0  0  0
   -2.6724    3.9052    1.7265 H   0  0  0  0  0  0  0  0  0  0  0  0
   -0.5220    2.4922    1.5290 H   0  0  0  0  0  0  0  0  0  0  0  0
   -3.2400    1.0636    1.7358 H   0  0  0  0  0  0  0  0  0  0  0  0
   -1.6970    0.4046    2.2923 H   0  0  0  0  0  0  0  0  0  0  0  0
   -2.3854    1.8384    3.0772 H   0  0  0  0  0  0  0  0  0  0  0  0
   -0.3283    0.6116   -0.2182 N   0  0  0  0  0  0  0  0  0  0  0  0
    0.0090   -0.1762   -1.3759 C   0  0  2  0  0  0  0  0  0  0  0  0
    0.0344    0.7549   -2.5813 C   0  0  0  0  0  0  0  0  0  0  0  0
    1.0247    0.8988   -3.2953 O   0  0  0  0  0  0  0  0  0  0  0  0
   -0.9777   -1.3202   -1.5946 C   0  0  0  0  0  0  0  0  0  0  0  0
   -0.8485   -2.3682   -0.5167 C   0  0  0  0  0  0  0  0  0  0  0  0
    0.1908   -2.6069    0.0845 O   0  0  0  0  0  0  0  0  0  0  0  0
   -2.0089   -3.0340   -0.2955 O   0  0  0  0  0  0  0  0  0  0  0  0
    0.2381    0.4970    0.6194 H   0  0  0  0  0  0  0  0  0  0  0  0
    1.0214   -0.5601   -1.2018 H   0  0  0  0  0  0  0  0  0  0  0  0
   -2.0141   -0.9612   -1.5603 H   0  0  0  0  0  0  0  0  0  0  0  0
   -0.8602   -1.7907   -2.5783 H   0  0  0  0  0  0  0  0  0  0  0  0
   -1.9608   -3.7332    0.3911 H   0  0  0  0  0  0  0  0  0  0  0  0
   -1.1921    1.3689   -2.7937 N   0  0  0  0  0  0  0  0  0  0  0  0
   -1.4258    2.2866   -3.8841 C   0  0  2  0  0  0  0  0  0  0  0  0
   -1.3493    1.4997   -5.1858 C   0  0  0  0  0  0  0  0  0  0  0  0
   -0.7521    0.4302   -5.2889 O   0  0  0  0  0  0  0  0  0  0  0  0
   -0.4161    3.4238   -3.8763 C   0  0  0  0  0  0  0  0  0  0  0  0
   -1.9562    1.1645   -2.1565 H   0  0  0  0  0  0  0  0  0  0  0  0
   -2.4396    2.6808   -3.7540 H   0  0  0  0  0  0  0  0  0  0  0  0
    0.6056    3.0482   -4.0055 H   0  0  0  0  0  0  0  0  0  0  0  0
   -0.6120    4.1340   -4.6865 H   0  0  0  0  0  0  0  0  0  0  0  0
   -0.4518    3.9702   -2.9277 H   0  0  0  0  0  0  0  0  0  0  0  0
   -1.9897    2.1533   -6.2292 N   0  0  0  0  0  0  0  0  0  0  0  0
   -2.0456    1.6158   -7.5686 C   0  0  0  0  0  0  0  0  0  0  0  0
   -2.4751    3.0271   -6.0486 H   0  0  0  0  0  0  0  0  0  0  0  0
   -1.2021    2.0068   -8.1566 H   0  0  0  0  0  0  0  0  0  0  0  0
   -1.9851    0.5183   -7.5260 H   0  0  0  0  0  0  0  0  0  0  0  0
   -2.9923    1.9127   -8.0435 H   0  0  0  0  0  0  0  0  0  0  0  0
  1  3  1  0  0  0  0
  1  7  1  0  0  0  0
  1  2  2  0  0  0  0
 31 32  1  0  0  0  0
 32 40  1  0  0  0  0
 32 33  2  0  0  0  0
  8  9  1  0  0  0  0
  9 17  1  0  0  0  0
  9 10  2  0  0  0  0
 18 19  1  0  0  0  0
 19 30  1  0  0  0  0
 19 20  2  0  0  0  0
 21 22  1  0  0  0  0
 22 23  2  0  0  0  0
 22 24  1  0  0  0  0
 31 34  1  0  0  0  0
  8 11  1  0  0  0  0
 40 41  1  0  0  0  0
 18 21  1  0  0  0  0
 30 31  1  0  0  0  0
  7  8  1  0  0  0  0
 17 18  1  0  0  0  0
  3  4  1  0  0  0  0
  3  5  1  0  0  0  0
  3  6  1  0  0  0  0
 34 37  1  0  0  0  0
 34 38  1  0  0  0  0
 34 39  1  0  0  0  0
 11 14  1  0  0  0  0
 11 15  1  0  0  0  0
 11 16  1  0  0  0  0
 41 43  1  0  0  0  0
 41 44  1  0  0  0  0
 41 45  1  0  0  0  0
 21 27  1  0  0  0  0
 21 28  1  0  0  0  0
 31 36  1  0  0  0  0
  8 13  1  0  0  0  0
 18 26  1  0  0  0  0
 40 42  1  0  0  0  0
  7 12  1  0  0  0  0
 30 35  1  0  0  0  0
 17 25  1  0  0  0  0
 24 29  1  0  0  0  0
M  END
$$$$

  -OEChem-05262214473D

 45 44  0     1  0  0  0  0  0999 V2000
   -2.2987    4.1032   -0.3022 C   0  0  0  0  0  0  0  0  0  0  0  0
   -1.8049    3.7117   -1.3532 O   0  0  0  0  0  0  0  0  0  0  0  0
   -3.0791    5.3755   -0.2846 C   0  0  0  0  0  0  0  0  0  0  0  0
   -2.4478    6.2532   -0.0717 H   0  0  0  0  0  0  0  0  0  0  0  0
   -3.5571    5.5891   -1.2541 H   0  0  0  0  0  0  0  0  0  0  0  0
   -3.8940    5.4184    0.4556 H   0  0  0  0  0  0  0  0  0  0  0  0
   -2.2137    3.4712    0.9275 N   0  0  0  0  0  0  0  0  0  0  0  0
   -1.5102    2.2327    1.1338 C   0  0  2  0  0  0  0  0  0  0  0  0
   -1.3539    1.5497   -0.2184 C   0  0  0  0  0  0  0  0  0  0  0  0
   -2.0852    1.7861   -1.1778 O   0  0  0  0  0  0  0  0  0  0  0  0
   -2.2477    1.3342    2.1145 C   0  0  0  0  0  0  0  0  0  0  0  0
   -2.6724    3.9052    1.7265 H   0  0  0  0  0  0  0  0  0  0  0  0
   -0.5220    2.4922    1.5290 H   0  0  0  0  0  0  0  0  0  0  0  0
   -3.2400    1.0636    1.7358 H   0  0  0  0  0  0  0  0  0  0  0  0
   -1.6970    0.4046    2.2923 H   0  0  0  0  0  0  0  0  0  0  0  0
   -2.3854    1.8384    3.0772 H   0  0  0  0  0  0  0  0  0  0  0  0
   -0.3283    0.6116   -0.2182 N   0  0  0  0  0  0  0  0  0  0  0  0
    0.0090   -0.1762   -1.3759 C   0  0  2  0  0  0  0  0  0  0  0  0
    0.0344    0.7549   -2.5813 C   0  0  0  0  0  0  0  0  0  0  0  0
    0.9078    0.7081   -3.4451 O   0  0  0  0  0  0  0  0  0  0  0  0
   -0.9777   -1.3202   -1.5946 C   0  0  0  0  0  0  0  0  0  0  0  0
   -0.8485   -2.3682   -0.5167 C   0  0  0  0  0  0  0  0  0  0  0  0
    0.1908   -2.6069    0.0845 O   0  0  0  0  0  0  0  0  0  0  0  0
   -2.0089   -3.0340   -0.2955 O   0  0  0  0  0  0  0  0  0  0  0  0
    0.2381    0.4970    0.6194 H   0  0  0  0  0  0  0  0  0  0  0  0
    1.0214   -0.5601   -1.2018 H   0  0  0  0  0  0  0  0  0  0  0  0
   -2.0141   -0.9612   -1.5603 H   0  0  0  0  0  0  0  0  0  0  0  0
   -0.8602   -1.7907   -2.5783 H   0  0  0  0  0  0  0  0  0  0  0  0
   -1.9608   -3.7332    0.3911 H   0  0  0  0  0  0  0  0  0  0  0  0
   -1.0578    1.6109   -2.6039 N   0  0  0  0  0  0  0  0  0  0  0  0
   -1.2673    2.5796   -3.6545 C   0  0  2  0  0  0  0  0  0  0  0  0
   -1.5602    1.8208   -4.9422 C   0  0  0  0  0  0  0  0  0  0  0  0
   -1.2191    0.6542   -5.1257 O   0  0  0  0  0  0  0  0  0  0  0  0
   -0.0575    3.4858   -3.8209 C   0  0  0  0  0  0  0  0  0  0  0  0
   -1.7374    1.5539   -1.8511 H   0  0  0  0  0  0  0  0  0  0  0  0
   -2.1452    3.1698   -3.3700 H   0  0  0  0  0  0  0  0  0  0  0  0
    0.8319    2.9121   -4.1059 H   0  0  0  0  0  0  0  0  0  0  0  0
   -0.2289    4.2378   -4.5982 H   0  0  0  0  0  0  0  0  0  0  0  0
    0.1697    4.0082   -2.8853 H   0  0  0  0  0  0  0  0  0  0  0  0
   -2.2093    2.6131   -5.8787 N   0  0  0  0  0  0  0  0  0  0  0  0
   -2.5848    2.1264   -7.1856 C   0  0  0  0  0  0  0  0  0  0  0  0
   -2.4704    3.5637   -5.6339 H   0  0  0  0  0  0  0  0  0  0  0  0
   -1.7827    2.3488   -7.9047 H   0  0  0  0  0  0  0  0  0  0  0  0
   -2.7449    1.0390   -7.1397 H   0  0  0  0  0  0  0  0  0  0  0  0
   -3.5133    2.6204   -7.5079 H   0  0  0  0  0  0  0  0  0  0  0  0
  1  3  1  0  0  0  0
  1  7  1  0  0  0  0
  1  2  2  0  0  0  0
 31 32  1  0  0  0  0
 32 40  1  0  0  0  0
 32 33  2  0  0  0  0
  8  9  1  0  0  0  0
  9 17  1  0  0  0  0
  9 10  2  0  0  0  0
 18 19  1  0  0  0  0
 19 30  1  0  0  0  0
 19 20  2  0  0  0  0
 21 22  1  0  0  0  0
 22 23  2  0  0  0  0
 22 24  1  0  0  0  0
 31 34  1  0  0  0  0
  8 11  1  0  0  0  0
 40 41  1  0  0  0  0
 18 21  1  0  0  0  0
 30 31  1  0  0  0  0
  7  8  1  0  0  0  0
 17 18  1  0  0  0  0
  3  4  1  0  0  0  0
  3  5  1  0  0  0  0
  3  6  1  0  0  0  0
 34 37  1  0  0  0  0
 34 38  1  0  0  0  0
 34 39  1  0  0  0  0
 11 14  1  0  0  0  0
 11 15  1  0  0  0  0
 11 16  1  0  0  0  0
 41 43  1  0  0  0  0
 41 44  1  0  0  0  0
 41 45  1  0  0  0  0
 21 27  1  0  0  0  0
 21 28  1  0  0  0  0
 31 36  1  0  0  0  0
  8 13  1  0  0  0  0
 18 26  1  0  0  0  0
 40 42  1  0  0  0  0
  7 12  1  0  0  0  0
 30 35  1  0  0  0  0
 17 25  1  0  0  0  0
 24 29  1  0  0  0  0
M  END
$$$$

  -OEChem-05262214473D

 45 44  0     1  0  0  0  0  0999 V2000
   -2.2987    4.1032   -0.3022 C   0  0  0  0  0  0  0  0  0  0  0  0
   -1.8049    3.7117   -1.3532 O   0  0  0  0  0  0  0  0  0  0  0  0
   -3.0791    5.3755   -0.2846 C   0  0  0  0  0  0  0  0  0  0  0  0
   -2.4478    6.2532   -0.0717 H   0  0  0  0  0  0  0  0  0  0  0  0
   -3.5571    5.5891   -1.2541 H   0  0  0  0  0  0  0  0  0  0  0  0
   -3.8940    5.4184    0.4556 H   0  0  0  0  0  0  0  0  0  0  0  0
   -2.2137    3.4712    0.9275 N   0  0  0  0  0  0  0  0  0  0  0  0
   -1.5102    2.2327    1.1338 C   0  0  2  0  0  0  0  0  0  0  0  0
   -1.3539    1.5497   -0.2184 C   0  0  0  0  0  0  0  0  0  0  0  0
   -2.0852    1.7861   -1.1778 O   0  0  0  0  0  0  0  0  0  0  0  0
   -2.2477    1.3342    2.1145 C   0  0  0  0  0  0  0  0  0  0  0  0
   -2.6724    3.9052    1.7265 H   0  0  0  0  0  0  0  0  0  0  0  0
   -0.5220    2.4922    1.5290 H   0  0  0  0  0  0  0  0  0  0  0  0
   -3.2400    1.0636    1.7358 H   0  0  0  0  0  0  0  0  0  0  0  0
   -1.6970    0.4046    2.2923 H   0  0  0  0  0  0  0  0  0  0  0  0
   -2.3854    1.8384    3.0772 H   0  0  0  0  0  0  0  0  0  0  0  0
   -0.3283    0.6116   -0.2182 N   0  0  0  0  0  0  0  0  0  0  0  0
    0.0090   -0.1762   -1.3759 C   0  0  2  0  0  0  0  0  0  0  0  0
    0.0344    0.7549   -2.5813 C   0  0  0  0  0  0  0  0  0  0  0  0
    0.7322    0.5485   -3.5721 O   0  0  0  0  0  0  0  0  0  0  0  0
   -0.9777   -1.3202   -1.5946 C   0  0  0  0  0  0  0  0  0  0  0  0
   -0.8485   -2.3682   -0.5167 C   0  0  0  0  0  0  0  0  0  0  0  0
    0.1908   -2.6069    0.0845 O   0  0  0  0  0  0  0  0  0  0  0  0
   -2.0089   -3.0340   -0.2955 O   0  0  0  0  0  0  0  0  0  0  0  0
    0.2381    0.4970    0.6194 H   0  0  0  0  0  0  0  0  0  0  0  0
    1.0214   -0.5601   -1.2018 H   0  0  0  0  0  0  0  0  0  0  0  0
   -2.0141   -0.9612   -1.5603 H   0  0  0  0  0  0  0  0  0  0  0  0
   -0.8602   -1.7907   -2.5783 H   0  0  0  0  0  0  0  0  0  0  0  0
   -1.9608   -3.7332    0.3911 H   0  0  0  0  0  0  0  0  0  0  0  0
   -0.8486    1.8164   -2.4408 N   0  0  0  0  0  0  0  0  0  0  0  0
   -1.0180    2.8291   -3.4566 C   0  0  2  0  0  0  0  0  0  0  0  0
   -1.6597    2.1731   -4.6721 C   0  0  0  0  0  0  0  0  0  0  0  0
   -1.5984    0.9655   -4.8932 O   0  0  0  0  0  0  0  0  0  0  0  0
    0.3103    3.4721   -3.8237 C   0  0  0  0  0  0  0  0  0  0  0  0
   -1.3979    1.8839   -1.5890 H   0  0  0  0  0  0  0  0  0  0  0  0
   -1.6999    3.5803   -3.0436 H   0  0  0  0  0  0  0  0  0  0  0  0
    1.0068    2.7347   -4.2393 H   0  0  0  0  0  0  0  0  0  0  0  0
    0.1764    4.2592   -4.5732 H   0  0  0  0  0  0  0  0  0  0  0  0
    0.7846    3.9174   -2.9425 H   0  0  0  0  0  0  0  0  0  0  0  0
   -2.2719    3.1007   -5.5033 N   0  0  0  0  0  0  0  0  0  0  0  0
   -2.9406    2.7283   -6.7281 C   0  0  0  0  0  0  0  0  0  0  0  0
   -2.2904    4.0794   -5.2319 H   0  0  0  0  0  0  0  0  0  0  0  0
   -2.2336    2.7969   -7.5680 H   0  0  0  0  0  0  0  0  0  0  0  0
   -3.3110    1.6960   -6.6442 H   0  0  0  0  0  0  0  0  0  0  0  0
   -3.7869    3.4083   -6.9050 H   0  0  0  0  0  0  0  0  0  0  0  0
  1  3  1  0  0  0  0
  1  7  1  0  0  0  0
  1  2  2  0  0  0  0
 31 32  1  0  0  0  0
 32 40  1  0  0  0  0
 32 33  2  0  0  0  0
  8  9  1  0  0  0  0
  9 17  1  0  0  0  0
  9 10  2  0  0  0  0
 18 19  1  0  0  0  0
 19 30  1  0  0  0  0
 19 20  2  0  0  0  0
 21 22  1  0  0  0  0
 22 23  2  0  0  0  0
 22 24  1  0  0  0  0
 31 34  1  0  0  0  0
  8 11  1  0  0  0  0
 40 41  1  0  0  0  0
 18 21  1  0  0  0  0
 30 31  1  0  0  0  0
  7  8  1  0  0  0  0
 17 18  1  0  0  0  0
  3  4  1  0  0  0  0
  3  5  1  0  0  0  0
  3  6  1  0  0  0  0
 34 37  1  0  0  0  0
 34 38  1  0  0  0  0
 34 39  1  0  0  0  0
 11 14  1  0  0  0  0
 11 15  1  0  0  0  0
 11 16  1  0  0  0  0
 41 43  1  0  0  0  0
 41 44  1  0  0  0  0
 41 45  1  0  0  0  0
 21 27  1  0  0  0  0
 21 28  1  0  0  0  0
 31 36  1  0  0  0  0
  8 13  1  0  0  0  0
 18 26  1  0  0  0  0
 40 42  1  0  0  0  0
  7 12  1  0  0  0  0
 30 35  1  0  0  0  0
 17 25  1  0  0  0  0
 24 29  1  0  0  0  0
M  END
$$$$

  -OEChem-05262214473D

 45 44  0     1  0  0  0  0  0999 V2000
   -2.2987    4.1032   -0.3022 C   0  0  0  0  0  0  0  0  0  0  0  0
   -1.8049    3.7117   -1.3532 O   0  0  0  0  0  0  0  0  0  0  0  0
   -3.0791    5.3755   -0.2846 C   0  0  0  0  0  0  0  0  0  0  0  0
   -2.4478    6.2532   -0.0717 H   0  0  0  0  0  0  0  0  0  0  0  0
   -3.5571    5.5891   -1.2541 H   0  0  0  0  0  0  0  0  0  0  0  0
   -3.8940    5.4184    0.4556 H   0  0  0  0  0  0  0  0  0  0  0  0
   -2.2137    3.4712    0.9275 N   0  0  0  0  0  0  0  0  0  0  0  0
   -1.5102    2.2327    1.1338 C   0  0  2  0  0  0  0  0  0  0  0  0
   -1.3539    1.5497   -0.2184 C   0  0  0  0  0  0  0  0  0  0  0  0
   -2.0852    1.7861   -1.1778 O   0  0  0  0  0  0  0  0  0  0  0  0
   -2.2477    1.3342    2.1145 C   0  0  0  0  0  0  0  0  0  0  0  0
   -2.6724    3.9052    1.7265 H   0  0  0  0  0  0  0  0  0  0  0  0
   -0.5220    2.4922    1.5290 H   0  0  0  0  0  0  0  0  0  0  0  0
   -3.2400    1.0636    1.7358 H   0  0  0  0  0  0  0  0  0  0  0  0
   -1.6970    0.4046    2.2923 H   0  0  0  0  0  0  0  0  0  0  0  0
   -2.3854    1.8384    3.0772 H   0  0  0  0  0  0  0  0  0  0  0  0
   -0.3283    0.6116   -0.2182 N   0  0  0  0  0  0  0  0  0  0  0  0
    0.0090   -0.1762   -1.3759 C   0  0  2  0  0  0  0  0  0  0  0  0
    0.0344    0.7549   -2.5813 C   0  0  0  0  0  0  0  0  0  0  0  0
    0.5098    0.4308   -3.6677 O   0  0  0  0  0  0  0  0  0  0  0  0
   -0.9777   -1.3202   -1.5946 C   0  0  0  0  0  0  0  0  0  0  0  0
   -0.8485   -2.3682   -0.5167 C   0  0  0  0  0  0  0  0  0  0  0  0
    0.1908   -2.6069    0.0845 O   0  0  0  0  0  0  0  0  0  0  0  0
   -2.0089   -3.0340   -0.2955 O   0  0  0  0  0  0  0  0  0  0  0  0
    0.2381    0.4970    0.6194 H   0  0  0  0  0  0  0  0  0  0  0  0
    1.0214   -0.5601   -1.2018 H   0  0  0  0  0  0  0  0  0  0  0  0
   -2.0141   -0.9612   -1.5603 H   0  0  0  0  0  0  0  0  0  0  0  0
   -0.8602   -1.7907   -2.5783 H   0  0  0  0  0  0  0  0  0  0  0  0
   -1.9608   -3.7332    0.3911 H   0  0  0  0  0  0  0  0  0  0  0  0
   -0.5786    1.9714   -2.3154 N   0  0  0  0  0  0  0  0  0  0  0  0
   -0.6947    3.0181   -3.3037 C   0  0  2  0  0  0  0  0  0  0  0  0
   -1.6408    2.5327   -4.3940 C   0  0  0  0  0  0  0  0  0  0  0  0
   -1.8643    1.3429   -4.6073 O   0  0  0  0  0  0  0  0  0  0  0  0
    0.6624    3.3835   -3.8848 C   0  0  0  0  0  0  0  0  0  0  0  0
   -0.9610    2.1320   -1.3882 H   0  0  0  0  0  0  0  0  0  0  0  0
   -1.1342    3.8842   -2.7970 H   0  0  0  0  0  0  0  0  0  0  0  0
    1.1183    2.5281   -4.3965 H   0  0  0  0  0  0  0  0  0  0  0  0
    0.5762    4.1967   -4.6130 H   0  0  0  0  0  0  0  0  0  0  0  0
    1.3508    3.7040   -3.0954 H   0  0  0  0  0  0  0  0  0  0  0  0
   -2.1730    3.5829   -5.1288 N   0  0  0  0  0  0  0  0  0  0  0  0
   -3.0886    3.3806   -6.2273 C   0  0  0  0  0  0  0  0  0  0  0  0
   -1.9474    4.5388   -4.8697 H   0  0  0  0  0  0  0  0  0  0  0  0
   -2.5240    3.3207   -7.1695 H   0  0  0  0  0  0  0  0  0  0  0  0
   -3.6449    2.4443   -6.0731 H   0  0  0  0  0  0  0  0  0  0  0  0
   -3.7945    4.2228   -6.2760 H   0  0  0  0  0  0  0  0  0  0  0  0
  1  3  1  0  0  0  0
  1  7  1  0  0  0  0
  1  2  2  0  0  0  0
 31 32  1  0  0  0  0
 32 40  1  0  0  0  0
 32 33  2  0  0  0  0
  8  9  1  0  0  0  0
  9 17  1  0  0  0  0
  9 10  2  0  0  0  0
 18 19  1  0  0  0  0
 19 30  1  0  0  0  0
 19 20  2  0  0  0  0
 21 22  1  0  0  0  0
 22 23  2  0  0  0  0
 22 24  1  0  0  0  0
 31 34  1  0  0  0  0
  8 11  1  0  0  0  0
 40 41  1  0  0  0  0
 18 21  1  0  0  0  0
 30 31  1  0  0  0  0
  7  8  1  0  0  0  0
 17 18  1  0  0  0  0
  3  4  1  0  0  0  0
  3  5  1  0  0  0  0
  3  6  1  0  0  0  0
 34 37  1  0  0  0  0
 34 38  1  0  0  0  0
 34 39  1  0  0  0  0
 11 14  1  0  0  0  0
 11 15  1  0  0  0  0
 11 16  1  0  0  0  0
 41 43  1  0  0  0  0
 41 44  1  0  0  0  0
 41 45  1  0  0  0  0
 21 27  1  0  0  0  0
 21 28  1  0  0  0  0
 31 36  1  0  0  0  0
  8 13  1  0  0  0  0
 18 26  1  0  0  0  0
 40 42  1  0  0  0  0
  7 12  1  0  0  0  0
 30 35  1  0  0  0  0
 17 25  1  0  0  0  0
 24 29  1  0  0  0  0
M  END
$$$$

  -OEChem-05262214473D

 45 44  0     1  0  0  0  0  0999 V2000
   -2.2987    4.1032   -0.3022 C   0  0  0  0  0  0  0  0  0  0  0  0
   -1.8049    3.7117   -1.3532 O   0  0  0  0  0  0  0  0  0  0  0  0
   -3.0791    5.3755   -0.2846 C   0  0  0  0  0  0  0  0  0  0  0  0
   -2.4478    6.2532   -0.0717 H   0  0  0  0  0  0  0  0  0  0  0  0
   -3.5571    5.5891   -1.2541 H   0  0  0  0  0  0  0  0  0  0  0  0
   -3.8940    5.4184    0.4556 H   0  0  0  0  0  0  0  0  0  0  0  0
   -2.2137    3.4712    0.9275 N   0  0  0  0  0  0  0  0  0  0  0  0
   -1.5102    2.2327    1.1338 C   0  0  2  0  0  0  0  0  0  0  0  0
   -1.3539    1.5497   -0.2184 C   0  0  0  0  0  0  0  0  0  0  0  0
   -2.0852    1.7861   -1.1778 O   0  0  0  0  0  0  0  0  0  0  0  0
   -2.2477    1.3342    2.1145 C   0  0  0  0  0  0  0  0  0  0  0  0
   -2.6724    3.9052    1.7265 H   0  0  0  0  0  0  0  0  0  0  0  0
   -0.5220    2.4922    1.5290 H   0  0  0  0  0  0  0  0  0  0  0  0
   -3.2400    1.0636    1.7358 H   0  0  0  0  0  0  0  0  0  0  0  0
   -1.6970    0.4046    2.2923 H   0  0  0  0  0  0  0  0  0  0  0  0
   -2.3854    1.8384    3.0772 H   0  0  0  0  0  0  0  0  0  0  0  0
   -0.3283    0.6116   -0.2182 N   0  0  0  0  0  0  0  0  0  0  0  0
    0.0090   -0.1762   -1.3759 C   0  0  2  0  0  0  0  0  0  0  0  0
    0.0344    0.7549   -2.5813 C   0  0  0  0  0  0  0  0  0  0  0  0
    0.2558    0.3631   -3.7253 O   0  0  0  0  0  0  0  0  0  0  0  0
   -0.9777   -1.3202   -1.5946 C   0  0  0  0  0  0  0  0  0  0  0  0
   -0.8485   -2.3682   -0.5167 C   0  0  0  0  0  0  0  0  0  0  0  0
    0.1908   -2.6069    0.0845 O   0  0  0  0  0  0  0  0  0  0  0  0
   -2.0089   -3.0340   -0.2955 O   0  0  0  0  0  0  0  0  0  0  0  0
    0.2381    0.4970    0.6194 H   0  0  0  0  0  0  0  0  0  0  0  0
    1.0214   -0.5601   -1.2018 H   0  0  0  0  0  0  0  0  0  0  0  0
   -2.0141   -0.9612   -1.5603 H   0  0  0  0  0  0  0  0  0  0  0  0
   -0.8602   -1.7907   -2.5783 H   0  0  0  0  0  0  0  0  0  0  0  0
   -1.9608   -3.7332    0.3911 H   0  0  0  0  0  0  0  0  0  0  0  0
   -0.2662    2.0652   -2.2363 N   0  0  0  0  0  0  0  0  0  0  0  0
   -0.3195    3.1339   -3.2064 C   0  0  2  0  0  0  0  0  0  0  0  0
   -1.5050    2.8749   -4.1267 C   0  0  0  0  0  0  0  0  0  0  0  0
   -1.9986    1.7606   -4.2874 O   0  0  0  0  0  0  0  0  0  0  0  0
    0.9746    3.2261   -3.9998 C   0  0  0  0  0  0  0  0  0  0  0  0
   -0.4564    2.2813   -1.2622 H   0  0  0  0  0  0  0  0  0  0  0  0
   -0.4864    4.0608   -2.6469 H   0  0  0  0  0  0  0  0  0  0  0  0
    1.1588    2.3064   -4.5669 H   0  0  0  0  0  0  0  0  0  0  0  0
    0.9434    4.0547   -4.7149 H   0  0  0  0  0  0  0  0  0  0  0  0
    1.8299    3.3826   -3.3336 H   0  0  0  0  0  0  0  0  0  0  0  0
   -1.9195    4.0268   -4.7806 N   0  0  0  0  0  0  0  0  0  0  0  0
   -3.0187    4.0389   -5.7174 C   0  0  0  0  0  0  0  0  0  0  0  0
   -1.4646    4.9108   -4.5722 H   0  0  0  0  0  0  0  0  0  0  0  0
   -2.6343    3.8843   -6.7364 H   0  0  0  0  0  0  0  0  0  0  0  0
   -3.7238    3.2331   -5.4655 H   0  0  0  0  0  0  0  0  0  0  0  0
   -3.5355    5.0084   -5.6637 H   0  0  0  0  0  0  0  0  0  0  0  0
  1  3  1  0  0  0  0
  1  7  1  0  0  0  0
  1  2  2  0  0  0  0
 31 32  1  0  0  0  0
 32 40  1  0  0  0  0
 32 33  2  0  0  0  0
  8  9  1  0  0  0  0
  9 17  1  0  0  0  0
  9 10  2  0  0  0  0
 18 19  1  0  0  0  0
 19 30  1  0  0  0  0
 19 20  2  0  0  0  0
 21 22  1  0  0  0  0
 22 23  2  0  0  0  0
 22 24  1  0  0  0  0
 31 34  1  0  0  0  0
  8 11  1  0  0  0  0
 40 41  1  0  0  0  0
 18 21  1  0  0  0  0
 30 31  1  0  0  0  0
  7  8  1  0  0  0  0
 17 18  1  0  0  0  0
  3  4  1  0  0  0  0
  3  5  1  0  0  0  0
  3  6  1  0  0  0  0
 34 37  1  0  0  0  0
 34 38  1  0  0  0  0
 34 39  1  0  0  0  0
 11 14  1  0  0  0  0
 11 15  1  0  0  0  0
 11 16  1  0  0  0  0
 41 43  1  0  0  0  0
 41 44  1  0  0  0  0
 41 45  1  0  0  0  0
 21 27  1  0  0  0  0
 21 28  1  0  0  0  0
 31 36  1  0  0  0  0
  8 13  1  0  0  0  0
 18 26  1  0  0  0  0
 40 42  1  0  0  0  0
  7 12  1  0  0  0  0
 30 35  1  0  0  0  0
 17 25  1  0  0  0  0
 24 29  1  0  0  0  0
M  END
$$$$

  -OEChem-05262214473D

 45 44  0     1  0  0  0  0  0999 V2000
   -2.2987    4.1032   -0.3022 C   0  0  0  0  0  0  0  0  0  0  0  0
   -1.8049    3.7117   -1.3532 O   0  0  0  0  0  0  0  0  0  0  0  0
   -3.0791    5.3755   -0.2846 C   0  0  0  0  0  0  0  0  0  0  0  0
   -2.4478    6.2532   -0.0717 H   0  0  0  0  0  0  0  0  0  0  0  0
   -3.5571    5.5891   -1.2541 H   0  0  0  0  0  0  0  0  0  0  0  0
   -3.8940    5.4184    0.4556 H   0  0  0  0  0  0  0  0  0  0  0  0
   -2.2137    3.4712    0.9275 N   0  0  0  0  0  0  0  0  0  0  0  0
   -1.5102    2.2327    1.1338 C   0  0  2  0  0  0  0  0  0  0  0  0
   -1.3539    1.5497   -0.2184 C   0  0  0  0  0  0  0  0  0  0  0  0
   -2.0852    1.7861   -1.1778 O   0  0  0  0  0  0  0  0  0  0  0  0
   -2.2477    1.3342    2.1145 C   0  0  0  0  0  0  0  0  0  0  0  0
   -2.6724    3.9052    1.7265 H   0  0  0  0  0  0  0  0  0  0  0  0
   -0.5220    2.4922    1.5290 H   0  0  0  0  0  0  0  0  0  0  0  0
   -3.2400    1.0636    1.7358 H   0  0  0  0  0  0  0  0  0  0  0  0
   -1.6970    0.4046    2.2923 H   0  0  0  0  0  0  0  0  0  0  0  0
   -2.3854    1.8384    3.0772 H   0  0  0  0  0  0  0  0  0  0  0  0
   -0.3283    0.6116   -0.2182 N   0  0  0  0  0  0  0  0  0  0  0  0
    0.0090   -0.1762   -1.3759 C   0  0  2  0  0  0  0  0  0  0  0  0
    0.0344    0.7549   -2.5813 C   0  0  0  0  0  0  0  0  0  0  0  0
   -0.0126    0.3500   -3.7411 O   0  0  0  0  0  0  0  0  0  0  0  0
   -0.9777   -1.3202   -1.5946 C   0  0  0  0  0  0  0  0  0  0  0  0
   -0.8485   -2.3682   -0.5167 C   0  0  0  0  0  0  0  0  0  0  0  0
    0.1908   -2.6069    0.0845 O   0  0  0  0  0  0  0  0  0  0  0  0
   -2.0089   -3.0340   -0.2955 O   0  0  0  0  0  0  0  0  0  0  0  0
    0.2381    0.4970    0.6194 H   0  0  0  0  0  0  0  0  0  0  0  0
    1.0214   -0.5601   -1.2018 H   0  0  0  0  0  0  0  0  0  0  0  0
   -2.0141   -0.9612   -1.5603 H   0  0  0  0  0  0  0  0  0  0  0  0
   -0.8602   -1.7907   -2.5783 H   0  0  0  0  0  0  0  0  0  0  0  0
   -1.9608   -3.7332    0.3911 H   0  0  0  0  0  0  0  0  0  0  0  0
    0.0673    2.0915   -2.2090 N   0  0  0  0  0  0  0  0  0  0  0  0
    0.0820    3.1685   -3.1712 C   0  0  2  0  0  0  0  0  0  0  0  0
   -1.2614    3.1765   -3.8886 C   0  0  0  0  0  0  0  0  0  0  0  0
   -1.9922    2.1903   -3.9554 O   0  0  0  0  0  0  0  0  0  0  0  0
    1.2258    3.0106   -4.1610 C   0  0  0  0  0  0  0  0  0  0  0  0
    0.0816    2.3216   -1.2197 H   0  0  0  0  0  0  0  0  0  0  0  0
    0.1992    4.0981   -2.6037 H   0  0  0  0  0  0  0  0  0  0  0  0
    1.1255    2.0847   -4.7389 H   0  0  0  0  0  0  0  0  0  0  0  0
    1.2528    3.8428   -4.8721 H   0  0  0  0  0  0  0  0  0  0  0  0
    2.1891    2.9751   -3.6408 H   0  0  0  0  0  0  0  0  0  0  0  0
   -1.5287    4.4022   -4.4824 N   0  0  0  0  0  0  0  0  0  0  0  0
   -2.7357    4.6582   -5.2331 C   0  0  0  0  0  0  0  0  0  0  0  0
   -0.8751    5.1699   -4.3596 H   0  0  0  0  0  0  0  0  0  0  0  0
   -2.5569    4.4495   -6.2982 H   0  0  0  0  0  0  0  0  0  0  0  0
   -3.5424    4.0085   -4.8627 H   0  0  0  0  0  0  0  0  0  0  0  0
   -3.0275    5.7116   -5.1099 H   0  0  0  0  0  0  0  0  0  0  0  0
  1  3  1  0  0  0  0
  1  7  1  0  0  0  0
  1  2  2  0  0  0  0
 31 32  1  0  0  0  0
 32 40  1  0  0  0  0
 32 33  2  0  0  0  0
  8  9  1  0  0  0  0
  9 17  1  0  0  0  0
  9 10  2  0  0  0  0
 18 19  1  0  0  0  0
 19 30  1  0  0  0  0
 19 20  2  0  0  0  0
 21 22  1  0  0  0  0
 22 23  2  0  0  0  0
 22 24  1  0  0  0  0
 31 34  1  0  0  0  0
  8 11  1  0  0  0  0
 40 41  1  0  0  0  0
 18 21  1  0  0  0  0
 30 31  1  0  0  0  0
  7  8  1  0  0  0  0
 17 18  1  0  0  0  0
  3  4  1  0  0  0  0
  3  5  1  0  0  0  0
  3  6  1  0  0  0  0
 34 37  1  0  0  0  0
 34 38  1  0  0  0  0
 34 39  1  0  0  0  0
 11 14  1  0  0  0  0
 11 15  1  0  0  0  0
 11 16  1  0  0  0  0
 41 43  1  0  0  0  0
 41 44  1  0  0  0  0
 41 45  1  0  0  0  0
 21 27  1  0  0  0  0
 21 28  1  0  0  0  0
 31 36  1  0  0  0  0
  8 13  1  0  0  0  0
 18 26  1  0  0  0  0
 40 42  1  0  0  0  0
  7 12  1  0  0  0  0
 30 35  1  0  0  0  0
 17 25  1  0  0  0  0
 24 29  1  0  0  0  0
M  END
$$$$

  -OEChem-05262214473D

 45 44  0     1  0  0  0  0  0999 V2000
   -2.2987    4.1032   -0.3022 C   0  0  0  0  0  0  0  0  0  0  0  0
   -1.8049    3.7117   -1.3532 O   0  0  0  0  0  0  0  0  0  0  0  0
   -3.0791    5.3755   -0.2846 C   0  0  0  0  0  0  0  0  0  0  0  0
   -2.4478    6.2532   -0.0717 H   0  0  0  0  0  0  0  0  0  0  0  0
   -3.5571    5.5891   -1.2541 H   0  0  0  0  0  0  0  0  0  0  0  0
   -3.8940    5.4184    0.4556 H   0  0  0  0  0  0  0  0  0  0  0  0
   -2.2137    3.4712    0.9275 N   0  0  0  0  0  0  0  0  0  0  0  0
   -1.5102    2.2327    1.1338 C   0  0  2  0  0  0  0  0  0  0  0  0
   -1.3539    1.5497   -0.2184 C   0  0  0  0  0  0  0  0  0  0  0  0
   -2.0852    1.7861   -1.1778 O   0  0  0  0  0  0  0  0  0  0  0  0
   -2.2477    1.3342    2.1145 C   0  0  0  0  0  0  0  0  0  0  0  0
   -2.6724    3.9052    1.7265 H   0  0  0  0  0  0  0  0  0  0  0  0
   -0.5220    2.4922    1.5290 H   0  0  0  0  0  0  0  0  0  0  0  0
   -3.2400    1.0636    1.7358 H   0  0  0  0  0  0  0  0  0  0  0  0
   -1.6970    0.4046    2.2923 H   0  0  0  0  0  0  0  0  0  0  0  0
   -2.3854    1.8384    3.0772 H   0  0  0  0  0  0  0  0  0  0  0  0
   -0.3283    0.6116   -0.2182 N   0  0  0  0  0  0  0  0  0  0  0  0
    0.0090   -0.1762   -1.3759 C   0  0  2  0  0  0  0  0  0  0  0  0
    0.0344    0.7549   -2.5813 C   0  0  0  0  0  0  0  0  0  0  0  0
   -0.2770    0.3923   -3.7139 O   0  0  0  0  0  0  0  0  0  0  0  0
   -0.9777   -1.3202   -1.5946 C   0  0  0  0  0  0  0  0  0  0  0  0
   -0.8485   -2.3682   -0.5167 C   0  0  0  0  0  0  0  0  0  0  0  0
    0.1908   -2.6069    0.0845 O   0  0  0  0  0  0  0  0  0  0  0  0
   -2.0089   -3.0340   -0.2955 O   0  0  0  0  0  0  0  0  0  0  0  0
    0.2381    0.4970    0.6194 H   0  0  0  0  0  0  0  0  0  0  0  0
    1.0214   -0.5601   -1.2018 H   0  0  0  0  0  0  0  0  0  0  0  0
   -2.0141   -0.9612   -1.5603 H   0  0  0  0  0  0  0  0  0  0  0  0
   -0.8602   -1.7907   -2.5783 H   0  0  0  0  0  0  0  0  0  0  0  0
   -1.9608   -3.7332    0.3911 H   0  0  0  0  0  0  0  0  0  0  0  0
    0.3991    2.0485   -2.2352 N   0  0  0  0  0  0  0  0  0  0  0  0
    0.4824    3.1195   -3.2007 C   0  0  2  0  0  0  0  0  0  0  0  0
   -0.9267    3.4170   -3.6959 C   0  0  0  0  0  0  0  0  0  0  0  0
   -1.8454    2.6025   -3.6339 O   0  0  0  0  0  0  0  0  0  0  0  0
    1.3987    2.7517   -4.3573 C   0  0  0  0  0  0  0  0  0  0  0  0
    0.6162    2.2502   -1.2637 H   0  0  0  0  0  0  0  0  0  0  0  0
    0.8758    3.9935   -2.6702 H   0  0  0  0  0  0  0  0  0  0  0  0
    1.0208    1.8780   -4.9007 H   0  0  0  0  0  0  0  0  0  0  0  0
    1.4834    3.5754   -5.0738 H   0  0  0  0  0  0  0  0  0  0  0  0
    2.4040    2.5092   -3.9962 H   0  0  0  0  0  0  0  0  0  0  0  0
   -1.0271    4.6834   -4.2546 N   0  0  0  0  0  0  0  0  0  0  0  0
   -2.2589    5.1963   -4.8073 C   0  0  0  0  0  0  0  0  0  0  0  0
   -0.2189    5.2986   -4.2465 H   0  0  0  0  0  0  0  0  0  0  0  0
   -2.2970    4.9777   -5.8847 H   0  0  0  0  0  0  0  0  0  0  0  0
   -3.1130    4.7178   -4.3058 H   0  0  0  0  0  0  0  0  0  0  0  0
   -2.3052    6.2844   -4.6522 H   0  0  0  0  0  0  0  0  0  0  0  0
  1  3  1  0  0  0  0
  1  7  1  0  0  0  0
  1  2  2  0  0  0  0
 31 32  1  0  0  0  0
 32 40  1  0  0  0  0
 32 33  2  0  0  0  0
  8  9  1  0  0  0  0
  9 17  1  0  0  0  0
  9 10  2  0  0  0  0
 18 19  1  0  0  0  0
 19 30  1  0  0  0  0
 19 20  2  0  0  0  0
 21 22  1  0  0  0  0
 22 23  2  0  0  0  0
 22 24  1  0  0  0  0
 31 34  1  0  0  0  0
  8 11  1  0  0  0  0
 40 41  1  0  0  0  0
 18 21  1  0  0  0  0
 30 31  1  0  0  0  0
  7  8  1  0  0  0  0
 17 18  1  0  0  0  0
  3  4  1  0  0  0  0
  3  5  1  0  0  0  0
  3  6  1  0  0  0  0
 34 37  1  0  0  0  0
 34 38  1  0  0  0  0
 34 39  1  0  0  0  0
 11 14  1  0  0  0  0
 11 15  1  0  0  0  0
 11 16  1  0  0  0  0
 41 43  1  0  0  0  0
 41 44  1  0  0  0  0
 41 45  1  0  0  0  0
 21 27  1  0  0  0  0
 21 28  1  0  0  0  0
 31 36  1  0  0  0  0
  8 13  1  0  0  0  0
 18 26  1  0  0  0  0
 40 42  1  0  0  0  0
  7 12  1  0  0  0  0
 30 35  1  0  0  0  0
 17 25  1  0  0  0  0
 24 29  1  0  0  0  0
M  END
$$$$

  -OEChem-05262214473D

 45 44  0     1  0  0  0  0  0999 V2000
   -2.2987    4.1032   -0.3022 C   0  0  0  0  0  0  0  0  0  0  0  0
   -1.8049    3.7117   -1.3532 O   0  0  0  0  0  0  0  0  0  0  0  0
   -3.0791    5.3755   -0.2846 C   0  0  0  0  0  0  0  0  0  0  0  0
   -2.4478    6.2532   -0.0717 H   0  0  0  0  0  0  0  0  0  0  0  0
   -3.5571    5.5891   -1.2541 H   0  0  0  0  0  0  0  0  0  0  0  0
   -3.8940    5.4184    0.4556 H   0  0  0  0  0  0  0  0  0  0  0  0
   -2.2137    3.4712    0.9275 N   0  0  0  0  0  0  0  0  0  0  0  0
   -1.5102    2.2327    1.1338 C   0  0  2  0  0  0  0  0  0  0  0  0
   -1.3539    1.5497   -0.2184 C   0  0  0  0  0  0  0  0  0  0  0  0
   -2.0852    1.7861   -1.1778 O   0  0  0  0  0  0  0  0  0  0  0  0
   -2.2477    1.3342    2.1145 C   0  0  0  0  0  0  0  0  0  0  0  0
   -2.6724    3.9052    1.7265 H   0  0  0  0  0  0  0  0  0  0  0  0
   -0.5220    2.4922    1.5290 H   0  0  0  0  0  0  0  0  0  0  0  0
   -3.2400    1.0636    1.7358 H   0  0  0  0  0  0  0  0  0  0  0  0
   -1.6970    0.4046    2.2923 H   0  0  0  0  0  0  0  0  0  0  0  0
   -2.3854    1.8384    3.0772 H   0  0  0  0  0  0  0  0  0  0  0  0
   -0.3283    0.6116   -0.2182 N   0  0  0  0  0  0  0  0  0  0  0  0
    0.0090   -0.1762   -1.3759 C   0  0  2  0  0  0  0  0  0  0  0  0
    0.0344    0.7549   -2.5813 C   0  0  0  0  0  0  0  0  0  0  0  0
   -0.5195    0.4873   -3.6457 O   0  0  0  0  0  0  0  0  0  0  0  0
   -0.9777   -1.3202   -1.5946 C   0  0  0  0  0  0  0  0  0  0  0  0
   -0.8485   -2.3682   -0.5167 C   0  0  0  0  0  0  0  0  0  0  0  0
    0.1908   -2.6069    0.0845 O   0  0  0  0  0  0  0  0  0  0  0  0
   -2.0089   -3.0340   -0.2955 O   0  0  0  0  0  0  0  0  0  0  0  0
    0.2381    0.4970    0.6194 H   0  0  0  0  0  0  0  0  0  0  0  0
    1.0214   -0.5601   -1.2018 H   0  0  0  0  0  0  0  0  0  0  0  0
   -2.0141   -0.9612   -1.5603 H   0  0  0  0  0  0  0  0  0  0  0  0
   -0.8602   -1.7907   -2.5783 H   0  0  0  0  0  0  0  0  0  0  0  0
   -1.9608   -3.7332    0.3911 H   0  0  0  0  0  0  0  0  0  0  0  0
    0.7066    1.9391   -2.3132 N   0  0  0  0  0  0  0  0  0  0  0  0
    0.8545    2.9903   -3.2926 C   0  0  2  0  0  0  0  0  0  0  0  0
   -0.5237    3.5798   -3.5616 C   0  0  0  0  0  0  0  0  0  0  0  0
   -1.5684    2.9693   -3.3447 O   0  0  0  0  0  0  0  0  0  0  0  0
    1.4817    2.4671   -4.5754 C   0  0  0  0  0  0  0  0  0  0  0  0
    1.1109    2.0720   -1.3909 H   0  0  0  0  0  0  0  0  0  0  0  0
    1.4975    3.7542   -2.8420 H   0  0  0  0  0  0  0  0  0  0  0  0
    0.8517    1.7006   -5.0413 H   0  0  0  0  0  0  0  0  0  0  0  0
    1.6194    3.2708   -5.3063 H   0  0  0  0  0  0  0  0  0  0  0  0
    2.4600    2.0167   -4.3755 H   0  0  0  0  0  0  0  0  0  0  0  0
   -0.4490    4.8514   -4.1127 N   0  0  0  0  0  0  0  0  0  0  0  0
   -1.6208    5.6167   -4.4692 C   0  0  0  0  0  0  0  0  0  0  0  0
    0.4592    5.2880   -4.2404 H   0  0  0  0  0  0  0  0  0  0  0  0
   -1.8724    5.4329   -5.5242 H   0  0  0  0  0  0  0  0  0  0  0  0
   -2.4648    5.3125   -3.8328 H   0  0  0  0  0  0  0  0  0  0  0  0
   -1.4179    6.6877   -4.3220 H   0  0  0  0  0  0  0  0  0  0  0  0
  1  3  1  0  0  0  0
  1  7  1  0  0  0  0
  1  2  2  0  0  0  0
 31 32  1  0  0  0  0
 32 40  1  0  0  0  0
 32 33  2  0  0  0  0
  8  9  1  0  0  0  0
  9 17  1  0  0  0  0
  9 10  2  0  0  0  0
 18 19  1  0  0  0  0
 19 30  1  0  0  0  0
 19 20  2  0  0  0  0
 21 22  1  0  0  0  0
 22 23  2  0  0  0  0
 22 24  1  0  0  0  0
 31 34  1  0  0  0  0
  8 11  1  0  0  0  0
 40 41  1  0  0  0  0
 18 21  1  0  0  0  0
 30 31  1  0  0  0  0
  7  8  1  0  0  0  0
 17 18  1  0  0  0  0
  3  4  1  0  0  0  0
  3  5  1  0  0  0  0
  3  6  1  0  0  0  0
 34 37  1  0  0  0  0
 34 38  1  0  0  0  0
 34 39  1  0  0  0  0
 11 14  1  0  0  0  0
 11 15  1  0  0  0  0
 11 16  1  0  0  0  0
 41 43  1  0  0  0  0
 41 44  1  0  0  0  0
 41 45  1  0  0  0  0
 21 27  1  0  0  0  0
 21 28  1  0  0  0  0
 31 36  1  0  0  0  0
  8 13  1  0  0  0  0
 18 26  1  0  0  0  0
 40 42  1  0  0  0  0
  7 12  1  0  0  0  0
 30 35  1  0  0  0  0
 17 25  1  0  0  0  0
 24 29  1  0  0  0  0
M  END
$$$$

  -OEChem-05262214473D

 45 44  0     1  0  0  0  0  0999 V2000
   -2.2987    4.1032   -0.3022 C   0  0  0  0  0  0  0  0  0  0  0  0
   -1.8049    3.7117   -1.3532 O   0  0  0  0  0  0  0  0  0  0  0  0
   -3.0791    5.3755   -0.2846 C   0  0  0  0  0  0  0  0  0  0  0  0
   -2.4478    6.2532   -0.0717 H   0  0  0  0  0  0  0  0  0  0  0  0
   -3.5571    5.5891   -1.2541 H   0  0  0  0  0  0  0  0  0  0  0  0
   -3.8940    5.4184    0.4556 H   0  0  0  0  0  0  0  0  0  0  0  0
   -2.2137    3.4712    0.9275 N   0  0  0  0  0  0  0  0  0  0  0  0
   -1.5102    2.2327    1.1338 C   0  0  2  0  0  0  0  0  0  0  0  0
   -1.3539    1.5497   -0.2184 C   0  0  0  0  0  0  0  0  0  0  0  0
   -2.0852    1.7861   -1.1778 O   0  0  0  0  0  0  0  0  0  0  0  0
   -2.2477    1.3342    2.1145 C   0  0  0  0  0  0  0  0  0  0  0  0
   -2.6724    3.9052    1.7265 H   0  0  0  0  0  0  0  0  0  0  0  0
   -0.5220    2.4922    1.5290 H   0  0  0  0  0  0  0  0  0  0  0  0
   -3.2400    1.0636    1.7358 H   0  0  0  0  0  0  0  0  0  0  0  0
   -1.6970    0.4046    2.2923 H   0  0  0  0  0  0  0  0  0  0  0  0
   -2.3854    1.8384    3.0772 H   0  0  0  0  0  0  0  0  0  0  0  0
   -0.3283    0.6116   -0.2182 N   0  0  0  0  0  0  0  0  0  0  0  0
    0.0090   -0.1762   -1.3759 C   0  0  2  0  0  0  0  0  0  0  0  0
    0.0344    0.7549   -2.5813 C   0  0  0  0  0  0  0  0  0  0  0  0
   -0.7234    0.6284   -3.5410 O   0  0  0  0  0  0  0  0  0  0  0  0
   -0.9777   -1.3202   -1.5946 C   0  0  0  0  0  0  0  0  0  0  0  0
   -0.8485   -2.3682   -0.5167 C   0  0  0  0  0  0  0  0  0  0  0  0
    0.1908   -2.6069    0.0845 O   0  0  0  0  0  0  0  0  0  0  0  0
   -2.0089   -3.0340   -0.2955 O   0  0  0  0  0  0  0  0  0  0  0  0
    0.2381    0.4970    0.6194 H   0  0  0  0  0  0  0  0  0  0  0  0
    1.0214   -0.5601   -1.2018 H   0  0  0  0  0  0  0  0  0  0  0  0
   -2.0141   -0.9612   -1.5603 H   0  0  0  0  0  0  0  0  0  0  0  0
   -0.8602   -1.7907   -2.5783 H   0  0  0  0  0  0  0  0  0  0  0  0
   -1.9608   -3.7332    0.3911 H   0  0  0  0  0  0  0  0  0  0  0  0
    0.9689    1.7708   -2.4377 N   0  0  0  0  0  0  0  0  0  0  0  0
    1.1730    2.7897   -3.4409 C   0  0  2  0  0  0  0  0  0  0  0  0
   -0.0798    3.6540   -3.4950 C   0  0  0  0  0  0  0  0  0  0  0  0
   -1.1800    3.2656   -3.1077 O   0  0  0  0  0  0  0  0  0  0  0  0
    1.4691    2.1761   -4.8005 C   0  0  0  0  0  0  0  0  0  0  0  0
    1.5322    1.7990   -1.5929 H   0  0  0  0  0  0  0  0  0  0  0  0
    2.0219    3.3964   -3.1073 H   0  0  0  0  0  0  0  0  0  0  0  0
    0.6298    1.5645   -5.1512 H   0  0  0  0  0  0  0  0  0  0  0  0
    1.6517    2.9497   -5.5536 H   0  0  0  0  0  0  0  0  0  0  0  0
    2.3532    1.5311   -4.7528 H   0  0  0  0  0  0  0  0  0  0  0  0
    0.1663    4.8946   -4.0664 N   0  0  0  0  0  0  0  0  0  0  0  0
   -0.8649    5.8906   -4.2418 C   0  0  0  0  0  0  0  0  0  0  0  0
    1.1130    5.1389   -4.3418 H   0  0  0  0  0  0  0  0  0  0  0  0
   -1.3120    5.7841   -5.2411 H   0  0  0  0  0  0  0  0  0  0  0  0
   -1.6422    5.7522   -3.4758 H   0  0  0  0  0  0  0  0  0  0  0  0
   -0.4259    6.8942   -4.1416 H   0  0  0  0  0  0  0  0  0  0  0  0
  1  3  1  0  0  0  0
  1  7  1  0  0  0  0
  1  2  2  0  0  0  0
 31 32  1  0  0  0  0
 32 40  1  0  0  0  0
 32 33  2  0  0  0  0
  8  9  1  0  0  0  0
  9 17  1  0  0  0  0
  9 10  2  0  0  0  0
 18 19  1  0  0  0  0
 19 30  1  0  0  0  0
 19 20  2  0  0  0  0
 21 22  1  0  0  0  0
 22 23  2  0  0  0  0
 22 24  1  0  0  0  0
 31 34  1  0  0  0  0
  8 11  1  0  0  0  0
 40 41  1  0  0  0  0
 18 21  1  0  0  0  0
 30 31  1  0  0  0  0
  7  8  1  0  0  0  0
 17 18  1  0  0  0  0
  3  4  1  0  0  0  0
  3  5  1  0  0  0  0
  3  6  1  0  0  0  0
 34 37  1  0  0  0  0
 34 38  1  0  0  0  0
 34 39  1  0  0  0  0
 11 14  1  0  0  0  0
 11 15  1  0  0  0  0
 11 16  1  0  0  0  0
 41 43  1  0  0  0  0
 41 44  1  0  0  0  0
 41 45  1  0  0  0  0
 21 27  1  0  0  0  0
 21 28  1  0  0  0  0
 31 36  1  0  0  0  0
  8 13  1  0  0  0  0
 18 26  1  0  0  0  0
 40 42  1  0  0  0  0
  7 12  1  0  0  0  0
 30 35  1  0  0  0  0
 17 25  1  0  0  0  0
 24 29  1  0  0  0  0
M  END
$$$$

  -OEChem-05262214473D

 45 44  0     1  0  0  0  0  0999 V2000
   -2.2987    4.1032   -0.3022 C   0  0  0  0  0  0  0  0  0  0  0  0
   -1.8049    3.7117   -1.3532 O   0  0  0  0  0  0  0  0  0  0  0  0
   -3.0791    5.3755   -0.2846 C   0  0  0  0  0  0  0  0  0  0  0  0
   -2.4478    6.2532   -0.0717 H   0  0  0  0  0  0  0  0  0  0  0  0
   -3.5571    5.5891   -1.2541 H   0  0  0  0  0  0  0  0  0  0  0  0
   -3.8940    5.4184    0.4556 H   0  0  0  0  0  0  0  0  0  0  0  0
   -2.2137    3.4712    0.9275 N   0  0  0  0  0  0  0  0  0  0  0  0
   -1.5102    2.2327    1.1338 C   0  0  2  0  0  0  0  0  0  0  0  0
   -1.3539    1.5497   -0.2184 C   0  0  0  0  0  0  0  0  0  0  0  0
   -2.0852    1.7861   -1.1778 O   0  0  0  0  0  0  0  0  0  0  0  0
   -2.2477    1.3342    2.1145 C   0  0  0  0  0  0  0  0  0  0  0  0
   -2.6724    3.9052    1.7265 H   0  0  0  0  0  0  0  0  0  0  0  0
   -0.5220    2.4922    1.5290 H   0  0  0  0  0  0  0  0  0  0  0  0
   -3.2400    1.0636    1.7358 H   0  0  0  0  0  0  0  0  0  0  0  0
   -1.6970    0.4046    2.2923 H   0  0  0  0  0  0  0  0  0  0  0  0
   -2.3854    1.8384    3.0772 H   0  0  0  0  0  0  0  0  0  0  0  0
   -0.3283    0.6116   -0.2182 N   0  0  0  0  0  0  0  0  0  0  0  0
    0.0090   -0.1762   -1.3759 C   0  0  2  0  0  0  0  0  0  0  0  0
    0.0344    0.7549   -2.5813 C   0  0  0  0  0  0  0  0  0  0  0  0
   -0.8750    0.8060   -3.4070 O   0  0  0  0  0  0  0  0  0  0  0  0
   -0.9777   -1.3202   -1.5946 C   0  0  0  0  0  0  0  0  0  0  0  0
   -0.8485   -2.3682   -0.5167 C   0  0  0  0  0  0  0  0  0  0  0  0
    0.1908   -2.6069    0.0845 O   0  0  0  0  0  0  0  0  0  0  0  0
   -2.0089   -3.0340   -0.2955 O   0  0  0  0  0  0  0  0  0  0  0  0
    0.2381    0.4970    0.6194 H   0  0  0  0  0  0  0  0  0  0  0  0
    1.0214   -0.5601   -1.2018 H   0  0  0  0  0  0  0  0  0  0  0  0
   -2.0141   -0.9612   -1.5603 H   0  0  0  0  0  0  0  0  0  0  0  0
   -0.8602   -1.7907   -2.5783 H   0  0  0  0  0  0  0  0  0  0  0  0
   -1.9608   -3.7332    0.3911 H   0  0  0  0  0  0  0  0  0  0  0  0
    1.1682    1.5551   -2.6002 N   0  0  0  0  0  0  0  0  0  0  0  0
    1.4160    2.5313   -3.6353 C   0  0  2  0  0  0  0  0  0  0  0  0
    0.3747    3.6345   -3.5005 C   0  0  0  0  0  0  0  0  0  0  0  0
   -0.7066    3.4712   -2.9389 O   0  0  0  0  0  0  0  0  0  0  0  0
    1.3617    1.8985   -5.0171 C   0  0  0  0  0  0  0  0  0  0  0  0
    1.8513    1.4499   -1.8559 H   0  0  0  0  0  0  0  0  0  0  0  0
    2.4131    2.9446   -3.4481 H   0  0  0  0  0  0  0  0  0  0  0  0
    0.3702    1.4789   -5.2227 H   0  0  0  0  0  0  0  0  0  0  0  0
    1.5780    2.6339   -5.7991 H   0  0  0  0  0  0  0  0  0  0  0  0
    2.0909    1.0856   -5.1024 H   0  0  0  0  0  0  0  0  0  0  0  0
    0.7768    4.8101   -4.1188 N   0  0  0  0  0  0  0  0  0  0  0  0
   -0.0426    5.9993   -4.1405 C   0  0  0  0  0  0  0  0  0  0  0  0
    1.6979    4.8614   -4.5438 H   0  0  0  0  0  0  0  0  0  0  0  0
   -0.6540    6.0073   -5.0549 H   0  0  0  0  0  0  0  0  0  0  0  0
   -0.7010    6.0069   -3.2593 H   0  0  0  0  0  0  0  0  0  0  0  0
    0.6031    6.8897   -4.1234 H   0  0  0  0  0  0  0  0  0  0  0  0
  1  3  1  0  0  0  0
  1  7  1  0  0  0  0
  1  2  2  0  0  0  0
 31 32  1  0  0  0  0
 32 40  1  0  0  0  0
 32 33  2  0  0  0  0
  8  9  1  0  0  0  0
  9 17  1  0  0  0  0
  9 10  2  0  0  0  0
 18 19  1  0  0  0  0
 19 30  1  0  0  0  0
 19 20  2  0  0  0  0
 21 22  1  0  0  0  0
 22 23  2  0  0  0  0
 22 24  1  0  0  0  0
 31 34  1  0  0  0  0
  8 11  1  0  0  0  0
 40 41  1  0  0  0  0
 18 21  1  0  0  0  0
 30 31  1  0  0  0  0
  7  8  1  0  0  0  0
 17 18  1  0  0  0  0
  3  4  1  0  0  0  0
  3  5  1  0  0  0  0
  3  6  1  0  0  0  0
 34 37  1  0  0  0  0
 34 38  1  0  0  0  0
 34 39  1  0  0  0  0
 11 14  1  0  0  0  0
 11 15  1  0  0  0  0
 11 16  1  0  0  0  0
 41 43  1  0  0  0  0
 41 44  1  0  0  0  0
 41 45  1  0  0  0  0
 21 27  1  0  0  0  0
 21 28  1  0  0  0  0
 31 36  1  0  0  0  0
  8 13  1  0  0  0  0
 18 26  1  0  0  0  0
 40 42  1  0  0  0  0
  7 12  1  0  0  0  0
 30 35  1  0  0  0  0
 17 25  1  0  0  0  0
 24 29  1  0  0  0  0
M  END
$$$$

  -OEChem-05262214473D

 45 44  0     1  0  0  0  0  0999 V2000
   -2.2987    4.1032   -0.3022 C   0  0  0  0  0  0  0  0  0  0  0  0
   -1.8049    3.7117   -1.3532 O   0  0  0  0  0  0  0  0  0  0  0  0
   -3.0791    5.3755   -0.2846 C   0  0  0  0  0  0  0  0  0  0  0  0
   -2.4478    6.2532   -0.0717 H   0  0  0  0  0  0  0  0  0  0  0  0
   -3.5571    5.5891   -1.2541 H   0  0  0  0  0  0  0  0  0  0  0  0
   -3.8940    5.4184    0.4556 H   0  0  0  0  0  0  0  0  0  0  0  0
   -2.2137    3.4712    0.9275 N   0  0  0  0  0  0  0  0  0  0  0  0
   -1.5102    2.2327    1.1338 C   0  0  2  0  0  0  0  0  0  0  0  0
   -1.3539    1.5497   -0.2184 C   0  0  0  0  0  0  0  0  0  0  0  0
   -2.0852    1.7861   -1.1778 O   0  0  0  0  0  0  0  0  0  0  0  0
   -2.2477    1.3342    2.1145 C   0  0  0  0  0  0  0  0  0  0  0  0
   -2.6724    3.9052    1.7265 H   0  0  0  0  0  0  0  0  0  0  0  0
   -0.5220    2.4922    1.5290 H   0  0  0  0  0  0  0  0  0  0  0  0
   -3.2400    1.0636    1.7358 H   0  0  0  0  0  0  0  0  0  0  0  0
   -1.6970    0.4046    2.2923 H   0  0  0  0  0  0  0  0  0  0  0  0
   -2.3854    1.8384    3.0772 H   0  0  0  0  0  0  0  0  0  0  0  0
   -0.3283    0.6116   -0.2182 N   0  0  0  0  0  0  0  0  0  0  0  0
    0.0090   -0.1762   -1.3759 C   0  0  2  0  0  0  0  0  0  0  0  0
    0.0344    0.7549   -2.5813 C   0  0  0  0  0  0  0  0  0  0  0  0
   -0.9638    1.0079   -3.2529 O   0  0  0  0  0  0  0  0  0  0  0  0
   -0.9777   -1.3202   -1.5946 C   0  0  0  0  0  0  0  0  0  0  0  0
   -0.8485   -2.3682   -0.5167 C   0  0  0  0  0  0  0  0  0  0  0  0
    0.1908   -2.6069    0.0845 O   0  0  0  0  0  0  0  0  0  0  0  0
   -2.0089   -3.0340   -0.2955 O   0  0  0  0  0  0  0  0  0  0  0  0
    0.2381    0.4970    0.6194 H   0  0  0  0  0  0  0  0  0  0  0  0
    1.0214   -0.5601   -1.2018 H   0  0  0  0  0  0  0  0  0  0  0  0
   -2.0141   -0.9612   -1.5603 H   0  0  0  0  0  0  0  0  0  0  0  0
   -0.8602   -1.7907   -2.5783 H   0  0  0  0  0  0  0  0  0  0  0  0
   -1.9608   -3.7332    0.3911 H   0  0  0  0  0  0  0  0  0  0  0  0
    1.2907    1.3066   -2.7896 N   0  0  0  0  0  0  0  0  0  0  0  0
    1.5671    2.2328   -3.8627 C   0  0  2  0  0  0  0  0  0  0  0  0
    0.8088    3.5225   -3.5778 C   0  0  0  0  0  0  0  0  0  0  0  0
   -0.1805    3.5722   -2.8499 O   0  0  0  0  0  0  0  0  0  0  0  0
    1.1669    1.6534   -5.2106 C   0  0  0  0  0  0  0  0  0  0  0  0
    2.0464    1.0485   -2.1618 H   0  0  0  0  0  0  0  0  0  0  0  0
    2.6445    2.4296   -3.8411 H   0  0  0  0  0  0  0  0  0  0  0  0
    0.0906    1.4497   -5.2512 H   0  0  0  0  0  0  0  0  0  0  0  0
    1.4033    2.3451   -6.0258 H   0  0  0  0  0  0  0  0  0  0  0  0
    1.6910    0.7105   -5.4006 H   0  0  0  0  0  0  0  0  0  0  0  0
    1.3409    4.6038   -4.2663 N   0  0  0  0  0  0  0  0  0  0  0  0
    0.7899    5.9355   -4.1722 C   0  0  0  0  0  0  0  0  0  0  0  0
    2.1740    4.4745   -4.8327 H   0  0  0  0  0  0  0  0  0  0  0  0
    0.0568    6.0874   -4.9781 H   0  0  0  0  0  0  0  0  0  0  0  0
    0.2946    6.0593   -3.1979 H   0  0  0  0  0  0  0  0  0  0  0  0
    1.5990    6.6745   -4.2687 H   0  0  0  0  0  0  0  0  0  0  0  0
  1  3  1  0  0  0  0
  1  7  1  0  0  0  0
  1  2  2  0  0  0  0
 31 32  1  0  0  0  0
 32 40  1  0  0  0  0
 32 33  2  0  0  0  0
  8  9  1  0  0  0  0
  9 17  1  0  0  0  0
  9 10  2  0  0  0  0
 18 19  1  0  0  0  0
 19 30  1  0  0  0  0
 19 20  2  0  0  0  0
 21 22  1  0  0  0  0
 22 23  2  0  0  0  0
 22 24  1  0  0  0  0
 31 34  1  0  0  0  0
  8 11  1  0  0  0  0
 40 41  1  0  0  0  0
 18 21  1  0  0  0  0
 30 31  1  0  0  0  0
  7  8  1  0  0  0  0
 17 18  1  0  0  0  0
  3  4  1  0  0  0  0
  3  5  1  0  0  0  0
  3  6  1  0  0  0  0
 34 37  1  0  0  0  0
 34 38  1  0  0  0  0
 34 39  1  0  0  0  0
 11 14  1  0  0  0  0
 11 15  1  0  0  0  0
 11 16  1  0  0  0  0
 41 43  1  0  0  0  0
 41 44  1  0  0  0  0
 41 45  1  0  0  0  0
 21 27  1  0  0  0  0
 21 28  1  0  0  0  0
 31 36  1  0  0  0  0
  8 13  1  0  0  0  0
 18 26  1  0  0  0  0
 40 42  1  0  0  0  0
  7 12  1  0  0  0  0
 30 35  1  0  0  0  0
 17 25  1  0  0  0  0
 24 29  1  0  0  0  0
M  END
$$$$

  -OEChem-05262214473D

 45 44  0     1  0  0  0  0  0999 V2000
   -2.2987    4.1032   -0.3022 C   0  0  0  0  0  0  0  0  0  0  0  0
   -1.8049    3.7117   -1.3532 O   0  0  0  0  0  0  0  0  0  0  0  0
   -3.0791    5.3755   -0.2846 C   0  0  0  0  0  0  0  0  0  0  0  0
   -2.4478    6.2532   -0.0717 H   0  0  0  0  0  0  0  0  0  0  0  0
   -3.5571    5.5891   -1.2541 H   0  0  0  0  0  0  0  0  0  0  0  0
   -3.8940    5.4184    0.4556 H   0  0  0  0  0  0  0  0  0  0  0  0
   -2.2137    3.4712    0.9275 N   0  0  0  0  0  0  0  0  0  0  0  0
   -1.5102    2.2327    1.1338 C   0  0  2  0  0  0  0  0  0  0  0  0
   -1.3539    1.5497   -0.2184 C   0  0  0  0  0  0  0  0  0  0  0  0
   -2.0852    1.7861   -1.1778 O   0  0  0  0  0  0  0  0  0  0  0  0
   -2.2477    1.3342    2.1145 C   0  0  0  0  0  0  0  0  0  0  0  0
   -2.6724    3.9052    1.7265 H   0  0  0  0  0  0  0  0  0  0  0  0
   -0.5220    2.4922    1.5290 H   0  0  0  0  0  0  0  0  0  0  0  0
   -3.2400    1.0636    1.7358 H   0  0  0  0  0  0  0  0  0  0  0  0
   -1.6970    0.4046    2.2923 H   0  0  0  0  0  0  0  0  0  0  0  0
   -2.3854    1.8384    3.0772 H   0  0  0  0  0  0  0  0  0  0  0  0
   -0.3283    0.6116   -0.2182 N   0  0  0  0  0  0  0  0  0  0  0  0
    0.0090   -0.1762   -1.3759 C   0  0  2  0  0  0  0  0  0  0  0  0
    0.0344    0.7549   -2.5813 C   0  0  0  0  0  0  0  0  0  0  0  0
   -0.9838    1.2206   -3.0890 O   0  0  0  0  0  0  0  0  0  0  0  0
   -0.9777   -1.3202   -1.5946 C   0  0  0  0  0  0  0  0  0  0  0  0
   -0.8485   -2.3682   -0.5167 C   0  0  0  0  0  0  0  0  0  0  0  0
    0.1908   -2.6069    0.0845 O   0  0  0  0  0  0  0  0  0  0  0  0
   -2.0089   -3.0340   -0.2955 O   0  0  0  0  0  0  0  0  0  0  0  0
    0.2381    0.4970    0.6194 H   0  0  0  0  0  0  0  0  0  0  0  0
    1.0214   -0.5601   -1.2018 H   0  0  0  0  0  0  0  0  0  0  0  0
   -2.0141   -0.9612   -1.5603 H   0  0  0  0  0  0  0  0  0  0  0  0
   -0.8602   -1.7907   -2.5783 H   0  0  0  0  0  0  0  0  0  0  0  0
   -1.9608   -3.7332    0.3911 H   0  0  0  0  0  0  0  0  0  0  0  0
    1.3283    1.0423   -2.9929 N   0  0  0  0  0  0  0  0  0  0  0  0
    1.6159    1.9146   -4.1075 C   0  0  2  0  0  0  0  0  0  0  0  0
    1.1930    3.3258   -3.7217 C   0  0  0  0  0  0  0  0  0  0  0  0
    0.3624    3.5615   -2.8466 O   0  0  0  0  0  0  0  0  0  0  0  0
    0.8978    1.4573   -5.3677 C   0  0  0  0  0  0  0  0  0  0  0  0
    2.1043    0.6222   -2.4899 H   0  0  0  0  0  0  0  0  0  0  0  0
    2.7004    1.8864   -4.2595 H   0  0  0  0  0  0  0  0  0  0  0  0
   -0.1900    1.4789   -5.2345 H   0  0  0  0  0  0  0  0  0  0  0  0
    1.1395    2.1029   -6.2185 H   0  0  0  0  0  0  0  0  0  0  0  0
    1.1807    0.4314   -5.6270 H   0  0  0  0  0  0  0  0  0  0  0  0
    1.8201    4.2895   -4.4990 N   0  0  0  0  0  0  0  0  0  0  0  0
    1.5760    5.7035   -4.3349 C   0  0  0  0  0  0  0  0  0  0  0  0
    2.5090    4.0044   -5.1888 H   0  0  0  0  0  0  0  0  0  0  0  0
    0.7718    6.0188   -5.0160 H   0  0  0  0  0  0  0  0  0  0  0  0
    1.2766    5.9057   -3.2959 H   0  0  0  0  0  0  0  0  0  0  0  0
    2.4939    6.2634   -4.5675 H   0  0  0  0  0  0  0  0  0  0  0  0
  1  3  1  0  0  0  0
  1  7  1  0  0  0  0
  1  2  2  0  0  0  0
 31 32  1  0  0  0  0
 32 40  1  0  0  0  0
 32 33  2  0  0  0  0
  8  9  1  0  0  0  0
  9 17  1  0  0  0  0
  9 10  2  0  0  0  0
 18 19  1  0  0  0  0
 19 30  1  0  0  0  0
 19 20  2  0  0  0  0
 21 22  1  0  0  0  0
 22 23  2  0  0  0  0
 22 24  1  0  0  0  0
 31 34  1  0  0  0  0
  8 11  1  0  0  0  0
 40 41  1  0  0  0  0
 18 21  1  0  0  0  0
 30 31  1  0  0  0  0
  7  8  1  0  0  0  0
 17 18  1  0  0  0  0
  3  4  1  0  0  0  0
  3  5  1  0  0  0  0
  3  6  1  0  0  0  0
 34 37  1  0  0  0  0
 34 38  1  0  0  0  0
 34 39  1  0  0  0  0
 11 14  1  0  0  0  0
 11 15  1  0  0  0  0
 11 16  1  0  0  0  0
 41 43  1  0  0  0  0
 41 44  1  0  0  0  0
 41 45  1  0  0  0  0
 21 27  1  0  0  0  0
 21 28  1  0  0  0  0
 31 36  1  0  0  0  0
  8 13  1  0  0  0  0
 18 26  1  0  0  0  0
 40 42  1  0  0  0  0
  7 12  1  0  0  0  0
 30 35  1  0  0  0  0
 17 25  1  0  0  0  0
 24 29  1  0  0  0  0
M  END
$$$$

  -OEChem-05262214473D

 45 44  0     1  0  0  0  0  0999 V2000
   -2.2987    4.1032   -0.3022 C   0  0  0  0  0  0  0  0  0  0  0  0
   -1.8049    3.7117   -1.3532 O   0  0  0  0  0  0  0  0  0  0  0  0
   -3.0791    5.3755   -0.2846 C   0  0  0  0  0  0  0  0  0  0  0  0
   -2.4478    6.2532   -0.0717 H   0  0  0  0  0  0  0  0  0  0  0  0
   -3.5571    5.5891   -1.2541 H   0  0  0  0  0  0  0  0  0  0  0  0
   -3.8940    5.4184    0.4556 H   0  0  0  0  0  0  0  0  0  0  0  0
   -2.2137    3.4712    0.9275 N   0  0  0  0  0  0  0  0  0  0  0  0
   -1.5102    2.2327    1.1338 C   0  0  2  0  0  0  0  0  0  0  0  0
   -1.3539    1.5497   -0.2184 C   0  0  0  0  0  0  0  0  0  0  0  0
   -2.0852    1.7861   -1.1778 O   0  0  0  0  0  0  0  0  0  0  0  0
   -2.2477    1.3342    2.1145 C   0  0  0  0  0  0  0  0  0  0  0  0
   -2.6724    3.9052    1.7265 H   0  0  0  0  0  0  0  0  0  0  0  0
   -0.5220    2.4922    1.5290 H   0  0  0  0  0  0  0  0  0  0  0  0
   -3.2400    1.0636    1.7358 H   0  0  0  0  0  0  0  0  0  0  0  0
   -1.6970    0.4046    2.2923 H   0  0  0  0  0  0  0  0  0  0  0  0
   -2.3854    1.8384    3.0772 H   0  0  0  0  0  0  0  0  0  0  0  0
   -0.3283    0.6116   -0.2182 N   0  0  0  0  0  0  0  0  0  0  0  0
    0.0090   -0.1762   -1.3759 C   0  0  2  0  0  0  0  0  0  0  0  0
    0.0344    0.7549   -2.5813 C   0  0  0  0  0  0  0  0  0  0  0  0
   -0.9337    1.4293   -2.9267 O   0  0  0  0  0  0  0  0  0  0  0  0
   -0.9777   -1.3202   -1.5946 C   0  0  0  0  0  0  0  0  0  0  0  0
   -0.8485   -2.3682   -0.5167 C   0  0  0  0  0  0  0  0  0  0  0  0
    0.1908   -2.6069    0.0845 O   0  0  0  0  0  0  0  0  0  0  0  0
   -2.0089   -3.0340   -0.2955 O   0  0  0  0  0  0  0  0  0  0  0  0
    0.2381    0.4970    0.6194 H   0  0  0  0  0  0  0  0  0  0  0  0
    1.0214   -0.5601   -1.2018 H   0  0  0  0  0  0  0  0  0  0  0  0
   -2.0141   -0.9612   -1.5603 H   0  0  0  0  0  0  0  0  0  0  0  0
   -0.8602   -1.7907   -2.5783 H   0  0  0  0  0  0  0  0  0  0  0  0
   -1.9608   -3.7332    0.3911 H   0  0  0  0  0  0  0  0  0  0  0  0
    1.2782    0.7802   -3.1965 N   0  0  0  0  0  0  0  0  0  0  0  0
    1.5592    1.5982   -4.3531 C   0  0  2  0  0  0  0  0  0  0  0  0
    1.5010    3.0578   -3.9222 C   0  0  0  0  0  0  0  0  0  0  0  0
    0.8852    3.4401   -2.9295 O   0  0  0  0  0  0  0  0  0  0  0  0
    0.5730    1.3237   -5.4777 C   0  0  0  0  0  0  0  0  0  0  0  0
    2.0210    0.1999   -2.8179 H   0  0  0  0  0  0  0  0  0  0  0  0
    2.5770    1.3520   -4.6749 H   0  0  0  0  0  0  0  0  0  0  0  0
   -0.4523    1.5644   -5.1740 H   0  0  0  0  0  0  0  0  0  0  0  0
    0.8046    1.9238   -6.3639 H   0  0  0  0  0  0  0  0  0  0  0  0
    0.5948    0.2672   -5.7661 H   0  0  0  0  0  0  0  0  0  0  0  0
    2.1819    3.8888   -4.8008 N   0  0  0  0  0  0  0  0  0  0  0  0
    2.2621    5.3192   -4.6173 C   0  0  0  0  0  0  0  0  0  0  0  0
    2.6800    3.4833   -5.5877 H   0  0  0  0  0  0  0  0  0  0  0  0
    1.4425    5.8063   -5.1660 H   0  0  0  0  0  0  0  0  0  0  0  0
    2.1782    5.5566   -3.5465 H   0  0  0  0  0  0  0  0  0  0  0  0
    3.2268    5.6842   -4.9994 H   0  0  0  0  0  0  0  0  0  0  0  0
  1  3  1  0  0  0  0
  1  7  1  0  0  0  0
  1  2  2  0  0  0  0
 31 32  1  0  0  0  0
 32 40  1  0  0  0  0
 32 33  2  0  0  0  0
  8  9  1  0  0  0  0
  9 17  1  0  0  0  0
  9 10  2  0  0  0  0
 18 19  1  0  0  0  0
 19 30  1  0  0  0  0
 19 20  2  0  0  0  0
 21 22  1  0  0  0  0
 22 23  2  0  0  0  0
 22 24  1  0  0  0  0
 31 34  1  0  0  0  0
  8 11  1  0  0  0  0
 40 41  1  0  0  0  0
 18 21  1  0  0  0  0
 30 31  1  0  0  0  0
  7  8  1  0  0  0  0
 17 18  1  0  0  0  0
  3  4  1  0  0  0  0
  3  5  1  0  0  0  0
  3  6  1  0  0  0  0
 34 37  1  0  0  0  0
 34 38  1  0  0  0  0
 34 39  1  0  0  0  0
 11 14  1  0  0  0  0
 11 15  1  0  0  0  0
 11 16  1  0  0  0  0
 41 43  1  0  0  0  0
 41 44  1  0  0  0  0
 41 45  1  0  0  0  0
 21 27  1  0  0  0  0
 21 28  1  0  0  0  0
 31 36  1  0  0  0  0
  8 13  1  0  0  0  0
 18 26  1  0  0  0  0
 40 42  1  0  0  0  0
  7 12  1  0  0  0  0
 30 35  1  0  0  0  0
 17 25  1  0  0  0  0
 24 29  1  0  0  0  0
M  END
$$$$

  -OEChem-05262214473D

 45 44  0     1  0  0  0  0  0999 V2000
   -2.2987    4.1032   -0.3022 C   0  0  0  0  0  0  0  0  0  0  0  0
   -1.8049    3.7117   -1.3532 O   0  0  0  0  0  0  0  0  0  0  0  0
   -3.0791    5.3755   -0.2846 C   0  0  0  0  0  0  0  0  0  0  0  0
   -2.4478    6.2532   -0.0717 H   0  0  0  0  0  0  0  0  0  0  0  0
   -3.5571    5.5891   -1.2541 H   0  0  0  0  0  0  0  0  0  0  0  0
   -3.8940    5.4184    0.4556 H   0  0  0  0  0  0  0  0  0  0  0  0
   -2.2137    3.4712    0.9275 N   0  0  0  0  0  0  0  0  0  0  0  0
   -1.5102    2.2327    1.1338 C   0  0  2  0  0  0  0  0  0  0  0  0
   -1.3539    1.5497   -0.2184 C   0  0  0  0  0  0  0  0  0  0  0  0
   -2.0852    1.7861   -1.1778 O   0  0  0  0  0  0  0  0  0  0  0  0
   -2.2477    1.3342    2.1145 C   0  0  0  0  0  0  0  0  0  0  0  0
   -2.6724    3.9052    1.7265 H   0  0  0  0  0  0  0  0  0  0  0  0
   -0.5220    2.4922    1.5290 H   0  0  0  0  0  0  0  0  0  0  0  0
   -3.2400    1.0636    1.7358 H   0  0  0  0  0  0  0  0  0  0  0  0
   -1.6970    0.4046    2.2923 H   0  0  0  0  0  0  0  0  0  0  0  0
   -2.3854    1.8384    3.0772 H   0  0  0  0  0  0  0  0  0  0  0  0
   -0.3283    0.6116   -0.2182 N   0  0  0  0  0  0  0  0  0  0  0  0
    0.0090   -0.1762   -1.3759 C   0  0  2  0  0  0  0  0  0  0  0  0
    0.0344    0.7549   -2.5813 C   0  0  0  0  0  0  0  0  0  0  0  0
   -0.8168    1.6200   -2.7769 O   0  0  0  0  0  0  0  0  0  0  0  0
   -0.9777   -1.3202   -1.5946 C   0  0  0  0  0  0  0  0  0  0  0  0
   -0.8485   -2.3682   -0.5167 C   0  0  0  0  0  0  0  0  0  0  0  0
    0.1908   -2.6069    0.0845 O   0  0  0  0  0  0  0  0  0  0  0  0
   -2.0089   -3.0340   -0.2955 O   0  0  0  0  0  0  0  0  0  0  0  0
    0.2381    0.4970    0.6194 H   0  0  0  0  0  0  0  0  0  0  0  0
    1.0214   -0.5601   -1.2018 H   0  0  0  0  0  0  0  0  0  0  0  0
   -2.0141   -0.9612   -1.5603 H   0  0  0  0  0  0  0  0  0  0  0  0
   -0.8602   -1.7907   -2.5783 H   0  0  0  0  0  0  0  0  0  0  0  0
   -1.9608   -3.7332    0.3911 H   0  0  0  0  0  0  0  0  0  0  0  0
    1.1440    0.5381   -3.3863 N   0  0  0  0  0  0  0  0  0  0  0  0
    1.4007    1.3053   -4.5827 C   0  0  2  0  0  0  0  0  0  0  0  0
    1.7120    2.7367   -4.1659 C   0  0  0  0  0  0  0  0  0  0  0  0
    1.3521    3.2161   -3.0927 O   0  0  0  0  0  0  0  0  0  0  0  0
    0.2144    1.2617   -5.5332 C   0  0  0  0  0  0  0  0  0  0  0  0
    1.8021   -0.1895   -3.1233 H   0  0  0  0  0  0  0  0  0  0  0  0
    2.2826    0.8630   -5.0588 H   0  0  0  0  0  0  0  0  0  0  0  0
   -0.6787    1.7006   -5.0736 H   0  0  0  0  0  0  0  0  0  0  0  0
    0.4215    1.8200   -6.4521 H   0  0  0  0  0  0  0  0  0  0  0  0
   -0.0267    0.2293   -5.8085 H   0  0  0  0  0  0  0  0  0  0  0  0
    2.4015    3.4290   -5.1514 N   0  0  0  0  0  0  0  0  0  0  0  0
    2.8013    4.8086   -5.0004 C   0  0  0  0  0  0  0  0  0  0  0  0
    2.6754    2.9467   -6.0023 H   0  0  0  0  0  0  0  0  0  0  0  0
    2.0231    5.4643   -5.4180 H   0  0  0  0  0  0  0  0  0  0  0  0
    2.9380    5.0359   -3.9328 H   0  0  0  0  0  0  0  0  0  0  0  0
    3.7478    4.9766   -5.5351 H   0  0  0  0  0  0  0  0  0  0  0  0
  1  3  1  0  0  0  0
  1  7  1  0  0  0  0
  1  2  2  0  0  0  0
 31 32  1  0  0  0  0
 32 40  1  0  0  0  0
 32 33  2  0  0  0  0
  8  9  1  0  0  0  0
  9 17  1  0  0  0  0
  9 10  2  0  0  0  0
 18 19  1  0  0  0  0
 19 30  1  0  0  0  0
 19 20  2  0  0  0  0
 21 22  1  0  0  0  0
 22 23  2  0  0  0  0
 22 24  1  0  0  0  0
 31 34  1  0  0  0  0
  8 11  1  0  0  0  0
 40 41  1  0  0  0  0
 18 21  1  0  0  0  0
 30 31  1  0  0  0  0
  7  8  1  0  0  0  0
 17 18  1  0  0  0  0
  3  4  1  0  0  0  0
  3  5  1  0  0  0  0
  3  6  1  0  0  0  0
 34 37  1  0  0  0  0
 34 38  1  0  0  0  0
 34 39  1  0  0  0  0
 11 14  1  0  0  0  0
 11 15  1  0  0  0  0
 11 16  1  0  0  0  0
 41 43  1  0  0  0  0
 41 44  1  0  0  0  0
 41 45  1  0  0  0  0
 21 27  1  0  0  0  0
 21 28  1  0  0  0  0
 31 36  1  0  0  0  0
  8 13  1  0  0  0  0
 18 26  1  0  0  0  0
 40 42  1  0  0  0  0
  7 12  1  0  0  0  0
 30 35  1  0  0  0  0
 17 25  1  0  0  0  0
 24 29  1  0  0  0  0
M  END
$$$$

  -OEChem-05262214473D

 45 44  0     1  0  0  0  0  0999 V2000
   -2.2987    4.1032   -0.3022 C   0  0  0  0  0  0  0  0  0  0  0  0
   -1.8049    3.7117   -1.3532 O   0  0  0  0  0  0  0  0  0  0  0  0
   -3.0791    5.3755   -0.2846 C   0  0  0  0  0  0  0  0  0  0  0  0
   -2.4478    6.2532   -0.0717 H   0  0  0  0  0  0  0  0  0  0  0  0
   -3.5571    5.5891   -1.2541 H   0  0  0  0  0  0  0  0  0  0  0  0
   -3.8940    5.4184    0.4556 H   0  0  0  0  0  0  0  0  0  0  0  0
   -2.2137    3.4712    0.9275 N   0  0  0  0  0  0  0  0  0  0  0  0
   -1.5102    2.2327    1.1338 C   0  0  2  0  0  0  0  0  0  0  0  0
   -1.3539    1.5497   -0.2184 C   0  0  0  0  0  0  0  0  0  0  0  0
   -2.0852    1.7861   -1.1778 O   0  0  0  0  0  0  0  0  0  0  0  0
   -2.2477    1.3342    2.1145 C   0  0  0  0  0  0  0  0  0  0  0  0
   -2.6724    3.9052    1.7265 H   0  0  0  0  0  0  0  0  0  0  0  0
   -0.5220    2.4922    1.5290 H   0  0  0  0  0  0  0  0  0  0  0  0
   -3.2400    1.0636    1.7358 H   0  0  0  0  0  0  0  0  0  0  0  0
   -1.6970    0.4046    2.2923 H   0  0  0  0  0  0  0  0  0  0  0  0
   -2.3854    1.8384    3.0772 H   0  0  0  0  0  0  0  0  0  0  0  0
   -0.3283    0.6116   -0.2182 N   0  0  0  0  0  0  0  0  0  0  0  0
    0.0090   -0.1762   -1.3759 C   0  0  2  0  0  0  0  0  0  0  0  0
    0.0344    0.7549   -2.5813 C   0  0  0  0  0  0  0  0  0  0  0  0
   -0.6412    1.7797   -2.6499 O   0  0  0  0  0  0  0  0  0  0  0  0
   -0.9777   -1.3202   -1.5946 C   0  0  0  0  0  0  0  0  0  0  0  0
   -0.8485   -2.3682   -0.5167 C   0  0  0  0  0  0  0  0  0  0  0  0
    0.1908   -2.6069    0.0845 O   0  0  0  0  0  0  0  0  0  0  0  0
   -2.0089   -3.0340   -0.2955 O   0  0  0  0  0  0  0  0  0  0  0  0
    0.2381    0.4970    0.6194 H   0  0  0  0  0  0  0  0  0  0  0  0
    1.0214   -0.5601   -1.2018 H   0  0  0  0  0  0  0  0  0  0  0  0
   -2.0141   -0.9612   -1.5603 H   0  0  0  0  0  0  0  0  0  0  0  0
   -0.8602   -1.7907   -2.5783 H   0  0  0  0  0  0  0  0  0  0  0  0
   -1.9608   -3.7332    0.3911 H   0  0  0  0  0  0  0  0  0  0  0  0
    0.9347    0.3326   -3.5494 N   0  0  0  0  0  0  0  0  0  0  0  0
    1.1514    1.0558   -4.7807 C   0  0  2  0  0  0  0  0  0  0  0  0
    1.8114    2.3843   -4.4359 C   0  0  0  0  0  0  0  0  0  0  0  0
    1.7314    2.9048   -3.3252 O   0  0  0  0  0  0  0  0  0  0  0  0
   -0.1534    1.2754   -5.5303 C   0  0  0  0  0  0  0  0  0  0  0  0
    1.4627   -0.5195   -3.3853 H   0  0  0  0  0  0  0  0  0  0  0  0
    1.8374    0.4525   -5.3853 H   0  0  0  0  0  0  0  0  0  0  0  0
   -0.8536    1.8780   -4.9402 H   0  0  0  0  0  0  0  0  0  0  0  0
    0.0162    1.7986   -6.4772 H   0  0  0  0  0  0  0  0  0  0  0  0
   -0.6415    0.3201   -5.7513 H   0  0  0  0  0  0  0  0  0  0  0  0
    2.4640    2.9414   -5.5268 N   0  0  0  0  0  0  0  0  0  0  0  0
    3.1571    4.2067   -5.4578 C   0  0  0  0  0  0  0  0  0  0  0  0
    2.4954    2.4310   -6.4044 H   0  0  0  0  0  0  0  0  0  0  0  0
    2.4740    5.0162   -5.7547 H   0  0  0  0  0  0  0  0  0  0  0  0
    3.5041    4.3789   -4.4283 H   0  0  0  0  0  0  0  0  0  0  0  0
    4.0215    4.1887   -6.1379 H   0  0  0  0  0  0  0  0  0  0  0  0
  1  3  1  0  0  0  0
  1  7  1  0  0  0  0
  1  2  2  0  0  0  0
 31 32  1  0  0  0  0
 32 40  1  0  0  0  0
 32 33  2  0  0  0  0
  8  9  1  0  0  0  0
  9 17  1  0  0  0  0
  9 10  2  0  0  0  0
 18 19  1  0  0  0  0
 19 30  1  0  0  0  0
 19 20  2  0  0  0  0
 21 22  1  0  0  0  0
 22 23  2  0  0  0  0
 22 24  1  0  0  0  0
 31 34  1  0  0  0  0
  8 11  1  0  0  0  0
 40 41  1  0  0  0  0
 18 21  1  0  0  0  0
 30 31  1  0  0  0  0
  7  8  1  0  0  0  0
 17 18  1  0  0  0  0
  3  4  1  0  0  0  0
  3  5  1  0  0  0  0
  3  6  1  0  0  0  0
 34 37  1  0  0  0  0
 34 38  1  0  0  0  0
 34 39  1  0  0  0  0
 11 14  1  0  0  0  0
 11 15  1  0  0  0  0
 11 16  1  0  0  0  0
 41 43  1  0  0  0  0
 41 44  1  0  0  0  0
 41 45  1  0  0  0  0
 21 27  1  0  0  0  0
 21 28  1  0  0  0  0
 31 36  1  0  0  0  0
  8 13  1  0  0  0  0
 18 26  1  0  0  0  0
 40 42  1  0  0  0  0
  7 12  1  0  0  0  0
 30 35  1  0  0  0  0
 17 25  1  0  0  0  0
 24 29  1  0  0  0  0
M  END
$$$$

  -OEChem-05262214473D

 45 44  0     1  0  0  0  0  0999 V2000
   -2.2987    4.1032   -0.3022 C   0  0  0  0  0  0  0  0  0  0  0  0
   -1.8049    3.7117   -1.3532 O   0  0  0  0  0  0  0  0  0  0  0  0
   -3.0791    5.3755   -0.2846 C   0  0  0  0  0  0  0  0  0  0  0  0
   -2.4478    6.2532   -0.0717 H   0  0  0  0  0  0  0  0  0  0  0  0
   -3.5571    5.5891   -1.2541 H   0  0  0  0  0  0  0  0  0  0  0  0
   -3.8940    5.4184    0.4556 H   0  0  0  0  0  0  0  0  0  0  0  0
   -2.2137    3.4712    0.9275 N   0  0  0  0  0  0  0  0  0  0  0  0
   -1.5102    2.2327    1.1338 C   0  0  2  0  0  0  0  0  0  0  0  0
   -1.3539    1.5497   -0.2184 C   0  0  0  0  0  0  0  0  0  0  0  0
   -2.0852    1.7861   -1.1778 O   0  0  0  0  0  0  0  0  0  0  0  0
   -2.2477    1.3342    2.1145 C   0  0  0  0  0  0  0  0  0  0  0  0
   -2.6724    3.9052    1.7265 H   0  0  0  0  0  0  0  0  0  0  0  0
   -0.5220    2.4922    1.5290 H   0  0  0  0  0  0  0  0  0  0  0  0
   -3.2400    1.0636    1.7358 H   0  0  0  0  0  0  0  0  0  0  0  0
   -1.6970    0.4046    2.2923 H   0  0  0  0  0  0  0  0  0  0  0  0
   -2.3854    1.8384    3.0772 H   0  0  0  0  0  0  0  0  0  0  0  0
   -0.3283    0.6116   -0.2182 N   0  0  0  0  0  0  0  0  0  0  0  0
    0.0090   -0.1762   -1.3759 C   0  0  2  0  0  0  0  0  0  0  0  0
    0.0344    0.7549   -2.5813 C   0  0  0  0  0  0  0  0  0  0  0  0
   -0.4188    1.8974   -2.5544 O   0  0  0  0  0  0  0  0  0  0  0  0
   -0.9777   -1.3202   -1.5946 C   0  0  0  0  0  0  0  0  0  0  0  0
   -0.8485   -2.3682   -0.5167 C   0  0  0  0  0  0  0  0  0  0  0  0
    0.1908   -2.6069    0.0845 O   0  0  0  0  0  0  0  0  0  0  0  0
   -2.0089   -3.0340   -0.2955 O   0  0  0  0  0  0  0  0  0  0  0  0
    0.2381    0.4970    0.6194 H   0  0  0  0  0  0  0  0  0  0  0  0
    1.0214   -0.5601   -1.2018 H   0  0  0  0  0  0  0  0  0  0  0  0
   -2.0141   -0.9612   -1.5603 H   0  0  0  0  0  0  0  0  0  0  0  0
   -0.8602   -1.7907   -2.5783 H   0  0  0  0  0  0  0  0  0  0  0  0
   -1.9608   -3.7332    0.3911 H   0  0  0  0  0  0  0  0  0  0  0  0
    0.6647    0.1777   -3.6748 N   0  0  0  0  0  0  0  0  0  0  0  0
    0.8281    0.8667   -4.9336 C   0  0  2  0  0  0  0  0  0  0  0  0
    1.7926    2.0248   -4.7141 C   0  0  0  0  0  0  0  0  0  0  0  0
    1.9973    2.5274   -3.6111 O   0  0  0  0  0  0  0  0  0  0  0  0
   -0.5054    1.3640   -5.4693 C   0  0  0  0  0  0  0  0  0  0  0  0
    1.0258   -0.7676   -3.5862 H   0  0  0  0  0  0  0  0  0  0  0  0
    1.2716    0.1486   -5.6319 H   0  0  0  0  0  0  0  0  0  0  0  0
   -0.9650    2.0846   -4.7830 H   0  0  0  0  0  0  0  0  0  0  0  0
   -0.3836    1.8610   -6.4374 H   0  0  0  0  0  0  0  0  0  0  0  0
   -1.2078    0.5334   -5.5984 H   0  0  0  0  0  0  0  0  0  0  0  0
    2.3652    2.4592   -5.9013 N   0  0  0  0  0  0  0  0  0  0  0  0
    3.3051    3.5544   -5.9586 C   0  0  0  0  0  0  0  0  0  0  0  0
    2.1523    1.9716   -6.7665 H   0  0  0  0  0  0  0  0  0  0  0  0
    2.7644    4.4924   -6.1531 H   0  0  0  0  0  0  0  0  0  0  0  0
    3.8380    3.6306   -4.9994 H   0  0  0  0  0  0  0  0  0  0  0  0
    4.0290    3.3741   -6.7670 H   0  0  0  0  0  0  0  0  0  0  0  0
  1  3  1  0  0  0  0
  1  7  1  0  0  0  0
  1  2  2  0  0  0  0
 31 32  1  0  0  0  0
 32 40  1  0  0  0  0
 32 33  2  0  0  0  0
  8  9  1  0  0  0  0
  9 17  1  0  0  0  0
  9 10  2  0  0  0  0
 18 19  1  0  0  0  0
 19 30  1  0  0  0  0
 19 20  2  0  0  0  0
 21 22  1  0  0  0  0
 22 23  2  0  0  0  0
 22 24  1  0  0  0  0
 31 34  1  0  0  0  0
  8 11  1  0  0  0  0
 40 41  1  0  0  0  0
 18 21  1  0  0  0  0
 30 31  1  0  0  0  0
  7  8  1  0  0  0  0
 17 18  1  0  0  0  0
  3  4  1  0  0  0  0
  3  5  1  0  0  0  0
  3  6  1  0  0  0  0
 34 37  1  0  0  0  0
 34 38  1  0  0  0  0
 34 39  1  0  0  0  0
 11 14  1  0  0  0  0
 11 15  1  0  0  0  0
 11 16  1  0  0  0  0
 41 43  1  0  0  0  0
 41 44  1  0  0  0  0
 41 45  1  0  0  0  0
 21 27  1  0  0  0  0
 21 28  1  0  0  0  0
 31 36  1  0  0  0  0
  8 13  1  0  0  0  0
 18 26  1  0  0  0  0
 40 42  1  0  0  0  0
  7 12  1  0  0  0  0
 30 35  1  0  0  0  0
 17 25  1  0  0  0  0
 24 29  1  0  0  0  0
M  END
$$$$

  -OEChem-05262214473D

 45 44  0     1  0  0  0  0  0999 V2000
   -2.2987    4.1032   -0.3022 C   0  0  0  0  0  0  0  0  0  0  0  0
   -1.8049    3.7117   -1.3532 O   0  0  0  0  0  0  0  0  0  0  0  0
   -3.0791    5.3755   -0.2846 C   0  0  0  0  0  0  0  0  0  0  0  0
   -2.4478    6.2532   -0.0717 H   0  0  0  0  0  0  0  0  0  0  0  0
   -3.5571    5.5891   -1.2541 H   0  0  0  0  0  0  0  0  0  0  0  0
   -3.8940    5.4184    0.4556 H   0  0  0  0  0  0  0  0  0  0  0  0
   -2.2137    3.4712    0.9275 N   0  0  0  0  0  0  0  0  0  0  0  0
   -1.5102    2.2327    1.1338 C   0  0  2  0  0  0  0  0  0  0  0  0
   -1.3539    1.5497   -0.2184 C   0  0  0  0  0  0  0  0  0  0  0  0
   -2.0852    1.7861   -1.1778 O   0  0  0  0  0  0  0  0  0  0  0  0
   -2.2477    1.3342    2.1145 C   0  0  0  0  0  0  0  0  0  0  0  0
   -2.6724    3.9052    1.7265 H   0  0  0  0  0  0  0  0  0  0  0  0
   -0.5220    2.4922    1.5290 H   0  0  0  0  0  0  0  0  0  0  0  0
   -3.2400    1.0636    1.7358 H   0  0  0  0  0  0  0  0  0  0  0  0
   -1.6970    0.4046    2.2923 H   0  0  0  0  0  0  0  0  0  0  0  0
   -2.3854    1.8384    3.0772 H   0  0  0  0  0  0  0  0  0  0  0  0
   -0.3283    0.6116   -0.2182 N   0  0  0  0  0  0  0  0  0  0  0  0
    0.0090   -0.1762   -1.3759 C   0  0  2  0  0  0  0  0  0  0  0  0
    0.4016    0.7823   -2.4930 C   0  0  0  0  0  0  0  0  0  0  0  0
    0.4428    2.0020   -2.3448 O   0  0  0  0  0  0  0  0  0  0  0  0
   -1.1465   -1.0733   -1.8118 C   0  0  0  0  0  0  0  0  0  0  0  0
   -1.3944   -2.1729   -0.8086 C   0  0  0  0  0  0  0  0  0  0  0  0
   -0.5262   -2.6541   -0.0923 O   0  0  0  0  0  0  0  0  0  0  0  0
   -2.6858   -2.5864   -0.7972 O   0  0  0  0  0  0  0  0  0  0  0  0
    0.2381    0.4970    0.6194 H   0  0  0  0  0  0  0  0  0  0  0  0
    0.8849   -0.7739   -1.0961 H   0  0  0  0  0  0  0  0  0  0  0  0
   -2.0815   -0.5043   -1.8908 H   0  0  0  0  0  0  0  0  0  0  0  0
   -0.9831   -1.5127   -2.8033 H   0  0  0  0  0  0  0  0  0  0  0  0
   -2.8832   -3.3105   -0.1652 H   0  0  0  0  0  0  0  0  0  0  0  0
    0.7461    0.1132   -3.6591 N   0  0  0  0  0  0  0  0  0  0  0  0
    1.1683    0.8012   -4.8567 C   0  0  2  0  0  0  0  0  0  0  0  0
    2.5158    1.4527   -4.5746 C   0  0  0  0  0  0  0  0  0  0  0  0
    2.9069    1.7208   -3.4405 O   0  0  0  0  0  0  0  0  0  0  0  0
    0.1434    1.8379   -5.2897 C   0  0  0  0  0  0  0  0  0  0  0  0
    0.6995   -0.9014   -3.6707 H   0  0  0  0  0  0  0  0  0  0  0  0
    1.2863    0.0389   -5.6345 H   0  0  0  0  0  0  0  0  0  0  0  0
    0.0117    2.6101   -4.5230 H   0  0  0  0  0  0  0  0  0  0  0  0
    0.4515    2.3386   -6.2135 H   0  0  0  0  0  0  0  0  0  0  0  0
   -0.8326    1.3722   -5.4634 H   0  0  0  0  0  0  0  0  0  0  0  0
    3.2115    1.7388   -5.7409 N   0  0  0  0  0  0  0  0  0  0  0  0
    4.5106    2.3699   -5.7389 C   0  0  0  0  0  0  0  0  0  0  0  0
    2.8195    1.4640   -6.6368 H   0  0  0  0  0  0  0  0  0  0  0  0
    4.3895    3.4598   -5.8258 H   0  0  0  0  0  0  0  0  0  0  0  0
    5.0318    2.1328   -4.7997 H   0  0  0  0  0  0  0  0  0  0  0  0
    5.1003    1.9976   -6.5895 H   0  0  0  0  0  0  0  0  0  0  0  0
  1  3  1  0  0  0  0
  1  7  1  0  0  0  0
  1  2  2  0  0  0  0
 31 32  1  0  0  0  0
 32 40  1  0  0  0  0
 32 33  2  0  0  0  0
  8  9  1  0  0  0  0
  9 17  1  0  0  0  0
  9 10  2  0  0  0  0
 18 19  1  0  0  0  0
 19 30  1  0  0  0  0
 19 20  2  0  0  0  0
 21 22  1  0  0  0  0
 22 23  2  0  0  0  0
 22 24  1  0  0  0  0
 31 34  1  0  0  0  0
  8 11  1  0  0  0  0
 40 41  1  0  0  0  0
 18 21  1  0  0  0  0
 30 31  1  0  0  0  0
  7  8  1  0  0  0  0
 17 18  1  0  0  0  0
  3  4  1  0  0  0  0
  3  5  1  0  0  0  0
  3  6  1  0  0  0  0
 34 37  1  0  0  0  0
 34 38  1  0  0  0  0
 34 39  1  0  0  0  0
 11 14  1  0  0  0  0
 11 15  1  0  0  0  0
 11 16  1  0  0  0  0
 41 43  1  0  0  0  0
 41 44  1  0  0  0  0
 41 45  1  0  0  0  0
 21 27  1  0  0  0  0
 21 28  1  0  0  0  0
 31 36  1  0  0  0  0
  8 13  1  0  0  0  0
 18 26  1  0  0  0  0
 40 42  1  0  0  0  0
  7 12  1  0  0  0  0
 30 35  1  0  0  0  0
 17 25  1  0  0  0  0
 24 29  1  0  0  0  0
M  END
$$$$

  -OEChem-05262214473D

 45 44  0     1  0  0  0  0  0999 V2000
   -2.2987    4.1032   -0.3022 C   0  0  0  0  0  0  0  0  0  0  0  0
   -1.8049    3.7117   -1.3532 O   0  0  0  0  0  0  0  0  0  0  0  0
   -3.0791    5.3755   -0.2846 C   0  0  0  0  0  0  0  0  0  0  0  0
   -2.4478    6.2532   -0.0717 H   0  0  0  0  0  0  0  0  0  0  0  0
   -3.5571    5.5891   -1.2541 H   0  0  0  0  0  0  0  0  0  0  0  0
   -3.8940    5.4184    0.4556 H   0  0  0  0  0  0  0  0  0  0  0  0
   -2.2137    3.4712    0.9275 N   0  0  0  0  0  0  0  0  0  0  0  0
   -1.5102    2.2327    1.1338 C   0  0  2  0  0  0  0  0  0  0  0  0
   -1.3539    1.5497   -0.2184 C   0  0  0  0  0  0  0  0  0  0  0  0
   -2.0852    1.7861   -1.1778 O   0  0  0  0  0  0  0  0  0  0  0  0
   -2.2477    1.3342    2.1145 C   0  0  0  0  0  0  0  0  0  0  0  0
   -2.6724    3.9052    1.7265 H   0  0  0  0  0  0  0  0  0  0  0  0
   -0.5220    2.4922    1.5290 H   0  0  0  0  0  0  0  0  0  0  0  0
   -3.2400    1.0636    1.7358 H   0  0  0  0  0  0  0  0  0  0  0  0
   -1.6970    0.4046    2.2923 H   0  0  0  0  0  0  0  0  0  0  0  0
   -2.3854    1.8384    3.0772 H   0  0  0  0  0  0  0  0  0  0  0  0
   -0.3283    0.6116   -0.2182 N   0  0  0  0  0  0  0  0  0  0  0  0
    0.0090   -0.1762   -1.3759 C   0  0  2  0  0  0  0  0  0  0  0  0
    0.4016    0.7823   -2.4930 C   0  0  0  0  0  0  0  0  0  0  0  0
    0.7029    1.9570   -2.2920 O   0  0  0  0  0  0  0  0  0  0  0  0
   -1.1465   -1.0733   -1.8118 C   0  0  0  0  0  0  0  0  0  0  0  0
   -1.3944   -2.1729   -0.8086 C   0  0  0  0  0  0  0  0  0  0  0  0
   -0.5262   -2.6541   -0.0923 O   0  0  0  0  0  0  0  0  0  0  0  0
   -2.6858   -2.5864   -0.7972 O   0  0  0  0  0  0  0  0  0  0  0  0
    0.2381    0.4970    0.6194 H   0  0  0  0  0  0  0  0  0  0  0  0
    0.8849   -0.7739   -1.0961 H   0  0  0  0  0  0  0  0  0  0  0  0
   -2.0815   -0.5043   -1.8908 H   0  0  0  0  0  0  0  0  0  0  0  0
   -0.9831   -1.5127   -2.8033 H   0  0  0  0  0  0  0  0  0  0  0  0
   -2.8832   -3.3105   -0.1652 H   0  0  0  0  0  0  0  0  0  0  0  0
    0.4221    0.1596   -3.7331 N   0  0  0  0  0  0  0  0  0  0  0  0
    0.7779    0.8544   -4.9483 C   0  0  2  0  0  0  0  0  0  0  0  0
    2.2539    1.2209   -4.8656 C   0  0  0  0  0  0  0  0  0  0  0  0
    2.8623    1.3179   -3.8018 O   0  0  0  0  0  0  0  0  0  0  0  0
   -0.0796    2.0943   -5.1482 C   0  0  0  0  0  0  0  0  0  0  0  0
    0.1770   -0.8246   -3.7884 H   0  0  0  0  0  0  0  0  0  0  0  0
    0.6216    0.1501   -5.7727 H   0  0  0  0  0  0  0  0  0  0  0  0
    0.0636    2.8117   -4.3319 H   0  0  0  0  0  0  0  0  0  0  0  0
    0.1719    2.6040   -6.0840 H   0  0  0  0  0  0  0  0  0  0  0  0
   -1.1427    1.8322   -5.1776 H   0  0  0  0  0  0  0  0  0  0  0  0
    2.8009    1.4690   -6.1167 N   0  0  0  0  0  0  0  0  0  0  0  0
    4.1823    1.8476   -6.3024 C   0  0  0  0  0  0  0  0  0  0  0  0
    2.2276    1.3460   -6.9461 H   0  0  0  0  0  0  0  0  0  0  0  0
    4.2643    2.9445   -6.3119 H   0  0  0  0  0  0  0  0  0  0  0  0
    4.7875    1.4419   -5.4783 H   0  0  0  0  0  0  0  0  0  0  0  0
    4.5475    1.4444   -7.2585 H   0  0  0  0  0  0  0  0  0  0  0  0
  1  3  1  0  0  0  0
  1  7  1  0  0  0  0
  1  2  2  0  0  0  0
 31 32  1  0  0  0  0
 32 40  1  0  0  0  0
 32 33  2  0  0  0  0
  8  9  1  0  0  0  0
  9 17  1  0  0  0  0
  9 10  2  0  0  0  0
 18 19  1  0  0  0  0
 19 30  1  0  0  0  0
 19 20  2  0  0  0  0
 21 22  1  0  0  0  0
 22 23  2  0  0  0  0
 22 24  1  0  0  0  0
 31 34  1  0  0  0  0
  8 11  1  0  0  0  0
 40 41  1  0  0  0  0
 18 21  1  0  0  0  0
 30 31  1  0  0  0  0
  7  8  1  0  0  0  0
 17 18  1  0  0  0  0
  3  4  1  0  0  0  0
  3  5  1  0  0  0  0
  3  6  1  0  0  0  0
 34 37  1  0  0  0  0
 34 38  1  0  0  0  0
 34 39  1  0  0  0  0
 11 14  1  0  0  0  0
 11 15  1  0  0  0  0
 11 16  1  0  0  0  0
 41 43  1  0  0  0  0
 41 44  1  0  0  0  0
 41 45  1  0  0  0  0
 21 27  1  0  0  0  0
 21 28  1  0  0  0  0
 31 36  1  0  0  0  0
  8 13  1  0  0  0  0
 18 26  1  0  0  0  0
 40 42  1  0  0  0  0
  7 12  1  0  0  0  0
 30 35  1  0  0  0  0
 17 25  1  0  0  0  0
 24 29  1  0  0  0  0
M  END
$$$$

  -OEChem-05262214473D

 45 44  0     1  0  0  0  0  0999 V2000
   -2.2987    4.1032   -0.3022 C   0  0  0  0  0  0  0  0  0  0  0  0
   -1.8049    3.7117   -1.3532 O   0  0  0  0  0  0  0  0  0  0  0  0
   -3.0791    5.3755   -0.2846 C   0  0  0  0  0  0  0  0  0  0  0  0
   -2.4478    6.2532   -0.0717 H   0  0  0  0  0  0  0  0  0  0  0  0
   -3.5571    5.5891   -1.2541 H   0  0  0  0  0  0  0  0  0  0  0  0
   -3.8940    5.4184    0.4556 H   0  0  0  0  0  0  0  0  0  0  0  0
   -2.2137    3.4712    0.9275 N   0  0  0  0  0  0  0  0  0  0  0  0
   -1.5102    2.2327    1.1338 C   0  0  2  0  0  0  0  0  0  0  0  0
   -1.3539    1.5497   -0.2184 C   0  0  0  0  0  0  0  0  0  0  0  0
   -2.0852    1.7861   -1.1778 O   0  0  0  0  0  0  0  0  0  0  0  0
   -2.2477    1.3342    2.1145 C   0  0  0  0  0  0  0  0  0  0  0  0
   -2.6724    3.9052    1.7265 H   0  0  0  0  0  0  0  0  0  0  0  0
   -0.5220    2.4922    1.5290 H   0  0  0  0  0  0  0  0  0  0  0  0
   -3.2400    1.0636    1.7358 H   0  0  0  0  0  0  0  0  0  0  0  0
   -1.6970    0.4046    2.2923 H   0  0  0  0  0  0  0  0  0  0  0  0
   -2.3854    1.8384    3.0772 H   0  0  0  0  0  0  0  0  0  0  0  0
   -0.3283    0.6116   -0.2182 N   0  0  0  0  0  0  0  0  0  0  0  0
    0.0090   -0.1762   -1.3759 C   0  0  2  0  0  0  0  0  0  0  0  0
    0.4016    0.7823   -2.4930 C   0  0  0  0  0  0  0  0  0  0  0  0
    0.9542    1.8608   -2.2863 O   0  0  0  0  0  0  0  0  0  0  0  0
   -1.1465   -1.0733   -1.8118 C   0  0  0  0  0  0  0  0  0  0  0  0
   -1.3944   -2.1729   -0.8086 C   0  0  0  0  0  0  0  0  0  0  0  0
   -0.5262   -2.6541   -0.0923 O   0  0  0  0  0  0  0  0  0  0  0  0
   -2.6858   -2.5864   -0.7972 O   0  0  0  0  0  0  0  0  0  0  0  0
    0.2381    0.4970    0.6194 H   0  0  0  0  0  0  0  0  0  0  0  0
    0.8849   -0.7739   -1.0961 H   0  0  0  0  0  0  0  0  0  0  0  0
   -2.0815   -0.5043   -1.8908 H   0  0  0  0  0  0  0  0  0  0  0  0
   -0.9831   -1.5127   -2.8033 H   0  0  0  0  0  0  0  0  0  0  0  0
   -2.8832   -3.3105   -0.1652 H   0  0  0  0  0  0  0  0  0  0  0  0
    0.1059    0.2708   -3.7488 N   0  0  0  0  0  0  0  0  0  0  0  0
    0.3960    0.9859   -4.9697 C   0  0  2  0  0  0  0  0  0  0  0  0
    1.9095    1.0661   -5.1194 C   0  0  0  0  0  0  0  0  0  0  0  0
    2.6839    0.9613   -4.1705 O   0  0  0  0  0  0  0  0  0  0  0  0
   -0.2233    2.3748   -4.9580 C   0  0  0  0  0  0  0  0  0  0  0  0
   -0.3323   -0.6434   -3.8119 H   0  0  0  0  0  0  0  0  0  0  0  0
   -0.0218    0.3929   -5.7905 H   0  0  0  0  0  0  0  0  0  0  0  0
    0.1831    2.9837   -4.1422 H   0  0  0  0  0  0  0  0  0  0  0  0
   -0.0266    2.9048   -5.8957 H   0  0  0  0  0  0  0  0  0  0  0  0
   -1.3084    2.3164   -4.8204 H   0  0  0  0  0  0  0  0  0  0  0  0
    2.2919    1.3114   -6.4308 N   0  0  0  0  0  0  0  0  0  0  0  0
    3.6743    1.4430   -6.8281 C   0  0  0  0  0  0  0  0  0  0  0  0
    1.5831    1.3649   -7.1563 H   0  0  0  0  0  0  0  0  0  0  0  0
    3.9664    2.5030   -6.7955 H   0  0  0  0  0  0  0  0  0  0  0  0
    4.3099    0.8662   -6.1401 H   0  0  0  0  0  0  0  0  0  0  0  0
    3.7995    1.0596   -7.8515 H   0  0  0  0  0  0  0  0  0  0  0  0
  1  3  1  0  0  0  0
  1  7  1  0  0  0  0
  1  2  2  0  0  0  0
 31 32  1  0  0  0  0
 32 40  1  0  0  0  0
 32 33  2  0  0  0  0
  8  9  1  0  0  0  0
  9 17  1  0  0  0  0
  9 10  2  0  0  0  0
 18 19  1  0  0  0  0
 19 30  1  0  0  0  0
 19 20  2  0  0  0  0
 21 22  1  0  0  0  0
 22 23  2  0  0  0  0
 22 24  1  0  0  0  0
 31 34  1  0  0  0  0
  8 11  1  0  0  0  0
 40 41  1  0  0  0  0
 18 21  1  0  0  0  0
 30 31  1  0  0  0  0
  7  8  1  0  0  0  0
 17 18  1  0  0  0  0
  3  4  1  0  0  0  0
  3  5  1  0  0  0  0
  3  6  1  0  0  0  0
 34 37  1  0  0  0  0
 34 38  1  0  0  0  0
 34 39  1  0  0  0  0
 11 14  1  0  0  0  0
 11 15  1  0  0  0  0
 11 16  1  0  0  0  0
 41 43  1  0  0  0  0
 41 44  1  0  0  0  0
 41 45  1  0  0  0  0
 21 27  1  0  0  0  0
 21 28  1  0  0  0  0
 31 36  1  0  0  0  0
  8 13  1  0  0  0  0
 18 26  1  0  0  0  0
 40 42  1  0  0  0  0
  7 12  1  0  0  0  0
 30 35  1  0  0  0  0
 17 25  1  0  0  0  0
 24 29  1  0  0  0  0
M  END
$$$$

  -OEChem-05262214473D

 45 44  0     1  0  0  0  0  0999 V2000
   -2.2987    4.1032   -0.3022 C   0  0  0  0  0  0  0  0  0  0  0  0
   -1.8049    3.7117   -1.3532 O   0  0  0  0  0  0  0  0  0  0  0  0
   -3.0791    5.3755   -0.2846 C   0  0  0  0  0  0  0  0  0  0  0  0
   -2.4478    6.2532   -0.0717 H   0  0  0  0  0  0  0  0  0  0  0  0
   -3.5571    5.5891   -1.2541 H   0  0  0  0  0  0  0  0  0  0  0  0
   -3.8940    5.4184    0.4556 H   0  0  0  0  0  0  0  0  0  0  0  0
   -2.2137    3.4712    0.9275 N   0  0  0  0  0  0  0  0  0  0  0  0
   -1.5102    2.2327    1.1338 C   0  0  2  0  0  0  0  0  0  0  0  0
   -1.3539    1.5497   -0.2184 C   0  0  0  0  0  0  0  0  0  0  0  0
   -2.0852    1.7861   -1.1778 O   0  0  0  0  0  0  0  0  0  0  0  0
   -2.2477    1.3342    2.1145 C   0  0  0  0  0  0  0  0  0  0  0  0
   -2.6724    3.9052    1.7265 H   0  0  0  0  0  0  0  0  0  0  0  0
   -0.5220    2.4922    1.5290 H   0  0  0  0  0  0  0  0  0  0  0  0
   -3.2400    1.0636    1.7358 H   0  0  0  0  0  0  0  0  0  0  0  0
   -1.6970    0.4046    2.2923 H   0  0  0  0  0  0  0  0  0  0  0  0
   -2.3854    1.8384    3.0772 H   0  0  0  0  0  0  0  0  0  0  0  0
   -0.3283    0.6116   -0.2182 N   0  0  0  0  0  0  0  0  0  0  0  0
    0.0090   -0.1762   -1.3759 C   0  0  2  0  0  0  0  0  0  0  0  0
    0.4016    0.7823   -2.4930 C   0  0  0  0  0  0  0  0  0  0  0  0
    1.1796    1.7197   -2.3281 O   0  0  0  0  0  0  0  0  0  0  0  0
   -1.1465   -1.0733   -1.8118 C   0  0  0  0  0  0  0  0  0  0  0  0
   -1.3944   -2.1729   -0.8086 C   0  0  0  0  0  0  0  0  0  0  0  0
   -0.5262   -2.6541   -0.0923 O   0  0  0  0  0  0  0  0  0  0  0  0
   -2.6858   -2.5864   -0.7972 O   0  0  0  0  0  0  0  0  0  0  0  0
    0.2381    0.4970    0.6194 H   0  0  0  0  0  0  0  0  0  0  0  0
    0.8849   -0.7739   -1.0961 H   0  0  0  0  0  0  0  0  0  0  0  0
   -2.0815   -0.5043   -1.8908 H   0  0  0  0  0  0  0  0  0  0  0  0
   -0.9831   -1.5127   -2.8033 H   0  0  0  0  0  0  0  0  0  0  0  0
   -2.8832   -3.3105   -0.1652 H   0  0  0  0  0  0  0  0  0  0  0  0
   -0.1810    0.4394   -3.7051 N   0  0  0  0  0  0  0  0  0  0  0  0
    0.0486    1.1868   -4.9193 C   0  0  2  0  0  0  0  0  0  0  0  0
    1.5062    0.9988   -5.3188 C   0  0  0  0  0  0  0  0  0  0  0  0
    2.3839    0.6753   -4.5213 O   0  0  0  0  0  0  0  0  0  0  0  0
   -0.2780    2.6603   -4.7322 C   0  0  0  0  0  0  0  0  0  0  0  0
   -0.7937   -0.3701   -3.7395 H   0  0  0  0  0  0  0  0  0  0  0  0
   -0.6002    0.7507   -5.6867 H   0  0  0  0  0  0  0  0  0  0  0  0
    0.3621    3.1146   -3.9671 H   0  0  0  0  0  0  0  0  0  0  0  0
   -0.1307    3.2205   -5.6615 H   0  0  0  0  0  0  0  0  0  0  0  0
   -1.3184    2.7918   -4.4160 H   0  0  0  0  0  0  0  0  0  0  0  0
    1.7192    1.2767   -6.6618 N   0  0  0  0  0  0  0  0  0  0  0  0
    3.0211    1.1836   -7.2802 C   0  0  0  0  0  0  0  0  0  0  0  0
    0.9299    1.5195   -7.2532 H   0  0  0  0  0  0  0  0  0  0  0  0
    3.5161    2.1653   -7.2435 H   0  0  0  0  0  0  0  0  0  0  0  0
    3.6315    0.4449   -6.7400 H   0  0  0  0  0  0  0  0  0  0  0  0
    2.9075    0.8694   -8.3282 H   0  0  0  0  0  0  0  0  0  0  0  0
  1  3  1  0  0  0  0
  1  7  1  0  0  0  0
  1  2  2  0  0  0  0
 31 32  1  0  0  0  0
 32 40  1  0  0  0  0
 32 33  2  0  0  0  0
  8  9  1  0  0  0  0
  9 17  1  0  0  0  0
  9 10  2  0  0  0  0
 18 19  1  0  0  0  0
 19 30  1  0  0  0  0
 19 20  2  0  0  0  0
 21 22  1  0  0  0  0
 22 23  2  0  0  0  0
 22 24  1  0  0  0  0
 31 34  1  0  0  0  0
  8 11  1  0  0  0  0
 40 41  1  0  0  0  0
 18 21  1  0  0  0  0
 30 31  1  0  0  0  0
  7  8  1  0  0  0  0
 17 18  1  0  0  0  0
  3  4  1  0  0  0  0
  3  5  1  0  0  0  0
  3  6  1  0  0  0  0
 34 37  1  0  0  0  0
 34 38  1  0  0  0  0
 34 39  1  0  0  0  0
 11 14  1  0  0  0  0
 11 15  1  0  0  0  0
 11 16  1  0  0  0  0
 41 43  1  0  0  0  0
 41 44  1  0  0  0  0
 41 45  1  0  0  0  0
 21 27  1  0  0  0  0
 21 28  1  0  0  0  0
 31 36  1  0  0  0  0
  8 13  1  0  0  0  0
 18 26  1  0  0  0  0
 40 42  1  0  0  0  0
  7 12  1  0  0  0  0
 30 35  1  0  0  0  0
 17 25  1  0  0  0  0
 24 29  1  0  0  0  0
M  END
$$$$

  -OEChem-05262214473D

 45 44  0     1  0  0  0  0  0999 V2000
   -2.2987    4.1032   -0.3022 C   0  0  0  0  0  0  0  0  0  0  0  0
   -1.8049    3.7117   -1.3532 O   0  0  0  0  0  0  0  0  0  0  0  0
   -3.0791    5.3755   -0.2846 C   0  0  0  0  0  0  0  0  0  0  0  0
   -2.4478    6.2532   -0.0717 H   0  0  0  0  0  0  0  0  0  0  0  0
   -3.5571    5.5891   -1.2541 H   0  0  0  0  0  0  0  0  0  0  0  0
   -3.8940    5.4184    0.4556 H   0  0  0  0  0  0  0  0  0  0  0  0
   -2.2137    3.4712    0.9275 N   0  0  0  0  0  0  0  0  0  0  0  0
   -1.5102    2.2327    1.1338 C   0  0  2  0  0  0  0  0  0  0  0  0
   -1.3539    1.5497   -0.2184 C   0  0  0  0  0  0  0  0  0  0  0  0
   -2.0852    1.7861   -1.1778 O   0  0  0  0  0  0  0  0  0  0  0  0
   -2.2477    1.3342    2.1145 C   0  0  0  0  0  0  0  0  0  0  0  0
   -2.6724    3.9052    1.7265 H   0  0  0  0  0  0  0  0  0  0  0  0
   -0.5220    2.4922    1.5290 H   0  0  0  0  0  0  0  0  0  0  0  0
   -3.2400    1.0636    1.7358 H   0  0  0  0  0  0  0  0  0  0  0  0
   -1.6970    0.4046    2.2923 H   0  0  0  0  0  0  0  0  0  0  0  0
   -2.3854    1.8384    3.0772 H   0  0  0  0  0  0  0  0  0  0  0  0
   -0.3283    0.6116   -0.2182 N   0  0  0  0  0  0  0  0  0  0  0  0
    0.0090   -0.1762   -1.3759 C   0  0  2  0  0  0  0  0  0  0  0  0
    0.4016    0.7823   -2.4930 C   0  0  0  0  0  0  0  0  0  0  0  0
    1.3637    1.5435   -2.4146 O   0  0  0  0  0  0  0  0  0  0  0  0
   -1.1465   -1.0733   -1.8118 C   0  0  0  0  0  0  0  0  0  0  0  0
   -1.3944   -2.1729   -0.8086 C   0  0  0  0  0  0  0  0  0  0  0  0
   -0.5262   -2.6541   -0.0923 O   0  0  0  0  0  0  0  0  0  0  0  0
   -2.6858   -2.5864   -0.7972 O   0  0  0  0  0  0  0  0  0  0  0  0
    0.2381    0.4970    0.6194 H   0  0  0  0  0  0  0  0  0  0  0  0
    0.8849   -0.7739   -1.0961 H   0  0  0  0  0  0  0  0  0  0  0  0
   -2.0815   -0.5043   -1.8908 H   0  0  0  0  0  0  0  0  0  0  0  0
   -0.9831   -1.5127   -2.8033 H   0  0  0  0  0  0  0  0  0  0  0  0
   -2.8832   -3.3105   -0.1652 H   0  0  0  0  0  0  0  0  0  0  0  0
   -0.4191    0.6537   -3.6048 N   0  0  0  0  0  0  0  0  0  0  0  0
   -0.2407    1.4435   -4.8007 C   0  0  2  0  0  0  0  0  0  0  0  0
    1.0713    1.0237   -5.4503 C   0  0  0  0  0  0  0  0  0  0  0  0
    1.9827    0.4794   -4.8304 O   0  0  0  0  0  0  0  0  0  0  0  0
   -0.2398    2.9314   -4.4862 C   0  0  0  0  0  0  0  0  0  0  0  0
   -1.1758   -0.0234   -3.5763 H   0  0  0  0  0  0  0  0  0  0  0  0
   -1.0740    1.1991   -5.4684 H   0  0  0  0  0  0  0  0  0  0  0  0
    0.5883    3.1953   -3.8183 H   0  0  0  0  0  0  0  0  0  0  0  0
   -0.1331    3.5295   -5.3972 H   0  0  0  0  0  0  0  0  0  0  0  0
   -1.1720    3.2258   -3.9921 H   0  0  0  0  0  0  0  0  0  0  0  0
    1.1219    1.3673   -6.7940 N   0  0  0  0  0  0  0  0  0  0  0  0
    2.2674    1.0872   -7.6278 C   0  0  0  0  0  0  0  0  0  0  0  0
    0.3126    1.7993   -7.2300 H   0  0  0  0  0  0  0  0  0  0  0  0
    2.9441    1.9544   -7.6254 H   0  0  0  0  0  0  0  0  0  0  0  0
    2.7986    0.2067   -7.2371 H   0  0  0  0  0  0  0  0  0  0  0  0
    1.9321    0.8868   -8.6561 H   0  0  0  0  0  0  0  0  0  0  0  0
  1  3  1  0  0  0  0
  1  7  1  0  0  0  0
  1  2  2  0  0  0  0
 31 32  1  0  0  0  0
 32 40  1  0  0  0  0
 32 33  2  0  0  0  0
  8  9  1  0  0  0  0
  9 17  1  0  0  0  0
  9 10  2  0  0  0  0
 18 19  1  0  0  0  0
 19 30  1  0  0  0  0
 19 20  2  0  0  0  0
 21 22  1  0  0  0  0
 22 23  2  0  0  0  0
 22 24  1  0  0  0  0
 31 34  1  0  0  0  0
  8 11  1  0  0  0  0
 40 41  1  0  0  0  0
 18 21  1  0  0  0  0
 30 31  1  0  0  0  0
  7  8  1  0  0  0  0
 17 18  1  0  0  0  0
  3  4  1  0  0  0  0
  3  5  1  0  0  0  0
  3  6  1  0  0  0  0
 34 37  1  0  0  0  0
 34 38  1  0  0  0  0
 34 39  1  0  0  0  0
 11 14  1  0  0  0  0
 11 15  1  0  0  0  0
 11 16  1  0  0  0  0
 41 43  1  0  0  0  0
 41 44  1  0  0  0  0
 41 45  1  0  0  0  0
 21 27  1  0  0  0  0
 21 28  1  0  0  0  0
 31 36  1  0  0  0  0
  8 13  1  0  0  0  0
 18 26  1  0  0  0  0
 40 42  1  0  0  0  0
  7 12  1  0  0  0  0
 30 35  1  0  0  0  0
 17 25  1  0  0  0  0
 24 29  1  0  0  0  0
M  END
$$$$

  -OEChem-05262214473D

 45 44  0     1  0  0  0  0  0999 V2000
   -2.2987    4.1032   -0.3022 C   0  0  0  0  0  0  0  0  0  0  0  0
   -1.8049    3.7117   -1.3532 O   0  0  0  0  0  0  0  0  0  0  0  0
   -3.0791    5.3755   -0.2846 C   0  0  0  0  0  0  0  0  0  0  0  0
   -2.4478    6.2532   -0.0717 H   0  0  0  0  0  0  0  0  0  0  0  0
   -3.5571    5.5891   -1.2541 H   0  0  0  0  0  0  0  0  0  0  0  0
   -3.8940    5.4184    0.4556 H   0  0  0  0  0  0  0  0  0  0  0  0
   -2.2137    3.4712    0.9275 N   0  0  0  0  0  0  0  0  0  0  0  0
   -1.5102    2.2327    1.1338 C   0  0  2  0  0  0  0  0  0  0  0  0
   -1.3539    1.5497   -0.2184 C   0  0  0  0  0  0  0  0  0  0  0  0
   -2.0852    1.7861   -1.1778 O   0  0  0  0  0  0  0  0  0  0  0  0
   -2.2477    1.3342    2.1145 C   0  0  0  0  0  0  0  0  0  0  0  0
   -2.6724    3.9052    1.7265 H   0  0  0  0  0  0  0  0  0  0  0  0
   -0.5220    2.4922    1.5290 H   0  0  0  0  0  0  0  0  0  0  0  0
   -3.2400    1.0636    1.7358 H   0  0  0  0  0  0  0  0  0  0  0  0
   -1.6970    0.4046    2.2923 H   0  0  0  0  0  0  0  0  0  0  0  0
   -2.3854    1.8384    3.0772 H   0  0  0  0  0  0  0  0  0  0  0  0
   -0.3283    0.6116   -0.2182 N   0  0  0  0  0  0  0  0  0  0  0  0
    0.0090   -0.1762   -1.3759 C   0  0  2  0  0  0  0  0  0  0  0  0
    0.4016    0.7823   -2.4930 C   0  0  0  0  0  0  0  0  0  0  0  0
    1.4940    1.3441   -2.5399 O   0  0  0  0  0  0  0  0  0  0  0  0
   -1.1465   -1.0733   -1.8118 C   0  0  0  0  0  0  0  0  0  0  0  0
   -1.3944   -2.1729   -0.8086 C   0  0  0  0  0  0  0  0  0  0  0  0
   -0.5262   -2.6541   -0.0923 O   0  0  0  0  0  0  0  0  0  0  0  0
   -2.6858   -2.5864   -0.7972 O   0  0  0  0  0  0  0  0  0  0  0  0
    0.2381    0.4970    0.6194 H   0  0  0  0  0  0  0  0  0  0  0  0
    0.8849   -0.7739   -1.0961 H   0  0  0  0  0  0  0  0  0  0  0  0
   -2.0815   -0.5043   -1.8908 H   0  0  0  0  0  0  0  0  0  0  0  0
   -0.9831   -1.5127   -2.8033 H   0  0  0  0  0  0  0  0  0  0  0  0
   -2.8832   -3.3105   -0.1652 H   0  0  0  0  0  0  0  0  0  0  0  0
   -0.5920    0.8992   -3.4549 N   0  0  0  0  0  0  0  0  0  0  0  0
   -0.4520    1.7385   -4.6220 C   0  0  2  0  0  0  0  0  0  0  0  0
    0.6346    1.1391   -5.5048 C   0  0  0  0  0  0  0  0  0  0  0  0
    1.5077    0.3870   -5.0767 O   0  0  0  0  0  0  0  0  0  0  0  0
   -0.1114    3.1696   -4.2366 C   0  0  0  0  0  0  0  0  0  0  0  0
   -1.4524    0.3731   -3.3333 H   0  0  0  0  0  0  0  0  0  0  0  0
   -1.4111    1.7077   -5.1505 H   0  0  0  0  0  0  0  0  0  0  0  0
    0.8464    3.2205   -3.7060 H   0  0  0  0  0  0  0  0  0  0  0  0
   -0.0338    3.8108   -5.1209 H   0  0  0  0  0  0  0  0  0  0  0  0
   -0.8792    3.5890   -3.5776 H   0  0  0  0  0  0  0  0  0  0  0  0
    0.5405    1.5770   -6.8183 N   0  0  0  0  0  0  0  0  0  0  0  0
    1.4645    1.1603   -7.8472 C   0  0  0  0  0  0  0  0  0  0  0  0
   -0.2269    2.1852   -7.0885 H   0  0  0  0  0  0  0  0  0  0  0  0
    2.2894    1.8848   -7.9152 H   0  0  0  0  0  0  0  0  0  0  0  0
    1.8679    0.1679   -7.5975 H   0  0  0  0  0  0  0  0  0  0  0  0
    0.9399    1.1105   -8.8128 H   0  0  0  0  0  0  0  0  0  0  0  0
  1  3  1  0  0  0  0
  1  7  1  0  0  0  0
  1  2  2  0  0  0  0
 31 32  1  0  0  0  0
 32 40  1  0  0  0  0
 32 33  2  0  0  0  0
  8  9  1  0  0  0  0
  9 17  1  0  0  0  0
  9 10  2  0  0  0  0
 18 19  1  0  0  0  0
 19 30  1  0  0  0  0
 19 20  2  0  0  0  0
 21 22  1  0  0  0  0
 22 23  2  0  0  0  0
 22 24  1  0  0  0  0
 31 34  1  0  0  0  0
  8 11  1  0  0  0  0
 40 41  1  0  0  0  0
 18 21  1  0  0  0  0
 30 31  1  0  0  0  0
  7  8  1  0  0  0  0
 17 18  1  0  0  0  0
  3  4  1  0  0  0  0
  3  5  1  0  0  0  0
  3  6  1  0  0  0  0
 34 37  1  0  0  0  0
 34 38  1  0  0  0  0
 34 39  1  0  0  0  0
 11 14  1  0  0  0  0
 11 15  1  0  0  0  0
 11 16  1  0  0  0  0
 41 43  1  0  0  0  0
 41 44  1  0  0  0  0
 41 45  1  0  0  0  0
 21 27  1  0  0  0  0
 21 28  1  0  0  0  0
 31 36  1  0  0  0  0
  8 13  1  0  0  0  0
 18 26  1  0  0  0  0
 40 42  1  0  0  0  0
  7 12  1  0  0  0  0
 30 35  1  0  0  0  0
 17 25  1  0  0  0  0
 24 29  1  0  0  0  0
M  END
$$$$

  -OEChem-05262214473D

 45 44  0     1  0  0  0  0  0999 V2000
   -2.2987    4.1032   -0.3022 C   0  0  0  0  0  0  0  0  0  0  0  0
   -1.8049    3.7117   -1.3532 O   0  0  0  0  0  0  0  0  0  0  0  0
   -3.0791    5.3755   -0.2846 C   0  0  0  0  0  0  0  0  0  0  0  0
   -2.4478    6.2532   -0.0717 H   0  0  0  0  0  0  0  0  0  0  0  0
   -3.5571    5.5891   -1.2541 H   0  0  0  0  0  0  0  0  0  0  0  0
   -3.8940    5.4184    0.4556 H   0  0  0  0  0  0  0  0  0  0  0  0
   -2.2137    3.4712    0.9275 N   0  0  0  0  0  0  0  0  0  0  0  0
   -1.5102    2.2327    1.1338 C   0  0  2  0  0  0  0  0  0  0  0  0
   -1.3539    1.5497   -0.2184 C   0  0  0  0  0  0  0  0  0  0  0  0
   -2.0852    1.7861   -1.1778 O   0  0  0  0  0  0  0  0  0  0  0  0
   -2.2477    1.3342    2.1145 C   0  0  0  0  0  0  0  0  0  0  0  0
   -2.6724    3.9052    1.7265 H   0  0  0  0  0  0  0  0  0  0  0  0
   -0.5220    2.4922    1.5290 H   0  0  0  0  0  0  0  0  0  0  0  0
   -3.2400    1.0636    1.7358 H   0  0  0  0  0  0  0  0  0  0  0  0
   -1.6970    0.4046    2.2923 H   0  0  0  0  0  0  0  0  0  0  0  0
   -2.3854    1.8384    3.0772 H   0  0  0  0  0  0  0  0  0  0  0  0
   -0.3283    0.6116   -0.2182 N   0  0  0  0  0  0  0  0  0  0  0  0
    0.0090   -0.1762   -1.3759 C   0  0  2  0  0  0  0  0  0  0  0  0
    0.4016    0.7823   -2.4930 C   0  0  0  0  0  0  0  0  0  0  0  0
    1.5616    1.1351   -2.6955 O   0  0  0  0  0  0  0  0  0  0  0  0
   -1.1465   -1.0733   -1.8118 C   0  0  0  0  0  0  0  0  0  0  0  0
   -1.3944   -2.1729   -0.8086 C   0  0  0  0  0  0  0  0  0  0  0  0
   -0.5262   -2.6541   -0.0923 O   0  0  0  0  0  0  0  0  0  0  0  0
   -2.6858   -2.5864   -0.7972 O   0  0  0  0  0  0  0  0  0  0  0  0
    0.2381    0.4970    0.6194 H   0  0  0  0  0  0  0  0  0  0  0  0
    0.8849   -0.7739   -1.0961 H   0  0  0  0  0  0  0  0  0  0  0  0
   -2.0815   -0.5043   -1.8908 H   0  0  0  0  0  0  0  0  0  0  0  0
   -0.9831   -1.5127   -2.8033 H   0  0  0  0  0  0  0  0  0  0  0  0
   -2.8832   -3.3105   -0.1652 H   0  0  0  0  0  0  0  0  0  0  0  0
   -0.6880    1.1591   -3.2656 N   0  0  0  0  0  0  0  0  0  0  0  0
   -0.5711    2.0515   -4.3952 C   0  0  2  0  0  0  0  0  0  0  0  0
    0.2258    1.3370   -5.4786 C   0  0  0  0  0  0  0  0  0  0  0  0
    0.9912    0.4042   -5.2434 O   0  0  0  0  0  0  0  0  0  0  0  0
    0.0985    3.3587   -4.0006 C   0  0  0  0  0  0  0  0  0  0  0  0
   -1.6047    0.7924   -3.0271 H   0  0  0  0  0  0  0  0  0  0  0  0
   -1.5883    2.2416   -4.7546 H   0  0  0  0  0  0  0  0  0  0  0  0
    1.1187    3.1883   -3.6379 H   0  0  0  0  0  0  0  0  0  0  0  0
    0.1606    4.0453   -4.8514 H   0  0  0  0  0  0  0  0  0  0  0  0
   -0.4599    3.8567   -3.2006 H   0  0  0  0  0  0  0  0  0  0  0  0
    0.0148    1.8915   -6.7332 N   0  0  0  0  0  0  0  0  0  0  0  0
    0.6671    1.3979   -7.9235 C   0  0  0  0  0  0  0  0  0  0  0  0
   -0.6517    2.6509   -6.8382 H   0  0  0  0  0  0  0  0  0  0  0  0
    1.5966    1.9611   -8.0932 H   0  0  0  0  0  0  0  0  0  0  0  0
    0.9029    0.3310   -7.7967 H   0  0  0  0  0  0  0  0  0  0  0  0
   -0.0016    1.5254   -8.7876 H   0  0  0  0  0  0  0  0  0  0  0  0
  1  3  1  0  0  0  0
  1  7  1  0  0  0  0
  1  2  2  0  0  0  0
 31 32  1  0  0  0  0
 32 40  1  0  0  0  0
 32 33  2  0  0  0  0
  8  9  1  0  0  0  0
  9 17  1  0  0  0  0
  9 10  2  0  0  0  0
 18 19  1  0  0  0  0
 19 30  1  0  0  0  0
 19 20  2  0  0  0  0
 21 22  1  0  0  0  0
 22 23  2  0  0  0  0
 22 24  1  0  0  0  0
 31 34  1  0  0  0  0
  8 11  1  0  0  0  0
 40 41  1  0  0  0  0
 18 21  1  0  0  0  0
 30 31  1  0  0  0  0
  7  8  1  0  0  0  0
 17 18  1  0  0  0  0
  3  4  1  0  0  0  0
  3  5  1  0  0  0  0
  3  6  1  0  0  0  0
 34 37  1  0  0  0  0
 34 38  1  0  0  0  0
 34 39  1  0  0  0  0
 11 14  1  0  0  0  0
 11 15  1  0  0  0  0
 11 16  1  0  0  0  0
 41 43  1  0  0  0  0
 41 44  1  0  0  0  0
 41 45  1  0  0  0  0
 21 27  1  0  0  0  0
 21 28  1  0  0  0  0
 31 36  1  0  0  0  0
  8 13  1  0  0  0  0
 18 26  1  0  0  0  0
 40 42  1  0  0  0  0
  7 12  1  0  0  0  0
 30 35  1  0  0  0  0
 17 25  1  0  0  0  0
 24 29  1  0  0  0  0
M  END
$$$$

  -OEChem-05262214473D

 45 44  0     1  0  0  0  0  0999 V2000
   -2.2987    4.1032   -0.3022 C   0  0  0  0  0  0  0  0  0  0  0  0
   -1.8049    3.7117   -1.3532 O   0  0  0  0  0  0  0  0  0  0  0  0
   -3.0791    5.3755   -0.2846 C   0  0  0  0  0  0  0  0  0  0  0  0
   -2.4478    6.2532   -0.0717 H   0  0  0  0  0  0  0  0  0  0  0  0
   -3.5571    5.5891   -1.2541 H   0  0  0  0  0  0  0  0  0  0  0  0
   -3.8940    5.4184    0.4556 H   0  0  0  0  0  0  0  0  0  0  0  0
   -2.2137    3.4712    0.9275 N   0  0  0  0  0  0  0  0  0  0  0  0
   -1.5102    2.2327    1.1338 C   0  0  2  0  0  0  0  0  0  0  0  0
   -1.3539    1.5497   -0.2184 C   0  0  0  0  0  0  0  0  0  0  0  0
   -2.0852    1.7861   -1.1778 O   0  0  0  0  0  0  0  0  0  0  0  0
   -2.2477    1.3342    2.1145 C   0  0  0  0  0  0  0  0  0  0  0  0
   -2.6724    3.9052    1.7265 H   0  0  0  0  0  0  0  0  0  0  0  0
   -0.5220    2.4922    1.5290 H   0  0  0  0  0  0  0  0  0  0  0  0
   -3.2400    1.0636    1.7358 H   0  0  0  0  0  0  0  0  0  0  0  0
   -1.6970    0.4046    2.2923 H   0  0  0  0  0  0  0  0  0  0  0  0
   -2.3854    1.8384    3.0772 H   0  0  0  0  0  0  0  0  0  0  0  0
   -0.3283    0.6116   -0.2182 N   0  0  0  0  0  0  0  0  0  0  0  0
    0.0090   -0.1762   -1.3759 C   0  0  2  0  0  0  0  0  0  0  0  0
    0.4016    0.7823   -2.4930 C   0  0  0  0  0  0  0  0  0  0  0  0
    1.5620    0.9307   -2.8707 O   0  0  0  0  0  0  0  0  0  0  0  0
   -1.1465   -1.0733   -1.8118 C   0  0  0  0  0  0  0  0  0  0  0  0
   -1.3944   -2.1729   -0.8086 C   0  0  0  0  0  0  0  0  0  0  0  0
   -0.5262   -2.6541   -0.0923 O   0  0  0  0  0  0  0  0  0  0  0  0
   -2.6858   -2.5864   -0.7972 O   0  0  0  0  0  0  0  0  0  0  0  0
    0.2381    0.4970    0.6194 H   0  0  0  0  0  0  0  0  0  0  0  0
    0.8849   -0.7739   -1.0961 H   0  0  0  0  0  0  0  0  0  0  0  0
   -2.0815   -0.5043   -1.8908 H   0  0  0  0  0  0  0  0  0  0  0  0
   -0.9831   -1.5127   -2.8033 H   0  0  0  0  0  0  0  0  0  0  0  0
   -2.8832   -3.3105   -0.1652 H   0  0  0  0  0  0  0  0  0  0  0  0
   -0.7006    1.4158   -3.0498 N   0  0  0  0  0  0  0  0  0  0  0  0
   -0.5898    2.3614   -4.1359 C   0  0  2  0  0  0  0  0  0  0  0  0
   -0.1272    1.6040   -5.3735 C   0  0  0  0  0  0  0  0  0  0  0  0
    0.4684    0.5300   -5.3191 O   0  0  0  0  0  0  0  0  0  0  0  0
    0.3755    3.4858   -3.7943 C   0  0  0  0  0  0  0  0  0  0  0  0
   -1.6225    1.2059   -2.6785 H   0  0  0  0  0  0  0  0  0  0  0  0
   -1.5937    2.7647   -4.3077 H   0  0  0  0  0  0  0  0  0  0  0  0
    1.3867    3.1010   -3.6186 H   0  0  0  0  0  0  0  0  0  0  0  0
    0.4367    4.2169   -4.6071 H   0  0  0  0  0  0  0  0  0  0  0  0
    0.0573    4.0104   -2.8869 H   0  0  0  0  0  0  0  0  0  0  0  0
   -0.4195    2.2894   -6.5444 N   0  0  0  0  0  0  0  0  0  0  0  0
   -0.0705    1.7839   -7.8516 C   0  0  0  0  0  0  0  0  0  0  0  0
   -0.9328    3.1646   -6.4962 H   0  0  0  0  0  0  0  0  0  0  0  0
    0.9129    2.1782   -8.1472 H   0  0  0  0  0  0  0  0  0  0  0  0
   -0.0308    0.6850   -7.8210 H   0  0  0  0  0  0  0  0  0  0  0  0
   -0.8282    2.1032   -8.5823 H   0  0  0  0  0  0  0  0  0  0  0  0
  1  3  1  0  0  0  0
  1  7  1  0  0  0  0
  1  2  2  0  0  0  0
 31 32  1  0  0  0  0
 32 40  1  0  0  0  0
 32 33  2  0  0  0  0
  8  9  1  0  0  0  0
  9 17  1  0  0  0  0
  9 10  2  0  0  0  0
 18 19  1  0  0  0  0
 19 30  1  0  0  0  0
 19 20  2  0  0  0  0
 21 22  1  0  0  0  0
 22 23  2  0  0  0  0
 22 24  1  0  0  0  0
 31 34  1  0  0  0  0
  8 11  1  0  0  0  0
 40 41  1  0  0  0  0
 18 21  1  0  0  0  0
 30 31  1  0  0  0  0
  7  8  1  0  0  0  0
 17 18  1  0  0  0  0
  3  4  1  0  0  0  0
  3  5  1  0  0  0  0
  3  6  1  0  0  0  0
 34 37  1  0  0  0  0
 34 38  1  0  0  0  0
 34 39  1  0  0  0  0
 11 14  1  0  0  0  0
 11 15  1  0  0  0  0
 11 16  1  0  0  0  0
 41 43  1  0  0  0  0
 41 44  1  0  0  0  0
 41 45  1  0  0  0  0
 21 27  1  0  0  0  0
 21 28  1  0  0  0  0
 31 36  1  0  0  0  0
  8 13  1  0  0  0  0
 18 26  1  0  0  0  0
 40 42  1  0  0  0  0
  7 12  1  0  0  0  0
 30 35  1  0  0  0  0
 17 25  1  0  0  0  0
 24 29  1  0  0  0  0
M  END
$$$$

  -OEChem-05262214473D

 45 44  0     1  0  0  0  0  0999 V2000
   -2.2987    4.1032   -0.3022 C   0  0  0  0  0  0  0  0  0  0  0  0
   -1.8049    3.7117   -1.3532 O   0  0  0  0  0  0  0  0  0  0  0  0
   -3.0791    5.3755   -0.2846 C   0  0  0  0  0  0  0  0  0  0  0  0
   -2.4478    6.2532   -0.0717 H   0  0  0  0  0  0  0  0  0  0  0  0
   -3.5571    5.5891   -1.2541 H   0  0  0  0  0  0  0  0  0  0  0  0
   -3.8940    5.4184    0.4556 H   0  0  0  0  0  0  0  0  0  0  0  0
   -2.2137    3.4712    0.9275 N   0  0  0  0  0  0  0  0  0  0  0  0
   -1.5102    2.2327    1.1338 C   0  0  2  0  0  0  0  0  0  0  0  0
   -1.3539    1.5497   -0.2184 C   0  0  0  0  0  0  0  0  0  0  0  0
   -2.0852    1.7861   -1.1778 O   0  0  0  0  0  0  0  0  0  0  0  0
   -2.2477    1.3342    2.1145 C   0  0  0  0  0  0  0  0  0  0  0  0
   -2.6724    3.9052    1.7265 H   0  0  0  0  0  0  0  0  0  0  0  0
   -0.5220    2.4922    1.5290 H   0  0  0  0  0  0  0  0  0  0  0  0
   -3.2400    1.0636    1.7358 H   0  0  0  0  0  0  0  0  0  0  0  0
   -1.6970    0.4046    2.2923 H   0  0  0  0  0  0  0  0  0  0  0  0
   -2.3854    1.8384    3.0772 H   0  0  0  0  0  0  0  0  0  0  0  0
   -0.3283    0.6116   -0.2182 N   0  0  0  0  0  0  0  0  0  0  0  0
    0.0090   -0.1762   -1.3759 C   0  0  2  0  0  0  0  0  0  0  0  0
    0.4016    0.7823   -2.4930 C   0  0  0  0  0  0  0  0  0  0  0  0
    1.4950    0.7450   -3.0536 O   0  0  0  0  0  0  0  0  0  0  0  0
   -1.1465   -1.0733   -1.8118 C   0  0  0  0  0  0  0  0  0  0  0  0
   -1.3944   -2.1729   -0.8086 C   0  0  0  0  0  0  0  0  0  0  0  0
   -0.5262   -2.6541   -0.0923 O   0  0  0  0  0  0  0  0  0  0  0  0
   -2.6858   -2.5864   -0.7972 O   0  0  0  0  0  0  0  0  0  0  0  0
    0.2381    0.4970    0.6194 H   0  0  0  0  0  0  0  0  0  0  0  0
    0.8849   -0.7739   -1.0961 H   0  0  0  0  0  0  0  0  0  0  0  0
   -2.0815   -0.5043   -1.8908 H   0  0  0  0  0  0  0  0  0  0  0  0
   -0.9831   -1.5127   -2.8033 H   0  0  0  0  0  0  0  0  0  0  0  0
   -2.8832   -3.3105   -0.1652 H   0  0  0  0  0  0  0  0  0  0  0  0
   -0.6289    1.6517   -2.8222 N   0  0  0  0  0  0  0  0  0  0  0  0
   -0.5068    2.6470   -3.8617 C   0  0  2  0  0  0  0  0  0  0  0  0
   -0.4004    1.9219   -5.1968 C   0  0  0  0  0  0  0  0  0  0  0  0
   -0.0251    0.7559   -5.2988 O   0  0  0  0  0  0  0  0  0  0  0  0
    0.7008    3.5422   -3.6315 C   0  0  0  0  0  0  0  0  0  0  0  0
   -1.5044    1.5855   -2.3113 H   0  0  0  0  0  0  0  0  0  0  0  0
   -1.4269    3.2411   -3.8403 H   0  0  0  0  0  0  0  0  0  0  0  0
    1.6322    2.9645   -3.6495 H   0  0  0  0  0  0  0  0  0  0  0  0
    0.7757    4.3140   -4.4047 H   0  0  0  0  0  0  0  0  0  0  0  0
    0.6371    4.0399   -2.6579 H   0  0  0  0  0  0  0  0  0  0  0  0
   -0.7327    2.7436   -6.2648 N   0  0  0  0  0  0  0  0  0  0  0  0
   -0.6980    2.2919   -7.6362 C   0  0  0  0  0  0  0  0  0  0  0  0
   -1.0512    3.6914   -6.0858 H   0  0  0  0  0  0  0  0  0  0  0  0
    0.2849    2.5212   -8.0735 H   0  0  0  0  0  0  0  0  0  0  0  0
   -0.8694    1.2058   -7.6688 H   0  0  0  0  0  0  0  0  0  0  0  0
   -1.4835    2.8045   -8.2109 H   0  0  0  0  0  0  0  0  0  0  0  0
  1  3  1  0  0  0  0
  1  7  1  0  0  0  0
  1  2  2  0  0  0  0
 31 32  1  0  0  0  0
 32 40  1  0  0  0  0
 32 33  2  0  0  0  0
  8  9  1  0  0  0  0
  9 17  1  0  0  0  0
  9 10  2  0  0  0  0
 18 19  1  0  0  0  0
 19 30  1  0  0  0  0
 19 20  2  0  0  0  0
 21 22  1  0  0  0  0
 22 23  2  0  0  0  0
 22 24  1  0  0  0  0
 31 34  1  0  0  0  0
  8 11  1  0  0  0  0
 40 41  1  0  0  0  0
 18 21  1  0  0  0  0
 30 31  1  0  0  0  0
  7  8  1  0  0  0  0
 17 18  1  0  0  0  0
  3  4  1  0  0  0  0
  3  5  1  0  0  0  0
  3  6  1  0  0  0  0
 34 37  1  0  0  0  0
 34 38  1  0  0  0  0
 34 39  1  0  0  0  0
 11 14  1  0  0  0  0
 11 15  1  0  0  0  0
 11 16  1  0  0  0  0
 41 43  1  0  0  0  0
 41 44  1  0  0  0  0
 41 45  1  0  0  0  0
 21 27  1  0  0  0  0
 21 28  1  0  0  0  0
 31 36  1  0  0  0  0
  8 13  1  0  0  0  0
 18 26  1  0  0  0  0
 40 42  1  0  0  0  0
  7 12  1  0  0  0  0
 30 35  1  0  0  0  0
 17 25  1  0  0  0  0
 24 29  1  0  0  0  0
M  END
$$$$

  -OEChem-05262214473D

 45 44  0     1  0  0  0  0  0999 V2000
   -2.2987    4.1032   -0.3022 C   0  0  0  0  0  0  0  0  0  0  0  0
   -1.8049    3.7117   -1.3532 O   0  0  0  0  0  0  0  0  0  0  0  0
   -3.0791    5.3755   -0.2846 C   0  0  0  0  0  0  0  0  0  0  0  0
   -2.4478    6.2532   -0.0717 H   0  0  0  0  0  0  0  0  0  0  0  0
   -3.5571    5.5891   -1.2541 H   0  0  0  0  0  0  0  0  0  0  0  0
   -3.8940    5.4184    0.4556 H   0  0  0  0  0  0  0  0  0  0  0  0
   -2.2137    3.4712    0.9275 N   0  0  0  0  0  0  0  0  0  0  0  0
   -1.5102    2.2327    1.1338 C   0  0  2  0  0  0  0  0  0  0  0  0
   -1.3539    1.5497   -0.2184 C   0  0  0  0  0  0  0  0  0  0  0  0
   -2.0852    1.7861   -1.1778 O   0  0  0  0  0  0  0  0  0  0  0  0
   -2.2477    1.3342    2.1145 C   0  0  0  0  0  0  0  0  0  0  0  0
   -2.6724    3.9052    1.7265 H   0  0  0  0  0  0  0  0  0  0  0  0
   -0.5220    2.4922    1.5290 H   0  0  0  0  0  0  0  0  0  0  0  0
   -3.2400    1.0636    1.7358 H   0  0  0  0  0  0  0  0  0  0  0  0
   -1.6970    0.4046    2.2923 H   0  0  0  0  0  0  0  0  0  0  0  0
   -2.3854    1.8384    3.0772 H   0  0  0  0  0  0  0  0  0  0  0  0
   -0.3283    0.6116   -0.2182 N   0  0  0  0  0  0  0  0  0  0  0  0
    0.0090   -0.1762   -1.3759 C   0  0  2  0  0  0  0  0  0  0  0  0
    0.4016    0.7823   -2.4930 C   0  0  0  0  0  0  0  0  0  0  0  0
    1.3652    0.5905   -3.2318 O   0  0  0  0  0  0  0  0  0  0  0  0
   -1.1465   -1.0733   -1.8118 C   0  0  0  0  0  0  0  0  0  0  0  0
   -1.3944   -2.1729   -0.8086 C   0  0  0  0  0  0  0  0  0  0  0  0
   -0.5262   -2.6541   -0.0923 O   0  0  0  0  0  0  0  0  0  0  0  0
   -2.6858   -2.5864   -0.7972 O   0  0  0  0  0  0  0  0  0  0  0  0
    0.2381    0.4970    0.6194 H   0  0  0  0  0  0  0  0  0  0  0  0
    0.8849   -0.7739   -1.0961 H   0  0  0  0  0  0  0  0  0  0  0  0
   -2.0815   -0.5043   -1.8908 H   0  0  0  0  0  0  0  0  0  0  0  0
   -0.9831   -1.5127   -2.8033 H   0  0  0  0  0  0  0  0  0  0  0  0
   -2.8832   -3.3105   -0.1652 H   0  0  0  0  0  0  0  0  0  0  0  0
   -0.4778    1.8509   -2.5982 N   0  0  0  0  0  0  0  0  0  0  0  0
   -0.3278    2.8888   -3.5913 C   0  0  2  0  0  0  0  0  0  0  0  0
   -0.5752    2.2691   -4.9603 C   0  0  0  0  0  0  0  0  0  0  0  0
   -0.4555    1.0662   -5.1837 O   0  0  0  0  0  0  0  0  0  0  0  0
    1.0523    3.5240   -3.5236 C   0  0  0  0  0  0  0  0  0  0  0  0
   -1.2584    1.9051   -1.9506 H   0  0  0  0  0  0  0  0  0  0  0  0
   -1.0992    3.6384   -3.3842 H   0  0  0  0  0  0  0  0  0  0  0  0
    1.8384    2.7881   -3.7283 H   0  0  0  0  0  0  0  0  0  0  0  0
    1.1546    4.3299   -4.2579 H   0  0  0  0  0  0  0  0  0  0  0  0
    1.2401    3.9430   -2.5291 H   0  0  0  0  0  0  0  0  0  0  0  0
   -0.9035    3.2231   -5.9134 N   0  0  0  0  0  0  0  0  0  0  0  0
   -1.1726    2.8873   -7.2921 C   0  0  0  0  0  0  0  0  0  0  0  0
   -0.9988    4.1953   -5.6350 H   0  0  0  0  0  0  0  0  0  0  0  0
   -0.2446    2.9668   -7.8772 H   0  0  0  0  0  0  0  0  0  0  0  0
   -1.5557    1.8579   -7.3505 H   0  0  0  0  0  0  0  0  0  0  0  0
   -1.9229    3.5814   -7.6986 H   0  0  0  0  0  0  0  0  0  0  0  0
  1  3  1  0  0  0  0
  1  7  1  0  0  0  0
  1  2  2  0  0  0  0
 31 32  1  0  0  0  0
 32 40  1  0  0  0  0
 32 33  2  0  0  0  0
  8  9  1  0  0  0  0
  9 17  1  0  0  0  0
  9 10  2  0  0  0  0
 18 19  1  0  0  0  0
 19 30  1  0  0  0  0
 19 20  2  0  0  0  0
 21 22  1  0  0  0  0
 22 23  2  0  0  0  0
 22 24  1  0  0  0  0
 31 34  1  0  0  0  0
  8 11  1  0  0  0  0
 40 41  1  0  0  0  0
 18 21  1  0  0  0  0
 30 31  1  0  0  0  0
  7  8  1  0  0  0  0
 17 18  1  0  0  0  0
  3  4  1  0  0  0  0
  3  5  1  0  0  0  0
  3  6  1  0  0  0  0
 34 37  1  0  0  0  0
 34 38  1  0  0  0  0
 34 39  1  0  0  0  0
 11 14  1  0  0  0  0
 11 15  1  0  0  0  0
 11 16  1  0  0  0  0
 41 43  1  0  0  0  0
 41 44  1  0  0  0  0
 41 45  1  0  0  0  0
 21 27  1  0  0  0  0
 21 28  1  0  0  0  0
 31 36  1  0  0  0  0
  8 13  1  0  0  0  0
 18 26  1  0  0  0  0
 40 42  1  0  0  0  0
  7 12  1  0  0  0  0
 30 35  1  0  0  0  0
 17 25  1  0  0  0  0
 24 29  1  0  0  0  0
M  END
$$$$

  -OEChem-05262214473D

 45 44  0     1  0  0  0  0  0999 V2000
   -2.2987    4.1032   -0.3022 C   0  0  0  0  0  0  0  0  0  0  0  0
   -1.8049    3.7117   -1.3532 O   0  0  0  0  0  0  0  0  0  0  0  0
   -3.0791    5.3755   -0.2846 C   0  0  0  0  0  0  0  0  0  0  0  0
   -2.4478    6.2532   -0.0717 H   0  0  0  0  0  0  0  0  0  0  0  0
   -3.5571    5.5891   -1.2541 H   0  0  0  0  0  0  0  0  0  0  0  0
   -3.8940    5.4184    0.4556 H   0  0  0  0  0  0  0  0  0  0  0  0
   -2.2137    3.4712    0.9275 N   0  0  0  0  0  0  0  0  0  0  0  0
   -1.5102    2.2327    1.1338 C   0  0  2  0  0  0  0  0  0  0  0  0
   -1.3539    1.5497   -0.2184 C   0  0  0  0  0  0  0  0  0  0  0  0
   -2.0852    1.7861   -1.1778 O   0  0  0  0  0  0  0  0  0  0  0  0
   -2.2477    1.3342    2.1145 C   0  0  0  0  0  0  0  0  0  0  0  0
   -2.6724    3.9052    1.7265 H   0  0  0  0  0  0  0  0  0  0  0  0
   -0.5220    2.4922    1.5290 H   0  0  0  0  0  0  0  0  0  0  0  0
   -3.2400    1.0636    1.7358 H   0  0  0  0  0  0  0  0  0  0  0  0
   -1.6970    0.4046    2.2923 H   0  0  0  0  0  0  0  0  0  0  0  0
   -2.3854    1.8384    3.0772 H   0  0  0  0  0  0  0  0  0  0  0  0
   -0.3283    0.6116   -0.2182 N   0  0  0  0  0  0  0  0  0  0  0  0
    0.0090   -0.1762   -1.3759 C   0  0  2  0  0  0  0  0  0  0  0  0
    0.4016    0.7823   -2.4930 C   0  0  0  0  0  0  0  0  0  0  0  0
    1.1815    0.4778   -3.3931 O   0  0  0  0  0  0  0  0  0  0  0  0
   -1.1465   -1.0733   -1.8118 C   0  0  0  0  0  0  0  0  0  0  0  0
   -1.3944   -2.1729   -0.8086 C   0  0  0  0  0  0  0  0  0  0  0  0
   -0.5262   -2.6541   -0.0923 O   0  0  0  0  0  0  0  0  0  0  0  0
   -2.6858   -2.5864   -0.7972 O   0  0  0  0  0  0  0  0  0  0  0  0
    0.2381    0.4970    0.6194 H   0  0  0  0  0  0  0  0  0  0  0  0
    0.8849   -0.7739   -1.0961 H   0  0  0  0  0  0  0  0  0  0  0  0
   -2.0815   -0.5043   -1.8908 H   0  0  0  0  0  0  0  0  0  0  0  0
   -0.9831   -1.5127   -2.8033 H   0  0  0  0  0  0  0  0  0  0  0  0
   -2.8832   -3.3105   -0.1652 H   0  0  0  0  0  0  0  0  0  0  0  0
   -0.2576    1.9996   -2.3932 N   0  0  0  0  0  0  0  0  0  0  0  0
   -0.0649    3.0703   -3.3431 C   0  0  2  0  0  0  0  0  0  0  0  0
   -0.6397    2.6218   -4.6803 C   0  0  0  0  0  0  0  0  0  0  0  0
   -0.7936    1.4401   -4.9817 O   0  0  0  0  0  0  0  0  0  0  0  0
    1.4059    3.4326   -3.4777 C   0  0  0  0  0  0  0  0  0  0  0  0
   -0.9015    2.1432   -1.6209 H   0  0  0  0  0  0  0  0  0  0  0  0
   -0.6331    3.9297   -2.9705 H   0  0  0  0  0  0  0  0  0  0  0  0
    1.9912    2.5839   -3.8499 H   0  0  0  0  0  0  0  0  0  0  0  0
    1.5475    4.2636   -4.1767 H   0  0  0  0  0  0  0  0  0  0  0  0
    1.8251    3.7264   -2.5094 H   0  0  0  0  0  0  0  0  0  0  0  0
   -0.9202    3.6952   -5.5141 N   0  0  0  0  0  0  0  0  0  0  0  0
   -1.4620    3.5296   -6.8427 C   0  0  0  0  0  0  0  0  0  0  0  0
   -0.7791    4.6420   -5.1745 H   0  0  0  0  0  0  0  0  0  0  0  0
   -0.6395    3.4847   -7.5717 H   0  0  0  0  0  0  0  0  0  0  0  0
   -2.0432    2.5967   -6.8878 H   0  0  0  0  0  0  0  0  0  0  0  0
   -2.1164    4.3812   -7.0804 H   0  0  0  0  0  0  0  0  0  0  0  0
  1  3  1  0  0  0  0
  1  7  1  0  0  0  0
  1  2  2  0  0  0  0
 31 32  1  0  0  0  0
 32 40  1  0  0  0  0
 32 33  2  0  0  0  0
  8  9  1  0  0  0  0
  9 17  1  0  0  0  0
  9 10  2  0  0  0  0
 18 19  1  0  0  0  0
 19 30  1  0  0  0  0
 19 20  2  0  0  0  0
 21 22  1  0  0  0  0
 22 23  2  0  0  0  0
 22 24  1  0  0  0  0
 31 34  1  0  0  0  0
  8 11  1  0  0  0  0
 40 41  1  0  0  0  0
 18 21  1  0  0  0  0
 30 31  1  0  0  0  0
  7  8  1  0  0  0  0
 17 18  1  0  0  0  0
  3  4  1  0  0  0  0
  3  5  1  0  0  0  0
  3  6  1  0  0  0  0
 34 37  1  0  0  0  0
 34 38  1  0  0  0  0
 34 39  1  0  0  0  0
 11 14  1  0  0  0  0
 11 15  1  0  0  0  0
 11 16  1  0  0  0  0
 41 43  1  0  0  0  0
 41 44  1  0  0  0  0
 41 45  1  0  0  0  0
 21 27  1  0  0  0  0
 21 28  1  0  0  0  0
 31 36  1  0  0  0  0
  8 13  1  0  0  0  0
 18 26  1  0  0  0  0
 40 42  1  0  0  0  0
  7 12  1  0  0  0  0
 30 35  1  0  0  0  0
 17 25  1  0  0  0  0
 24 29  1  0  0  0  0
M  END
$$$$

  -OEChem-05262214473D

 45 44  0     1  0  0  0  0  0999 V2000
   -2.2987    4.1032   -0.3022 C   0  0  0  0  0  0  0  0  0  0  0  0
   -1.8049    3.7117   -1.3532 O   0  0  0  0  0  0  0  0  0  0  0  0
   -3.0791    5.3755   -0.2846 C   0  0  0  0  0  0  0  0  0  0  0  0
   -2.4478    6.2532   -0.0717 H   0  0  0  0  0  0  0  0  0  0  0  0
   -3.5571    5.5891   -1.2541 H   0  0  0  0  0  0  0  0  0  0  0  0
   -3.8940    5.4184    0.4556 H   0  0  0  0  0  0  0  0  0  0  0  0
   -2.2137    3.4712    0.9275 N   0  0  0  0  0  0  0  0  0  0  0  0
   -1.5102    2.2327    1.1338 C   0  0  2  0  0  0  0  0  0  0  0  0
   -1.3539    1.5497   -0.2184 C   0  0  0  0  0  0  0  0  0  0  0  0
   -2.0852    1.7861   -1.1778 O   0  0  0  0  0  0  0  0  0  0  0  0
   -2.2477    1.3342    2.1145 C   0  0  0  0  0  0  0  0  0  0  0  0
   -2.6724    3.9052    1.7265 H   0  0  0  0  0  0  0  0  0  0  0  0
   -0.5220    2.4922    1.5290 H   0  0  0  0  0  0  0  0  0  0  0  0
   -3.2400    1.0636    1.7358 H   0  0  0  0  0  0  0  0  0  0  0  0
   -1.6970    0.4046    2.2923 H   0  0  0  0  0  0  0  0  0  0  0  0
   -2.3854    1.8384    3.0772 H   0  0  0  0  0  0  0  0  0  0  0  0
   -0.3283    0.6116   -0.2182 N   0  0  0  0  0  0  0  0  0  0  0  0
    0.0090   -0.1762   -1.3759 C   0  0  2  0  0  0  0  0  0  0  0  0
    0.4016    0.7823   -2.4930 C   0  0  0  0  0  0  0  0  0  0  0  0
    0.9565    0.4145   -3.5265 O   0  0  0  0  0  0  0  0  0  0  0  0
   -1.1465   -1.0733   -1.8118 C   0  0  0  0  0  0  0  0  0  0  0  0
   -1.3944   -2.1729   -0.8086 C   0  0  0  0  0  0  0  0  0  0  0  0
   -0.5262   -2.6541   -0.0923 O   0  0  0  0  0  0  0  0  0  0  0  0
   -2.6858   -2.5864   -0.7972 O   0  0  0  0  0  0  0  0  0  0  0  0
    0.2381    0.4970    0.6194 H   0  0  0  0  0  0  0  0  0  0  0  0
    0.8849   -0.7739   -1.0961 H   0  0  0  0  0  0  0  0  0  0  0  0
   -2.0815   -0.5043   -1.8908 H   0  0  0  0  0  0  0  0  0  0  0  0
   -0.9831   -1.5127   -2.8033 H   0  0  0  0  0  0  0  0  0  0  0  0
   -2.8832   -3.3105   -0.1652 H   0  0  0  0  0  0  0  0  0  0  0  0
    0.0168    2.0877   -2.2212 N   0  0  0  0  0  0  0  0  0  0  0  0
    0.2638    3.1793   -3.1341 C   0  0  2  0  0  0  0  0  0  0  0  0
   -0.5894    2.9561   -4.3758 C   0  0  0  0  0  0  0  0  0  0  0  0
   -1.0164    1.8519   -4.7067 O   0  0  0  0  0  0  0  0  0  0  0  0
    1.7376    3.2742   -3.4972 C   0  0  0  0  0  0  0  0  0  0  0  0
   -0.4578    2.2834   -1.3447 H   0  0  0  0  0  0  0  0  0  0  0  0
   -0.0601    4.0949   -2.6274 H   0  0  0  0  0  0  0  0  0  0  0  0
    2.0803    2.3657   -4.0058 H   0  0  0  0  0  0  0  0  0  0  0  0
    1.9276    4.1195   -4.1667 H   0  0  0  0  0  0  0  0  0  0  0  0
    2.3523    3.4048   -2.6000 H   0  0  0  0  0  0  0  0  0  0  0  0
   -0.7818    4.1278   -5.0943 N   0  0  0  0  0  0  0  0  0  0  0  0
   -1.5465    4.1749   -6.3186 C   0  0  0  0  0  0  0  0  0  0  0  0
   -0.4071    5.0011   -4.7356 H   0  0  0  0  0  0  0  0  0  0  0  0
   -0.8729    4.0394   -7.1777 H   0  0  0  0  0  0  0  0  0  0  0  0
   -2.2984    3.3721   -6.3123 H   0  0  0  0  0  0  0  0  0  0  0  0
   -2.0509    5.1491   -6.3985 H   0  0  0  0  0  0  0  0  0  0  0  0
  1  3  1  0  0  0  0
  1  7  1  0  0  0  0
  1  2  2  0  0  0  0
 31 32  1  0  0  0  0
 32 40  1  0  0  0  0
 32 33  2  0  0  0  0
  8  9  1  0  0  0  0
  9 17  1  0  0  0  0
  9 10  2  0  0  0  0
 18 19  1  0  0  0  0
 19 30  1  0  0  0  0
 19 20  2  0  0  0  0
 21 22  1  0  0  0  0
 22 23  2  0  0  0  0
 22 24  1  0  0  0  0
 31 34  1  0  0  0  0
  8 11  1  0  0  0  0
 40 41  1  0  0  0  0
 18 21  1  0  0  0  0
 30 31  1  0  0  0  0
  7  8  1  0  0  0  0
 17 18  1  0  0  0  0
  3  4  1  0  0  0  0
  3  5  1  0  0  0  0
  3  6  1  0  0  0  0
 34 37  1  0  0  0  0
 34 38  1  0  0  0  0
 34 39  1  0  0  0  0
 11 14  1  0  0  0  0
 11 15  1  0  0  0  0
 11 16  1  0  0  0  0
 41 43  1  0  0  0  0
 41 44  1  0  0  0  0
 41 45  1  0  0  0  0
 21 27  1  0  0  0  0
 21 28  1  0  0  0  0
 31 36  1  0  0  0  0
  8 13  1  0  0  0  0
 18 26  1  0  0  0  0
 40 42  1  0  0  0  0
  7 12  1  0  0  0  0
 30 35  1  0  0  0  0
 17 25  1  0  0  0  0
 24 29  1  0  0  0  0
M  END
$$$$

  -OEChem-05262214473D

 45 44  0     1  0  0  0  0  0999 V2000
   -2.2987    4.1032   -0.3022 C   0  0  0  0  0  0  0  0  0  0  0  0
   -1.8049    3.7117   -1.3532 O   0  0  0  0  0  0  0  0  0  0  0  0
   -3.0791    5.3755   -0.2846 C   0  0  0  0  0  0  0  0  0  0  0  0
   -2.4478    6.2532   -0.0717 H   0  0  0  0  0  0  0  0  0  0  0  0
   -3.5571    5.5891   -1.2541 H   0  0  0  0  0  0  0  0  0  0  0  0
   -3.8940    5.4184    0.4556 H   0  0  0  0  0  0  0  0  0  0  0  0
   -2.2137    3.4712    0.9275 N   0  0  0  0  0  0  0  0  0  0  0  0
   -1.5102    2.2327    1.1338 C   0  0  2  0  0  0  0  0  0  0  0  0
   -1.3539    1.5497   -0.2184 C   0  0  0  0  0  0  0  0  0  0  0  0
   -2.0852    1.7861   -1.1778 O   0  0  0  0  0  0  0  0  0  0  0  0
   -2.2477    1.3342    2.1145 C   0  0  0  0  0  0  0  0  0  0  0  0
   -2.6724    3.9052    1.7265 H   0  0  0  0  0  0  0  0  0  0  0  0
   -0.5220    2.4922    1.5290 H   0  0  0  0  0  0  0  0  0  0  0  0
   -3.2400    1.0636    1.7358 H   0  0  0  0  0  0  0  0  0  0  0  0
   -1.6970    0.4046    2.2923 H   0  0  0  0  0  0  0  0  0  0  0  0
   -2.3854    1.8384    3.0772 H   0  0  0  0  0  0  0  0  0  0  0  0
   -0.3283    0.6116   -0.2182 N   0  0  0  0  0  0  0  0  0  0  0  0
    0.0090   -0.1762   -1.3759 C   0  0  2  0  0  0  0  0  0  0  0  0
    0.4016    0.7823   -2.4930 C   0  0  0  0  0  0  0  0  0  0  0  0
    0.7053    0.4050   -3.6229 O   0  0  0  0  0  0  0  0  0  0  0  0
   -1.1465   -1.0733   -1.8118 C   0  0  0  0  0  0  0  0  0  0  0  0
   -1.3944   -2.1729   -0.8086 C   0  0  0  0  0  0  0  0  0  0  0  0
   -0.5262   -2.6541   -0.0923 O   0  0  0  0  0  0  0  0  0  0  0  0
   -2.6858   -2.5864   -0.7972 O   0  0  0  0  0  0  0  0  0  0  0  0
    0.2381    0.4970    0.6194 H   0  0  0  0  0  0  0  0  0  0  0  0
    0.8849   -0.7739   -1.0961 H   0  0  0  0  0  0  0  0  0  0  0  0
   -2.0815   -0.5043   -1.8908 H   0  0  0  0  0  0  0  0  0  0  0  0
   -0.9831   -1.5127   -2.8033 H   0  0  0  0  0  0  0  0  0  0  0  0
   -2.8832   -3.3105   -0.1652 H   0  0  0  0  0  0  0  0  0  0  0  0
    0.3265    2.1094   -2.0938 N   0  0  0  0  0  0  0  0  0  0  0  0
    0.6361    3.2081   -2.9785 C   0  0  2  0  0  0  0  0  0  0  0  0
   -0.4278    3.2491   -4.0676 C   0  0  0  0  0  0  0  0  0  0  0  0
   -1.1086    2.2736   -4.3773 O   0  0  0  0  0  0  0  0  0  0  0  0
    2.0247    3.0595   -3.5805 C   0  0  0  0  0  0  0  0  0  0  0  0
    0.0423    2.3163   -1.1407 H   0  0  0  0  0  0  0  0  0  0  0  0
    0.5805    4.1228   -2.3783 H   0  0  0  0  0  0  0  0  0  0  0  0
    2.0996    2.1485   -4.1854 H   0  0  0  0  0  0  0  0  0  0  0  0
    2.2691    3.9076   -4.2286 H   0  0  0  0  0  0  0  0  0  0  0  0
    2.7857    3.0002   -2.7949 H   0  0  0  0  0  0  0  0  0  0  0  0
   -0.4976    4.4914   -4.6825 N   0  0  0  0  0  0  0  0  0  0  0  0
   -1.4203    4.7793   -5.7557 C   0  0  0  0  0  0  0  0  0  0  0  0
    0.0919    5.2481   -4.3484 H   0  0  0  0  0  0  0  0  0  0  0  0
   -0.9289    4.5933   -6.7221 H   0  0  0  0  0  0  0  0  0  0  0  0
   -2.3041    4.1310   -5.6630 H   0  0  0  0  0  0  0  0  0  0  0  0
   -1.7309    5.8330   -5.6992 H   0  0  0  0  0  0  0  0  0  0  0  0
  1  3  1  0  0  0  0
  1  7  1  0  0  0  0
  1  2  2  0  0  0  0
 31 32  1  0  0  0  0
 32 40  1  0  0  0  0
 32 33  2  0  0  0  0
  8  9  1  0  0  0  0
  9 17  1  0  0  0  0
  9 10  2  0  0  0  0
 18 19  1  0  0  0  0
 19 30  1  0  0  0  0
 19 20  2  0  0  0  0
 21 22  1  0  0  0  0
 22 23  2  0  0  0  0
 22 24  1  0  0  0  0
 31 34  1  0  0  0  0
  8 11  1  0  0  0  0
 40 41  1  0  0  0  0
 18 21  1  0  0  0  0
 30 31  1  0  0  0  0
  7  8  1  0  0  0  0
 17 18  1  0  0  0  0
  3  4  1  0  0  0  0
  3  5  1  0  0  0  0
  3  6  1  0  0  0  0
 34 37  1  0  0  0  0
 34 38  1  0  0  0  0
 34 39  1  0  0  0  0
 11 14  1  0  0  0  0
 11 15  1  0  0  0  0
 11 16  1  0  0  0  0
 41 43  1  0  0  0  0
 41 44  1  0  0  0  0
 41 45  1  0  0  0  0
 21 27  1  0  0  0  0
 21 28  1  0  0  0  0
 31 36  1  0  0  0  0
  8 13  1  0  0  0  0
 18 26  1  0  0  0  0
 40 42  1  0  0  0  0
  7 12  1  0  0  0  0
 30 35  1  0  0  0  0
 17 25  1  0  0  0  0
 24 29  1  0  0  0  0
M  END
$$$$

  -OEChem-05262214473D

 45 44  0     1  0  0  0  0  0999 V2000
   -2.2987    4.1032   -0.3022 C   0  0  0  0  0  0  0  0  0  0  0  0
   -1.8049    3.7117   -1.3532 O   0  0  0  0  0  0  0  0  0  0  0  0
   -3.0791    5.3755   -0.2846 C   0  0  0  0  0  0  0  0  0  0  0  0
   -2.4478    6.2532   -0.0717 H   0  0  0  0  0  0  0  0  0  0  0  0
   -3.5571    5.5891   -1.2541 H   0  0  0  0  0  0  0  0  0  0  0  0
   -3.8940    5.4184    0.4556 H   0  0  0  0  0  0  0  0  0  0  0  0
   -2.2137    3.4712    0.9275 N   0  0  0  0  0  0  0  0  0  0  0  0
   -1.5102    2.2327    1.1338 C   0  0  2  0  0  0  0  0  0  0  0  0
   -1.3539    1.5497   -0.2184 C   0  0  0  0  0  0  0  0  0  0  0  0
   -2.0852    1.7861   -1.1778 O   0  0  0  0  0  0  0  0  0  0  0  0
   -2.2477    1.3342    2.1145 C   0  0  0  0  0  0  0  0  0  0  0  0
   -2.6724    3.9052    1.7265 H   0  0  0  0  0  0  0  0  0  0  0  0
   -0.5220    2.4922    1.5290 H   0  0  0  0  0  0  0  0  0  0  0  0
   -3.2400    1.0636    1.7358 H   0  0  0  0  0  0  0  0  0  0  0  0
   -1.6970    0.4046    2.2923 H   0  0  0  0  0  0  0  0  0  0  0  0
   -2.3854    1.8384    3.0772 H   0  0  0  0  0  0  0  0  0  0  0  0
   -0.3283    0.6116   -0.2182 N   0  0  0  0  0  0  0  0  0  0  0  0
    0.0090   -0.1762   -1.3759 C   0  0  2  0  0  0  0  0  0  0  0  0
    0.4016    0.7823   -2.4930 C   0  0  0  0  0  0  0  0  0  0  0  0
    0.4453    0.4499   -3.6757 O   0  0  0  0  0  0  0  0  0  0  0  0
   -1.1465   -1.0733   -1.8118 C   0  0  0  0  0  0  0  0  0  0  0  0
   -1.3944   -2.1729   -0.8086 C   0  0  0  0  0  0  0  0  0  0  0  0
   -0.5262   -2.6541   -0.0923 O   0  0  0  0  0  0  0  0  0  0  0  0
   -2.6858   -2.5864   -0.7972 O   0  0  0  0  0  0  0  0  0  0  0  0
    0.2381    0.4970    0.6194 H   0  0  0  0  0  0  0  0  0  0  0  0
    0.8849   -0.7739   -1.0961 H   0  0  0  0  0  0  0  0  0  0  0  0
   -2.0815   -0.5043   -1.8908 H   0  0  0  0  0  0  0  0  0  0  0  0
   -0.9831   -1.5127   -2.8033 H   0  0  0  0  0  0  0  0  0  0  0  0
   -2.8832   -3.3105   -0.1652 H   0  0  0  0  0  0  0  0  0  0  0  0
    0.6505    2.0630   -2.0197 N   0  0  0  0  0  0  0  0  0  0  0  0
    1.0265    3.1550   -2.8869 C   0  0  2  0  0  0  0  0  0  0  0  0
   -0.1659    3.4809   -3.7766 C   0  0  0  0  0  0  0  0  0  0  0  0
   -1.0640    2.6765   -4.0159 O   0  0  0  0  0  0  0  0  0  0  0  0
    2.2477    2.8032   -3.7220 C   0  0  0  0  0  0  0  0  0  0  0  0
    0.5648    2.2394   -1.0230 H   0  0  0  0  0  0  0  0  0  0  0  0
    1.2452    4.0116   -2.2401 H   0  0  0  0  0  0  0  0  0  0  0  0
    2.0477    1.9470   -4.3766 H   0  0  0  0  0  0  0  0  0  0  0  0
    2.5486    3.6422   -4.3581 H   0  0  0  0  0  0  0  0  0  0  0  0
    3.0958    2.5402   -3.0807 H   0  0  0  0  0  0  0  0  0  0  0  0
   -0.0870    4.7612   -4.3067 N   0  0  0  0  0  0  0  0  0  0  0  0
   -1.0919    5.3016   -5.1921 C   0  0  0  0  0  0  0  0  0  0  0  0
    0.6838    5.3662   -4.0391 H   0  0  0  0  0  0  0  0  0  0  0  0
   -0.8037    5.1086   -6.2360 H   0  0  0  0  0  0  0  0  0  0  0  0
   -2.0598    4.8219   -4.9844 H   0  0  0  0  0  0  0  0  0  0  0  0
   -1.1780    6.3862   -5.0302 H   0  0  0  0  0  0  0  0  0  0  0  0
  1  3  1  0  0  0  0
  1  7  1  0  0  0  0
  1  2  2  0  0  0  0
 31 32  1  0  0  0  0
 32 40  1  0  0  0  0
 32 33  2  0  0  0  0
  8  9  1  0  0  0  0
  9 17  1  0  0  0  0
  9 10  2  0  0  0  0
 18 19  1  0  0  0  0
 19 30  1  0  0  0  0
 19 20  2  0  0  0  0
 21 22  1  0  0  0  0
 22 23  2  0  0  0  0
 22 24  1  0  0  0  0
 31 34  1  0  0  0  0
  8 11  1  0  0  0  0
 40 41  1  0  0  0  0
 18 21  1  0  0  0  0
 30 31  1  0  0  0  0
  7  8  1  0  0  0  0
 17 18  1  0  0  0  0
  3  4  1  0  0  0  0
  3  5  1  0  0  0  0
  3  6  1  0  0  0  0
 34 37  1  0  0  0  0
 34 38  1  0  0  0  0
 34 39  1  0  0  0  0
 11 14  1  0  0  0  0
 11 15  1  0  0  0  0
 11 16  1  0  0  0  0
 41 43  1  0  0  0  0
 41 44  1  0  0  0  0
 41 45  1  0  0  0  0
 21 27  1  0  0  0  0
 21 28  1  0  0  0  0
 31 36  1  0  0  0  0
  8 13  1  0  0  0  0
 18 26  1  0  0  0  0
 40 42  1  0  0  0  0
  7 12  1  0  0  0  0
 30 35  1  0  0  0  0
 17 25  1  0  0  0  0
 24 29  1  0  0  0  0
M  END
$$$$

  -OEChem-05262214473D

 45 44  0     1  0  0  0  0  0999 V2000
   -2.2987    4.1032   -0.3022 C   0  0  0  0  0  0  0  0  0  0  0  0
   -1.8049    3.7117   -1.3532 O   0  0  0  0  0  0  0  0  0  0  0  0
   -3.0791    5.3755   -0.2846 C   0  0  0  0  0  0  0  0  0  0  0  0
   -2.4478    6.2532   -0.0717 H   0  0  0  0  0  0  0  0  0  0  0  0
   -3.5571    5.5891   -1.2541 H   0  0  0  0  0  0  0  0  0  0  0  0
   -3.8940    5.4184    0.4556 H   0  0  0  0  0  0  0  0  0  0  0  0
   -2.2137    3.4712    0.9275 N   0  0  0  0  0  0  0  0  0  0  0  0
   -1.5102    2.2327    1.1338 C   0  0  2  0  0  0  0  0  0  0  0  0
   -1.3539    1.5497   -0.2184 C   0  0  0  0  0  0  0  0  0  0  0  0
   -2.0852    1.7861   -1.1778 O   0  0  0  0  0  0  0  0  0  0  0  0
   -2.2477    1.3342    2.1145 C   0  0  0  0  0  0  0  0  0  0  0  0
   -2.6724    3.9052    1.7265 H   0  0  0  0  0  0  0  0  0  0  0  0
   -0.5220    2.4922    1.5290 H   0  0  0  0  0  0  0  0  0  0  0  0
   -3.2400    1.0636    1.7358 H   0  0  0  0  0  0  0  0  0  0  0  0
   -1.6970    0.4046    2.2923 H   0  0  0  0  0  0  0  0  0  0  0  0
   -2.3854    1.8384    3.0772 H   0  0  0  0  0  0  0  0  0  0  0  0
   -0.3283    0.6116   -0.2182 N   0  0  0  0  0  0  0  0  0  0  0  0
    0.0090   -0.1762   -1.3759 C   0  0  2  0  0  0  0  0  0  0  0  0
    0.4016    0.7823   -2.4930 C   0  0  0  0  0  0  0  0  0  0  0  0
    0.1940    0.5462   -3.6814 O   0  0  0  0  0  0  0  0  0  0  0  0
   -1.1465   -1.0733   -1.8118 C   0  0  0  0  0  0  0  0  0  0  0  0
   -1.3944   -2.1729   -0.8086 C   0  0  0  0  0  0  0  0  0  0  0  0
   -0.5262   -2.6541   -0.0923 O   0  0  0  0  0  0  0  0  0  0  0  0
   -2.6858   -2.5864   -0.7972 O   0  0  0  0  0  0  0  0  0  0  0  0
    0.2381    0.4970    0.6194 H   0  0  0  0  0  0  0  0  0  0  0  0
    0.8849   -0.7739   -1.0961 H   0  0  0  0  0  0  0  0  0  0  0  0
   -2.0815   -0.5043   -1.8908 H   0  0  0  0  0  0  0  0  0  0  0  0
   -0.9831   -1.5127   -2.8033 H   0  0  0  0  0  0  0  0  0  0  0  0
   -2.8832   -3.3105   -0.1652 H   0  0  0  0  0  0  0  0  0  0  0  0
    0.9668    1.9517   -2.0040 N   0  0  0  0  0  0  0  0  0  0  0  0
    1.4084    3.0235   -2.8656 C   0  0  2  0  0  0  0  0  0  0  0  0
    0.1785    3.6357   -3.5228 C   0  0  0  0  0  0  0  0  0  0  0  0
   -0.8856    3.0330   -3.6473 O   0  0  0  0  0  0  0  0  0  0  0  0
    2.3915    2.5227   -3.9122 C   0  0  0  0  0  0  0  0  0  0  0  0
    1.0742    2.0582   -0.9996 H   0  0  0  0  0  0  0  0  0  0  0  0
    1.8887    3.7689   -2.2223 H   0  0  0  0  0  0  0  0  0  0  0  0
    1.9282    1.7749   -4.5662 H   0  0  0  0  0  0  0  0  0  0  0  0
    2.7472    3.3414   -4.5464 H   0  0  0  0  0  0  0  0  0  0  0  0
    3.2615    2.0559   -3.4379 H   0  0  0  0  0  0  0  0  0  0  0  0
    0.4220    4.9188   -3.9926 N   0  0  0  0  0  0  0  0  0  0  0  0
   -0.5839    5.7063   -4.6664 C   0  0  0  0  0  0  0  0  0  0  0  0
    1.3283    5.3472   -3.8288 H   0  0  0  0  0  0  0  0  0  0  0  0
   -0.5059    5.5501   -5.7525 H   0  0  0  0  0  0  0  0  0  0  0  0
   -1.5822    5.3976   -4.3225 H   0  0  0  0  0  0  0  0  0  0  0  0
   -0.4301    6.7711   -4.4372 H   0  0  0  0  0  0  0  0  0  0  0  0
  1  3  1  0  0  0  0
  1  7  1  0  0  0  0
  1  2  2  0  0  0  0
 31 32  1  0  0  0  0
 32 40  1  0  0  0  0
 32 33  2  0  0  0  0
  8  9  1  0  0  0  0
  9 17  1  0  0  0  0
  9 10  2  0  0  0  0
 18 19  1  0  0  0  0
 19 30  1  0  0  0  0
 19 20  2  0  0  0  0
 21 22  1  0  0  0  0
 22 23  2  0  0  0  0
 22 24  1  0  0  0  0
 31 34  1  0  0  0  0
  8 11  1  0  0  0  0
 40 41  1  0  0  0  0
 18 21  1  0  0  0  0
 30 31  1  0  0  0  0
  7  8  1  0  0  0  0
 17 18  1  0  0  0  0
  3  4  1  0  0  0  0
  3  5  1  0  0  0  0
  3  6  1  0  0  0  0
 34 37  1  0  0  0  0
 34 38  1  0  0  0  0
 34 39  1  0  0  0  0
 11 14  1  0  0  0  0
 11 15  1  0  0  0  0
 11 16  1  0  0  0  0
 41 43  1  0  0  0  0
 41 44  1  0  0  0  0
 41 45  1  0  0  0  0
 21 27  1  0  0  0  0
 21 28  1  0  0  0  0
 31 36  1  0  0  0  0
  8 13  1  0  0  0  0
 18 26  1  0  0  0  0
 40 42  1  0  0  0  0
  7 12  1  0  0  0  0
 30 35  1  0  0  0  0
 17 25  1  0  0  0  0
 24 29  1  0  0  0  0
M  END
$$$$

  -OEChem-05262214473D

 45 44  0     1  0  0  0  0  0999 V2000
   -2.2987    4.1032   -0.3022 C   0  0  0  0  0  0  0  0  0  0  0  0
   -1.8049    3.7117   -1.3532 O   0  0  0  0  0  0  0  0  0  0  0  0
   -3.0791    5.3755   -0.2846 C   0  0  0  0  0  0  0  0  0  0  0  0
   -2.4478    6.2532   -0.0717 H   0  0  0  0  0  0  0  0  0  0  0  0
   -3.5571    5.5891   -1.2541 H   0  0  0  0  0  0  0  0  0  0  0  0
   -3.8940    5.4184    0.4556 H   0  0  0  0  0  0  0  0  0  0  0  0
   -2.2137    3.4712    0.9275 N   0  0  0  0  0  0  0  0  0  0  0  0
   -1.5102    2.2327    1.1338 C   0  0  2  0  0  0  0  0  0  0  0  0
   -1.3539    1.5497   -0.2184 C   0  0  0  0  0  0  0  0  0  0  0  0
   -2.0852    1.7861   -1.1778 O   0  0  0  0  0  0  0  0  0  0  0  0
   -2.2477    1.3342    2.1145 C   0  0  0  0  0  0  0  0  0  0  0  0
   -2.6724    3.9052    1.7265 H   0  0  0  0  0  0  0  0  0  0  0  0
   -0.5220    2.4922    1.5290 H   0  0  0  0  0  0  0  0  0  0  0  0
   -3.2400    1.0636    1.7358 H   0  0  0  0  0  0  0  0  0  0  0  0
   -1.6970    0.4046    2.2923 H   0  0  0  0  0  0  0  0  0  0  0  0
   -2.3854    1.8384    3.0772 H   0  0  0  0  0  0  0  0  0  0  0  0
   -0.3283    0.6116   -0.2182 N   0  0  0  0  0  0  0  0  0  0  0  0
    0.0090   -0.1762   -1.3759 C   0  0  2  0  0  0  0  0  0  0  0  0
    0.4016    0.7823   -2.4930 C   0  0  0  0  0  0  0  0  0  0  0  0
   -0.0314    0.6872   -3.6396 O   0  0  0  0  0  0  0  0  0  0  0  0
   -1.1465   -1.0733   -1.8118 C   0  0  0  0  0  0  0  0  0  0  0  0
   -1.3944   -2.1729   -0.8086 C   0  0  0  0  0  0  0  0  0  0  0  0
   -0.5262   -2.6541   -0.0923 O   0  0  0  0  0  0  0  0  0  0  0  0
   -2.6858   -2.5864   -0.7972 O   0  0  0  0  0  0  0  0  0  0  0  0
    0.2381    0.4970    0.6194 H   0  0  0  0  0  0  0  0  0  0  0  0
    0.8849   -0.7739   -1.0961 H   0  0  0  0  0  0  0  0  0  0  0  0
   -2.0815   -0.5043   -1.8908 H   0  0  0  0  0  0  0  0  0  0  0  0
   -0.9831   -1.5127   -2.8033 H   0  0  0  0  0  0  0  0  0  0  0  0
   -2.8832   -3.3105   -0.1652 H   0  0  0  0  0  0  0  0  0  0  0  0
    1.2537    1.7832   -2.0478 N   0  0  0  0  0  0  0  0  0  0  0  0
    1.7558    2.8225   -2.9159 C   0  0  2  0  0  0  0  0  0  0  0  0
    0.5818    3.7030   -3.3234 C   0  0  0  0  0  0  0  0  0  0  0  0
   -0.5856    3.3190   -3.2964 O   0  0  0  0  0  0  0  0  0  0  0  0
    2.4461    2.2371   -4.1380 C   0  0  0  0  0  0  0  0  0  0  0  0
    1.5356    1.7849   -1.0719 H   0  0  0  0  0  0  0  0  0  0  0  0
    2.4670    3.4111   -2.3261 H   0  0  0  0  0  0  0  0  0  0  0  0
    1.7492    1.6440   -4.7414 H   0  0  0  0  0  0  0  0  0  0  0  0
    2.8512    3.0257   -4.7807 H   0  0  0  0  0  0  0  0  0  0  0  0
    3.2715    1.5806   -3.8423 H   0  0  0  0  0  0  0  0  0  0  0  0
    0.9947    4.9534   -3.7616 N   0  0  0  0  0  0  0  0  0  0  0  0
    0.0692    5.9656   -4.2144 C   0  0  0  0  0  0  0  0  0  0  0  0
    1.9814    5.1926   -3.7320 H   0  0  0  0  0  0  0  0  0  0  0  0
   -0.0556    5.8878   -5.3045 H   0  0  0  0  0  0  0  0  0  0  0  0
   -0.9038    5.8189   -3.7226 H   0  0  0  0  0  0  0  0  0  0  0  0
    0.4619    6.9613   -3.9605 H   0  0  0  0  0  0  0  0  0  0  0  0
  1  3  1  0  0  0  0
  1  7  1  0  0  0  0
  1  2  2  0  0  0  0
 31 32  1  0  0  0  0
 32 40  1  0  0  0  0
 32 33  2  0  0  0  0
  8  9  1  0  0  0  0
  9 17  1  0  0  0  0
  9 10  2  0  0  0  0
 18 19  1  0  0  0  0
 19 30  1  0  0  0  0
 19 20  2  0  0  0  0
 21 22  1  0  0  0  0
 22 23  2  0  0  0  0
 22 24  1  0  0  0  0
 31 34  1  0  0  0  0
  8 11  1  0  0  0  0
 40 41  1  0  0  0  0
 18 21  1  0  0  0  0
 30 31  1  0  0  0  0
  7  8  1  0  0  0  0
 17 18  1  0  0  0  0
  3  4  1  0  0  0  0
  3  5  1  0  0  0  0
  3  6  1  0  0  0  0
 34 37  1  0  0  0  0
 34 38  1  0  0  0  0
 34 39  1  0  0  0  0
 11 14  1  0  0  0  0
 11 15  1  0  0  0  0
 11 16  1  0  0  0  0
 41 43  1  0  0  0  0
 41 44  1  0  0  0  0
 41 45  1  0  0  0  0
 21 27  1  0  0  0  0
 21 28  1  0  0  0  0
 31 36  1  0  0  0  0
  8 13  1  0  0  0  0
 18 26  1  0  0  0  0
 40 42  1  0  0  0  0
  7 12  1  0  0  0  0
 30 35  1  0  0  0  0
 17 25  1  0  0  0  0
 24 29  1  0  0  0  0
M  END
$$$$

  -OEChem-05262214473D

 45 44  0     1  0  0  0  0  0999 V2000
   -2.2987    4.1032   -0.3022 C   0  0  0  0  0  0  0  0  0  0  0  0
   -1.8049    3.7117   -1.3532 O   0  0  0  0  0  0  0  0  0  0  0  0
   -3.0791    5.3755   -0.2846 C   0  0  0  0  0  0  0  0  0  0  0  0
   -2.4478    6.2532   -0.0717 H   0  0  0  0  0  0  0  0  0  0  0  0
   -3.5571    5.5891   -1.2541 H   0  0  0  0  0  0  0  0  0  0  0  0
   -3.8940    5.4184    0.4556 H   0  0  0  0  0  0  0  0  0  0  0  0
   -2.2137    3.4712    0.9275 N   0  0  0  0  0  0  0  0  0  0  0  0
   -1.5102    2.2327    1.1338 C   0  0  2  0  0  0  0  0  0  0  0  0
   -1.3539    1.5497   -0.2184 C   0  0  0  0  0  0  0  0  0  0  0  0
   -2.0852    1.7861   -1.1778 O   0  0  0  0  0  0  0  0  0  0  0  0
   -2.2477    1.3342    2.1145 C   0  0  0  0  0  0  0  0  0  0  0  0
   -2.6724    3.9052    1.7265 H   0  0  0  0  0  0  0  0  0  0  0  0
   -0.5220    2.4922    1.5290 H   0  0  0  0  0  0  0  0  0  0  0  0
   -3.2400    1.0636    1.7358 H   0  0  0  0  0  0  0  0  0  0  0  0
   -1.6970    0.4046    2.2923 H   0  0  0  0  0  0  0  0  0  0  0  0
   -2.3854    1.8384    3.0772 H   0  0  0  0  0  0  0  0  0  0  0  0
   -0.3283    0.6116   -0.2182 N   0  0  0  0  0  0  0  0  0  0  0  0
    0.0090   -0.1762   -1.3759 C   0  0  2  0  0  0  0  0  0  0  0  0
    0.4016    0.7823   -2.4930 C   0  0  0  0  0  0  0  0  0  0  0  0
   -0.2156    0.8635   -3.5531 O   0  0  0  0  0  0  0  0  0  0  0  0
   -1.1465   -1.0733   -1.8118 C   0  0  0  0  0  0  0  0  0  0  0  0
   -1.3944   -2.1729   -0.8086 C   0  0  0  0  0  0  0  0  0  0  0  0
   -0.5262   -2.6541   -0.0923 O   0  0  0  0  0  0  0  0  0  0  0  0
   -2.6858   -2.5864   -0.7972 O   0  0  0  0  0  0  0  0  0  0  0  0
    0.2381    0.4970    0.6194 H   0  0  0  0  0  0  0  0  0  0  0  0
    0.8849   -0.7739   -1.0961 H   0  0  0  0  0  0  0  0  0  0  0  0
   -2.0815   -0.5043   -1.8908 H   0  0  0  0  0  0  0  0  0  0  0  0
   -0.9831   -1.5127   -2.8033 H   0  0  0  0  0  0  0  0  0  0  0  0
   -2.8832   -3.3105   -0.1652 H   0  0  0  0  0  0  0  0  0  0  0  0
    1.4917    1.5689   -2.1480 N   0  0  0  0  0  0  0  0  0  0  0  0
    2.0451    2.5658   -3.0345 C   0  0  2  0  0  0  0  0  0  0  0  0
    1.0167    3.6781   -3.1919 C   0  0  0  0  0  0  0  0  0  0  0  0
   -0.1844    3.5149   -2.9874 O   0  0  0  0  0  0  0  0  0  0  0  0
    2.4079    1.9660   -4.3840 C   0  0  0  0  0  0  0  0  0  0  0  0
    1.9176    1.4382   -1.2351 H   0  0  0  0  0  0  0  0  0  0  0  0
    2.9409    2.9626   -2.5444 H   0  0  0  0  0  0  0  0  0  0  0  0
    1.5230    1.5633   -4.8902 H   0  0  0  0  0  0  0  0  0  0  0  0
    2.8536    2.7167   -5.0450 H   0  0  0  0  0  0  0  0  0  0  0  0
    3.1251    1.1466   -4.2662 H   0  0  0  0  0  0  0  0  0  0  0  0
    1.5921    4.8628   -3.6294 N   0  0  0  0  0  0  0  0  0  0  0  0
    0.8229    6.0620   -3.8668 C   0  0  0  0  0  0  0  0  0  0  0  0
    2.5988    4.9128   -3.7551 H   0  0  0  0  0  0  0  0  0  0  0  0
    0.5164    6.0987   -4.9226 H   0  0  0  0  0  0  0  0  0  0  0  0
   -0.0708    6.0571   -3.2256 H   0  0  0  0  0  0  0  0  0  0  0  0
    1.4373    6.9439   -3.6326 H   0  0  0  0  0  0  0  0  0  0  0  0
  1  3  1  0  0  0  0
  1  7  1  0  0  0  0
  1  2  2  0  0  0  0
 31 32  1  0  0  0  0
 32 40  1  0  0  0  0
 32 33  2  0  0  0  0
  8  9  1  0  0  0  0
  9 17  1  0  0  0  0
  9 10  2  0  0  0  0
 18 19  1  0  0  0  0
 19 30  1  0  0  0  0
 19 20  2  0  0  0  0
 21 22  1  0  0  0  0
 22 23  2  0  0  0  0
 22 24  1  0  0  0  0
 31 34  1  0  0  0  0
  8 11  1  0  0  0  0
 40 41  1  0  0  0  0
 18 21  1  0  0  0  0
 30 31  1  0  0  0  0
  7  8  1  0  0  0  0
 17 18  1  0  0  0  0
  3  4  1  0  0  0  0
  3  5  1  0  0  0  0
  3  6  1  0  0  0  0
 34 37  1  0  0  0  0
 34 38  1  0  0  0  0
 34 39  1  0  0  0  0
 11 14  1  0  0  0  0
 11 15  1  0  0  0  0
 11 16  1  0  0  0  0
 41 43  1  0  0  0  0
 41 44  1  0  0  0  0
 41 45  1  0  0  0  0
 21 27  1  0  0  0  0
 21 28  1  0  0  0  0
 31 36  1  0  0  0  0
  8 13  1  0  0  0  0
 18 26  1  0  0  0  0
 40 42  1  0  0  0  0
  7 12  1  0  0  0  0
 30 35  1  0  0  0  0
 17 25  1  0  0  0  0
 24 29  1  0  0  0  0
M  END
$$$$

  -OEChem-05262214473D

 45 44  0     1  0  0  0  0  0999 V2000
   -2.2987    4.1032   -0.3022 C   0  0  0  0  0  0  0  0  0  0  0  0
   -1.8049    3.7117   -1.3532 O   0  0  0  0  0  0  0  0  0  0  0  0
   -3.0791    5.3755   -0.2846 C   0  0  0  0  0  0  0  0  0  0  0  0
   -2.4478    6.2532   -0.0717 H   0  0  0  0  0  0  0  0  0  0  0  0
   -3.5571    5.5891   -1.2541 H   0  0  0  0  0  0  0  0  0  0  0  0
   -3.8940    5.4184    0.4556 H   0  0  0  0  0  0  0  0  0  0  0  0
   -2.2137    3.4712    0.9275 N   0  0  0  0  0  0  0  0  0  0  0  0
   -1.5102    2.2327    1.1338 C   0  0  2  0  0  0  0  0  0  0  0  0
   -1.3539    1.5497   -0.2184 C   0  0  0  0  0  0  0  0  0  0  0  0
   -2.0852    1.7861   -1.1778 O   0  0  0  0  0  0  0  0  0  0  0  0
   -2.2477    1.3342    2.1145 C   0  0  0  0  0  0  0  0  0  0  0  0
   -2.6724    3.9052    1.7265 H   0  0  0  0  0  0  0  0  0  0  0  0
   -0.5220    2.4922    1.5290 H   0  0  0  0  0  0  0  0  0  0  0  0
   -3.2400    1.0636    1.7358 H   0  0  0  0  0  0  0  0  0  0  0  0
   -1.6970    0.4046    2.2923 H   0  0  0  0  0  0  0  0  0  0  0  0
   -2.3854    1.8384    3.0772 H   0  0  0  0  0  0  0  0  0  0  0  0
   -0.3283    0.6116   -0.2182 N   0  0  0  0  0  0  0  0  0  0  0  0
    0.0090   -0.1762   -1.3759 C   0  0  2  0  0  0  0  0  0  0  0  0
    0.4016    0.7823   -2.4930 C   0  0  0  0  0  0  0  0  0  0  0  0
   -0.3459    1.0629   -3.4278 O   0  0  0  0  0  0  0  0  0  0  0  0
   -1.1465   -1.0733   -1.8118 C   0  0  0  0  0  0  0  0  0  0  0  0
   -1.3944   -2.1729   -0.8086 C   0  0  0  0  0  0  0  0  0  0  0  0
   -0.5262   -2.6541   -0.0923 O   0  0  0  0  0  0  0  0  0  0  0  0
   -2.6858   -2.5864   -0.7972 O   0  0  0  0  0  0  0  0  0  0  0  0
    0.2381    0.4970    0.6194 H   0  0  0  0  0  0  0  0  0  0  0  0
    0.8849   -0.7739   -1.0961 H   0  0  0  0  0  0  0  0  0  0  0  0
   -2.0815   -0.5043   -1.8908 H   0  0  0  0  0  0  0  0  0  0  0  0
   -0.9831   -1.5127   -2.8033 H   0  0  0  0  0  0  0  0  0  0  0  0
   -2.8832   -3.3105   -0.1652 H   0  0  0  0  0  0  0  0  0  0  0  0
    1.6646    1.3234   -2.2979 N   0  0  0  0  0  0  0  0  0  0  0  0
    2.2565    2.2709   -3.2133 C   0  0  2  0  0  0  0  0  0  0  0  0
    1.4534    3.5627   -3.1374 C   0  0  0  0  0  0  0  0  0  0  0  0
    0.2906    3.6074   -2.7411 O   0  0  0  0  0  0  0  0  0  0  0  0
    2.2795    1.7278   -4.6336 C   0  0  0  0  0  0  0  0  0  0  0  0
    2.1942    1.0417   -1.4782 H   0  0  0  0  0  0  0  0  0  0  0  0
    3.2779    2.4541   -2.8623 H   0  0  0  0  0  0  0  0  0  0  0  0
    1.2649    1.5381   -5.0024 H   0  0  0  0  0  0  0  0  0  0  0  0
    2.7543    2.4354   -5.3213 H   0  0  0  0  0  0  0  0  0  0  0  0
    2.8323    0.7833   -4.6807 H   0  0  0  0  0  0  0  0  0  0  0  0
    2.1735    4.6531   -3.6050 N   0  0  0  0  0  0  0  0  0  0  0  0
    1.6259    5.9889   -3.6473 C   0  0  0  0  0  0  0  0  0  0  0  0
    3.1382    4.5270   -3.8966 H   0  0  0  0  0  0  0  0  0  0  0  0
    1.1711    6.1683   -4.6327 H   0  0  0  0  0  0  0  0  0  0  0  0
    0.8599    6.0960   -2.8652 H   0  0  0  0  0  0  0  0  0  0  0  0
    2.4296    6.7201   -3.4760 H   0  0  0  0  0  0  0  0  0  0  0  0
  1  3  1  0  0  0  0
  1  7  1  0  0  0  0
  1  2  2  0  0  0  0
 31 32  1  0  0  0  0
 32 40  1  0  0  0  0
 32 33  2  0  0  0  0
  8  9  1  0  0  0  0
  9 17  1  0  0  0  0
  9 10  2  0  0  0  0
 18 19  1  0  0  0  0
 19 30  1  0  0  0  0
 19 20  2  0  0  0  0
 21 22  1  0  0  0  0
 22 23  2  0  0  0  0
 22 24  1  0  0  0  0
 31 34  1  0  0  0  0
  8 11  1  0  0  0  0
 40 41  1  0  0  0  0
 18 21  1  0  0  0  0
 30 31  1  0  0  0  0
  7  8  1  0  0  0  0
 17 18  1  0  0  0  0
  3  4  1  0  0  0  0
  3  5  1  0  0  0  0
  3  6  1  0  0  0  0
 34 37  1  0  0  0  0
 34 38  1  0  0  0  0
 34 39  1  0  0  0  0
 11 14  1  0  0  0  0
 11 15  1  0  0  0  0
 11 16  1  0  0  0  0
 41 43  1  0  0  0  0
 41 44  1  0  0  0  0
 41 45  1  0  0  0  0
 21 27  1  0  0  0  0
 21 28  1  0  0  0  0
 31 36  1  0  0  0  0
  8 13  1  0  0  0  0
 18 26  1  0  0  0  0
 40 42  1  0  0  0  0
  7 12  1  0  0  0  0
 30 35  1  0  0  0  0
 17 25  1  0  0  0  0
 24 29  1  0  0  0  0
M  END
$$$$

  -OEChem-05262214473D

 45 44  0     1  0  0  0  0  0999 V2000
   -2.2987    4.1032   -0.3022 C   0  0  0  0  0  0  0  0  0  0  0  0
   -1.8049    3.7117   -1.3532 O   0  0  0  0  0  0  0  0  0  0  0  0
   -3.0791    5.3755   -0.2846 C   0  0  0  0  0  0  0  0  0  0  0  0
   -2.4478    6.2532   -0.0717 H   0  0  0  0  0  0  0  0  0  0  0  0
   -3.5571    5.5891   -1.2541 H   0  0  0  0  0  0  0  0  0  0  0  0
   -3.8940    5.4184    0.4556 H   0  0  0  0  0  0  0  0  0  0  0  0
   -2.2137    3.4712    0.9275 N   0  0  0  0  0  0  0  0  0  0  0  0
   -1.5102    2.2327    1.1338 C   0  0  2  0  0  0  0  0  0  0  0  0
   -1.3539    1.5497   -0.2184 C   0  0  0  0  0  0  0  0  0  0  0  0
   -2.0852    1.7861   -1.1778 O   0  0  0  0  0  0  0  0  0  0  0  0
   -2.2477    1.3342    2.1145 C   0  0  0  0  0  0  0  0  0  0  0  0
   -2.6724    3.9052    1.7265 H   0  0  0  0  0  0  0  0  0  0  0  0
   -0.5220    2.4922    1.5290 H   0  0  0  0  0  0  0  0  0  0  0  0
   -3.2400    1.0636    1.7358 H   0  0  0  0  0  0  0  0  0  0  0  0
   -1.6970    0.4046    2.2923 H   0  0  0  0  0  0  0  0  0  0  0  0
   -2.3854    1.8384    3.0772 H   0  0  0  0  0  0  0  0  0  0  0  0
   -0.3283    0.6116   -0.2182 N   0  0  0  0  0  0  0  0  0  0  0  0
    0.0090   -0.1762   -1.3759 C   0  0  2  0  0  0  0  0  0  0  0  0
    0.4016    0.7823   -2.4930 C   0  0  0  0  0  0  0  0  0  0  0  0
   -0.4135    1.2719   -3.2722 O   0  0  0  0  0  0  0  0  0  0  0  0
   -1.1465   -1.0733   -1.8118 C   0  0  0  0  0  0  0  0  0  0  0  0
   -1.3944   -2.1729   -0.8086 C   0  0  0  0  0  0  0  0  0  0  0  0
   -0.5262   -2.6541   -0.0923 O   0  0  0  0  0  0  0  0  0  0  0  0
   -2.6858   -2.5864   -0.7972 O   0  0  0  0  0  0  0  0  0  0  0  0
    0.2381    0.4970    0.6194 H   0  0  0  0  0  0  0  0  0  0  0  0
    0.8849   -0.7739   -1.0961 H   0  0  0  0  0  0  0  0  0  0  0  0
   -2.0815   -0.5043   -1.8908 H   0  0  0  0  0  0  0  0  0  0  0  0
   -0.9831   -1.5127   -2.8033 H   0  0  0  0  0  0  0  0  0  0  0  0
   -2.8832   -3.3105   -0.1652 H   0  0  0  0  0  0  0  0  0  0  0  0
    1.7606    1.0635   -2.4872 N   0  0  0  0  0  0  0  0  0  0  0  0
    2.3756    1.9579   -3.4401 C   0  0  2  0  0  0  0  0  0  0  0  0
    1.8622    3.3648   -3.1636 C   0  0  0  0  0  0  0  0  0  0  0  0
    0.8071    3.5901   -2.5744 O   0  0  0  0  0  0  0  0  0  0  0  0
    2.0697    1.5387   -4.8696 C   0  0  0  0  0  0  0  0  0  0  0  0
    2.3466    0.6224   -1.7844 H   0  0  0  0  0  0  0  0  0  0  0  0
    3.4551    1.9201   -3.2582 H   0  0  0  0  0  0  0  0  0  0  0  0
    0.9926    1.5703   -5.0705 H   0  0  0  0  0  0  0  0  0  0  0  0
    2.5600    2.2009   -5.5907 H   0  0  0  0  0  0  0  0  0  0  0  0
    2.4130    0.5157   -5.0577 H   0  0  0  0  0  0  0  0  0  0  0  0
    2.6992    4.3386   -3.6902 N   0  0  0  0  0  0  0  0  0  0  0  0
    2.4233    5.7513   -3.5710 C   0  0  0  0  0  0  0  0  0  0  0  0
    3.5630    4.0613   -4.1469 H   0  0  0  0  0  0  0  0  0  0  0  0
    1.8639    6.0920   -4.4547 H   0  0  0  0  0  0  0  0  0  0  0  0
    1.8249    5.9328   -2.6660 H   0  0  0  0  0  0  0  0  0  0  0  0
    3.3711    6.3052   -3.5011 H   0  0  0  0  0  0  0  0  0  0  0  0
  1  3  1  0  0  0  0
  1  7  1  0  0  0  0
  1  2  2  0  0  0  0
 31 32  1  0  0  0  0
 32 40  1  0  0  0  0
 32 33  2  0  0  0  0
  8  9  1  0  0  0  0
  9 17  1  0  0  0  0
  9 10  2  0  0  0  0
 18 19  1  0  0  0  0
 19 30  1  0  0  0  0
 19 20  2  0  0  0  0
 21 22  1  0  0  0  0
 22 23  2  0  0  0  0
 22 24  1  0  0  0  0
 31 34  1  0  0  0  0
  8 11  1  0  0  0  0
 40 41  1  0  0  0  0
 18 21  1  0  0  0  0
 30 31  1  0  0  0  0
  7  8  1  0  0  0  0
 17 18  1  0  0  0  0
  3  4  1  0  0  0  0
  3  5  1  0  0  0  0
  3  6  1  0  0  0  0
 34 37  1  0  0  0  0
 34 38  1  0  0  0  0
 34 39  1  0  0  0  0
 11 14  1  0  0  0  0
 11 15  1  0  0  0  0
 11 16  1  0  0  0  0
 41 43  1  0  0  0  0
 41 44  1  0  0  0  0
 41 45  1  0  0  0  0
 21 27  1  0  0  0  0
 21 28  1  0  0  0  0
 31 36  1  0  0  0  0
  8 13  1  0  0  0  0
 18 26  1  0  0  0  0
 40 42  1  0  0  0  0
  7 12  1  0  0  0  0
 30 35  1  0  0  0  0
 17 25  1  0  0  0  0
 24 29  1  0  0  0  0
M  END
$$$$

  -OEChem-05262214473D

 45 44  0     1  0  0  0  0  0999 V2000
   -2.2987    4.1032   -0.3022 C   0  0  0  0  0  0  0  0  0  0  0  0
   -1.8049    3.7117   -1.3532 O   0  0  0  0  0  0  0  0  0  0  0  0
   -3.0791    5.3755   -0.2846 C   0  0  0  0  0  0  0  0  0  0  0  0
   -2.4478    6.2532   -0.0717 H   0  0  0  0  0  0  0  0  0  0  0  0
   -3.5571    5.5891   -1.2541 H   0  0  0  0  0  0  0  0  0  0  0  0
   -3.8940    5.4184    0.4556 H   0  0  0  0  0  0  0  0  0  0  0  0
   -2.2137    3.4712    0.9275 N   0  0  0  0  0  0  0  0  0  0  0  0
   -1.5102    2.2327    1.1338 C   0  0  2  0  0  0  0  0  0  0  0  0
   -1.3539    1.5497   -0.2184 C   0  0  0  0  0  0  0  0  0  0  0  0
   -2.0852    1.7861   -1.1778 O   0  0  0  0  0  0  0  0  0  0  0  0
   -2.2477    1.3342    2.1145 C   0  0  0  0  0  0  0  0  0  0  0  0
   -2.6724    3.9052    1.7265 H   0  0  0  0  0  0  0  0  0  0  0  0
   -0.5220    2.4922    1.5290 H   0  0  0  0  0  0  0  0  0  0  0  0
   -3.2400    1.0636    1.7358 H   0  0  0  0  0  0  0  0  0  0  0  0
   -1.6970    0.4046    2.2923 H   0  0  0  0  0  0  0  0  0  0  0  0
   -2.3854    1.8384    3.0772 H   0  0  0  0  0  0  0  0  0  0  0  0
   -0.3283    0.6116   -0.2182 N   0  0  0  0  0  0  0  0  0  0  0  0
    0.0090   -0.1762   -1.3759 C   0  0  2  0  0  0  0  0  0  0  0  0
    0.4016    0.7823   -2.4930 C   0  0  0  0  0  0  0  0  0  0  0  0
   -0.4138    1.4762   -3.0970 O   0  0  0  0  0  0  0  0  0  0  0  0
   -1.1465   -1.0733   -1.8118 C   0  0  0  0  0  0  0  0  0  0  0  0
   -1.3944   -2.1729   -0.8086 C   0  0  0  0  0  0  0  0  0  0  0  0
   -0.5262   -2.6541   -0.0923 O   0  0  0  0  0  0  0  0  0  0  0  0
   -2.6858   -2.5864   -0.7972 O   0  0  0  0  0  0  0  0  0  0  0  0
    0.2381    0.4970    0.6194 H   0  0  0  0  0  0  0  0  0  0  0  0
    0.8849   -0.7739   -1.0961 H   0  0  0  0  0  0  0  0  0  0  0  0
   -2.0815   -0.5043   -1.8908 H   0  0  0  0  0  0  0  0  0  0  0  0
   -0.9831   -1.5127   -2.8033 H   0  0  0  0  0  0  0  0  0  0  0  0
   -2.8832   -3.3105   -0.1652 H   0  0  0  0  0  0  0  0  0  0  0  0
    1.7732    0.8068   -2.7030 N   0  0  0  0  0  0  0  0  0  0  0  0
    2.3942    1.6480   -3.6994 C   0  0  2  0  0  0  0  0  0  0  0  0
    2.2152    3.0978   -3.2687 C   0  0  0  0  0  0  0  0  0  0  0  0
    1.3299    3.4643   -2.4986 O   0  0  0  0  0  0  0  0  0  0  0  0
    1.7926    1.4117   -5.0759 C   0  0  0  0  0  0  0  0  0  0  0  0
    2.3643    0.2089   -2.1330 H   0  0  0  0  0  0  0  0  0  0  0  0
    3.4606    1.3971   -3.7051 H   0  0  0  0  0  0  0  0  0  0  0  0
    0.7245    1.6576   -5.0898 H   0  0  0  0  0  0  0  0  0  0  0  0
    2.2839    2.0293   -5.8350 H   0  0  0  0  0  0  0  0  0  0  0  0
    1.8958    0.3620   -5.3714 H   0  0  0  0  0  0  0  0  0  0  0  0
    3.1334    3.9407   -3.8790 N   0  0  0  0  0  0  0  0  0  0  0  0
    3.1609    5.3653   -3.6430 C   0  0  0  0  0  0  0  0  0  0  0  0
    3.8442    3.5476   -4.4889 H   0  0  0  0  0  0  0  0  0  0  0  0
    2.5476    5.8749   -4.4007 H   0  0  0  0  0  0  0  0  0  0  0  0
    2.7585    5.5788   -2.6417 H   0  0  0  0  0  0  0  0  0  0  0  0
    4.1976    5.7275   -3.7064 H   0  0  0  0  0  0  0  0  0  0  0  0
  1  3  1  0  0  0  0
  1  7  1  0  0  0  0
  1  2  2  0  0  0  0
 31 32  1  0  0  0  0
 32 40  1  0  0  0  0
 32 33  2  0  0  0  0
  8  9  1  0  0  0  0
  9 17  1  0  0  0  0
  9 10  2  0  0  0  0
 18 19  1  0  0  0  0
 19 30  1  0  0  0  0
 19 20  2  0  0  0  0
 21 22  1  0  0  0  0
 22 23  2  0  0  0  0
 22 24  1  0  0  0  0
 31 34  1  0  0  0  0
  8 11  1  0  0  0  0
 40 41  1  0  0  0  0
 18 21  1  0  0  0  0
 30 31  1  0  0  0  0
  7  8  1  0  0  0  0
 17 18  1  0  0  0  0
  3  4  1  0  0  0  0
  3  5  1  0  0  0  0
  3  6  1  0  0  0  0
 34 37  1  0  0  0  0
 34 38  1  0  0  0  0
 34 39  1  0  0  0  0
 11 14  1  0  0  0  0
 11 15  1  0  0  0  0
 11 16  1  0  0  0  0
 41 43  1  0  0  0  0
 41 44  1  0  0  0  0
 41 45  1  0  0  0  0
 21 27  1  0  0  0  0
 21 28  1  0  0  0  0
 31 36  1  0  0  0  0
  8 13  1  0  0  0  0
 18 26  1  0  0  0  0
 40 42  1  0  0  0  0
  7 12  1  0  0  0  0
 30 35  1  0  0  0  0
 17 25  1  0  0  0  0
 24 29  1  0  0  0  0
M  END
$$$$

  -OEChem-05262214473D

 45 44  0     1  0  0  0  0  0999 V2000
   -2.2987    4.1032   -0.3022 C   0  0  0  0  0  0  0  0  0  0  0  0
   -1.8049    3.7117   -1.3532 O   0  0  0  0  0  0  0  0  0  0  0  0
   -3.0791    5.3755   -0.2846 C   0  0  0  0  0  0  0  0  0  0  0  0
   -2.4478    6.2532   -0.0717 H   0  0  0  0  0  0  0  0  0  0  0  0
   -3.5571    5.5891   -1.2541 H   0  0  0  0  0  0  0  0  0  0  0  0
   -3.8940    5.4184    0.4556 H   0  0  0  0  0  0  0  0  0  0  0  0
   -2.2137    3.4712    0.9275 N   0  0  0  0  0  0  0  0  0  0  0  0
   -1.5102    2.2327    1.1338 C   0  0  2  0  0  0  0  0  0  0  0  0
   -1.3539    1.5497   -0.2184 C   0  0  0  0  0  0  0  0  0  0  0  0
   -2.0852    1.7861   -1.1778 O   0  0  0  0  0  0  0  0  0  0  0  0
   -2.2477    1.3342    2.1145 C   0  0  0  0  0  0  0  0  0  0  0  0
   -2.6724    3.9052    1.7265 H   0  0  0  0  0  0  0  0  0  0  0  0
   -0.5220    2.4922    1.5290 H   0  0  0  0  0  0  0  0  0  0  0  0
   -3.2400    1.0636    1.7358 H   0  0  0  0  0  0  0  0  0  0  0  0
   -1.6970    0.4046    2.2923 H   0  0  0  0  0  0  0  0  0  0  0  0
   -2.3854    1.8384    3.0772 H   0  0  0  0  0  0  0  0  0  0  0  0
   -0.3283    0.6116   -0.2182 N   0  0  0  0  0  0  0  0  0  0  0  0
    0.0090   -0.1762   -1.3759 C   0  0  2  0  0  0  0  0  0  0  0  0
    0.4016    0.7823   -2.4930 C   0  0  0  0  0  0  0  0  0  0  0  0
   -0.3468    1.6620   -2.9141 O   0  0  0  0  0  0  0  0  0  0  0  0
   -1.1465   -1.0733   -1.8118 C   0  0  0  0  0  0  0  0  0  0  0  0
   -1.3944   -2.1729   -0.8086 C   0  0  0  0  0  0  0  0  0  0  0  0
   -0.5262   -2.6541   -0.0923 O   0  0  0  0  0  0  0  0  0  0  0  0
   -2.6858   -2.5864   -0.7972 O   0  0  0  0  0  0  0  0  0  0  0  0
    0.2381    0.4970    0.6194 H   0  0  0  0  0  0  0  0  0  0  0  0
    0.8849   -0.7739   -1.0961 H   0  0  0  0  0  0  0  0  0  0  0  0
   -2.0815   -0.5043   -1.8908 H   0  0  0  0  0  0  0  0  0  0  0  0
   -0.9831   -1.5127   -2.8033 H   0  0  0  0  0  0  0  0  0  0  0  0
   -2.8832   -3.3105   -0.1652 H   0  0  0  0  0  0  0  0  0  0  0  0
    1.7015    0.5708   -2.9307 N   0  0  0  0  0  0  0  0  0  0  0  0
    2.3112    1.3624   -3.9736 C   0  0  2  0  0  0  0  0  0  0  0  0
    2.4884    2.7799   -3.4454 C   0  0  0  0  0  0  0  0  0  0  0  0
    1.8233    3.2385   -2.5190 O   0  0  0  0  0  0  0  0  0  0  0  0
    1.4673    1.3553   -5.2387 C   0  0  0  0  0  0  0  0  0  0  0  0
    2.2462   -0.1706   -2.5001 H   0  0  0  0  0  0  0  0  0  0  0  0
    3.2937    0.9207   -4.1725 H   0  0  0  0  0  0  0  0  0  0  0  0
    0.4791    1.7941   -5.0589 H   0  0  0  0  0  0  0  0  0  0  0  0
    1.9448    1.9323   -6.0374 H   0  0  0  0  0  0  0  0  0  0  0  0
    1.3159    0.3325   -5.6004 H   0  0  0  0  0  0  0  0  0  0  0  0
    3.4466    3.4865   -4.1586 N   0  0  0  0  0  0  0  0  0  0  0  0
    3.7884    4.8573   -3.8584 C   0  0  0  0  0  0  0  0  0  0  0  0
    3.9626    3.0208   -4.8993 H   0  0  0  0  0  0  0  0  0  0  0  0
    3.1756    5.5319   -4.4744 H   0  0  0  0  0  0  0  0  0  0  0  0
    3.5971    5.0580   -2.7939 H   0  0  0  0  0  0  0  0  0  0  0  0
    4.8529    5.0262   -4.0778 H   0  0  0  0  0  0  0  0  0  0  0  0
  1  3  1  0  0  0  0
  1  7  1  0  0  0  0
  1  2  2  0  0  0  0
 31 32  1  0  0  0  0
 32 40  1  0  0  0  0
 32 33  2  0  0  0  0
  8  9  1  0  0  0  0
  9 17  1  0  0  0  0
  9 10  2  0  0  0  0
 18 19  1  0  0  0  0
 19 30  1  0  0  0  0
 19 20  2  0  0  0  0
 21 22  1  0  0  0  0
 22 23  2  0  0  0  0
 22 24  1  0  0  0  0
 31 34  1  0  0  0  0
  8 11  1  0  0  0  0
 40 41  1  0  0  0  0
 18 21  1  0  0  0  0
 30 31  1  0  0  0  0
  7  8  1  0  0  0  0
 17 18  1  0  0  0  0
  3  4  1  0  0  0  0
  3  5  1  0  0  0  0
  3  6  1  0  0  0  0
 34 37  1  0  0  0  0
 34 38  1  0  0  0  0
 34 39  1  0  0  0  0
 11 14  1  0  0  0  0
 11 15  1  0  0  0  0
 11 16  1  0  0  0  0
 41 43  1  0  0  0  0
 41 44  1  0  0  0  0
 41 45  1  0  0  0  0
 21 27  1  0  0  0  0
 21 28  1  0  0  0  0
 31 36  1  0  0  0  0
  8 13  1  0  0  0  0
 18 26  1  0  0  0  0
 40 42  1  0  0  0  0
  7 12  1  0  0  0  0
 30 35  1  0  0  0  0
 17 25  1  0  0  0  0
 24 29  1  0  0  0  0
M  END
$$$$

  -OEChem-05262214473D

 45 44  0     1  0  0  0  0  0999 V2000
   -2.2987    4.1032   -0.3022 C   0  0  0  0  0  0  0  0  0  0  0  0
   -1.8049    3.7117   -1.3532 O   0  0  0  0  0  0  0  0  0  0  0  0
   -3.0791    5.3755   -0.2846 C   0  0  0  0  0  0  0  0  0  0  0  0
   -2.4478    6.2532   -0.0717 H   0  0  0  0  0  0  0  0  0  0  0  0
   -3.5571    5.5891   -1.2541 H   0  0  0  0  0  0  0  0  0  0  0  0
   -3.8940    5.4184    0.4556 H   0  0  0  0  0  0  0  0  0  0  0  0
   -2.2137    3.4712    0.9275 N   0  0  0  0  0  0  0  0  0  0  0  0
   -1.5102    2.2327    1.1338 C   0  0  2  0  0  0  0  0  0  0  0  0
   -1.3539    1.5497   -0.2184 C   0  0  0  0  0  0  0  0  0  0  0  0
   -2.0852    1.7861   -1.1778 O   0  0  0  0  0  0  0  0  0  0  0  0
   -2.2477    1.3342    2.1145 C   0  0  0  0  0  0  0  0  0  0  0  0
   -2.6724    3.9052    1.7265 H   0  0  0  0  0  0  0  0  0  0  0  0
   -0.5220    2.4922    1.5290 H   0  0  0  0  0  0  0  0  0  0  0  0
   -3.2400    1.0636    1.7358 H   0  0  0  0  0  0  0  0  0  0  0  0
   -1.6970    0.4046    2.2923 H   0  0  0  0  0  0  0  0  0  0  0  0
   -2.3854    1.8384    3.0772 H   0  0  0  0  0  0  0  0  0  0  0  0
   -0.3283    0.6116   -0.2182 N   0  0  0  0  0  0  0  0  0  0  0  0
    0.0090   -0.1762   -1.3759 C   0  0  2  0  0  0  0  0  0  0  0  0
    0.4016    0.7823   -2.4930 C   0  0  0  0  0  0  0  0  0  0  0  0
   -0.2171    1.8165   -2.7359 O   0  0  0  0  0  0  0  0  0  0  0  0
   -1.1465   -1.0733   -1.8118 C   0  0  0  0  0  0  0  0  0  0  0  0
   -1.3944   -2.1729   -0.8086 C   0  0  0  0  0  0  0  0  0  0  0  0
   -0.5262   -2.6541   -0.0923 O   0  0  0  0  0  0  0  0  0  0  0  0
   -2.6858   -2.5864   -0.7972 O   0  0  0  0  0  0  0  0  0  0  0  0
    0.2381    0.4970    0.6194 H   0  0  0  0  0  0  0  0  0  0  0  0
    0.8849   -0.7739   -1.0961 H   0  0  0  0  0  0  0  0  0  0  0  0
   -2.0815   -0.5043   -1.8908 H   0  0  0  0  0  0  0  0  0  0  0  0
   -0.9831   -1.5127   -2.8033 H   0  0  0  0  0  0  0  0  0  0  0  0
   -2.8832   -3.3105   -0.1652 H   0  0  0  0  0  0  0  0  0  0  0  0
    1.5504    0.3717   -3.1546 N   0  0  0  0  0  0  0  0  0  0  0  0
    2.1322    1.1206   -4.2440 C   0  0  2  0  0  0  0  0  0  0  0  0
    2.6632    2.4327   -3.6819 C   0  0  0  0  0  0  0  0  0  0  0  0
    2.2538    2.9281   -2.6340 O   0  0  0  0  0  0  0  0  0  0  0  0
    1.1159    1.3734   -5.3466 C   0  0  0  0  0  0  0  0  0  0  0  0
    2.0003   -0.4903   -2.8608 H   0  0  0  0  0  0  0  0  0  0  0  0
    2.9661    0.5233   -4.6286 H   0  0  0  0  0  0  0  0  0  0  0  0
    0.2729    1.9705   -4.9801 H   0  0  0  0  0  0  0  0  0  0  0  0
    1.5660    1.9163   -6.1842 H   0  0  0  0  0  0  0  0  0  0  0  0
    0.7130    0.4294   -5.7292 H   0  0  0  0  0  0  0  0  0  0  0  0
    3.6174    3.0070   -4.5100 N   0  0  0  0  0  0  0  0  0  0  0  0
    4.2630    4.2619   -4.2025 C   0  0  0  0  0  0  0  0  0  0  0  0
    3.9101    2.5169   -5.3501 H   0  0  0  0  0  0  0  0  0  0  0  0
    3.7051    5.0863   -4.6707 H   0  0  0  0  0  0  0  0  0  0  0  0
    4.2835    4.4060   -3.1121 H   0  0  0  0  0  0  0  0  0  0  0  0
    5.2923    4.2492   -4.5901 H   0  0  0  0  0  0  0  0  0  0  0  0
  1  3  1  0  0  0  0
  1  7  1  0  0  0  0
  1  2  2  0  0  0  0
 31 32  1  0  0  0  0
 32 40  1  0  0  0  0
 32 33  2  0  0  0  0
  8  9  1  0  0  0  0
  9 17  1  0  0  0  0
  9 10  2  0  0  0  0
 18 19  1  0  0  0  0
 19 30  1  0  0  0  0
 19 20  2  0  0  0  0
 21 22  1  0  0  0  0
 22 23  2  0  0  0  0
 22 24  1  0  0  0  0
 31 34  1  0  0  0  0
  8 11  1  0  0  0  0
 40 41  1  0  0  0  0
 18 21  1  0  0  0  0
 30 31  1  0  0  0  0
  7  8  1  0  0  0  0
 17 18  1  0  0  0  0
  3  4  1  0  0  0  0
  3  5  1  0  0  0  0
  3  6  1  0  0  0  0
 34 37  1  0  0  0  0
 34 38  1  0  0  0  0
 34 39  1  0  0  0  0
 11 14  1  0  0  0  0
 11 15  1  0  0  0  0
 11 16  1  0  0  0  0
 41 43  1  0  0  0  0
 41 44  1  0  0  0  0
 41 45  1  0  0  0  0
 21 27  1  0  0  0  0
 21 28  1  0  0  0  0
 31 36  1  0  0  0  0
  8 13  1  0  0  0  0
 18 26  1  0  0  0  0
 40 42  1  0  0  0  0
  7 12  1  0  0  0  0
 30 35  1  0  0  0  0
 17 25  1  0  0  0  0
 24 29  1  0  0  0  0
M  END
$$$$

  -OEChem-05262214473D

 45 44  0     1  0  0  0  0  0999 V2000
   -2.2987    4.1032   -0.3022 C   0  0  0  0  0  0  0  0  0  0  0  0
   -1.8049    3.7117   -1.3532 O   0  0  0  0  0  0  0  0  0  0  0  0
   -3.0791    5.3755   -0.2846 C   0  0  0  0  0  0  0  0  0  0  0  0
   -2.4478    6.2532   -0.0717 H   0  0  0  0  0  0  0  0  0  0  0  0
   -3.5571    5.5891   -1.2541 H   0  0  0  0  0  0  0  0  0  0  0  0
   -3.8940    5.4184    0.4556 H   0  0  0  0  0  0  0  0  0  0  0  0
   -2.2137    3.4712    0.9275 N   0  0  0  0  0  0  0  0  0  0  0  0
   -1.5102    2.2327    1.1338 C   0  0  2  0  0  0  0  0  0  0  0  0
   -1.3539    1.5497   -0.2184 C   0  0  0  0  0  0  0  0  0  0  0  0
   -2.0852    1.7861   -1.1778 O   0  0  0  0  0  0  0  0  0  0  0  0
   -2.2477    1.3342    2.1145 C   0  0  0  0  0  0  0  0  0  0  0  0
   -2.6724    3.9052    1.7265 H   0  0  0  0  0  0  0  0  0  0  0  0
   -0.5220    2.4922    1.5290 H   0  0  0  0  0  0  0  0  0  0  0  0
   -3.2400    1.0636    1.7358 H   0  0  0  0  0  0  0  0  0  0  0  0
   -1.6970    0.4046    2.2923 H   0  0  0  0  0  0  0  0  0  0  0  0
   -2.3854    1.8384    3.0772 H   0  0  0  0  0  0  0  0  0  0  0  0
   -0.3283    0.6116   -0.2182 N   0  0  0  0  0  0  0  0  0  0  0  0
    0.0090   -0.1762   -1.3759 C   0  0  2  0  0  0  0  0  0  0  0  0
    0.4016    0.7823   -2.4930 C   0  0  0  0  0  0  0  0  0  0  0  0
   -0.0334    1.9292   -2.5746 O   0  0  0  0  0  0  0  0  0  0  0  0
   -1.1465   -1.0733   -1.8118 C   0  0  0  0  0  0  0  0  0  0  0  0
   -1.3944   -2.1729   -0.8086 C   0  0  0  0  0  0  0  0  0  0  0  0
   -0.5262   -2.6541   -0.0923 O   0  0  0  0  0  0  0  0  0  0  0  0
   -2.6858   -2.5864   -0.7972 O   0  0  0  0  0  0  0  0  0  0  0  0
    0.2381    0.4970    0.6194 H   0  0  0  0  0  0  0  0  0  0  0  0
    0.8849   -0.7739   -1.0961 H   0  0  0  0  0  0  0  0  0  0  0  0
   -2.0815   -0.5043   -1.8908 H   0  0  0  0  0  0  0  0  0  0  0  0
   -0.9831   -1.5127   -2.8033 H   0  0  0  0  0  0  0  0  0  0  0  0
   -2.8832   -3.3105   -0.1652 H   0  0  0  0  0  0  0  0  0  0  0  0
    1.3302    0.2230   -3.3596 N   0  0  0  0  0  0  0  0  0  0  0  0
    1.8694    0.9391   -4.4921 C   0  0  2  0  0  0  0  0  0  0  0  0
    2.7277    2.0800   -3.9619 C   0  0  0  0  0  0  0  0  0  0  0  0
    2.5919    2.5543   -2.8360 O   0  0  0  0  0  0  0  0  0  0  0  0
    0.7622    1.4648   -5.3924 C   0  0  0  0  0  0  0  0  0  0  0  0
    1.6433   -0.7284   -3.1906 H   0  0  0  0  0  0  0  0  0  0  0  0
    2.4999    0.2321   -5.0423 H   0  0  0  0  0  0  0  0  0  0  0  0
    0.1200    2.1747   -4.8585 H   0  0  0  0  0  0  0  0  0  0  0  0
    1.1731    1.9827   -6.2654 H   0  0  0  0  0  0  0  0  0  0  0  0
    0.1280    0.6460   -5.7489 H   0  0  0  0  0  0  0  0  0  0  0  0
    3.6342    2.5349   -4.9092 N   0  0  0  0  0  0  0  0  0  0  0  0
    4.5524    3.6196   -4.6519 C   0  0  0  0  0  0  0  0  0  0  0  0
    3.6904    2.0701   -5.8106 H   0  0  0  0  0  0  0  0  0  0  0  0
    4.1000    4.5684   -4.9762 H   0  0  0  0  0  0  0  0  0  0  0  0
    4.7709    3.6671   -3.5748 H   0  0  0  0  0  0  0  0  0  0  0  0
    5.4859    3.4495   -5.2083 H   0  0  0  0  0  0  0  0  0  0  0  0
  1  3  1  0  0  0  0
  1  7  1  0  0  0  0
  1  2  2  0  0  0  0
 31 32  1  0  0  0  0
 32 40  1  0  0  0  0
 32 33  2  0  0  0  0
  8  9  1  0  0  0  0
  9 17  1  0  0  0  0
  9 10  2  0  0  0  0
 18 19  1  0  0  0  0
 19 30  1  0  0  0  0
 19 20  2  0  0  0  0
 21 22  1  0  0  0  0
 22 23  2  0  0  0  0
 22 24  1  0  0  0  0
 31 34  1  0  0  0  0
  8 11  1  0  0  0  0
 40 41  1  0  0  0  0
 18 21  1  0  0  0  0
 30 31  1  0  0  0  0
  7  8  1  0  0  0  0
 17 18  1  0  0  0  0
  3  4  1  0  0  0  0
  3  5  1  0  0  0  0
  3  6  1  0  0  0  0
 34 37  1  0  0  0  0
 34 38  1  0  0  0  0
 34 39  1  0  0  0  0
 11 14  1  0  0  0  0
 11 15  1  0  0  0  0
 11 16  1  0  0  0  0
 41 43  1  0  0  0  0
 41 44  1  0  0  0  0
 41 45  1  0  0  0  0
 21 27  1  0  0  0  0
 21 28  1  0  0  0  0
 31 36  1  0  0  0  0
  8 13  1  0  0  0  0
 18 26  1  0  0  0  0
 40 42  1  0  0  0  0
  7 12  1  0  0  0  0
 30 35  1  0  0  0  0
 17 25  1  0  0  0  0
 24 29  1  0  0  0  0
M  END
$$$$

  -OEChem-05262214473D

 45 44  0     1  0  0  0  0  0999 V2000
   -2.2987    4.1032   -0.3022 C   0  0  0  0  0  0  0  0  0  0  0  0
   -1.8049    3.7117   -1.3532 O   0  0  0  0  0  0  0  0  0  0  0  0
   -3.0791    5.3755   -0.2846 C   0  0  0  0  0  0  0  0  0  0  0  0
   -2.4478    6.2532   -0.0717 H   0  0  0  0  0  0  0  0  0  0  0  0
   -3.5571    5.5891   -1.2541 H   0  0  0  0  0  0  0  0  0  0  0  0
   -3.8940    5.4184    0.4556 H   0  0  0  0  0  0  0  0  0  0  0  0
   -2.2137    3.4712    0.9275 N   0  0  0  0  0  0  0  0  0  0  0  0
   -1.5102    2.2327    1.1338 C   0  0  2  0  0  0  0  0  0  0  0  0
   -1.3539    1.5497   -0.2184 C   0  0  0  0  0  0  0  0  0  0  0  0
   -2.0852    1.7861   -1.1778 O   0  0  0  0  0  0  0  0  0  0  0  0
   -2.2477    1.3342    2.1145 C   0  0  0  0  0  0  0  0  0  0  0  0
   -2.6724    3.9052    1.7265 H   0  0  0  0  0  0  0  0  0  0  0  0
   -0.5220    2.4922    1.5290 H   0  0  0  0  0  0  0  0  0  0  0  0
   -3.2400    1.0636    1.7358 H   0  0  0  0  0  0  0  0  0  0  0  0
   -1.6970    0.4046    2.2923 H   0  0  0  0  0  0  0  0  0  0  0  0
   -2.3854    1.8384    3.0772 H   0  0  0  0  0  0  0  0  0  0  0  0
   -0.3283    0.6116   -0.2182 N   0  0  0  0  0  0  0  0  0  0  0  0
    0.0090   -0.1762   -1.3759 C   0  0  2  0  0  0  0  0  0  0  0  0
    0.4016    0.7823   -2.4930 C   0  0  0  0  0  0  0  0  0  0  0  0
    0.1917    1.9925   -2.4412 O   0  0  0  0  0  0  0  0  0  0  0  0
   -1.1465   -1.0733   -1.8118 C   0  0  0  0  0  0  0  0  0  0  0  0
   -1.3944   -2.1729   -0.8086 C   0  0  0  0  0  0  0  0  0  0  0  0
   -0.5262   -2.6541   -0.0923 O   0  0  0  0  0  0  0  0  0  0  0  0
   -2.6858   -2.5864   -0.7972 O   0  0  0  0  0  0  0  0  0  0  0  0
    0.2381    0.4970    0.6194 H   0  0  0  0  0  0  0  0  0  0  0  0
    0.8849   -0.7739   -1.0961 H   0  0  0  0  0  0  0  0  0  0  0  0
   -2.0815   -0.5043   -1.8908 H   0  0  0  0  0  0  0  0  0  0  0  0
   -0.9831   -1.5127   -2.8033 H   0  0  0  0  0  0  0  0  0  0  0  0
   -2.8832   -3.3105   -0.1652 H   0  0  0  0  0  0  0  0  0  0  0  0
    1.0559    0.1348   -3.5317 N   0  0  0  0  0  0  0  0  0  0  0  0
    1.5406    0.8301   -4.7011 C   0  0  2  0  0  0  0  0  0  0  0  0
    2.6774    1.7457   -4.2664 C   0  0  0  0  0  0  0  0  0  0  0  0
    2.8147    2.1425   -3.1111 O   0  0  0  0  0  0  0  0  0  0  0  0
    0.4306    1.6232   -5.3730 C   0  0  0  0  0  0  0  0  0  0  0  0
    1.1997   -0.8686   -3.4668 H   0  0  0  0  0  0  0  0  0  0  0  0
    1.9269    0.0669   -5.3854 H   0  0  0  0  0  0  0  0  0  0  0  0
    0.0310    2.3929   -4.7026 H   0  0  0  0  0  0  0  0  0  0  0  0
    0.7929    2.1267   -6.2754 H   0  0  0  0  0  0  0  0  0  0  0  0
   -0.3992    0.9675   -5.6583 H   0  0  0  0  0  0  0  0  0  0  0  0
    3.4957    2.1023   -5.3291 N   0  0  0  0  0  0  0  0  0  0  0  0
    4.6368    2.9743   -5.1759 C   0  0  0  0  0  0  0  0  0  0  0  0
    3.3184    1.7110   -6.2495 H   0  0  0  0  0  0  0  0  0  0  0  0
    4.3335    4.0136   -5.3702 H   0  0  0  0  0  0  0  0  0  0  0  0
    5.0262    2.8918   -4.1504 H   0  0  0  0  0  0  0  0  0  0  0  0
    5.4204    2.6815   -5.8903 H   0  0  0  0  0  0  0  0  0  0  0  0
  1  3  1  0  0  0  0
  1  7  1  0  0  0  0
  1  2  2  0  0  0  0
 31 32  1  0  0  0  0
 32 40  1  0  0  0  0
 32 33  2  0  0  0  0
  8  9  1  0  0  0  0
  9 17  1  0  0  0  0
  9 10  2  0  0  0  0
 18 19  1  0  0  0  0
 19 30  1  0  0  0  0
 19 20  2  0  0  0  0
 21 22  1  0  0  0  0
 22 23  2  0  0  0  0
 22 24  1  0  0  0  0
 31 34  1  0  0  0  0
  8 11  1  0  0  0  0
 40 41  1  0  0  0  0
 18 21  1  0  0  0  0
 30 31  1  0  0  0  0
  7  8  1  0  0  0  0
 17 18  1  0  0  0  0
  3  4  1  0  0  0  0
  3  5  1  0  0  0  0
  3  6  1  0  0  0  0
 34 37  1  0  0  0  0
 34 38  1  0  0  0  0
 34 39  1  0  0  0  0
 11 14  1  0  0  0  0
 11 15  1  0  0  0  0
 11 16  1  0  0  0  0
 41 43  1  0  0  0  0
 41 44  1  0  0  0  0
 41 45  1  0  0  0  0
 21 27  1  0  0  0  0
 21 28  1  0  0  0  0
 31 36  1  0  0  0  0
  8 13  1  0  0  0  0
 18 26  1  0  0  0  0
 40 42  1  0  0  0  0
  7 12  1  0  0  0  0
 30 35  1  0  0  0  0
 17 25  1  0  0  0  0
 24 29  1  0  0  0  0
M  END
$$$$

  -OEChem-05262214473D

 45 44  0     1  0  0  0  0  0999 V2000
   -2.2987    4.1032   -0.3022 C   0  0  0  0  0  0  0  0  0  0  0  0
   -1.8049    3.7117   -1.3532 O   0  0  0  0  0  0  0  0  0  0  0  0
   -3.0791    5.3755   -0.2846 C   0  0  0  0  0  0  0  0  0  0  0  0
   -2.4478    6.2532   -0.0717 H   0  0  0  0  0  0  0  0  0  0  0  0
   -3.5571    5.5891   -1.2541 H   0  0  0  0  0  0  0  0  0  0  0  0
   -3.8940    5.4184    0.4556 H   0  0  0  0  0  0  0  0  0  0  0  0
   -2.2137    3.4712    0.9275 N   0  0  0  0  0  0  0  0  0  0  0  0
   -1.5102    2.2327    1.1338 C   0  0  2  0  0  0  0  0  0  0  0  0
   -1.3539    1.5497   -0.2184 C   0  0  0  0  0  0  0  0  0  0  0  0
   -2.0852    1.7861   -1.1778 O   0  0  0  0  0  0  0  0  0  0  0  0
   -2.2477    1.3342    2.1145 C   0  0  0  0  0  0  0  0  0  0  0  0
   -2.6724    3.9052    1.7265 H   0  0  0  0  0  0  0  0  0  0  0  0
   -0.5220    2.4922    1.5290 H   0  0  0  0  0  0  0  0  0  0  0  0
   -3.2400    1.0636    1.7358 H   0  0  0  0  0  0  0  0  0  0  0  0
   -1.6970    0.4046    2.2923 H   0  0  0  0  0  0  0  0  0  0  0  0
   -2.3854    1.8384    3.0772 H   0  0  0  0  0  0  0  0  0  0  0  0
   -0.3283    0.6116   -0.2182 N   0  0  0  0  0  0  0  0  0  0  0  0
    0.0090   -0.1762   -1.3759 C   0  0  2  0  0  0  0  0  0  0  0  0
    0.7495    0.7270   -2.3540 C   0  0  0  0  0  0  0  0  0  0  0  0
    1.0158    1.9020   -2.1099 O   0  0  0  0  0  0  0  0  0  0  0  0
   -1.2275   -0.7866   -2.0305 C   0  0  0  0  0  0  0  0  0  0  0  0
   -1.8398   -1.8531   -1.1561 C   0  0  0  0  0  0  0  0  0  0  0  0
   -1.2035   -2.5398   -0.3674 O   0  0  0  0  0  0  0  0  0  0  0  0
   -3.1755   -1.9830   -1.3506 O   0  0  0  0  0  0  0  0  0  0  0  0
    0.2381    0.4970    0.6194 H   0  0  0  0  0  0  0  0  0  0  0  0
    0.6936   -0.9584   -1.0262 H   0  0  0  0  0  0  0  0  0  0  0  0
   -2.0048   -0.0290   -2.1919 H   0  0  0  0  0  0  0  0  0  0  0  0
   -1.0121   -1.2049   -3.0211 H   0  0  0  0  0  0  0  0  0  0  0  0
   -3.6075   -2.6766   -0.8076 H   0  0  0  0  0  0  0  0  0  0  0  0
    1.1192    0.0539   -3.5100 N   0  0  0  0  0  0  0  0  0  0  0  0
    1.8452    0.6905   -4.5841 C   0  0  2  0  0  0  0  0  0  0  0  0
    3.2401    1.0273   -4.0741 C   0  0  0  0  0  0  0  0  0  0  0  0
    3.5054    1.1542   -2.8805 O   0  0  0  0  0  0  0  0  0  0  0  0
    1.1285    1.9399   -5.0721 C   0  0  0  0  0  0  0  0  0  0  0  0
    0.8692   -0.9261   -3.6045 H   0  0  0  0  0  0  0  0  0  0  0  0
    1.9192   -0.0432   -5.3942 H   0  0  0  0  0  0  0  0  0  0  0  0
    1.0448    2.6866   -4.2741 H   0  0  0  0  0  0  0  0  0  0  0  0
    1.6653    2.4053   -5.9053 H   0  0  0  0  0  0  0  0  0  0  0  0
    0.1147    1.7004   -5.4108 H   0  0  0  0  0  0  0  0  0  0  0  0
    4.1443    1.2120   -5.1107 N   0  0  0  0  0  0  0  0  0  0  0  0
    5.5298    1.5521   -4.8854 C   0  0  0  0  0  0  0  0  0  0  0  0
    3.8415    1.0680   -6.0695 H   0  0  0  0  0  0  0  0  0  0  0  0
    5.6474    2.6456   -4.9053 H   0  0  0  0  0  0  0  0  0  0  0  0
    5.8470    1.1671   -3.9050 H   0  0  0  0  0  0  0  0  0  0  0  0
    6.1506    1.1023   -5.6742 H   0  0  0  0  0  0  0  0  0  0  0  0
  1  3  1  0  0  0  0
  1  7  1  0  0  0  0
  1  2  2  0  0  0  0
 31 32  1  0  0  0  0
 32 40  1  0  0  0  0
 32 33  2  0  0  0  0
  8  9  1  0  0  0  0
  9 17  1  0  0  0  0
  9 10  2  0  0  0  0
 18 19  1  0  0  0  0
 19 30  1  0  0  0  0
 19 20  2  0  0  0  0
 21 22  1  0  0  0  0
 22 23  2  0  0  0  0
 22 24  1  0  0  0  0
 31 34  1  0  0  0  0
  8 11  1  0  0  0  0
 40 41  1  0  0  0  0
 18 21  1  0  0  0  0
 30 31  1  0  0  0  0
  7  8  1  0  0  0  0
 17 18  1  0  0  0  0
  3  4  1  0  0  0  0
  3  5  1  0  0  0  0
  3  6  1  0  0  0  0
 34 37  1  0  0  0  0
 34 38  1  0  0  0  0
 34 39  1  0  0  0  0
 11 14  1  0  0  0  0
 11 15  1  0  0  0  0
 11 16  1  0  0  0  0
 41 43  1  0  0  0  0
 41 44  1  0  0  0  0
 41 45  1  0  0  0  0
 21 27  1  0  0  0  0
 21 28  1  0  0  0  0
 31 36  1  0  0  0  0
  8 13  1  0  0  0  0
 18 26  1  0  0  0  0
 40 42  1  0  0  0  0
  7 12  1  0  0  0  0
 30 35  1  0  0  0  0
 17 25  1  0  0  0  0
 24 29  1  0  0  0  0
M  END
$$$$

  -OEChem-05262214473D

 45 44  0     1  0  0  0  0  0999 V2000
   -2.2987    4.1032   -0.3022 C   0  0  0  0  0  0  0  0  0  0  0  0
   -1.8049    3.7117   -1.3532 O   0  0  0  0  0  0  0  0  0  0  0  0
   -3.0791    5.3755   -0.2846 C   0  0  0  0  0  0  0  0  0  0  0  0
   -2.4478    6.2532   -0.0717 H   0  0  0  0  0  0  0  0  0  0  0  0
   -3.5571    5.5891   -1.2541 H   0  0  0  0  0  0  0  0  0  0  0  0
   -3.8940    5.4184    0.4556 H   0  0  0  0  0  0  0  0  0  0  0  0
   -2.2137    3.4712    0.9275 N   0  0  0  0  0  0  0  0  0  0  0  0
   -1.5102    2.2327    1.1338 C   0  0  2  0  0  0  0  0  0  0  0  0
   -1.3539    1.5497   -0.2184 C   0  0  0  0  0  0  0  0  0  0  0  0
   -2.0852    1.7861   -1.1778 O   0  0  0  0  0  0  0  0  0  0  0  0
   -2.2477    1.3342    2.1145 C   0  0  0  0  0  0  0  0  0  0  0  0
   -2.6724    3.9052    1.7265 H   0  0  0  0  0  0  0  0  0  0  0  0
   -0.5220    2.4922    1.5290 H   0  0  0  0  0  0  0  0  0  0  0  0
   -3.2400    1.0636    1.7358 H   0  0  0  0  0  0  0  0  0  0  0  0
   -1.6970    0.4046    2.2923 H   0  0  0  0  0  0  0  0  0  0  0  0
   -2.3854    1.8384    3.0772 H   0  0  0  0  0  0  0  0  0  0  0  0
   -0.3283    0.6116   -0.2182 N   0  0  0  0  0  0  0  0  0  0  0  0
    0.0090   -0.1762   -1.3759 C   0  0  2  0  0  0  0  0  0  0  0  0
    0.7495    0.7270   -2.3540 C   0  0  0  0  0  0  0  0  0  0  0  0
    1.2506    1.8005   -2.0259 O   0  0  0  0  0  0  0  0  0  0  0  0
   -1.2275   -0.7866   -2.0305 C   0  0  0  0  0  0  0  0  0  0  0  0
   -1.8398   -1.8531   -1.1561 C   0  0  0  0  0  0  0  0  0  0  0  0
   -1.2035   -2.5398   -0.3674 O   0  0  0  0  0  0  0  0  0  0  0  0
   -3.1755   -1.9830   -1.3506 O   0  0  0  0  0  0  0  0  0  0  0  0
    0.2381    0.4970    0.6194 H   0  0  0  0  0  0  0  0  0  0  0  0
    0.6936   -0.9584   -1.0262 H   0  0  0  0  0  0  0  0  0  0  0  0
   -2.0048   -0.0290   -2.1919 H   0  0  0  0  0  0  0  0  0  0  0  0
   -1.0121   -1.2049   -3.0211 H   0  0  0  0  0  0  0  0  0  0  0  0
   -3.6075   -2.6766   -0.8076 H   0  0  0  0  0  0  0  0  0  0  0  0
    0.8260    0.1714   -3.6235 N   0  0  0  0  0  0  0  0  0  0  0  0
    1.4917    0.8294   -4.7234 C   0  0  2  0  0  0  0  0  0  0  0  0
    2.9825    0.8699   -4.4144 C   0  0  0  0  0  0  0  0  0  0  0  0
    3.4337    0.7869   -3.2740 O   0  0  0  0  0  0  0  0  0  0  0  0
    0.9439    2.2310   -4.9430 C   0  0  0  0  0  0  0  0  0  0  0  0
    0.3965   -0.7347   -3.7856 H   0  0  0  0  0  0  0  0  0  0  0  0
    1.3190    0.2128   -5.6122 H   0  0  0  0  0  0  0  0  0  0  0  0
    1.1078    2.8636   -4.0630 H   0  0  0  0  0  0  0  0  0  0  0  0
    1.4296    2.7178   -5.7951 H   0  0  0  0  0  0  0  0  0  0  0  0
   -0.1340    2.2023   -5.1356 H   0  0  0  0  0  0  0  0  0  0  0  0
    3.7476    1.0530   -5.5578 N   0  0  0  0  0  0  0  0  0  0  0  0
    5.1891    1.1377   -5.5260 C   0  0  0  0  0  0  0  0  0  0  0  0
    3.2904    1.0925   -6.4640 H   0  0  0  0  0  0  0  0  0  0  0  0
    5.4932    2.1914   -5.4414 H   0  0  0  0  0  0  0  0  0  0  0  0
    5.5703    0.5756   -4.6607 H   0  0  0  0  0  0  0  0  0  0  0  0
    5.6019    0.7102   -6.4516 H   0  0  0  0  0  0  0  0  0  0  0  0
  1  3  1  0  0  0  0
  1  7  1  0  0  0  0
  1  2  2  0  0  0  0
 31 32  1  0  0  0  0
 32 40  1  0  0  0  0
 32 33  2  0  0  0  0
  8  9  1  0  0  0  0
  9 17  1  0  0  0  0
  9 10  2  0  0  0  0
 18 19  1  0  0  0  0
 19 30  1  0  0  0  0
 19 20  2  0  0  0  0
 21 22  1  0  0  0  0
 22 23  2  0  0  0  0
 22 24  1  0  0  0  0
 31 34  1  0  0  0  0
  8 11  1  0  0  0  0
 40 41  1  0  0  0  0
 18 21  1  0  0  0  0
 30 31  1  0  0  0  0
  7  8  1  0  0  0  0
 17 18  1  0  0  0  0
  3  4  1  0  0  0  0
  3  5  1  0  0  0  0
  3  6  1  0  0  0  0
 34 37  1  0  0  0  0
 34 38  1  0  0  0  0
 34 39  1  0  0  0  0
 11 14  1  0  0  0  0
 11 15  1  0  0  0  0
 11 16  1  0  0  0  0
 41 43  1  0  0  0  0
 41 44  1  0  0  0  0
 41 45  1  0  0  0  0
 21 27  1  0  0  0  0
 21 28  1  0  0  0  0
 31 36  1  0  0  0  0
  8 13  1  0  0  0  0
 18 26  1  0  0  0  0
 40 42  1  0  0  0  0
  7 12  1  0  0  0  0
 30 35  1  0  0  0  0
 17 25  1  0  0  0  0
 24 29  1  0  0  0  0
M  END
$$$$

  -OEChem-05262214473D

 45 44  0     1  0  0  0  0  0999 V2000
   -2.2987    4.1032   -0.3022 C   0  0  0  0  0  0  0  0  0  0  0  0
   -1.8049    3.7117   -1.3532 O   0  0  0  0  0  0  0  0  0  0  0  0
   -3.0791    5.3755   -0.2846 C   0  0  0  0  0  0  0  0  0  0  0  0
   -2.4478    6.2532   -0.0717 H   0  0  0  0  0  0  0  0  0  0  0  0
   -3.5571    5.5891   -1.2541 H   0  0  0  0  0  0  0  0  0  0  0  0
   -3.8940    5.4184    0.4556 H   0  0  0  0  0  0  0  0  0  0  0  0
   -2.2137    3.4712    0.9275 N   0  0  0  0  0  0  0  0  0  0  0  0
   -1.5102    2.2327    1.1338 C   0  0  2  0  0  0  0  0  0  0  0  0
   -1.3539    1.5497   -0.2184 C   0  0  0  0  0  0  0  0  0  0  0  0
   -2.0852    1.7861   -1.1778 O   0  0  0  0  0  0  0  0  0  0  0  0
   -2.2477    1.3342    2.1145 C   0  0  0  0  0  0  0  0  0  0  0  0
   -2.6724    3.9052    1.7265 H   0  0  0  0  0  0  0  0  0  0  0  0
   -0.5220    2.4922    1.5290 H   0  0  0  0  0  0  0  0  0  0  0  0
   -3.2400    1.0636    1.7358 H   0  0  0  0  0  0  0  0  0  0  0  0
   -1.6970    0.4046    2.2923 H   0  0  0  0  0  0  0  0  0  0  0  0
   -2.3854    1.8384    3.0772 H   0  0  0  0  0  0  0  0  0  0  0  0
   -0.3283    0.6116   -0.2182 N   0  0  0  0  0  0  0  0  0  0  0  0
    0.0090   -0.1762   -1.3759 C   0  0  2  0  0  0  0  0  0  0  0  0
    0.7495    0.7270   -2.3540 C   0  0  0  0  0  0  0  0  0  0  0  0
    1.4733    1.6529   -1.9936 O   0  0  0  0  0  0  0  0  0  0  0  0
   -1.2275   -0.7866   -2.0305 C   0  0  0  0  0  0  0  0  0  0  0  0
   -1.8398   -1.8531   -1.1561 C   0  0  0  0  0  0  0  0  0  0  0  0
   -1.2035   -2.5398   -0.3674 O   0  0  0  0  0  0  0  0  0  0  0  0
   -3.1755   -1.9830   -1.3506 O   0  0  0  0  0  0  0  0  0  0  0  0
    0.2381    0.4970    0.6194 H   0  0  0  0  0  0  0  0  0  0  0  0
    0.6936   -0.9584   -1.0262 H   0  0  0  0  0  0  0  0  0  0  0  0
   -2.0048   -0.0290   -2.1919 H   0  0  0  0  0  0  0  0  0  0  0  0
   -1.0121   -1.2049   -3.0211 H   0  0  0  0  0  0  0  0  0  0  0  0
   -3.6075   -2.6766   -0.8076 H   0  0  0  0  0  0  0  0  0  0  0  0
    0.5450    0.3478   -3.6733 N   0  0  0  0  0  0  0  0  0  0  0  0
    1.1521    1.0399   -4.7862 C   0  0  2  0  0  0  0  0  0  0  0  0
    2.6553    0.8035   -4.7235 C   0  0  0  0  0  0  0  0  0  0  0  0
    3.2430    0.4935   -3.6893 O   0  0  0  0  0  0  0  0  0  0  0  0
    0.8338    2.5266   -4.7534 C   0  0  0  0  0  0  0  0  0  0  0  0
   -0.0560   -0.4486   -3.8639 H   0  0  0  0  0  0  0  0  0  0  0  0
    0.7483    0.5872   -5.6984 H   0  0  0  0  0  0  0  0  0  0  0  0
    1.2304    2.9975   -3.8465 H   0  0  0  0  0  0  0  0  0  0  0  0
    1.2709    3.0450   -5.6132 H   0  0  0  0  0  0  0  0  0  0  0  0
   -0.2486    2.6939   -4.7685 H   0  0  0  0  0  0  0  0  0  0  0  0
    3.2694    1.0216   -5.9488 N   0  0  0  0  0  0  0  0  0  0  0  0
    4.6928    0.8746   -6.1446 C   0  0  0  0  0  0  0  0  0  0  0  0
    2.7017    1.2575   -6.7573 H   0  0  0  0  0  0  0  0  0  0  0  0
    5.1866    1.8457   -5.9927 H   0  0  0  0  0  0  0  0  0  0  0  0
    5.0887    0.1452   -5.4226 H   0  0  0  0  0  0  0  0  0  0  0  0
    4.8874    0.5205   -7.1677 H   0  0  0  0  0  0  0  0  0  0  0  0
  1  3  1  0  0  0  0
  1  7  1  0  0  0  0
  1  2  2  0  0  0  0
 31 32  1  0  0  0  0
 32 40  1  0  0  0  0
 32 33  2  0  0  0  0
  8  9  1  0  0  0  0
  9 17  1  0  0  0  0
  9 10  2  0  0  0  0
 18 19  1  0  0  0  0
 19 30  1  0  0  0  0
 19 20  2  0  0  0  0
 21 22  1  0  0  0  0
 22 23  2  0  0  0  0
 22 24  1  0  0  0  0
 31 34  1  0  0  0  0
  8 11  1  0  0  0  0
 40 41  1  0  0  0  0
 18 21  1  0  0  0  0
 30 31  1  0  0  0  0
  7  8  1  0  0  0  0
 17 18  1  0  0  0  0
  3  4  1  0  0  0  0
  3  5  1  0  0  0  0
  3  6  1  0  0  0  0
 34 37  1  0  0  0  0
 34 38  1  0  0  0  0
 34 39  1  0  0  0  0
 11 14  1  0  0  0  0
 11 15  1  0  0  0  0
 11 16  1  0  0  0  0
 41 43  1  0  0  0  0
 41 44  1  0  0  0  0
 41 45  1  0  0  0  0
 21 27  1  0  0  0  0
 21 28  1  0  0  0  0
 31 36  1  0  0  0  0
  8 13  1  0  0  0  0
 18 26  1  0  0  0  0
 40 42  1  0  0  0  0
  7 12  1  0  0  0  0
 30 35  1  0  0  0  0
 17 25  1  0  0  0  0
 24 29  1  0  0  0  0
M  END
$$$$

  -OEChem-05262214473D

 45 44  0     1  0  0  0  0  0999 V2000
   -2.2987    4.1032   -0.3022 C   0  0  0  0  0  0  0  0  0  0  0  0
   -1.8049    3.7117   -1.3532 O   0  0  0  0  0  0  0  0  0  0  0  0
   -3.0791    5.3755   -0.2846 C   0  0  0  0  0  0  0  0  0  0  0  0
   -2.4478    6.2532   -0.0717 H   0  0  0  0  0  0  0  0  0  0  0  0
   -3.5571    5.5891   -1.2541 H   0  0  0  0  0  0  0  0  0  0  0  0
   -3.8940    5.4184    0.4556 H   0  0  0  0  0  0  0  0  0  0  0  0
   -2.2137    3.4712    0.9275 N   0  0  0  0  0  0  0  0  0  0  0  0
   -1.5102    2.2327    1.1338 C   0  0  2  0  0  0  0  0  0  0  0  0
   -1.3539    1.5497   -0.2184 C   0  0  0  0  0  0  0  0  0  0  0  0
   -2.0852    1.7861   -1.1778 O   0  0  0  0  0  0  0  0  0  0  0  0
   -2.2477    1.3342    2.1145 C   0  0  0  0  0  0  0  0  0  0  0  0
   -2.6724    3.9052    1.7265 H   0  0  0  0  0  0  0  0  0  0  0  0
   -0.5220    2.4922    1.5290 H   0  0  0  0  0  0  0  0  0  0  0  0
   -3.2400    1.0636    1.7358 H   0  0  0  0  0  0  0  0  0  0  0  0
   -1.6970    0.4046    2.2923 H   0  0  0  0  0  0  0  0  0  0  0  0
   -2.3854    1.8384    3.0772 H   0  0  0  0  0  0  0  0  0  0  0  0
   -0.3283    0.6116   -0.2182 N   0  0  0  0  0  0  0  0  0  0  0  0
    0.0090   -0.1762   -1.3759 C   0  0  2  0  0  0  0  0  0  0  0  0
    0.7495    0.7270   -2.3540 C   0  0  0  0  0  0  0  0  0  0  0  0
    1.6689    1.4693   -2.0151 O   0  0  0  0  0  0  0  0  0  0  0  0
   -1.2275   -0.7866   -2.0305 C   0  0  0  0  0  0  0  0  0  0  0  0
   -1.8398   -1.8531   -1.1561 C   0  0  0  0  0  0  0  0  0  0  0  0
   -1.2035   -2.5398   -0.3674 O   0  0  0  0  0  0  0  0  0  0  0  0
   -3.1755   -1.9830   -1.3506 O   0  0  0  0  0  0  0  0  0  0  0  0
    0.2381    0.4970    0.6194 H   0  0  0  0  0  0  0  0  0  0  0  0
    0.6936   -0.9584   -1.0262 H   0  0  0  0  0  0  0  0  0  0  0  0
   -2.0048   -0.0290   -2.1919 H   0  0  0  0  0  0  0  0  0  0  0  0
   -1.0121   -1.2049   -3.0211 H   0  0  0  0  0  0  0  0  0  0  0  0
   -3.6075   -2.6766   -0.8076 H   0  0  0  0  0  0  0  0  0  0  0  0
    0.2951    0.5713   -3.6561 N   0  0  0  0  0  0  0  0  0  0  0  0
    0.8493    1.3075   -4.7682 C   0  0  2  0  0  0  0  0  0  0  0  0
    2.2808    0.8327   -4.9801 C   0  0  0  0  0  0  0  0  0  0  0  0
    2.9463    0.2941   -4.0980 O   0  0  0  0  0  0  0  0  0  0  0  0
    0.8056    2.8066   -4.5161 C   0  0  0  0  0  0  0  0  0  0  0  0
   -0.4576   -0.0871   -3.8342 H   0  0  0  0  0  0  0  0  0  0  0  0
    0.2461    1.0546   -5.6470 H   0  0  0  0  0  0  0  0  0  0  0  0
    1.4043    3.0792   -3.6394 H   0  0  0  0  0  0  0  0  0  0  0  0
    1.1998    3.3645   -5.3719 H   0  0  0  0  0  0  0  0  0  0  0  0
   -0.2213    3.1415   -4.3344 H   0  0  0  0  0  0  0  0  0  0  0  0
    2.7423    1.1199   -6.2571 N   0  0  0  0  0  0  0  0  0  0  0  0
    4.0748    0.7808   -6.6991 C   0  0  0  0  0  0  0  0  0  0  0  0
    2.1153    1.5516   -6.9296 H   0  0  0  0  0  0  0  0  0  0  0  0
    4.7483    1.6322   -6.5217 H   0  0  0  0  0  0  0  0  0  0  0  0
    4.4352   -0.0946   -6.1388 H   0  0  0  0  0  0  0  0  0  0  0  0
    4.0559    0.5460   -7.7736 H   0  0  0  0  0  0  0  0  0  0  0  0
  1  3  1  0  0  0  0
  1  7  1  0  0  0  0
  1  2  2  0  0  0  0
 31 32  1  0  0  0  0
 32 40  1  0  0  0  0
 32 33  2  0  0  0  0
  8  9  1  0  0  0  0
  9 17  1  0  0  0  0
  9 10  2  0  0  0  0
 18 19  1  0  0  0  0
 19 30  1  0  0  0  0
 19 20  2  0  0  0  0
 21 22  1  0  0  0  0
 22 23  2  0  0  0  0
 22 24  1  0  0  0  0
 31 34  1  0  0  0  0
  8 11  1  0  0  0  0
 40 41  1  0  0  0  0
 18 21  1  0  0  0  0
 30 31  1  0  0  0  0
  7  8  1  0  0  0  0
 17 18  1  0  0  0  0
  3  4  1  0  0  0  0
  3  5  1  0  0  0  0
  3  6  1  0  0  0  0
 34 37  1  0  0  0  0
 34 38  1  0  0  0  0
 34 39  1  0  0  0  0
 11 14  1  0  0  0  0
 11 15  1  0  0  0  0
 11 16  1  0  0  0  0
 41 43  1  0  0  0  0
 41 44  1  0  0  0  0
 41 45  1  0  0  0  0
 21 27  1  0  0  0  0
 21 28  1  0  0  0  0
 31 36  1  0  0  0  0
  8 13  1  0  0  0  0
 18 26  1  0  0  0  0
 40 42  1  0  0  0  0
  7 12  1  0  0  0  0
 30 35  1  0  0  0  0
 17 25  1  0  0  0  0
 24 29  1  0  0  0  0
M  END
$$$$

  -OEChem-05262214473D

 45 44  0     1  0  0  0  0  0999 V2000
   -2.2987    4.1032   -0.3022 C   0  0  0  0  0  0  0  0  0  0  0  0
   -1.8049    3.7117   -1.3532 O   0  0  0  0  0  0  0  0  0  0  0  0
   -3.0791    5.3755   -0.2846 C   0  0  0  0  0  0  0  0  0  0  0  0
   -2.4478    6.2532   -0.0717 H   0  0  0  0  0  0  0  0  0  0  0  0
   -3.5571    5.5891   -1.2541 H   0  0  0  0  0  0  0  0  0  0  0  0
   -3.8940    5.4184    0.4556 H   0  0  0  0  0  0  0  0  0  0  0  0
   -2.2137    3.4712    0.9275 N   0  0  0  0  0  0  0  0  0  0  0  0
   -1.5102    2.2327    1.1338 C   0  0  2  0  0  0  0  0  0  0  0  0
   -1.3539    1.5497   -0.2184 C   0  0  0  0  0  0  0  0  0  0  0  0
   -2.0852    1.7861   -1.1778 O   0  0  0  0  0  0  0  0  0  0  0  0
   -2.2477    1.3342    2.1145 C   0  0  0  0  0  0  0  0  0  0  0  0
   -2.6724    3.9052    1.7265 H   0  0  0  0  0  0  0  0  0  0  0  0
   -0.5220    2.4922    1.5290 H   0  0  0  0  0  0  0  0  0  0  0  0
   -3.2400    1.0636    1.7358 H   0  0  0  0  0  0  0  0  0  0  0  0
   -1.6970    0.4046    2.2923 H   0  0  0  0  0  0  0  0  0  0  0  0
   -2.3854    1.8384    3.0772 H   0  0  0  0  0  0  0  0  0  0  0  0
   -0.3283    0.6116   -0.2182 N   0  0  0  0  0  0  0  0  0  0  0  0
    0.0090   -0.1762   -1.3759 C   0  0  2  0  0  0  0  0  0  0  0  0
    0.7495    0.7270   -2.3540 C   0  0  0  0  0  0  0  0  0  0  0  0
    1.8240    1.2621   -2.0890 O   0  0  0  0  0  0  0  0  0  0  0  0
   -1.2275   -0.7866   -2.0305 C   0  0  0  0  0  0  0  0  0  0  0  0
   -1.8398   -1.8531   -1.1561 C   0  0  0  0  0  0  0  0  0  0  0  0
   -1.2035   -2.5398   -0.3674 O   0  0  0  0  0  0  0  0  0  0  0  0
   -3.1755   -1.9830   -1.3506 O   0  0  0  0  0  0  0  0  0  0  0  0
    0.2381    0.4970    0.6194 H   0  0  0  0  0  0  0  0  0  0  0  0
    0.6936   -0.9584   -1.0262 H   0  0  0  0  0  0  0  0  0  0  0  0
   -2.0048   -0.0290   -2.1919 H   0  0  0  0  0  0  0  0  0  0  0  0
   -1.0121   -1.2049   -3.0211 H   0  0  0  0  0  0  0  0  0  0  0  0
   -3.6075   -2.6766   -0.8076 H   0  0  0  0  0  0  0  0  0  0  0  0
    0.0936    0.8264   -3.5731 N   0  0  0  0  0  0  0  0  0  0  0  0
    0.6041    1.6141   -4.6707 C   0  0  2  0  0  0  0  0  0  0  0  0
    1.8844    0.9553   -5.1668 C   0  0  0  0  0  0  0  0  0  0  0  0
    2.5639    0.2022   -4.4724 O   0  0  0  0  0  0  0  0  0  0  0  0
    0.8614    3.0519   -4.2474 C   0  0  0  0  0  0  0  0  0  0  0  0
   -0.7808    0.3250   -3.6983 H   0  0  0  0  0  0  0  0  0  0  0  0
   -0.1534    1.5830   -5.4615 H   0  0  0  0  0  0  0  0  0  0  0  0
    1.6177    3.1032   -3.4557 H   0  0  0  0  0  0  0  0  0  0  0  0
    1.2213    3.6546   -5.0878 H   0  0  0  0  0  0  0  0  0  0  0  0
   -0.0540    3.5148   -3.8631 H   0  0  0  0  0  0  0  0  0  0  0  0
    2.2021    1.3413   -6.4616 N   0  0  0  0  0  0  0  0  0  0  0  0
    3.3772    0.8626   -7.1516 C   0  0  0  0  0  0  0  0  0  0  0  0
    1.5714    1.9547   -6.9691 H   0  0  0  0  0  0  0  0  0  0  0  0
    4.2083    1.5653   -6.9923 H   0  0  0  0  0  0  0  0  0  0  0  0
    3.6541   -0.1275   -6.7604 H   0  0  0  0  0  0  0  0  0  0  0  0
    3.1640    0.7851   -8.2280 H   0  0  0  0  0  0  0  0  0  0  0  0
  1  3  1  0  0  0  0
  1  7  1  0  0  0  0
  1  2  2  0  0  0  0
 31 32  1  0  0  0  0
 32 40  1  0  0  0  0
 32 33  2  0  0  0  0
  8  9  1  0  0  0  0
  9 17  1  0  0  0  0
  9 10  2  0  0  0  0
 18 19  1  0  0  0  0
 19 30  1  0  0  0  0
 19 20  2  0  0  0  0
 21 22  1  0  0  0  0
 22 23  2  0  0  0  0
 22 24  1  0  0  0  0
 31 34  1  0  0  0  0
  8 11  1  0  0  0  0
 40 41  1  0  0  0  0
 18 21  1  0  0  0  0
 30 31  1  0  0  0  0
  7  8  1  0  0  0  0
 17 18  1  0  0  0  0
  3  4  1  0  0  0  0
  3  5  1  0  0  0  0
  3  6  1  0  0  0  0
 34 37  1  0  0  0  0
 34 38  1  0  0  0  0
 34 39  1  0  0  0  0
 11 14  1  0  0  0  0
 11 15  1  0  0  0  0
 11 16  1  0  0  0  0
 41 43  1  0  0  0  0
 41 44  1  0  0  0  0
 41 45  1  0  0  0  0
 21 27  1  0  0  0  0
 21 28  1  0  0  0  0
 31 36  1  0  0  0  0
  8 13  1  0  0  0  0
 18 26  1  0  0  0  0
 40 42  1  0  0  0  0
  7 12  1  0  0  0  0
 30 35  1  0  0  0  0
 17 25  1  0  0  0  0
 24 29  1  0  0  0  0
M  END
$$$$

  -OEChem-05262214473D

 45 44  0     1  0  0  0  0  0999 V2000
   -2.2987    4.1032   -0.3022 C   0  0  0  0  0  0  0  0  0  0  0  0
   -1.8049    3.7117   -1.3532 O   0  0  0  0  0  0  0  0  0  0  0  0
   -3.0791    5.3755   -0.2846 C   0  0  0  0  0  0  0  0  0  0  0  0
   -2.4478    6.2532   -0.0717 H   0  0  0  0  0  0  0  0  0  0  0  0
   -3.5571    5.5891   -1.2541 H   0  0  0  0  0  0  0  0  0  0  0  0
   -3.8940    5.4184    0.4556 H   0  0  0  0  0  0  0  0  0  0  0  0
   -2.2137    3.4712    0.9275 N   0  0  0  0  0  0  0  0  0  0  0  0
   -1.5102    2.2327    1.1338 C   0  0  2  0  0  0  0  0  0  0  0  0
   -1.3539    1.5497   -0.2184 C   0  0  0  0  0  0  0  0  0  0  0  0
   -2.0852    1.7861   -1.1778 O   0  0  0  0  0  0  0  0  0  0  0  0
   -2.2477    1.3342    2.1145 C   0  0  0  0  0  0  0  0  0  0  0  0
   -2.6724    3.9052    1.7265 H   0  0  0  0  0  0  0  0  0  0  0  0
   -0.5220    2.4922    1.5290 H   0  0  0  0  0  0  0  0  0  0  0  0
   -3.2400    1.0636    1.7358 H   0  0  0  0  0  0  0  0  0  0  0  0
   -1.6970    0.4046    2.2923 H   0  0  0  0  0  0  0  0  0  0  0  0
   -2.3854    1.8384    3.0772 H   0  0  0  0  0  0  0  0  0  0  0  0
   -0.3283    0.6116   -0.2182 N   0  0  0  0  0  0  0  0  0  0  0  0
    0.0090   -0.1762   -1.3759 C   0  0  2  0  0  0  0  0  0  0  0  0
    0.7495    0.7270   -2.3540 C   0  0  0  0  0  0  0  0  0  0  0  0
    1.9281    1.0455   -2.2103 O   0  0  0  0  0  0  0  0  0  0  0  0
   -1.2275   -0.7866   -2.0305 C   0  0  0  0  0  0  0  0  0  0  0  0
   -1.8398   -1.8531   -1.1561 C   0  0  0  0  0  0  0  0  0  0  0  0
   -1.2035   -2.5398   -0.3674 O   0  0  0  0  0  0  0  0  0  0  0  0
   -3.1755   -1.9830   -1.3506 O   0  0  0  0  0  0  0  0  0  0  0  0
    0.2381    0.4970    0.6194 H   0  0  0  0  0  0  0  0  0  0  0  0
    0.6936   -0.9584   -1.0262 H   0  0  0  0  0  0  0  0  0  0  0  0
   -2.0048   -0.0290   -2.1919 H   0  0  0  0  0  0  0  0  0  0  0  0
   -1.0121   -1.2049   -3.0211 H   0  0  0  0  0  0  0  0  0  0  0  0
   -3.6075   -2.6766   -0.8076 H   0  0  0  0  0  0  0  0  0  0  0  0
   -0.0459    1.0960   -3.4298 N   0  0  0  0  0  0  0  0  0  0  0  0
    0.4331    1.9387   -4.5004 C   0  0  2  0  0  0  0  0  0  0  0  0
    1.4934    1.1631   -5.2710 C   0  0  0  0  0  0  0  0  0  0  0  0
    2.1218    0.2241   -4.7869 O   0  0  0  0  0  0  0  0  0  0  0  0
    0.9972    3.2458   -3.9655 C   0  0  0  0  0  0  0  0  0  0  0  0
   -1.0038    0.7597   -3.4657 H   0  0  0  0  0  0  0  0  0  0  0  0
   -0.4231    2.1365   -5.1545 H   0  0  0  0  0  0  0  0  0  0  0  0
    1.8560    3.0678   -3.3080 H   0  0  0  0  0  0  0  0  0  0  0  0
    1.3338    3.8955   -4.7801 H   0  0  0  0  0  0  0  0  0  0  0  0
    0.2421    3.7882   -3.3865 H   0  0  0  0  0  0  0  0  0  0  0  0
    1.6858    1.6705   -6.5483 N   0  0  0  0  0  0  0  0  0  0  0  0
    2.6475    1.1145   -7.4714 C   0  0  0  0  0  0  0  0  0  0  0  0
    1.1070    2.4395   -6.8730 H   0  0  0  0  0  0  0  0  0  0  0  0
    3.6034    1.6496   -7.3723 H   0  0  0  0  0  0  0  0  0  0  0  0
    2.7988    0.0487   -7.2452 H   0  0  0  0  0  0  0  0  0  0  0  0
    2.2725    1.2214   -8.5000 H   0  0  0  0  0  0  0  0  0  0  0  0
  1  3  1  0  0  0  0
  1  7  1  0  0  0  0
  1  2  2  0  0  0  0
 31 32  1  0  0  0  0
 32 40  1  0  0  0  0
 32 33  2  0  0  0  0
  8  9  1  0  0  0  0
  9 17  1  0  0  0  0
  9 10  2  0  0  0  0
 18 19  1  0  0  0  0
 19 30  1  0  0  0  0
 19 20  2  0  0  0  0
 21 22  1  0  0  0  0
 22 23  2  0  0  0  0
 22 24  1  0  0  0  0
 31 34  1  0  0  0  0
  8 11  1  0  0  0  0
 40 41  1  0  0  0  0
 18 21  1  0  0  0  0
 30 31  1  0  0  0  0
  7  8  1  0  0  0  0
 17 18  1  0  0  0  0
  3  4  1  0  0  0  0
  3  5  1  0  0  0  0
  3  6  1  0  0  0  0
 34 37  1  0  0  0  0
 34 38  1  0  0  0  0
 34 39  1  0  0  0  0
 11 14  1  0  0  0  0
 11 15  1  0  0  0  0
 11 16  1  0  0  0  0
 41 43  1  0  0  0  0
 41 44  1  0  0  0  0
 41 45  1  0  0  0  0
 21 27  1  0  0  0  0
 21 28  1  0  0  0  0
 31 36  1  0  0  0  0
  8 13  1  0  0  0  0
 18 26  1  0  0  0  0
 40 42  1  0  0  0  0
  7 12  1  0  0  0  0
 30 35  1  0  0  0  0
 17 25  1  0  0  0  0
 24 29  1  0  0  0  0
M  END
$$$$

  -OEChem-05262214473D

 45 44  0     1  0  0  0  0  0999 V2000
   -2.2987    4.1032   -0.3022 C   0  0  0  0  0  0  0  0  0  0  0  0
   -1.8049    3.7117   -1.3532 O   0  0  0  0  0  0  0  0  0  0  0  0
   -3.0791    5.3755   -0.2846 C   0  0  0  0  0  0  0  0  0  0  0  0
   -2.4478    6.2532   -0.0717 H   0  0  0  0  0  0  0  0  0  0  0  0
   -3.5571    5.5891   -1.2541 H   0  0  0  0  0  0  0  0  0  0  0  0
   -3.8940    5.4184    0.4556 H   0  0  0  0  0  0  0  0  0  0  0  0
   -2.2137    3.4712    0.9275 N   0  0  0  0  0  0  0  0  0  0  0  0
   -1.5102    2.2327    1.1338 C   0  0  2  0  0  0  0  0  0  0  0  0
   -1.3539    1.5497   -0.2184 C   0  0  0  0  0  0  0  0  0  0  0  0
   -2.0852    1.7861   -1.1778 O   0  0  0  0  0  0  0  0  0  0  0  0
   -2.2477    1.3342    2.1145 C   0  0  0  0  0  0  0  0  0  0  0  0
   -2.6724    3.9052    1.7265 H   0  0  0  0  0  0  0  0  0  0  0  0
   -0.5220    2.4922    1.5290 H   0  0  0  0  0  0  0  0  0  0  0  0
   -3.2400    1.0636    1.7358 H   0  0  0  0  0  0  0  0  0  0  0  0
   -1.6970    0.4046    2.2923 H   0  0  0  0  0  0  0  0  0  0  0  0
   -2.3854    1.8384    3.0772 H   0  0  0  0  0  0  0  0  0  0  0  0
   -0.3283    0.6116   -0.2182 N   0  0  0  0  0  0  0  0  0  0  0  0
    0.0090   -0.1762   -1.3759 C   0  0  2  0  0  0  0  0  0  0  0  0
    0.7495    0.7270   -2.3540 C   0  0  0  0  0  0  0  0  0  0  0  0
    1.9740    0.8342   -2.3706 O   0  0  0  0  0  0  0  0  0  0  0  0
   -1.2275   -0.7866   -2.0305 C   0  0  0  0  0  0  0  0  0  0  0  0
   -1.8398   -1.8531   -1.1561 C   0  0  0  0  0  0  0  0  0  0  0  0
   -1.2035   -2.5398   -0.3674 O   0  0  0  0  0  0  0  0  0  0  0  0
   -3.1755   -1.9830   -1.3506 O   0  0  0  0  0  0  0  0  0  0  0  0
    0.2381    0.4970    0.6194 H   0  0  0  0  0  0  0  0  0  0  0  0
    0.6936   -0.9584   -1.0262 H   0  0  0  0  0  0  0  0  0  0  0  0
   -2.0048   -0.0290   -2.1919 H   0  0  0  0  0  0  0  0  0  0  0  0
   -1.0121   -1.2049   -3.0211 H   0  0  0  0  0  0  0  0  0  0  0  0
   -3.6075   -2.6766   -0.8076 H   0  0  0  0  0  0  0  0  0  0  0  0
   -0.1140    1.3615   -3.2361 N   0  0  0  0  0  0  0  0  0  0  0  0
    0.3481    2.2593   -4.2688 C   0  0  2  0  0  0  0  0  0  0  0  0
    1.1342    1.4420   -5.2854 C   0  0  0  0  0  0  0  0  0  0  0  0
    1.6501    0.3582   -5.0201 O   0  0  0  0  0  0  0  0  0  0  0  0
    1.2039    3.3750   -3.6897 C   0  0  0  0  0  0  0  0  0  0  0  0
   -1.1111    1.1874   -3.1520 H   0  0  0  0  0  0  0  0  0  0  0  0
   -0.5445    2.6773   -4.7470 H   0  0  0  0  0  0  0  0  0  0  0  0
    2.1029    2.9755   -3.2063 H   0  0  0  0  0  0  0  0  0  0  0  0
    1.5297    4.0708   -4.4699 H   0  0  0  0  0  0  0  0  0  0  0  0
    0.6466    3.9432   -2.9371 H   0  0  0  0  0  0  0  0  0  0  0  0
    1.2285    2.0853   -6.5115 N   0  0  0  0  0  0  0  0  0  0  0  0
    1.9354    1.5193   -7.6366 C   0  0  0  0  0  0  0  0  0  0  0  0
    0.7537    2.9729   -6.6479 H   0  0  0  0  0  0  0  0  0  0  0  0
    2.9748    1.8793   -7.6360 H   0  0  0  0  0  0  0  0  0  0  0  0
    1.9275    0.4220   -7.5601 H   0  0  0  0  0  0  0  0  0  0  0  0
    1.4421    1.8252   -8.5710 H   0  0  0  0  0  0  0  0  0  0  0  0
  1  3  1  0  0  0  0
  1  7  1  0  0  0  0
  1  2  2  0  0  0  0
 31 32  1  0  0  0  0
 32 40  1  0  0  0  0
 32 33  2  0  0  0  0
  8  9  1  0  0  0  0
  9 17  1  0  0  0  0
  9 10  2  0  0  0  0
 18 19  1  0  0  0  0
 19 30  1  0  0  0  0
 19 20  2  0  0  0  0
 21 22  1  0  0  0  0
 22 23  2  0  0  0  0
 22 24  1  0  0  0  0
 31 34  1  0  0  0  0
  8 11  1  0  0  0  0
 40 41  1  0  0  0  0
 18 21  1  0  0  0  0
 30 31  1  0  0  0  0
  7  8  1  0  0  0  0
 17 18  1  0  0  0  0
  3  4  1  0  0  0  0
  3  5  1  0  0  0  0
  3  6  1  0  0  0  0
 34 37  1  0  0  0  0
 34 38  1  0  0  0  0
 34 39  1  0  0  0  0
 11 14  1  0  0  0  0
 11 15  1  0  0  0  0
 11 16  1  0  0  0  0
 41 43  1  0  0  0  0
 41 44  1  0  0  0  0
 41 45  1  0  0  0  0
 21 27  1  0  0  0  0
 21 28  1  0  0  0  0
 31 36  1  0  0  0  0
  8 13  1  0  0  0  0
 18 26  1  0  0  0  0
 40 42  1  0  0  0  0
  7 12  1  0  0  0  0
 30 35  1  0  0  0  0
 17 25  1  0  0  0  0
 24 29  1  0  0  0  0
M  END
$$$$

  -OEChem-05262214473D

 45 44  0     1  0  0  0  0  0999 V2000
   -2.2987    4.1032   -0.3022 C   0  0  0  0  0  0  0  0  0  0  0  0
   -1.8049    3.7117   -1.3532 O   0  0  0  0  0  0  0  0  0  0  0  0
   -3.0791    5.3755   -0.2846 C   0  0  0  0  0  0  0  0  0  0  0  0
   -2.4478    6.2532   -0.0717 H   0  0  0  0  0  0  0  0  0  0  0  0
   -3.5571    5.5891   -1.2541 H   0  0  0  0  0  0  0  0  0  0  0  0
   -3.8940    5.4184    0.4556 H   0  0  0  0  0  0  0  0  0  0  0  0
   -2.2137    3.4712    0.9275 N   0  0  0  0  0  0  0  0  0  0  0  0
   -1.5102    2.2327    1.1338 C   0  0  2  0  0  0  0  0  0  0  0  0
   -1.3539    1.5497   -0.2184 C   0  0  0  0  0  0  0  0  0  0  0  0
   -2.0852    1.7861   -1.1778 O   0  0  0  0  0  0  0  0  0  0  0  0
   -2.2477    1.3342    2.1145 C   0  0  0  0  0  0  0  0  0  0  0  0
   -2.6724    3.9052    1.7265 H   0  0  0  0  0  0  0  0  0  0  0  0
   -0.5220    2.4922    1.5290 H   0  0  0  0  0  0  0  0  0  0  0  0
   -3.2400    1.0636    1.7358 H   0  0  0  0  0  0  0  0  0  0  0  0
   -1.6970    0.4046    2.2923 H   0  0  0  0  0  0  0  0  0  0  0  0
   -2.3854    1.8384    3.0772 H   0  0  0  0  0  0  0  0  0  0  0  0
   -0.3283    0.6116   -0.2182 N   0  0  0  0  0  0  0  0  0  0  0  0
    0.0090   -0.1762   -1.3759 C   0  0  2  0  0  0  0  0  0  0  0  0
    0.7495    0.7270   -2.3540 C   0  0  0  0  0  0  0  0  0  0  0  0
    1.9586    0.6427   -2.5591 O   0  0  0  0  0  0  0  0  0  0  0  0
   -1.2275   -0.7866   -2.0305 C   0  0  0  0  0  0  0  0  0  0  0  0
   -1.8398   -1.8531   -1.1561 C   0  0  0  0  0  0  0  0  0  0  0  0
   -1.2035   -2.5398   -0.3674 O   0  0  0  0  0  0  0  0  0  0  0  0
   -3.1755   -1.9830   -1.3506 O   0  0  0  0  0  0  0  0  0  0  0  0
    0.2381    0.4970    0.6194 H   0  0  0  0  0  0  0  0  0  0  0  0
    0.6936   -0.9584   -1.0262 H   0  0  0  0  0  0  0  0  0  0  0  0
   -2.0048   -0.0290   -2.1919 H   0  0  0  0  0  0  0  0  0  0  0  0
   -1.0121   -1.2049   -3.0211 H   0  0  0  0  0  0  0  0  0  0  0  0
   -3.6075   -2.6766   -0.8076 H   0  0  0  0  0  0  0  0  0  0  0  0
   -0.1058    1.6049   -3.0052 N   0  0  0  0  0  0  0  0  0  0  0  0
    0.3547    2.5539   -3.9917 C   0  0  2  0  0  0  0  0  0  0  0  0
    0.8313    1.7728   -5.2092 C   0  0  0  0  0  0  0  0  0  0  0  0
    1.1810    0.5955   -5.1561 O   0  0  0  0  0  0  0  0  0  0  0  0
    1.4674    3.4308   -3.4388 C   0  0  0  0  0  0  0  0  0  0  0  0
   -1.0957    1.5788   -2.7788 H   0  0  0  0  0  0  0  0  0  0  0  0
   -0.5093    3.1686   -4.2667 H   0  0  0  0  0  0  0  0  0  0  0  0
    2.3417    2.8324   -3.1577 H   0  0  0  0  0  0  0  0  0  0  0  0
    1.7957    4.1686   -4.1783 H   0  0  0  0  0  0  0  0  0  0  0  0
    1.1320    3.9691   -2.5457 H   0  0  0  0  0  0  0  0  0  0  0  0
    0.8613    2.5573   -6.3536 N   0  0  0  0  0  0  0  0  0  0  0  0
    1.2895    2.0494   -7.6360 C   0  0  0  0  0  0  0  0  0  0  0  0
    0.5356    3.5184   -6.3093 H   0  0  0  0  0  0  0  0  0  0  0  0
    2.3653    2.2389   -7.7654 H   0  0  0  0  0  0  0  0  0  0  0  0
    1.0997    0.9670   -7.6835 H   0  0  0  0  0  0  0  0  0  0  0  0
    0.7294    2.5553   -8.4362 H   0  0  0  0  0  0  0  0  0  0  0  0
  1  3  1  0  0  0  0
  1  7  1  0  0  0  0
  1  2  2  0  0  0  0
 31 32  1  0  0  0  0
 32 40  1  0  0  0  0
 32 33  2  0  0  0  0
  8  9  1  0  0  0  0
  9 17  1  0  0  0  0
  9 10  2  0  0  0  0
 18 19  1  0  0  0  0
 19 30  1  0  0  0  0
 19 20  2  0  0  0  0
 21 22  1  0  0  0  0
 22 23  2  0  0  0  0
 22 24  1  0  0  0  0
 31 34  1  0  0  0  0
  8 11  1  0  0  0  0
 40 41  1  0  0  0  0
 18 21  1  0  0  0  0
 30 31  1  0  0  0  0
  7  8  1  0  0  0  0
 17 18  1  0  0  0  0
  3  4  1  0  0  0  0
  3  5  1  0  0  0  0
  3  6  1  0  0  0  0
 34 37  1  0  0  0  0
 34 38  1  0  0  0  0
 34 39  1  0  0  0  0
 11 14  1  0  0  0  0
 11 15  1  0  0  0  0
 11 16  1  0  0  0  0
 41 43  1  0  0  0  0
 41 44  1  0  0  0  0
 41 45  1  0  0  0  0
 21 27  1  0  0  0  0
 21 28  1  0  0  0  0
 31 36  1  0  0  0  0
  8 13  1  0  0  0  0
 18 26  1  0  0  0  0
 40 42  1  0  0  0  0
  7 12  1  0  0  0  0
 30 35  1  0  0  0  0
 17 25  1  0  0  0  0
 24 29  1  0  0  0  0
M  END
$$$$

  -OEChem-05262214473D

 45 44  0     1  0  0  0  0  0999 V2000
   -2.2987    4.1032   -0.3022 C   0  0  0  0  0  0  0  0  0  0  0  0
   -1.8049    3.7117   -1.3532 O   0  0  0  0  0  0  0  0  0  0  0  0
   -3.0791    5.3755   -0.2846 C   0  0  0  0  0  0  0  0  0  0  0  0
   -2.4478    6.2532   -0.0717 H   0  0  0  0  0  0  0  0  0  0  0  0
   -3.5571    5.5891   -1.2541 H   0  0  0  0  0  0  0  0  0  0  0  0
   -3.8940    5.4184    0.4556 H   0  0  0  0  0  0  0  0  0  0  0  0
   -2.2137    3.4712    0.9275 N   0  0  0  0  0  0  0  0  0  0  0  0
   -1.5102    2.2327    1.1338 C   0  0  2  0  0  0  0  0  0  0  0  0
   -1.3539    1.5497   -0.2184 C   0  0  0  0  0  0  0  0  0  0  0  0
   -2.0852    1.7861   -1.1778 O   0  0  0  0  0  0  0  0  0  0  0  0
   -2.2477    1.3342    2.1145 C   0  0  0  0  0  0  0  0  0  0  0  0
   -2.6724    3.9052    1.7265 H   0  0  0  0  0  0  0  0  0  0  0  0
   -0.5220    2.4922    1.5290 H   0  0  0  0  0  0  0  0  0  0  0  0
   -3.2400    1.0636    1.7358 H   0  0  0  0  0  0  0  0  0  0  0  0
   -1.6970    0.4046    2.2923 H   0  0  0  0  0  0  0  0  0  0  0  0
   -2.3854    1.8384    3.0772 H   0  0  0  0  0  0  0  0  0  0  0  0
   -0.3283    0.6116   -0.2182 N   0  0  0  0  0  0  0  0  0  0  0  0
    0.0090   -0.1762   -1.3759 C   0  0  2  0  0  0  0  0  0  0  0  0
    0.7495    0.7270   -2.3540 C   0  0  0  0  0  0  0  0  0  0  0  0
    1.8830    0.4839   -2.7629 O   0  0  0  0  0  0  0  0  0  0  0  0
   -1.2275   -0.7866   -2.0305 C   0  0  0  0  0  0  0  0  0  0  0  0
   -1.8398   -1.8531   -1.1561 C   0  0  0  0  0  0  0  0  0  0  0  0
   -1.2035   -2.5398   -0.3674 O   0  0  0  0  0  0  0  0  0  0  0  0
   -3.1755   -1.9830   -1.3506 O   0  0  0  0  0  0  0  0  0  0  0  0
    0.2381    0.4970    0.6194 H   0  0  0  0  0  0  0  0  0  0  0  0
    0.6936   -0.9584   -1.0262 H   0  0  0  0  0  0  0  0  0  0  0  0
   -2.0048   -0.0290   -2.1919 H   0  0  0  0  0  0  0  0  0  0  0  0
   -1.0121   -1.2049   -3.0211 H   0  0  0  0  0  0  0  0  0  0  0  0
   -3.6075   -2.6766   -0.8076 H   0  0  0  0  0  0  0  0  0  0  0  0
   -0.0220    1.8096   -2.7528 N   0  0  0  0  0  0  0  0  0  0  0  0
    0.4526    2.8025   -3.6880 C   0  0  2  0  0  0  0  0  0  0  0  0
    0.6055    2.1331   -5.0474 C   0  0  0  0  0  0  0  0  0  0  0  0
    0.7464    0.9198   -5.1856 O   0  0  0  0  0  0  0  0  0  0  0  0
    1.7696    3.4093   -3.2298 C   0  0  0  0  0  0  0  0  0  0  0  0
   -0.9584    1.9075   -2.3714 H   0  0  0  0  0  0  0  0  0  0  0  0
   -0.3200    3.5769   -3.7464 H   0  0  0  0  0  0  0  0  0  0  0  0
    2.5560    2.6485   -3.1653 H   0  0  0  0  0  0  0  0  0  0  0  0
    2.1137    4.1821   -3.9252 H   0  0  0  0  0  0  0  0  0  0  0  0
    1.6653    3.8643   -2.2389 H   0  0  0  0  0  0  0  0  0  0  0  0
    0.6093    3.0544   -6.0853 N   0  0  0  0  0  0  0  0  0  0  0  0
    0.7538    2.6687   -7.4697 C   0  0  0  0  0  0  0  0  0  0  0  0
    0.4676    4.0391   -5.8800 H   0  0  0  0  0  0  0  0  0  0  0  0
    1.8165    2.7038   -7.7516 H   0  0  0  0  0  0  0  0  0  0  0  0
    0.3716    1.6465   -7.6072 H   0  0  0  0  0  0  0  0  0  0  0  0
    0.1831    3.3621   -8.1049 H   0  0  0  0  0  0  0  0  0  0  0  0
  1  3  1  0  0  0  0
  1  7  1  0  0  0  0
  1  2  2  0  0  0  0
 31 32  1  0  0  0  0
 32 40  1  0  0  0  0
 32 33  2  0  0  0  0
  8  9  1  0  0  0  0
  9 17  1  0  0  0  0
  9 10  2  0  0  0  0
 18 19  1  0  0  0  0
 19 30  1  0  0  0  0
 19 20  2  0  0  0  0
 21 22  1  0  0  0  0
 22 23  2  0  0  0  0
 22 24  1  0  0  0  0
 31 34  1  0  0  0  0
  8 11  1  0  0  0  0
 40 41  1  0  0  0  0
 18 21  1  0  0  0  0
 30 31  1  0  0  0  0
  7  8  1  0  0  0  0
 17 18  1  0  0  0  0
  3  4  1  0  0  0  0
  3  5  1  0  0  0  0
  3  6  1  0  0  0  0
 34 37  1  0  0  0  0
 34 38  1  0  0  0  0
 34 39  1  0  0  0  0
 11 14  1  0  0  0  0
 11 15  1  0  0  0  0
 11 16  1  0  0  0  0
 41 43  1  0  0  0  0
 41 44  1  0  0  0  0
 41 45  1  0  0  0  0
 21 27  1  0  0  0  0
 21 28  1  0  0  0  0
 31 36  1  0  0  0  0
  8 13  1  0  0  0  0
 18 26  1  0  0  0  0
 40 42  1  0  0  0  0
  7 12  1  0  0  0  0
 30 35  1  0  0  0  0
 17 25  1  0  0  0  0
 24 29  1  0  0  0  0
M  END
$$$$

  -OEChem-05262214473D

 45 44  0     1  0  0  0  0  0999 V2000
   -2.2987    4.1032   -0.3022 C   0  0  0  0  0  0  0  0  0  0  0  0
   -1.8049    3.7117   -1.3532 O   0  0  0  0  0  0  0  0  0  0  0  0
   -3.0791    5.3755   -0.2846 C   0  0  0  0  0  0  0  0  0  0  0  0
   -2.4478    6.2532   -0.0717 H   0  0  0  0  0  0  0  0  0  0  0  0
   -3.5571    5.5891   -1.2541 H   0  0  0  0  0  0  0  0  0  0  0  0
   -3.8940    5.4184    0.4556 H   0  0  0  0  0  0  0  0  0  0  0  0
   -2.2137    3.4712    0.9275 N   0  0  0  0  0  0  0  0  0  0  0  0
   -1.5102    2.2327    1.1338 C   0  0  2  0  0  0  0  0  0  0  0  0
   -1.3539    1.5497   -0.2184 C   0  0  0  0  0  0  0  0  0  0  0  0
   -2.0852    1.7861   -1.1778 O   0  0  0  0  0  0  0  0  0  0  0  0
   -2.2477    1.3342    2.1145 C   0  0  0  0  0  0  0  0  0  0  0  0
   -2.6724    3.9052    1.7265 H   0  0  0  0  0  0  0  0  0  0  0  0
   -0.5220    2.4922    1.5290 H   0  0  0  0  0  0  0  0  0  0  0  0
   -3.2400    1.0636    1.7358 H   0  0  0  0  0  0  0  0  0  0  0  0
   -1.6970    0.4046    2.2923 H   0  0  0  0  0  0  0  0  0  0  0  0
   -2.3854    1.8384    3.0772 H   0  0  0  0  0  0  0  0  0  0  0  0
   -0.3283    0.6116   -0.2182 N   0  0  0  0  0  0  0  0  0  0  0  0
    0.0090   -0.1762   -1.3759 C   0  0  2  0  0  0  0  0  0  0  0  0
    0.7495    0.7270   -2.3540 C   0  0  0  0  0  0  0  0  0  0  0  0
    1.7523    0.3688   -2.9682 O   0  0  0  0  0  0  0  0  0  0  0  0
   -1.2275   -0.7866   -2.0305 C   0  0  0  0  0  0  0  0  0  0  0  0
   -1.8398   -1.8531   -1.1561 C   0  0  0  0  0  0  0  0  0  0  0  0
   -1.2035   -2.5398   -0.3674 O   0  0  0  0  0  0  0  0  0  0  0  0
   -3.1755   -1.9830   -1.3506 O   0  0  0  0  0  0  0  0  0  0  0  0
    0.2381    0.4970    0.6194 H   0  0  0  0  0  0  0  0  0  0  0  0
    0.6936   -0.9584   -1.0262 H   0  0  0  0  0  0  0  0  0  0  0  0
   -2.0048   -0.0290   -2.1919 H   0  0  0  0  0  0  0  0  0  0  0  0
   -1.0121   -1.2049   -3.0211 H   0  0  0  0  0  0  0  0  0  0  0  0
   -3.6075   -2.6766   -0.8076 H   0  0  0  0  0  0  0  0  0  0  0  0
    0.1316    1.9616   -2.4960 N   0  0  0  0  0  0  0  0  0  0  0  0
    0.6351    2.9882   -3.3784 C   0  0  2  0  0  0  0  0  0  0  0  0
    0.4720    2.4983   -4.8112 C   0  0  0  0  0  0  0  0  0  0  0  0
    0.3760    1.3089   -5.1066 O   0  0  0  0  0  0  0  0  0  0  0  0
    2.0901    3.3121   -3.0770 C   0  0  0  0  0  0  0  0  0  0  0  0
   -0.7087    2.1509   -1.9577 H   0  0  0  0  0  0  0  0  0  0  0  0
    0.0105    3.8744   -3.2215 H   0  0  0  0  0  0  0  0  0  0  0  0
    2.7313    2.4361   -3.2287 H   0  0  0  0  0  0  0  0  0  0  0  0
    2.4619    4.1105   -3.7277 H   0  0  0  0  0  0  0  0  0  0  0  0
    2.2100    3.6358   -2.0375 H   0  0  0  0  0  0  0  0  0  0  0  0
    0.4897    3.5427   -5.7250 N   0  0  0  0  0  0  0  0  0  0  0  0
    0.3649    3.3350   -7.1489 C   0  0  0  0  0  0  0  0  0  0  0  0
    0.5542    4.4992   -5.3894 H   0  0  0  0  0  0  0  0  0  0  0  0
    1.3658    3.2422   -7.5955 H   0  0  0  0  0  0  0  0  0  0  0  0
   -0.2069    2.4142   -7.3362 H   0  0  0  0  0  0  0  0  0  0  0  0
   -0.1597    4.1905   -7.5994 H   0  0  0  0  0  0  0  0  0  0  0  0
  1  3  1  0  0  0  0
  1  7  1  0  0  0  0
  1  2  2  0  0  0  0
 31 32  1  0  0  0  0
 32 40  1  0  0  0  0
 32 33  2  0  0  0  0
  8  9  1  0  0  0  0
  9 17  1  0  0  0  0
  9 10  2  0  0  0  0
 18 19  1  0  0  0  0
 19 30  1  0  0  0  0
 19 20  2  0  0  0  0
 21 22  1  0  0  0  0
 22 23  2  0  0  0  0
 22 24  1  0  0  0  0
 31 34  1  0  0  0  0
  8 11  1  0  0  0  0
 40 41  1  0  0  0  0
 18 21  1  0  0  0  0
 30 31  1  0  0  0  0
  7  8  1  0  0  0  0
 17 18  1  0  0  0  0
  3  4  1  0  0  0  0
  3  5  1  0  0  0  0
  3  6  1  0  0  0  0
 34 37  1  0  0  0  0
 34 38  1  0  0  0  0
 34 39  1  0  0  0  0
 11 14  1  0  0  0  0
 11 15  1  0  0  0  0
 11 16  1  0  0  0  0
 41 43  1  0  0  0  0
 41 44  1  0  0  0  0
 41 45  1  0  0  0  0
 21 27  1  0  0  0  0
 21 28  1  0  0  0  0
 31 36  1  0  0  0  0
  8 13  1  0  0  0  0
 18 26  1  0  0  0  0
 40 42  1  0  0  0  0
  7 12  1  0  0  0  0
 30 35  1  0  0  0  0
 17 25  1  0  0  0  0
 24 29  1  0  0  0  0
M  END
$$$$

  -OEChem-05262214473D

 45 44  0     1  0  0  0  0  0999 V2000
   -2.2987    4.1032   -0.3022 C   0  0  0  0  0  0  0  0  0  0  0  0
   -1.8049    3.7117   -1.3532 O   0  0  0  0  0  0  0  0  0  0  0  0
   -3.0791    5.3755   -0.2846 C   0  0  0  0  0  0  0  0  0  0  0  0
   -2.4478    6.2532   -0.0717 H   0  0  0  0  0  0  0  0  0  0  0  0
   -3.5571    5.5891   -1.2541 H   0  0  0  0  0  0  0  0  0  0  0  0
   -3.8940    5.4184    0.4556 H   0  0  0  0  0  0  0  0  0  0  0  0
   -2.2137    3.4712    0.9275 N   0  0  0  0  0  0  0  0  0  0  0  0
   -1.5102    2.2327    1.1338 C   0  0  2  0  0  0  0  0  0  0  0  0
   -1.3539    1.5497   -0.2184 C   0  0  0  0  0  0  0  0  0  0  0  0
   -2.0852    1.7861   -1.1778 O   0  0  0  0  0  0  0  0  0  0  0  0
   -2.2477    1.3342    2.1145 C   0  0  0  0  0  0  0  0  0  0  0  0
   -2.6724    3.9052    1.7265 H   0  0  0  0  0  0  0  0  0  0  0  0
   -0.5220    2.4922    1.5290 H   0  0  0  0  0  0  0  0  0  0  0  0
   -3.2400    1.0636    1.7358 H   0  0  0  0  0  0  0  0  0  0  0  0
   -1.6970    0.4046    2.2923 H   0  0  0  0  0  0  0  0  0  0  0  0
   -2.3854    1.8384    3.0772 H   0  0  0  0  0  0  0  0  0  0  0  0
   -0.3283    0.6116   -0.2182 N   0  0  0  0  0  0  0  0  0  0  0  0
    0.0090   -0.1762   -1.3759 C   0  0  2  0  0  0  0  0  0  0  0  0
    0.7495    0.7270   -2.3540 C   0  0  0  0  0  0  0  0  0  0  0  0
    1.5755    0.3052   -3.1608 O   0  0  0  0  0  0  0  0  0  0  0  0
   -1.2275   -0.7866   -2.0305 C   0  0  0  0  0  0  0  0  0  0  0  0
   -1.8398   -1.8531   -1.1561 C   0  0  0  0  0  0  0  0  0  0  0  0
   -1.2035   -2.5398   -0.3674 O   0  0  0  0  0  0  0  0  0  0  0  0
   -3.1755   -1.9830   -1.3506 O   0  0  0  0  0  0  0  0  0  0  0  0
    0.2381    0.4970    0.6194 H   0  0  0  0  0  0  0  0  0  0  0  0
    0.6936   -0.9584   -1.0262 H   0  0  0  0  0  0  0  0  0  0  0  0
   -2.0048   -0.0290   -2.1919 H   0  0  0  0  0  0  0  0  0  0  0  0
   -1.0121   -1.2049   -3.0211 H   0  0  0  0  0  0  0  0  0  0  0  0
   -3.6075   -2.6766   -0.8076 H   0  0  0  0  0  0  0  0  0  0  0  0
    0.3447    2.0506   -2.2525 N   0  0  0  0  0  0  0  0  0  0  0  0
    0.8898    3.0983   -3.0840 C   0  0  2  0  0  0  0  0  0  0  0  0
    0.4401    2.8435   -4.5166 C   0  0  0  0  0  0  0  0  0  0  0  0
    0.0950    1.7365   -4.9246 O   0  0  0  0  0  0  0  0  0  0  0  0
    2.4069    3.1457   -2.9908 C   0  0  0  0  0  0  0  0  0  0  0  0
   -0.3635    2.2924   -1.5657 H   0  0  0  0  0  0  0  0  0  0  0  0
    0.4598    4.0407   -2.7278 H   0  0  0  0  0  0  0  0  0  0  0  0
    2.8556    2.2099   -3.3435 H   0  0  0  0  0  0  0  0  0  0  0  0
    2.8166    3.9586   -3.5994 H   0  0  0  0  0  0  0  0  0  0  0  0
    2.7292    3.2992   -1.9553 H   0  0  0  0  0  0  0  0  0  0  0  0
    0.5105    3.9889   -5.2972 N   0  0  0  0  0  0  0  0  0  0  0  0
    0.1491    4.0029   -6.6955 C   0  0  0  0  0  0  0  0  0  0  0  0
    0.7897    4.8676   -4.8710 H   0  0  0  0  0  0  0  0  0  0  0  0
    1.0438    3.8177   -7.3079 H   0  0  0  0  0  0  0  0  0  0  0  0
   -0.5967    3.2178   -6.8891 H   0  0  0  0  0  0  0  0  0  0  0  0
   -0.2757    4.9840   -6.9544 H   0  0  0  0  0  0  0  0  0  0  0  0
  1  3  1  0  0  0  0
  1  7  1  0  0  0  0
  1  2  2  0  0  0  0
 31 32  1  0  0  0  0
 32 40  1  0  0  0  0
 32 33  2  0  0  0  0
  8  9  1  0  0  0  0
  9 17  1  0  0  0  0
  9 10  2  0  0  0  0
 18 19  1  0  0  0  0
 19 30  1  0  0  0  0
 19 20  2  0  0  0  0
 21 22  1  0  0  0  0
 22 23  2  0  0  0  0
 22 24  1  0  0  0  0
 31 34  1  0  0  0  0
  8 11  1  0  0  0  0
 40 41  1  0  0  0  0
 18 21  1  0  0  0  0
 30 31  1  0  0  0  0
  7  8  1  0  0  0  0
 17 18  1  0  0  0  0
  3  4  1  0  0  0  0
  3  5  1  0  0  0  0
  3  6  1  0  0  0  0
 34 37  1  0  0  0  0
 34 38  1  0  0  0  0
 34 39  1  0  0  0  0
 11 14  1  0  0  0  0
 11 15  1  0  0  0  0
 11 16  1  0  0  0  0
 41 43  1  0  0  0  0
 41 44  1  0  0  0  0
 41 45  1  0  0  0  0
 21 27  1  0  0  0  0
 21 28  1  0  0  0  0
 31 36  1  0  0  0  0
  8 13  1  0  0  0  0
 18 26  1  0  0  0  0
 40 42  1  0  0  0  0
  7 12  1  0  0  0  0
 30 35  1  0  0  0  0
 17 25  1  0  0  0  0
 24 29  1  0  0  0  0
M  END
$$$$

  -OEChem-05262214473D

 45 44  0     1  0  0  0  0  0999 V2000
   -2.2987    4.1032   -0.3022 C   0  0  0  0  0  0  0  0  0  0  0  0
   -1.8049    3.7117   -1.3532 O   0  0  0  0  0  0  0  0  0  0  0  0
   -3.0791    5.3755   -0.2846 C   0  0  0  0  0  0  0  0  0  0  0  0
   -2.4478    6.2532   -0.0717 H   0  0  0  0  0  0  0  0  0  0  0  0
   -3.5571    5.5891   -1.2541 H   0  0  0  0  0  0  0  0  0  0  0  0
   -3.8940    5.4184    0.4556 H   0  0  0  0  0  0  0  0  0  0  0  0
   -2.2137    3.4712    0.9275 N   0  0  0  0  0  0  0  0  0  0  0  0
   -1.5102    2.2327    1.1338 C   0  0  2  0  0  0  0  0  0  0  0  0
   -1.3539    1.5497   -0.2184 C   0  0  0  0  0  0  0  0  0  0  0  0
   -2.0852    1.7861   -1.1778 O   0  0  0  0  0  0  0  0  0  0  0  0
   -2.2477    1.3342    2.1145 C   0  0  0  0  0  0  0  0  0  0  0  0
   -2.6724    3.9052    1.7265 H   0  0  0  0  0  0  0  0  0  0  0  0
   -0.5220    2.4922    1.5290 H   0  0  0  0  0  0  0  0  0  0  0  0
   -3.2400    1.0636    1.7358 H   0  0  0  0  0  0  0  0  0  0  0  0
   -1.6970    0.4046    2.2923 H   0  0  0  0  0  0  0  0  0  0  0  0
   -2.3854    1.8384    3.0772 H   0  0  0  0  0  0  0  0  0  0  0  0
   -0.3283    0.6116   -0.2182 N   0  0  0  0  0  0  0  0  0  0  0  0
    0.0090   -0.1762   -1.3759 C   0  0  2  0  0  0  0  0  0  0  0  0
    0.7495    0.7270   -2.3540 C   0  0  0  0  0  0  0  0  0  0  0  0
    1.3645    0.2973   -3.3278 O   0  0  0  0  0  0  0  0  0  0  0  0
   -1.2275   -0.7866   -2.0305 C   0  0  0  0  0  0  0  0  0  0  0  0
   -1.8398   -1.8531   -1.1561 C   0  0  0  0  0  0  0  0  0  0  0  0
   -1.2035   -2.5398   -0.3674 O   0  0  0  0  0  0  0  0  0  0  0  0
   -3.1755   -1.9830   -1.3506 O   0  0  0  0  0  0  0  0  0  0  0  0
    0.2381    0.4970    0.6194 H   0  0  0  0  0  0  0  0  0  0  0  0
    0.6936   -0.9584   -1.0262 H   0  0  0  0  0  0  0  0  0  0  0  0
   -2.0048   -0.0290   -2.1919 H   0  0  0  0  0  0  0  0  0  0  0  0
   -1.0121   -1.2049   -3.0211 H   0  0  0  0  0  0  0  0  0  0  0  0
   -3.6075   -2.6766   -0.8076 H   0  0  0  0  0  0  0  0  0  0  0  0
    0.6027    2.0706   -2.0388 N   0  0  0  0  0  0  0  0  0  0  0  0
    1.1992    3.1252   -2.8249 C   0  0  2  0  0  0  0  0  0  0  0  0
    0.5118    3.1452   -4.1837 C   0  0  0  0  0  0  0  0  0  0  0  0
   -0.0774    2.1732   -4.6518 O   0  0  0  0  0  0  0  0  0  0  0  0
    2.6985    2.9215   -2.9772 C   0  0  0  0  0  0  0  0  0  0  0  0
    0.0535    2.3224   -1.2222 H   0  0  0  0  0  0  0  0  0  0  0  0
    0.9972    4.0647   -2.2989 H   0  0  0  0  0  0  0  0  0  0  0  0
    2.9205    1.9851   -3.5020 H   0  0  0  0  0  0  0  0  0  0  0  0
    3.1537    3.7368   -3.5491 H   0  0  0  0  0  0  0  0  0  0  0  0
    3.1873    2.8775   -1.9979 H   0  0  0  0  0  0  0  0  0  0  0  0
    0.6705    4.3626   -4.8310 N   0  0  0  0  0  0  0  0  0  0  0  0
    0.1212    4.6269   -6.1404 C   0  0  0  0  0  0  0  0  0  0  0  0
    1.1579    5.1191   -4.3600 H   0  0  0  0  0  0  0  0  0  0  0  0
    0.8726    4.3908   -6.9083 H   0  0  0  0  0  0  0  0  0  0  0  0
   -0.7710    4.0026   -6.2964 H   0  0  0  0  0  0  0  0  0  0  0  0
   -0.1568    5.6886   -6.2138 H   0  0  0  0  0  0  0  0  0  0  0  0
  1  3  1  0  0  0  0
  1  7  1  0  0  0  0
  1  2  2  0  0  0  0
 31 32  1  0  0  0  0
 32 40  1  0  0  0  0
 32 33  2  0  0  0  0
  8  9  1  0  0  0  0
  9 17  1  0  0  0  0
  9 10  2  0  0  0  0
 18 19  1  0  0  0  0
 19 30  1  0  0  0  0
 19 20  2  0  0  0  0
 21 22  1  0  0  0  0
 22 23  2  0  0  0  0
 22 24  1  0  0  0  0
 31 34  1  0  0  0  0
  8 11  1  0  0  0  0
 40 41  1  0  0  0  0
 18 21  1  0  0  0  0
 30 31  1  0  0  0  0
  7  8  1  0  0  0  0
 17 18  1  0  0  0  0
  3  4  1  0  0  0  0
  3  5  1  0  0  0  0
  3  6  1  0  0  0  0
 34 37  1  0  0  0  0
 34 38  1  0  0  0  0
 34 39  1  0  0  0  0
 11 14  1  0  0  0  0
 11 15  1  0  0  0  0
 11 16  1  0  0  0  0
 41 43  1  0  0  0  0
 41 44  1  0  0  0  0
 41 45  1  0  0  0  0
 21 27  1  0  0  0  0
 21 28  1  0  0  0  0
 31 36  1  0  0  0  0
  8 13  1  0  0  0  0
 18 26  1  0  0  0  0
 40 42  1  0  0  0  0
  7 12  1  0  0  0  0
 30 35  1  0  0  0  0
 17 25  1  0  0  0  0
 24 29  1  0  0  0  0
M  END
$$$$

  -OEChem-05262214473D

 45 44  0     1  0  0  0  0  0999 V2000
   -2.2987    4.1032   -0.3022 C   0  0  0  0  0  0  0  0  0  0  0  0
   -1.8049    3.7117   -1.3532 O   0  0  0  0  0  0  0  0  0  0  0  0
   -3.0791    5.3755   -0.2846 C   0  0  0  0  0  0  0  0  0  0  0  0
   -2.4478    6.2532   -0.0717 H   0  0  0  0  0  0  0  0  0  0  0  0
   -3.5571    5.5891   -1.2541 H   0  0  0  0  0  0  0  0  0  0  0  0
   -3.8940    5.4184    0.4556 H   0  0  0  0  0  0  0  0  0  0  0  0
   -2.2137    3.4712    0.9275 N   0  0  0  0  0  0  0  0  0  0  0  0
   -1.5102    2.2327    1.1338 C   0  0  2  0  0  0  0  0  0  0  0  0
   -1.3539    1.5497   -0.2184 C   0  0  0  0  0  0  0  0  0  0  0  0
   -2.0852    1.7861   -1.1778 O   0  0  0  0  0  0  0  0  0  0  0  0
   -2.2477    1.3342    2.1145 C   0  0  0  0  0  0  0  0  0  0  0  0
   -2.6724    3.9052    1.7265 H   0  0  0  0  0  0  0  0  0  0  0  0
   -0.5220    2.4922    1.5290 H   0  0  0  0  0  0  0  0  0  0  0  0
   -3.2400    1.0636    1.7358 H   0  0  0  0  0  0  0  0  0  0  0  0
   -1.6970    0.4046    2.2923 H   0  0  0  0  0  0  0  0  0  0  0  0
   -2.3854    1.8384    3.0772 H   0  0  0  0  0  0  0  0  0  0  0  0
   -0.3283    0.6116   -0.2182 N   0  0  0  0  0  0  0  0  0  0  0  0
    0.0090   -0.1762   -1.3759 C   0  0  2  0  0  0  0  0  0  0  0  0
    0.7495    0.7270   -2.3540 C   0  0  0  0  0  0  0  0  0  0  0  0
    1.1338    0.3457   -3.4577 O   0  0  0  0  0  0  0  0  0  0  0  0
   -1.2275   -0.7866   -2.0305 C   0  0  0  0  0  0  0  0  0  0  0  0
   -1.8398   -1.8531   -1.1561 C   0  0  0  0  0  0  0  0  0  0  0  0
   -1.2035   -2.5398   -0.3674 O   0  0  0  0  0  0  0  0  0  0  0  0
   -3.1755   -1.9830   -1.3506 O   0  0  0  0  0  0  0  0  0  0  0  0
    0.2381    0.4970    0.6194 H   0  0  0  0  0  0  0  0  0  0  0  0
    0.6936   -0.9584   -1.0262 H   0  0  0  0  0  0  0  0  0  0  0  0
   -2.0048   -0.0290   -2.1919 H   0  0  0  0  0  0  0  0  0  0  0  0
   -1.0121   -1.2049   -3.0211 H   0  0  0  0  0  0  0  0  0  0  0  0
   -3.6075   -2.6766   -0.8076 H   0  0  0  0  0  0  0  0  0  0  0  0
    0.8880    2.0201   -1.8694 N   0  0  0  0  0  0  0  0  0  0  0  0
    1.5423    3.0673   -2.6186 C   0  0  2  0  0  0  0  0  0  0  0  0
    0.6822    3.3829   -3.8353 C   0  0  0  0  0  0  0  0  0  0  0  0
   -0.1295    2.5894   -4.3069 O   0  0  0  0  0  0  0  0  0  0  0  0
    2.9450    2.6547   -3.0369 C   0  0  0  0  0  0  0  0  0  0  0  0
    0.5141    2.2389   -0.9507 H   0  0  0  0  0  0  0  0  0  0  0  0
    1.5860    3.9445   -1.9640 H   0  0  0  0  0  0  0  0  0  0  0  0
    2.9214    1.7771   -3.6933 H   0  0  0  0  0  0  0  0  0  0  0  0
    3.4501    3.4602   -3.5801 H   0  0  0  0  0  0  0  0  0  0  0  0
    3.5532    2.3994   -2.1624 H   0  0  0  0  0  0  0  0  0  0  0  0
    0.9586    4.6384   -4.3583 N   0  0  0  0  0  0  0  0  0  0  0  0
    0.2831    5.1643   -5.5215 C   0  0  0  0  0  0  0  0  0  0  0  0
    1.6338    5.2366   -3.8913 H   0  0  0  0  0  0  0  0  0  0  0  0
    0.8638    4.9226   -6.4239 H   0  0  0  0  0  0  0  0  0  0  0  0
   -0.7179    4.7150   -5.5984 H   0  0  0  0  0  0  0  0  0  0  0  0
    0.1888    6.2563   -5.4280 H   0  0  0  0  0  0  0  0  0  0  0  0
  1  3  1  0  0  0  0
  1  7  1  0  0  0  0
  1  2  2  0  0  0  0
 31 32  1  0  0  0  0
 32 40  1  0  0  0  0
 32 33  2  0  0  0  0
  8  9  1  0  0  0  0
  9 17  1  0  0  0  0
  9 10  2  0  0  0  0
 18 19  1  0  0  0  0
 19 30  1  0  0  0  0
 19 20  2  0  0  0  0
 21 22  1  0  0  0  0
 22 23  2  0  0  0  0
 22 24  1  0  0  0  0
 31 34  1  0  0  0  0
  8 11  1  0  0  0  0
 40 41  1  0  0  0  0
 18 21  1  0  0  0  0
 30 31  1  0  0  0  0
  7  8  1  0  0  0  0
 17 18  1  0  0  0  0
  3  4  1  0  0  0  0
  3  5  1  0  0  0  0
  3  6  1  0  0  0  0
 34 37  1  0  0  0  0
 34 38  1  0  0  0  0
 34 39  1  0  0  0  0
 11 14  1  0  0  0  0
 11 15  1  0  0  0  0
 11 16  1  0  0  0  0
 41 43  1  0  0  0  0
 41 44  1  0  0  0  0
 41 45  1  0  0  0  0
 21 27  1  0  0  0  0
 21 28  1  0  0  0  0
 31 36  1  0  0  0  0
  8 13  1  0  0  0  0
 18 26  1  0  0  0  0
 40 42  1  0  0  0  0
  7 12  1  0  0  0  0
 30 35  1  0  0  0  0
 17 25  1  0  0  0  0
 24 29  1  0  0  0  0
M  END
$$$$

  -OEChem-05262214473D

 45 44  0     1  0  0  0  0  0999 V2000
   -2.2987    4.1032   -0.3022 C   0  0  0  0  0  0  0  0  0  0  0  0
   -1.8049    3.7117   -1.3532 O   0  0  0  0  0  0  0  0  0  0  0  0
   -3.0791    5.3755   -0.2846 C   0  0  0  0  0  0  0  0  0  0  0  0
   -2.4478    6.2532   -0.0717 H   0  0  0  0  0  0  0  0  0  0  0  0
   -3.5571    5.5891   -1.2541 H   0  0  0  0  0  0  0  0  0  0  0  0
   -3.8940    5.4184    0.4556 H   0  0  0  0  0  0  0  0  0  0  0  0
   -2.2137    3.4712    0.9275 N   0  0  0  0  0  0  0  0  0  0  0  0
   -1.5102    2.2327    1.1338 C   0  0  2  0  0  0  0  0  0  0  0  0
   -1.3539    1.5497   -0.2184 C   0  0  0  0  0  0  0  0  0  0  0  0
   -2.0852    1.7861   -1.1778 O   0  0  0  0  0  0  0  0  0  0  0  0
   -2.2477    1.3342    2.1145 C   0  0  0  0  0  0  0  0  0  0  0  0
   -2.6724    3.9052    1.7265 H   0  0  0  0  0  0  0  0  0  0  0  0
   -0.5220    2.4922    1.5290 H   0  0  0  0  0  0  0  0  0  0  0  0
   -3.2400    1.0636    1.7358 H   0  0  0  0  0  0  0  0  0  0  0  0
   -1.6970    0.4046    2.2923 H   0  0  0  0  0  0  0  0  0  0  0  0
   -2.3854    1.8384    3.0772 H   0  0  0  0  0  0  0  0  0  0  0  0
   -0.3283    0.6116   -0.2182 N   0  0  0  0  0  0  0  0  0  0  0  0
    0.0090   -0.1762   -1.3759 C   0  0  2  0  0  0  0  0  0  0  0  0
    0.7495    0.7270   -2.3540 C   0  0  0  0  0  0  0  0  0  0  0  0
    0.8991    0.4472   -3.5417 O   0  0  0  0  0  0  0  0  0  0  0  0
   -1.2275   -0.7866   -2.0305 C   0  0  0  0  0  0  0  0  0  0  0  0
   -1.8398   -1.8531   -1.1561 C   0  0  0  0  0  0  0  0  0  0  0  0
   -1.2035   -2.5398   -0.3674 O   0  0  0  0  0  0  0  0  0  0  0  0
   -3.1755   -1.9830   -1.3506 O   0  0  0  0  0  0  0  0  0  0  0  0
    0.2381    0.4970    0.6194 H   0  0  0  0  0  0  0  0  0  0  0  0
    0.6936   -0.9584   -1.0262 H   0  0  0  0  0  0  0  0  0  0  0  0
   -2.0048   -0.0290   -2.1919 H   0  0  0  0  0  0  0  0  0  0  0  0
   -1.0121   -1.2049   -3.0211 H   0  0  0  0  0  0  0  0  0  0  0  0
   -3.6075   -2.6766   -0.8076 H   0  0  0  0  0  0  0  0  0  0  0  0
    1.1812    1.9026   -1.7560 N   0  0  0  0  0  0  0  0  0  0  0  0
    1.8958    2.9283   -2.4794 C   0  0  2  0  0  0  0  0  0  0  0  0
    0.9398    3.5403   -3.4949 C   0  0  0  0  0  0  0  0  0  0  0  0
   -0.0578    2.9567   -3.9135 O   0  0  0  0  0  0  0  0  0  0  0  0
    3.1296    2.3636   -3.1660 C   0  0  0  0  0  0  0  0  0  0  0  0
    0.9867    2.0476   -0.7696 H   0  0  0  0  0  0  0  0  0  0  0  0
    2.1862    3.6885   -1.7461 H   0  0  0  0  0  0  0  0  0  0  0  0
    2.8585    1.6002   -3.9044 H   0  0  0  0  0  0  0  0  0  0  0  0
    3.6858    3.1477   -3.6903 H   0  0  0  0  0  0  0  0  0  0  0  0
    3.8019    1.8975   -2.4376 H   0  0  0  0  0  0  0  0  0  0  0  0
    1.3553    4.7973   -3.9111 N   0  0  0  0  0  0  0  0  0  0  0  0
    0.6239    5.5788   -4.8809 C   0  0  0  0  0  0  0  0  0  0  0  0
    2.1849    5.2120   -3.4968 H   0  0  0  0  0  0  0  0  0  0  0  0
    1.0179    5.3767   -5.8878 H   0  0  0  0  0  0  0  0  0  0  0  0
   -0.4412    5.3066   -4.8427 H   0  0  0  0  0  0  0  0  0  0  0  0
    0.7375    6.6484   -4.6506 H   0  0  0  0  0  0  0  0  0  0  0  0
  1  3  1  0  0  0  0
  1  7  1  0  0  0  0
  1  2  2  0  0  0  0
 31 32  1  0  0  0  0
 32 40  1  0  0  0  0
 32 33  2  0  0  0  0
  8  9  1  0  0  0  0
  9 17  1  0  0  0  0
  9 10  2  0  0  0  0
 18 19  1  0  0  0  0
 19 30  1  0  0  0  0
 19 20  2  0  0  0  0
 21 22  1  0  0  0  0
 22 23  2  0  0  0  0
 22 24  1  0  0  0  0
 31 34  1  0  0  0  0
  8 11  1  0  0  0  0
 40 41  1  0  0  0  0
 18 21  1  0  0  0  0
 30 31  1  0  0  0  0
  7  8  1  0  0  0  0
 17 18  1  0  0  0  0
  3  4  1  0  0  0  0
  3  5  1  0  0  0  0
  3  6  1  0  0  0  0
 34 37  1  0  0  0  0
 34 38  1  0  0  0  0
 34 39  1  0  0  0  0
 11 14  1  0  0  0  0
 11 15  1  0  0  0  0
 11 16  1  0  0  0  0
 41 43  1  0  0  0  0
 41 44  1  0  0  0  0
 41 45  1  0  0  0  0
 21 27  1  0  0  0  0
 21 28  1  0  0  0  0
 31 36  1  0  0  0  0
  8 13  1  0  0  0  0
 18 26  1  0  0  0  0
 40 42  1  0  0  0  0
  7 12  1  0  0  0  0
 30 35  1  0  0  0  0
 17 25  1  0  0  0  0
 24 29  1  0  0  0  0
M  END
$$$$

  -OEChem-05262214473D

 45 44  0     1  0  0  0  0  0999 V2000
   -2.2987    4.1032   -0.3022 C   0  0  0  0  0  0  0  0  0  0  0  0
   -1.8049    3.7117   -1.3532 O   0  0  0  0  0  0  0  0  0  0  0  0
   -3.0791    5.3755   -0.2846 C   0  0  0  0  0  0  0  0  0  0  0  0
   -2.4478    6.2532   -0.0717 H   0  0  0  0  0  0  0  0  0  0  0  0
   -3.5571    5.5891   -1.2541 H   0  0  0  0  0  0  0  0  0  0  0  0
   -3.8940    5.4184    0.4556 H   0  0  0  0  0  0  0  0  0  0  0  0
   -2.2137    3.4712    0.9275 N   0  0  0  0  0  0  0  0  0  0  0  0
   -1.5102    2.2327    1.1338 C   0  0  2  0  0  0  0  0  0  0  0  0
   -1.3539    1.5497   -0.2184 C   0  0  0  0  0  0  0  0  0  0  0  0
   -2.0852    1.7861   -1.1778 O   0  0  0  0  0  0  0  0  0  0  0  0
   -2.2477    1.3342    2.1145 C   0  0  0  0  0  0  0  0  0  0  0  0
   -2.6724    3.9052    1.7265 H   0  0  0  0  0  0  0  0  0  0  0  0
   -0.5220    2.4922    1.5290 H   0  0  0  0  0  0  0  0  0  0  0  0
   -3.2400    1.0636    1.7358 H   0  0  0  0  0  0  0  0  0  0  0  0
   -1.6970    0.4046    2.2923 H   0  0  0  0  0  0  0  0  0  0  0  0
   -2.3854    1.8384    3.0772 H   0  0  0  0  0  0  0  0  0  0  0  0
   -0.3283    0.6116   -0.2182 N   0  0  0  0  0  0  0  0  0  0  0  0
    0.0090   -0.1762   -1.3759 C   0  0  2  0  0  0  0  0  0  0  0  0
    0.7495    0.7270   -2.3540 C   0  0  0  0  0  0  0  0  0  0  0  0
    0.6763    0.5948   -3.5740 O   0  0  0  0  0  0  0  0  0  0  0  0
   -1.2275   -0.7866   -2.0305 C   0  0  0  0  0  0  0  0  0  0  0  0
   -1.8398   -1.8531   -1.1561 C   0  0  0  0  0  0  0  0  0  0  0  0
   -1.2035   -2.5398   -0.3674 O   0  0  0  0  0  0  0  0  0  0  0  0
   -3.1755   -1.9830   -1.3506 O   0  0  0  0  0  0  0  0  0  0  0  0
    0.2381    0.4970    0.6194 H   0  0  0  0  0  0  0  0  0  0  0  0
    0.6936   -0.9584   -1.0262 H   0  0  0  0  0  0  0  0  0  0  0  0
   -2.0048   -0.0290   -2.1919 H   0  0  0  0  0  0  0  0  0  0  0  0
   -1.0121   -1.2049   -3.0211 H   0  0  0  0  0  0  0  0  0  0  0  0
   -3.6075   -2.6766   -0.8076 H   0  0  0  0  0  0  0  0  0  0  0  0
    1.4623    1.7262   -1.7061 N   0  0  0  0  0  0  0  0  0  0  0  0
    2.2354    2.7178   -2.4166 C   0  0  2  0  0  0  0  0  0  0  0  0
    1.2671    3.6067   -3.1859 C   0  0  0  0  0  0  0  0  0  0  0  0
    0.1329    3.2500   -3.4982 O   0  0  0  0  0  0  0  0  0  0  0  0
    3.2397    2.0679   -3.3556 C   0  0  0  0  0  0  0  0  0  0  0  0
    1.4392    1.7615   -0.6912 H   0  0  0  0  0  0  0  0  0  0  0  0
    2.7569    3.3141   -1.6599 H   0  0  0  0  0  0  0  0  0  0  0  0
    2.7358    1.4663   -4.1208 H   0  0  0  0  0  0  0  0  0  0  0  0
    3.8445    2.8205   -3.8722 H   0  0  0  0  0  0  0  0  0  0  0  0
    3.9165    1.4059   -2.8047 H   0  0  0  0  0  0  0  0  0  0  0  0
    1.8335    4.8288   -3.5201 N   0  0  0  0  0  0  0  0  0  0  0  0
    1.1201    5.8418   -4.2622 C   0  0  0  0  0  0  0  0  0  0  0  0
    2.7737    5.0471   -3.2035 H   0  0  0  0  0  0  0  0  0  0  0  0
    1.3246    5.7224   -5.3365 H   0  0  0  0  0  0  0  0  0  0  0  0
    0.0403    5.7369   -4.0808 H   0  0  0  0  0  0  0  0  0  0  0  0
    1.4519    6.8381   -3.9345 H   0  0  0  0  0  0  0  0  0  0  0  0
  1  3  1  0  0  0  0
  1  7  1  0  0  0  0
  1  2  2  0  0  0  0
 31 32  1  0  0  0  0
 32 40  1  0  0  0  0
 32 33  2  0  0  0  0
  8  9  1  0  0  0  0
  9 17  1  0  0  0  0
  9 10  2  0  0  0  0
 18 19  1  0  0  0  0
 19 30  1  0  0  0  0
 19 20  2  0  0  0  0
 21 22  1  0  0  0  0
 22 23  2  0  0  0  0
 22 24  1  0  0  0  0
 31 34  1  0  0  0  0
  8 11  1  0  0  0  0
 40 41  1  0  0  0  0
 18 21  1  0  0  0  0
 30 31  1  0  0  0  0
  7  8  1  0  0  0  0
 17 18  1  0  0  0  0
  3  4  1  0  0  0  0
  3  5  1  0  0  0  0
  3  6  1  0  0  0  0
 34 37  1  0  0  0  0
 34 38  1  0  0  0  0
 34 39  1  0  0  0  0
 11 14  1  0  0  0  0
 11 15  1  0  0  0  0
 11 16  1  0  0  0  0
 41 43  1  0  0  0  0
 41 44  1  0  0  0  0
 41 45  1  0  0  0  0
 21 27  1  0  0  0  0
 21 28  1  0  0  0  0
 31 36  1  0  0  0  0
  8 13  1  0  0  0  0
 18 26  1  0  0  0  0
 40 42  1  0  0  0  0
  7 12  1  0  0  0  0
 30 35  1  0  0  0  0
 17 25  1  0  0  0  0
 24 29  1  0  0  0  0
M  END
$$$$

  -OEChem-05262214473D

 45 44  0     1  0  0  0  0  0999 V2000
   -2.2987    4.1032   -0.3022 C   0  0  0  0  0  0  0  0  0  0  0  0
   -1.8049    3.7117   -1.3532 O   0  0  0  0  0  0  0  0  0  0  0  0
   -3.0791    5.3755   -0.2846 C   0  0  0  0  0  0  0  0  0  0  0  0
   -2.4478    6.2532   -0.0717 H   0  0  0  0  0  0  0  0  0  0  0  0
   -3.5571    5.5891   -1.2541 H   0  0  0  0  0  0  0  0  0  0  0  0
   -3.8940    5.4184    0.4556 H   0  0  0  0  0  0  0  0  0  0  0  0
   -2.2137    3.4712    0.9275 N   0  0  0  0  0  0  0  0  0  0  0  0
   -1.5102    2.2327    1.1338 C   0  0  2  0  0  0  0  0  0  0  0  0
   -1.3539    1.5497   -0.2184 C   0  0  0  0  0  0  0  0  0  0  0  0
   -2.0852    1.7861   -1.1778 O   0  0  0  0  0  0  0  0  0  0  0  0
   -2.2477    1.3342    2.1145 C   0  0  0  0  0  0  0  0  0  0  0  0
   -2.6724    3.9052    1.7265 H   0  0  0  0  0  0  0  0  0  0  0  0
   -0.5220    2.4922    1.5290 H   0  0  0  0  0  0  0  0  0  0  0  0
   -3.2400    1.0636    1.7358 H   0  0  0  0  0  0  0  0  0  0  0  0
   -1.6970    0.4046    2.2923 H   0  0  0  0  0  0  0  0  0  0  0  0
   -2.3854    1.8384    3.0772 H   0  0  0  0  0  0  0  0  0  0  0  0
   -0.3283    0.6116   -0.2182 N   0  0  0  0  0  0  0  0  0  0  0  0
    0.0090   -0.1762   -1.3759 C   0  0  2  0  0  0  0  0  0  0  0  0
    0.7495    0.7270   -2.3540 C   0  0  0  0  0  0  0  0  0  0  0  0
    0.4807    0.7785   -3.5525 O   0  0  0  0  0  0  0  0  0  0  0  0
   -1.2275   -0.7866   -2.0305 C   0  0  0  0  0  0  0  0  0  0  0  0
   -1.8398   -1.8531   -1.1561 C   0  0  0  0  0  0  0  0  0  0  0  0
   -1.2035   -2.5398   -0.3674 O   0  0  0  0  0  0  0  0  0  0  0  0
   -3.1755   -1.9830   -1.3506 O   0  0  0  0  0  0  0  0  0  0  0  0
    0.2381    0.4970    0.6194 H   0  0  0  0  0  0  0  0  0  0  0  0
    0.6936   -0.9584   -1.0262 H   0  0  0  0  0  0  0  0  0  0  0  0
   -2.0048   -0.0290   -2.1919 H   0  0  0  0  0  0  0  0  0  0  0  0
   -1.0121   -1.2049   -3.0211 H   0  0  0  0  0  0  0  0  0  0  0  0
   -3.6075   -2.6766   -0.8076 H   0  0  0  0  0  0  0  0  0  0  0  0
    1.7121    1.5027   -1.7233 N   0  0  0  0  0  0  0  0  0  0  0  0
    2.5382    2.4502   -2.4346 C   0  0  2  0  0  0  0  0  0  0  0  0
    1.6416    3.5775   -2.9293 C   0  0  0  0  0  0  0  0  0  0  0  0
    0.4296    3.4495   -3.0895 O   0  0  0  0  0  0  0  0  0  0  0  0
    3.2679    1.7879   -3.5929 C   0  0  0  0  0  0  0  0  0  0  0  0
    1.8408    1.4000   -0.7210 H   0  0  0  0  0  0  0  0  0  0  0  0
    3.2591    2.8467   -1.7113 H   0  0  0  0  0  0  0  0  0  0  0  0
    2.5619    1.3845   -4.3280 H   0  0  0  0  0  0  0  0  0  0  0  0
    3.9156    2.5010   -4.1134 H   0  0  0  0  0  0  0  0  0  0  0  0
    3.8892    0.9583   -3.2388 H   0  0  0  0  0  0  0  0  0  0  0  0
    2.3607    4.7304   -3.2119 N   0  0  0  0  0  0  0  0  0  0  0  0
    1.7382    5.9357   -3.7078 C   0  0  0  0  0  0  0  0  0  0  0  0
    3.3600    4.7530   -3.0312 H   0  0  0  0  0  0  0  0  0  0  0  0
    1.7629    5.9360   -4.8075 H   0  0  0  0  0  0  0  0  0  0  0  0
    0.6939    5.9767   -3.3646 H   0  0  0  0  0  0  0  0  0  0  0  0
    2.2834    6.8125   -3.3286 H   0  0  0  0  0  0  0  0  0  0  0  0
  1  3  1  0  0  0  0
  1  7  1  0  0  0  0
  1  2  2  0  0  0  0
 31 32  1  0  0  0  0
 32 40  1  0  0  0  0
 32 33  2  0  0  0  0
  8  9  1  0  0  0  0
  9 17  1  0  0  0  0
  9 10  2  0  0  0  0
 18 19  1  0  0  0  0
 19 30  1  0  0  0  0
 19 20  2  0  0  0  0
 21 22  1  0  0  0  0
 22 23  2  0  0  0  0
 22 24  1  0  0  0  0
 31 34  1  0  0  0  0
  8 11  1  0  0  0  0
 40 41  1  0  0  0  0
 18 21  1  0  0  0  0
 30 31  1  0  0  0  0
  7  8  1  0  0  0  0
 17 18  1  0  0  0  0
  3  4  1  0  0  0  0
  3  5  1  0  0  0  0
  3  6  1  0  0  0  0
 34 37  1  0  0  0  0
 34 38  1  0  0  0  0
 34 39  1  0  0  0  0
 11 14  1  0  0  0  0
 11 15  1  0  0  0  0
 11 16  1  0  0  0  0
 41 43  1  0  0  0  0
 41 44  1  0  0  0  0
 41 45  1  0  0  0  0
 21 27  1  0  0  0  0
 21 28  1  0  0  0  0
 31 36  1  0  0  0  0
  8 13  1  0  0  0  0
 18 26  1  0  0  0  0
 40 42  1  0  0  0  0
  7 12  1  0  0  0  0
 30 35  1  0  0  0  0
 17 25  1  0  0  0  0
 24 29  1  0  0  0  0
M  END
$$$$

  -OEChem-05262214473D

 45 44  0     1  0  0  0  0  0999 V2000
   -2.2987    4.1032   -0.3022 C   0  0  0  0  0  0  0  0  0  0  0  0
   -1.8049    3.7117   -1.3532 O   0  0  0  0  0  0  0  0  0  0  0  0
   -3.0791    5.3755   -0.2846 C   0  0  0  0  0  0  0  0  0  0  0  0
   -2.4478    6.2532   -0.0717 H   0  0  0  0  0  0  0  0  0  0  0  0
   -3.5571    5.5891   -1.2541 H   0  0  0  0  0  0  0  0  0  0  0  0
   -3.8940    5.4184    0.4556 H   0  0  0  0  0  0  0  0  0  0  0  0
   -2.2137    3.4712    0.9275 N   0  0  0  0  0  0  0  0  0  0  0  0
   -1.5102    2.2327    1.1338 C   0  0  2  0  0  0  0  0  0  0  0  0
   -1.3539    1.5497   -0.2184 C   0  0  0  0  0  0  0  0  0  0  0  0
   -2.0852    1.7861   -1.1778 O   0  0  0  0  0  0  0  0  0  0  0  0
   -2.2477    1.3342    2.1145 C   0  0  0  0  0  0  0  0  0  0  0  0
   -2.6724    3.9052    1.7265 H   0  0  0  0  0  0  0  0  0  0  0  0
   -0.5220    2.4922    1.5290 H   0  0  0  0  0  0  0  0  0  0  0  0
   -3.2400    1.0636    1.7358 H   0  0  0  0  0  0  0  0  0  0  0  0
   -1.6970    0.4046    2.2923 H   0  0  0  0  0  0  0  0  0  0  0  0
   -2.3854    1.8384    3.0772 H   0  0  0  0  0  0  0  0  0  0  0  0
   -0.3283    0.6116   -0.2182 N   0  0  0  0  0  0  0  0  0  0  0  0
    0.0090   -0.1762   -1.3759 C   0  0  2  0  0  0  0  0  0  0  0  0
    0.7495    0.7270   -2.3540 C   0  0  0  0  0  0  0  0  0  0  0  0
    0.3256    0.9857   -3.4786 O   0  0  0  0  0  0  0  0  0  0  0  0
   -1.2275   -0.7866   -2.0305 C   0  0  0  0  0  0  0  0  0  0  0  0
   -1.8398   -1.8531   -1.1561 C   0  0  0  0  0  0  0  0  0  0  0  0
   -1.2035   -2.5398   -0.3674 O   0  0  0  0  0  0  0  0  0  0  0  0
   -3.1755   -1.9830   -1.3506 O   0  0  0  0  0  0  0  0  0  0  0  0
    0.2381    0.4970    0.6194 H   0  0  0  0  0  0  0  0  0  0  0  0
    0.6936   -0.9584   -1.0262 H   0  0  0  0  0  0  0  0  0  0  0  0
   -2.0048   -0.0290   -2.1919 H   0  0  0  0  0  0  0  0  0  0  0  0
   -1.0121   -1.2049   -3.0211 H   0  0  0  0  0  0  0  0  0  0  0  0
   -3.6075   -2.6766   -0.8076 H   0  0  0  0  0  0  0  0  0  0  0  0
    1.9136    1.2476   -1.8064 N   0  0  0  0  0  0  0  0  0  0  0  0
    2.7834    2.1436   -2.5320 C   0  0  2  0  0  0  0  0  0  0  0  0
    2.0379    3.4549   -2.7425 C   0  0  0  0  0  0  0  0  0  0  0  0
    0.8120    3.5414   -2.7151 O   0  0  0  0  0  0  0  0  0  0  0  0
    3.2121    1.5426   -3.8616 C   0  0  0  0  0  0  0  0  0  0  0  0
    2.1641    0.9879   -0.8569 H   0  0  0  0  0  0  0  0  0  0  0  0
    3.6586    2.3183   -1.8968 H   0  0  0  0  0  0  0  0  0  0  0  0
    2.3486    1.3605   -4.5117 H   0  0  0  0  0  0  0  0  0  0  0  0
    3.8942    2.2109   -4.3976 H   0  0  0  0  0  0  0  0  0  0  0  0
    3.7219    0.5850   -3.7102 H   0  0  0  0  0  0  0  0  0  0  0  0
    2.9008    4.5091   -3.0074 N   0  0  0  0  0  0  0  0  0  0  0  0
    2.4358    5.8538   -3.2552 C   0  0  0  0  0  0  0  0  0  0  0  0
    3.9039    4.3498   -2.9917 H   0  0  0  0  0  0  0  0  0  0  0  0
    2.3028    6.0029   -4.3369 H   0  0  0  0  0  0  0  0  0  0  0  0
    1.4749    6.0096   -2.7429 H   0  0  0  0  0  0  0  0  0  0  0  0
    3.1754    6.5735   -2.8742 H   0  0  0  0  0  0  0  0  0  0  0  0
  1  3  1  0  0  0  0
  1  7  1  0  0  0  0
  1  2  2  0  0  0  0
 31 32  1  0  0  0  0
 32 40  1  0  0  0  0
 32 33  2  0  0  0  0
  8  9  1  0  0  0  0
  9 17  1  0  0  0  0
  9 10  2  0  0  0  0
 18 19  1  0  0  0  0
 19 30  1  0  0  0  0
 19 20  2  0  0  0  0
 21 22  1  0  0  0  0
 22 23  2  0  0  0  0
 22 24  1  0  0  0  0
 31 34  1  0  0  0  0
  8 11  1  0  0  0  0
 40 41  1  0  0  0  0
 18 21  1  0  0  0  0
 30 31  1  0  0  0  0
  7  8  1  0  0  0  0
 17 18  1  0  0  0  0
  3  4  1  0  0  0  0
  3  5  1  0  0  0  0
  3  6  1  0  0  0  0
 34 37  1  0  0  0  0
 34 38  1  0  0  0  0
 34 39  1  0  0  0  0
 11 14  1  0  0  0  0
 11 15  1  0  0  0  0
 11 16  1  0  0  0  0
 41 43  1  0  0  0  0
 41 44  1  0  0  0  0
 41 45  1  0  0  0  0
 21 27  1  0  0  0  0
 21 28  1  0  0  0  0
 31 36  1  0  0  0  0
  8 13  1  0  0  0  0
 18 26  1  0  0  0  0
 40 42  1  0  0  0  0
  7 12  1  0  0  0  0
 30 35  1  0  0  0  0
 17 25  1  0  0  0  0
 24 29  1  0  0  0  0
M  END
$$$$

  -OEChem-05262214473D

 45 44  0     1  0  0  0  0  0999 V2000
   -2.2987    4.1032   -0.3022 C   0  0  0  0  0  0  0  0  0  0  0  0
   -1.8049    3.7117   -1.3532 O   0  0  0  0  0  0  0  0  0  0  0  0
   -3.0791    5.3755   -0.2846 C   0  0  0  0  0  0  0  0  0  0  0  0
   -2.4478    6.2532   -0.0717 H   0  0  0  0  0  0  0  0  0  0  0  0
   -3.5571    5.5891   -1.2541 H   0  0  0  0  0  0  0  0  0  0  0  0
   -3.8940    5.4184    0.4556 H   0  0  0  0  0  0  0  0  0  0  0  0
   -2.2137    3.4712    0.9275 N   0  0  0  0  0  0  0  0  0  0  0  0
   -1.5102    2.2327    1.1338 C   0  0  2  0  0  0  0  0  0  0  0  0
   -1.3539    1.5497   -0.2184 C   0  0  0  0  0  0  0  0  0  0  0  0
   -2.0852    1.7861   -1.1778 O   0  0  0  0  0  0  0  0  0  0  0  0
   -2.2477    1.3342    2.1145 C   0  0  0  0  0  0  0  0  0  0  0  0
   -2.6724    3.9052    1.7265 H   0  0  0  0  0  0  0  0  0  0  0  0
   -0.5220    2.4922    1.5290 H   0  0  0  0  0  0  0  0  0  0  0  0
   -3.2400    1.0636    1.7358 H   0  0  0  0  0  0  0  0  0  0  0  0
   -1.6970    0.4046    2.2923 H   0  0  0  0  0  0  0  0  0  0  0  0
   -2.3854    1.8384    3.0772 H   0  0  0  0  0  0  0  0  0  0  0  0
   -0.3283    0.6116   -0.2182 N   0  0  0  0  0  0  0  0  0  0  0  0
    0.0090   -0.1762   -1.3759 C   0  0  2  0  0  0  0  0  0  0  0  0
    0.7495    0.7270   -2.3540 C   0  0  0  0  0  0  0  0  0  0  0  0
    0.2216    1.2023   -3.3573 O   0  0  0  0  0  0  0  0  0  0  0  0
   -1.2275   -0.7866   -2.0305 C   0  0  0  0  0  0  0  0  0  0  0  0
   -1.8398   -1.8531   -1.1561 C   0  0  0  0  0  0  0  0  0  0  0  0
   -1.2035   -2.5398   -0.3674 O   0  0  0  0  0  0  0  0  0  0  0  0
   -3.1755   -1.9830   -1.3506 O   0  0  0  0  0  0  0  0  0  0  0  0
    0.2381    0.4970    0.6194 H   0  0  0  0  0  0  0  0  0  0  0  0
    0.6936   -0.9584   -1.0262 H   0  0  0  0  0  0  0  0  0  0  0  0
   -2.0048   -0.0290   -2.1919 H   0  0  0  0  0  0  0  0  0  0  0  0
   -1.0121   -1.2049   -3.0211 H   0  0  0  0  0  0  0  0  0  0  0  0
   -3.6075   -2.6766   -0.8076 H   0  0  0  0  0  0  0  0  0  0  0  0
    2.0532    0.9780   -1.9497 N   0  0  0  0  0  0  0  0  0  0  0  0
    2.9544    1.8190   -2.7024 C   0  0  2  0  0  0  0  0  0  0  0  0
    2.4290    3.2470   -2.6384 C   0  0  0  0  0  0  0  0  0  0  0  0
    1.2541    3.5195   -2.4006 O   0  0  0  0  0  0  0  0  0  0  0  0
    3.0763    1.3487   -4.1435 C   0  0  0  0  0  0  0  0  0  0  0  0
    2.3870    0.5532   -1.0895 H   0  0  0  0  0  0  0  0  0  0  0  0
    3.9283    1.7648   -2.2037 H   0  0  0  0  0  0  0  0  0  0  0  0
    2.1103    1.3959   -4.6594 H   0  0  0  0  0  0  0  0  0  0  0  0
    3.7816    1.9700   -4.7052 H   0  0  0  0  0  0  0  0  0  0  0  0
    3.4258    0.3116   -4.1868 H   0  0  0  0  0  0  0  0  0  0  0  0
    3.4172    4.1798   -2.9206 N   0  0  0  0  0  0  0  0  0  0  0  0
    3.1655    5.6019   -2.9354 C   0  0  0  0  0  0  0  0  0  0  0  0
    4.3683    3.8650   -3.0878 H   0  0  0  0  0  0  0  0  0  0  0  0
    2.9078    5.9186   -3.9568 H   0  0  0  0  0  0  0  0  0  0  0  0
    2.3302    5.8334   -2.2581 H   0  0  0  0  0  0  0  0  0  0  0  0
    4.0669    6.1372   -2.6022 H   0  0  0  0  0  0  0  0  0  0  0  0
  1  3  1  0  0  0  0
  1  7  1  0  0  0  0
  1  2  2  0  0  0  0
 31 32  1  0  0  0  0
 32 40  1  0  0  0  0
 32 33  2  0  0  0  0
  8  9  1  0  0  0  0
  9 17  1  0  0  0  0
  9 10  2  0  0  0  0
 18 19  1  0  0  0  0
 19 30  1  0  0  0  0
 19 20  2  0  0  0  0
 21 22  1  0  0  0  0
 22 23  2  0  0  0  0
 22 24  1  0  0  0  0
 31 34  1  0  0  0  0
  8 11  1  0  0  0  0
 40 41  1  0  0  0  0
 18 21  1  0  0  0  0
 30 31  1  0  0  0  0
  7  8  1  0  0  0  0
 17 18  1  0  0  0  0
  3  4  1  0  0  0  0
  3  5  1  0  0  0  0
  3  6  1  0  0  0  0
 34 37  1  0  0  0  0
 34 38  1  0  0  0  0
 34 39  1  0  0  0  0
 11 14  1  0  0  0  0
 11 15  1  0  0  0  0
 11 16  1  0  0  0  0
 41 43  1  0  0  0  0
 41 44  1  0  0  0  0
 41 45  1  0  0  0  0
 21 27  1  0  0  0  0
 21 28  1  0  0  0  0
 31 36  1  0  0  0  0
  8 13  1  0  0  0  0
 18 26  1  0  0  0  0
 40 42  1  0  0  0  0
  7 12  1  0  0  0  0
 30 35  1  0  0  0  0
 17 25  1  0  0  0  0
 24 29  1  0  0  0  0
M  END
$$$$

  -OEChem-05262214473D

 45 44  0     1  0  0  0  0  0999 V2000
   -2.2987    4.1032   -0.3022 C   0  0  0  0  0  0  0  0  0  0  0  0
   -1.8049    3.7117   -1.3532 O   0  0  0  0  0  0  0  0  0  0  0  0
   -3.0791    5.3755   -0.2846 C   0  0  0  0  0  0  0  0  0  0  0  0
   -2.4478    6.2532   -0.0717 H   0  0  0  0  0  0  0  0  0  0  0  0
   -3.5571    5.5891   -1.2541 H   0  0  0  0  0  0  0  0  0  0  0  0
   -3.8940    5.4184    0.4556 H   0  0  0  0  0  0  0  0  0  0  0  0
   -2.2137    3.4712    0.9275 N   0  0  0  0  0  0  0  0  0  0  0  0
   -1.5102    2.2327    1.1338 C   0  0  2  0  0  0  0  0  0  0  0  0
   -1.3539    1.5497   -0.2184 C   0  0  0  0  0  0  0  0  0  0  0  0
   -2.0852    1.7861   -1.1778 O   0  0  0  0  0  0  0  0  0  0  0  0
   -2.2477    1.3342    2.1145 C   0  0  0  0  0  0  0  0  0  0  0  0
   -2.6724    3.9052    1.7265 H   0  0  0  0  0  0  0  0  0  0  0  0
   -0.5220    2.4922    1.5290 H   0  0  0  0  0  0  0  0  0  0  0  0
   -3.2400    1.0636    1.7358 H   0  0  0  0  0  0  0  0  0  0  0  0
   -1.6970    0.4046    2.2923 H   0  0  0  0  0  0  0  0  0  0  0  0
   -2.3854    1.8384    3.0772 H   0  0  0  0  0  0  0  0  0  0  0  0
   -0.3283    0.6116   -0.2182 N   0  0  0  0  0  0  0  0  0  0  0  0
    0.0090   -0.1762   -1.3759 C   0  0  2  0  0  0  0  0  0  0  0  0
    0.7495    0.7270   -2.3540 C   0  0  0  0  0  0  0  0  0  0  0  0
    0.1757    1.4136   -3.1970 O   0  0  0  0  0  0  0  0  0  0  0  0
   -1.2275   -0.7866   -2.0305 C   0  0  0  0  0  0  0  0  0  0  0  0
   -1.8398   -1.8531   -1.1561 C   0  0  0  0  0  0  0  0  0  0  0  0
   -1.2035   -2.5398   -0.3674 O   0  0  0  0  0  0  0  0  0  0  0  0
   -3.1755   -1.9830   -1.3506 O   0  0  0  0  0  0  0  0  0  0  0  0
    0.2381    0.4970    0.6194 H   0  0  0  0  0  0  0  0  0  0  0  0
    0.6936   -0.9584   -1.0262 H   0  0  0  0  0  0  0  0  0  0  0  0
   -2.0048   -0.0290   -2.1919 H   0  0  0  0  0  0  0  0  0  0  0  0
   -1.0121   -1.2049   -3.0211 H   0  0  0  0  0  0  0  0  0  0  0  0
   -3.6075   -2.6766   -0.8076 H   0  0  0  0  0  0  0  0  0  0  0  0
    2.1212    0.7125   -2.1433 N   0  0  0  0  0  0  0  0  0  0  0  0
    3.0394    1.4984   -2.9340 C   0  0  2  0  0  0  0  0  0  0  0  0
    2.7882    2.9682   -2.6239 C   0  0  0  0  0  0  0  0  0  0  0  0
    1.7258    3.3854   -2.1674 O   0  0  0  0  0  0  0  0  0  0  0  0
    2.8696    1.2195   -4.4193 C   0  0  0  0  0  0  0  0  0  0  0  0
    2.4944    0.1255   -1.4032 H   0  0  0  0  0  0  0  0  0  0  0  0
    4.0496    1.2240   -2.6113 H   0  0  0  0  0  0  0  0  0  0  0  0
    1.8633    1.4883   -4.7610 H   0  0  0  0  0  0  0  0  0  0  0  0
    3.5857    1.7947   -5.0154 H   0  0  0  0  0  0  0  0  0  0  0  0
    3.0213    0.1566   -4.6361 H   0  0  0  0  0  0  0  0  0  0  0  0
    3.8745    3.7650   -2.9574 N   0  0  0  0  0  0  0  0  0  0  0  0
    3.8776    5.1971   -2.7702 C   0  0  0  0  0  0  0  0  0  0  0  0
    4.7216    3.3317   -3.3129 H   0  0  0  0  0  0  0  0  0  0  0  0
    3.5364    5.6888   -3.6931 H   0  0  0  0  0  0  0  0  0  0  0  0
    3.2015    5.4601   -1.9433 H   0  0  0  0  0  0  0  0  0  0  0  0
    4.8973    5.5334   -2.5312 H   0  0  0  0  0  0  0  0  0  0  0  0
  1  3  1  0  0  0  0
  1  7  1  0  0  0  0
  1  2  2  0  0  0  0
 31 32  1  0  0  0  0
 32 40  1  0  0  0  0
 32 33  2  0  0  0  0
  8  9  1  0  0  0  0
  9 17  1  0  0  0  0
  9 10  2  0  0  0  0
 18 19  1  0  0  0  0
 19 30  1  0  0  0  0
 19 20  2  0  0  0  0
 21 22  1  0  0  0  0
 22 23  2  0  0  0  0
 22 24  1  0  0  0  0
 31 34  1  0  0  0  0
  8 11  1  0  0  0  0
 40 41  1  0  0  0  0
 18 21  1  0  0  0  0
 30 31  1  0  0  0  0
  7  8  1  0  0  0  0
 17 18  1  0  0  0  0
  3  4  1  0  0  0  0
  3  5  1  0  0  0  0
  3  6  1  0  0  0  0
 34 37  1  0  0  0  0
 34 38  1  0  0  0  0
 34 39  1  0  0  0  0
 11 14  1  0  0  0  0
 11 15  1  0  0  0  0
 11 16  1  0  0  0  0
 41 43  1  0  0  0  0
 41 44  1  0  0  0  0
 41 45  1  0  0  0  0
 21 27  1  0  0  0  0
 21 28  1  0  0  0  0
 31 36  1  0  0  0  0
  8 13  1  0  0  0  0
 18 26  1  0  0  0  0
 40 42  1  0  0  0  0
  7 12  1  0  0  0  0
 30 35  1  0  0  0  0
 17 25  1  0  0  0  0
 24 29  1  0  0  0  0
M  END
$$$$

  -OEChem-05262214473D

 45 44  0     1  0  0  0  0  0999 V2000
   -2.2987    4.1032   -0.3022 C   0  0  0  0  0  0  0  0  0  0  0  0
   -1.8049    3.7117   -1.3532 O   0  0  0  0  0  0  0  0  0  0  0  0
   -3.0791    5.3755   -0.2846 C   0  0  0  0  0  0  0  0  0  0  0  0
   -2.4478    6.2532   -0.0717 H   0  0  0  0  0  0  0  0  0  0  0  0
   -3.5571    5.5891   -1.2541 H   0  0  0  0  0  0  0  0  0  0  0  0
   -3.8940    5.4184    0.4556 H   0  0  0  0  0  0  0  0  0  0  0  0
   -2.2137    3.4712    0.9275 N   0  0  0  0  0  0  0  0  0  0  0  0
   -1.5102    2.2327    1.1338 C   0  0  2  0  0  0  0  0  0  0  0  0
   -1.3539    1.5497   -0.2184 C   0  0  0  0  0  0  0  0  0  0  0  0
   -2.0852    1.7861   -1.1778 O   0  0  0  0  0  0  0  0  0  0  0  0
   -2.2477    1.3342    2.1145 C   0  0  0  0  0  0  0  0  0  0  0  0
   -2.6724    3.9052    1.7265 H   0  0  0  0  0  0  0  0  0  0  0  0
   -0.5220    2.4922    1.5290 H   0  0  0  0  0  0  0  0  0  0  0  0
   -3.2400    1.0636    1.7358 H   0  0  0  0  0  0  0  0  0  0  0  0
   -1.6970    0.4046    2.2923 H   0  0  0  0  0  0  0  0  0  0  0  0
   -2.3854    1.8384    3.0772 H   0  0  0  0  0  0  0  0  0  0  0  0
   -0.3283    0.6116   -0.2182 N   0  0  0  0  0  0  0  0  0  0  0  0
    0.0090   -0.1762   -1.3759 C   0  0  2  0  0  0  0  0  0  0  0  0
    0.7495    0.7270   -2.3540 C   0  0  0  0  0  0  0  0  0  0  0  0
    0.1910    1.6051   -3.0085 O   0  0  0  0  0  0  0  0  0  0  0  0
   -1.2275   -0.7866   -2.0305 C   0  0  0  0  0  0  0  0  0  0  0  0
   -1.8398   -1.8531   -1.1561 C   0  0  0  0  0  0  0  0  0  0  0  0
   -1.2035   -2.5398   -0.3674 O   0  0  0  0  0  0  0  0  0  0  0  0
   -3.1755   -1.9830   -1.3506 O   0  0  0  0  0  0  0  0  0  0  0  0
    0.2381    0.4970    0.6194 H   0  0  0  0  0  0  0  0  0  0  0  0
    0.6936   -0.9584   -1.0262 H   0  0  0  0  0  0  0  0  0  0  0  0
   -2.0048   -0.0290   -2.1919 H   0  0  0  0  0  0  0  0  0  0  0  0
   -1.0121   -1.2049   -3.0211 H   0  0  0  0  0  0  0  0  0  0  0  0
   -3.6075   -2.6766   -0.8076 H   0  0  0  0  0  0  0  0  0  0  0  0
    2.1130    0.4692   -2.3743 N   0  0  0  0  0  0  0  0  0  0  0  0
    3.0328    1.2038   -3.2111 C   0  0  2  0  0  0  0  0  0  0  0  0
    3.0910    2.6374   -2.7002 C   0  0  0  0  0  0  0  0  0  0  0  0
    2.1949    3.1481   -2.0314 O   0  0  0  0  0  0  0  0  0  0  0  0
    2.6061    1.1637   -4.6702 C   0  0  0  0  0  0  0  0  0  0  0  0
    2.4789   -0.2660   -1.7764 H   0  0  0  0  0  0  0  0  0  0  0  0
    4.0145    0.7327   -3.0915 H   0  0  0  0  0  0  0  0  0  0  0  0
    1.6246    1.6313   -4.8097 H   0  0  0  0  0  0  0  0  0  0  0  0
    3.3197    1.6970   -5.3071 H   0  0  0  0  0  0  0  0  0  0  0  0
    2.5359    0.1307   -5.0275 H   0  0  0  0  0  0  0  0  0  0  0  0
    4.2417    3.2930   -3.1153 N   0  0  0  0  0  0  0  0  0  0  0  0
    4.5234    4.6670   -2.7708 C   0  0  0  0  0  0  0  0  0  0  0  0
    4.9397    2.7861   -3.6516 H   0  0  0  0  0  0  0  0  0  0  0  0
    4.1459    5.3293   -3.5638 H   0  0  0  0  0  0  0  0  0  0  0  0
    4.0294    4.9152   -1.8198 H   0  0  0  0  0  0  0  0  0  0  0  0
    5.6099    4.8032   -2.6660 H   0  0  0  0  0  0  0  0  0  0  0  0
  1  3  1  0  0  0  0
  1  7  1  0  0  0  0
  1  2  2  0  0  0  0
 31 32  1  0  0  0  0
 32 40  1  0  0  0  0
 32 33  2  0  0  0  0
  8  9  1  0  0  0  0
  9 17  1  0  0  0  0
  9 10  2  0  0  0  0
 18 19  1  0  0  0  0
 19 30  1  0  0  0  0
 19 20  2  0  0  0  0
 21 22  1  0  0  0  0
 22 23  2  0  0  0  0
 22 24  1  0  0  0  0
 31 34  1  0  0  0  0
  8 11  1  0  0  0  0
 40 41  1  0  0  0  0
 18 21  1  0  0  0  0
 30 31  1  0  0  0  0
  7  8  1  0  0  0  0
 17 18  1  0  0  0  0
  3  4  1  0  0  0  0
  3  5  1  0  0  0  0
  3  6  1  0  0  0  0
 34 37  1  0  0  0  0
 34 38  1  0  0  0  0
 34 39  1  0  0  0  0
 11 14  1  0  0  0  0
 11 15  1  0  0  0  0
 11 16  1  0  0  0  0
 41 43  1  0  0  0  0
 41 44  1  0  0  0  0
 41 45  1  0  0  0  0
 21 27  1  0  0  0  0
 21 28  1  0  0  0  0
 31 36  1  0  0  0  0
  8 13  1  0  0  0  0
 18 26  1  0  0  0  0
 40 42  1  0  0  0  0
  7 12  1  0  0  0  0
 30 35  1  0  0  0  0
 17 25  1  0  0  0  0
 24 29  1  0  0  0  0
M  END
$$$$

  -OEChem-05262214473D

 45 44  0     1  0  0  0  0  0999 V2000
   -2.2987    4.1032   -0.3022 C   0  0  0  0  0  0  0  0  0  0  0  0
   -1.8049    3.7117   -1.3532 O   0  0  0  0  0  0  0  0  0  0  0  0
   -3.0791    5.3755   -0.2846 C   0  0  0  0  0  0  0  0  0  0  0  0
   -2.4478    6.2532   -0.0717 H   0  0  0  0  0  0  0  0  0  0  0  0
   -3.5571    5.5891   -1.2541 H   0  0  0  0  0  0  0  0  0  0  0  0
   -3.8940    5.4184    0.4556 H   0  0  0  0  0  0  0  0  0  0  0  0
   -2.2137    3.4712    0.9275 N   0  0  0  0  0  0  0  0  0  0  0  0
   -1.5102    2.2327    1.1338 C   0  0  2  0  0  0  0  0  0  0  0  0
   -1.3539    1.5497   -0.2184 C   0  0  0  0  0  0  0  0  0  0  0  0
   -2.0852    1.7861   -1.1778 O   0  0  0  0  0  0  0  0  0  0  0  0
   -2.2477    1.3342    2.1145 C   0  0  0  0  0  0  0  0  0  0  0  0
   -2.6724    3.9052    1.7265 H   0  0  0  0  0  0  0  0  0  0  0  0
   -0.5220    2.4922    1.5290 H   0  0  0  0  0  0  0  0  0  0  0  0
   -3.2400    1.0636    1.7358 H   0  0  0  0  0  0  0  0  0  0  0  0
   -1.6970    0.4046    2.2923 H   0  0  0  0  0  0  0  0  0  0  0  0
   -2.3854    1.8384    3.0772 H   0  0  0  0  0  0  0  0  0  0  0  0
   -0.3283    0.6116   -0.2182 N   0  0  0  0  0  0  0  0  0  0  0  0
    0.0090   -0.1762   -1.3759 C   0  0  2  0  0  0  0  0  0  0  0  0
    0.7495    0.7270   -2.3540 C   0  0  0  0  0  0  0  0  0  0  0  0
    0.2666    1.7638   -2.8047 O   0  0  0  0  0  0  0  0  0  0  0  0
   -1.2275   -0.7866   -2.0305 C   0  0  0  0  0  0  0  0  0  0  0  0
   -1.8398   -1.8531   -1.1561 C   0  0  0  0  0  0  0  0  0  0  0  0
   -1.2035   -2.5398   -0.3674 O   0  0  0  0  0  0  0  0  0  0  0  0
   -3.1755   -1.9830   -1.3506 O   0  0  0  0  0  0  0  0  0  0  0  0
    0.2381    0.4970    0.6194 H   0  0  0  0  0  0  0  0  0  0  0  0
    0.6936   -0.9584   -1.0262 H   0  0  0  0  0  0  0  0  0  0  0  0
   -2.0048   -0.0290   -2.1919 H   0  0  0  0  0  0  0  0  0  0  0  0
   -1.0121   -1.2049   -3.0211 H   0  0  0  0  0  0  0  0  0  0  0  0
   -3.6075   -2.6766   -0.8076 H   0  0  0  0  0  0  0  0  0  0  0  0
    2.0293    0.2645   -2.6267 N   0  0  0  0  0  0  0  0  0  0  0  0
    2.9349    0.9552   -3.5148 C   0  0  2  0  0  0  0  0  0  0  0  0
    3.3169    2.2771   -2.8619 C   0  0  0  0  0  0  0  0  0  0  0  0
    2.6295    2.8238   -2.0019 O   0  0  0  0  0  0  0  0  0  0  0  0
    2.3039    1.1852   -4.8792 C   0  0  0  0  0  0  0  0  0  0  0  0
    2.3416   -0.5946   -2.1838 H   0  0  0  0  0  0  0  0  0  0  0  0
    3.8252    0.3244   -3.6119 H   0  0  0  0  0  0  0  0  0  0  0  0
    1.4102    1.8153   -4.8021 H   0  0  0  0  0  0  0  0  0  0  0  0
    3.0017    1.6834   -5.5602 H   0  0  0  0  0  0  0  0  0  0  0  0
    2.0026    0.2355   -5.3344 H   0  0  0  0  0  0  0  0  0  0  0  0
    4.4937    2.7959   -3.3836 N   0  0  0  0  0  0  0  0  0  0  0  0
    5.0591    4.0477   -2.9372 C   0  0  0  0  0  0  0  0  0  0  0  0
    5.0078    2.2655   -4.0808 H   0  0  0  0  0  0  0  0  0  0  0  0
    4.6947    4.8644   -3.5776 H   0  0  0  0  0  0  0  0  0  0  0  0
    4.7574    4.2357   -1.8962 H   0  0  0  0  0  0  0  0  0  0  0  0
    6.1563    3.9965   -2.9973 H   0  0  0  0  0  0  0  0  0  0  0  0
  1  3  1  0  0  0  0
  1  7  1  0  0  0  0
  1  2  2  0  0  0  0
 31 32  1  0  0  0  0
 32 40  1  0  0  0  0
 32 33  2  0  0  0  0
  8  9  1  0  0  0  0
  9 17  1  0  0  0  0
  9 10  2  0  0  0  0
 18 19  1  0  0  0  0
 19 30  1  0  0  0  0
 19 20  2  0  0  0  0
 21 22  1  0  0  0  0
 22 23  2  0  0  0  0
 22 24  1  0  0  0  0
 31 34  1  0  0  0  0
  8 11  1  0  0  0  0
 40 41  1  0  0  0  0
 18 21  1  0  0  0  0
 30 31  1  0  0  0  0
  7  8  1  0  0  0  0
 17 18  1  0  0  0  0
  3  4  1  0  0  0  0
  3  5  1  0  0  0  0
  3  6  1  0  0  0  0
 34 37  1  0  0  0  0
 34 38  1  0  0  0  0
 34 39  1  0  0  0  0
 11 14  1  0  0  0  0
 11 15  1  0  0  0  0
 11 16  1  0  0  0  0
 41 43  1  0  0  0  0
 41 44  1  0  0  0  0
 41 45  1  0  0  0  0
 21 27  1  0  0  0  0
 21 28  1  0  0  0  0
 31 36  1  0  0  0  0
  8 13  1  0  0  0  0
 18 26  1  0  0  0  0
 40 42  1  0  0  0  0
  7 12  1  0  0  0  0
 30 35  1  0  0  0  0
 17 25  1  0  0  0  0
 24 29  1  0  0  0  0
M  END
$$$$

  -OEChem-05262214473D

 45 44  0     1  0  0  0  0  0999 V2000
   -2.2987    4.1032   -0.3022 C   0  0  0  0  0  0  0  0  0  0  0  0
   -1.8049    3.7117   -1.3532 O   0  0  0  0  0  0  0  0  0  0  0  0
   -3.0791    5.3755   -0.2846 C   0  0  0  0  0  0  0  0  0  0  0  0
   -2.4478    6.2532   -0.0717 H   0  0  0  0  0  0  0  0  0  0  0  0
   -3.5571    5.5891   -1.2541 H   0  0  0  0  0  0  0  0  0  0  0  0
   -3.8940    5.4184    0.4556 H   0  0  0  0  0  0  0  0  0  0  0  0
   -2.2137    3.4712    0.9275 N   0  0  0  0  0  0  0  0  0  0  0  0
   -1.5102    2.2327    1.1338 C   0  0  2  0  0  0  0  0  0  0  0  0
   -1.3539    1.5497   -0.2184 C   0  0  0  0  0  0  0  0  0  0  0  0
   -2.0852    1.7861   -1.1778 O   0  0  0  0  0  0  0  0  0  0  0  0
   -2.2477    1.3342    2.1145 C   0  0  0  0  0  0  0  0  0  0  0  0
   -2.6724    3.9052    1.7265 H   0  0  0  0  0  0  0  0  0  0  0  0
   -0.5220    2.4922    1.5290 H   0  0  0  0  0  0  0  0  0  0  0  0
   -3.2400    1.0636    1.7358 H   0  0  0  0  0  0  0  0  0  0  0  0
   -1.6970    0.4046    2.2923 H   0  0  0  0  0  0  0  0  0  0  0  0
   -2.3854    1.8384    3.0772 H   0  0  0  0  0  0  0  0  0  0  0  0
   -0.3283    0.6116   -0.2182 N   0  0  0  0  0  0  0  0  0  0  0  0
    0.0090   -0.1762   -1.3759 C   0  0  2  0  0  0  0  0  0  0  0  0
    0.7495    0.7270   -2.3540 C   0  0  0  0  0  0  0  0  0  0  0  0
    0.3973    1.8789   -2.5994 O   0  0  0  0  0  0  0  0  0  0  0  0
   -1.2275   -0.7866   -2.0305 C   0  0  0  0  0  0  0  0  0  0  0  0
   -1.8398   -1.8531   -1.1561 C   0  0  0  0  0  0  0  0  0  0  0  0
   -1.2035   -2.5398   -0.3674 O   0  0  0  0  0  0  0  0  0  0  0  0
   -3.1755   -1.9830   -1.3506 O   0  0  0  0  0  0  0  0  0  0  0  0
    0.2381    0.4970    0.6194 H   0  0  0  0  0  0  0  0  0  0  0  0
    0.6936   -0.9584   -1.0262 H   0  0  0  0  0  0  0  0  0  0  0  0
   -2.0048   -0.0290   -2.1919 H   0  0  0  0  0  0  0  0  0  0  0  0
   -1.0121   -1.2049   -3.0211 H   0  0  0  0  0  0  0  0  0  0  0  0
   -3.6075   -2.6766   -0.8076 H   0  0  0  0  0  0  0  0  0  0  0  0
    1.8756    0.1124   -2.8834 N   0  0  0  0  0  0  0  0  0  0  0  0
    2.7524    0.7695   -3.8244 C   0  0  2  0  0  0  0  0  0  0  0  0
    3.4503    1.9119   -3.0981 C   0  0  0  0  0  0  0  0  0  0  0  0
    2.9999    2.4346   -2.0808 O   0  0  0  0  0  0  0  0  0  0  0  0
    1.9834    1.2825   -5.0320 C   0  0  0  0  0  0  0  0  0  0  0  0
    2.0919   -0.8380   -2.5975 H   0  0  0  0  0  0  0  0  0  0  0  0
    3.4946    0.0269   -4.1368 H   0  0  0  0  0  0  0  0  0  0  0  0
    1.2349    2.0276   -4.7387 H   0  0  0  0  0  0  0  0  0  0  0  0
    2.6535    1.7551   -5.7576 H   0  0  0  0  0  0  0  0  0  0  0  0
    1.4579    0.4640   -5.5358 H   0  0  0  0  0  0  0  0  0  0  0  0
    4.6133    2.3076   -3.7439 N   0  0  0  0  0  0  0  0  0  0  0  0
    5.4481    3.3814   -3.2580 C   0  0  0  0  0  0  0  0  0  0  0  0
    4.9211    1.8053   -4.5714 H   0  0  0  0  0  0  0  0  0  0  0  0
    5.1454    4.3259   -3.7336 H   0  0  0  0  0  0  0  0  0  0  0  0
    5.3360    3.4679   -2.1671 H   0  0  0  0  0  0  0  0  0  0  0  0
    6.4991    3.1681   -3.5028 H   0  0  0  0  0  0  0  0  0  0  0  0
  1  3  1  0  0  0  0
  1  7  1  0  0  0  0
  1  2  2  0  0  0  0
 31 32  1  0  0  0  0
 32 40  1  0  0  0  0
 32 33  2  0  0  0  0
  8  9  1  0  0  0  0
  9 17  1  0  0  0  0
  9 10  2  0  0  0  0
 18 19  1  0  0  0  0
 19 30  1  0  0  0  0
 19 20  2  0  0  0  0
 21 22  1  0  0  0  0
 22 23  2  0  0  0  0
 22 24  1  0  0  0  0
 31 34  1  0  0  0  0
  8 11  1  0  0  0  0
 40 41  1  0  0  0  0
 18 21  1  0  0  0  0
 30 31  1  0  0  0  0
  7  8  1  0  0  0  0
 17 18  1  0  0  0  0
  3  4  1  0  0  0  0
  3  5  1  0  0  0  0
  3  6  1  0  0  0  0
 34 37  1  0  0  0  0
 34 38  1  0  0  0  0
 34 39  1  0  0  0  0
 11 14  1  0  0  0  0
 11 15  1  0  0  0  0
 11 16  1  0  0  0  0
 41 43  1  0  0  0  0
 41 44  1  0  0  0  0
 41 45  1  0  0  0  0
 21 27  1  0  0  0  0
 21 28  1  0  0  0  0
 31 36  1  0  0  0  0
  8 13  1  0  0  0  0
 18 26  1  0  0  0  0
 40 42  1  0  0  0  0
  7 12  1  0  0  0  0
 30 35  1  0  0  0  0
 17 25  1  0  0  0  0
 24 29  1  0  0  0  0
M  END
$$$$

  -OEChem-05262214473D

 45 44  0     1  0  0  0  0  0999 V2000
   -2.2987    4.1032   -0.3022 C   0  0  0  0  0  0  0  0  0  0  0  0
   -1.8049    3.7117   -1.3532 O   0  0  0  0  0  0  0  0  0  0  0  0
   -3.0791    5.3755   -0.2846 C   0  0  0  0  0  0  0  0  0  0  0  0
   -2.4478    6.2532   -0.0717 H   0  0  0  0  0  0  0  0  0  0  0  0
   -3.5571    5.5891   -1.2541 H   0  0  0  0  0  0  0  0  0  0  0  0
   -3.8940    5.4184    0.4556 H   0  0  0  0  0  0  0  0  0  0  0  0
   -2.2137    3.4712    0.9275 N   0  0  0  0  0  0  0  0  0  0  0  0
   -1.5102    2.2327    1.1338 C   0  0  2  0  0  0  0  0  0  0  0  0
   -1.3539    1.5497   -0.2184 C   0  0  0  0  0  0  0  0  0  0  0  0
   -2.0852    1.7861   -1.1778 O   0  0  0  0  0  0  0  0  0  0  0  0
   -2.2477    1.3342    2.1145 C   0  0  0  0  0  0  0  0  0  0  0  0
   -2.6724    3.9052    1.7265 H   0  0  0  0  0  0  0  0  0  0  0  0
   -0.5220    2.4922    1.5290 H   0  0  0  0  0  0  0  0  0  0  0  0
   -3.2400    1.0636    1.7358 H   0  0  0  0  0  0  0  0  0  0  0  0
   -1.6970    0.4046    2.2923 H   0  0  0  0  0  0  0  0  0  0  0  0
   -2.3854    1.8384    3.0772 H   0  0  0  0  0  0  0  0  0  0  0  0
   -0.3283    0.6116   -0.2182 N   0  0  0  0  0  0  0  0  0  0  0  0
    0.0090   -0.1762   -1.3759 C   0  0  2  0  0  0  0  0  0  0  0  0
    0.7495    0.7270   -2.3540 C   0  0  0  0  0  0  0  0  0  0  0  0
    0.5742    1.9426   -2.4068 O   0  0  0  0  0  0  0  0  0  0  0  0
   -1.2275   -0.7866   -2.0305 C   0  0  0  0  0  0  0  0  0  0  0  0
   -1.8398   -1.8531   -1.1561 C   0  0  0  0  0  0  0  0  0  0  0  0
   -1.2035   -2.5398   -0.3674 O   0  0  0  0  0  0  0  0  0  0  0  0
   -3.1755   -1.9830   -1.3506 O   0  0  0  0  0  0  0  0  0  0  0  0
    0.2381    0.4970    0.6194 H   0  0  0  0  0  0  0  0  0  0  0  0
    0.6936   -0.9584   -1.0262 H   0  0  0  0  0  0  0  0  0  0  0  0
   -2.0048   -0.0290   -2.1919 H   0  0  0  0  0  0  0  0  0  0  0  0
   -1.0121   -1.2049   -3.0211 H   0  0  0  0  0  0  0  0  0  0  0  0
   -3.6075   -2.6766   -0.8076 H   0  0  0  0  0  0  0  0  0  0  0  0
    1.6625    0.0234   -3.1269 N   0  0  0  0  0  0  0  0  0  0  0  0
    2.4977    0.6595   -4.1188 C   0  0  2  0  0  0  0  0  0  0  0  0
    3.4823    1.5667   -3.3927 C   0  0  0  0  0  0  0  0  0  0  0  0
    3.2809    2.0071   -2.2629 O   0  0  0  0  0  0  0  0  0  0  0  0
    1.6666    1.4489   -5.1182 C   0  0  0  0  0  0  0  0  0  0  0  0
    1.7468   -0.9795   -2.9895 H   0  0  0  0  0  0  0  0  0  0  0  0
    3.0454   -0.1394   -4.6305 H   0  0  0  0  0  0  0  0  0  0  0  0
    1.1106    2.2539   -4.6238 H   0  0  0  0  0  0  0  0  0  0  0  0
    2.2988    1.9069   -5.8859 H   0  0  0  0  0  0  0  0  0  0  0  0
    0.9387    0.8006   -5.6179 H   0  0  0  0  0  0  0  0  0  0  0  0
    4.5924    1.8614   -4.1717 N   0  0  0  0  0  0  0  0  0  0  0  0
    5.6639    2.7135   -3.7114 C   0  0  0  0  0  0  0  0  0  0  0  0
    4.6856    1.4369   -5.0898 H   0  0  0  0  0  0  0  0  0  0  0  0
    5.4674    3.7505   -4.0213 H   0  0  0  0  0  0  0  0  0  0  0  0
    5.7257    2.6643   -2.6142 H   0  0  0  0  0  0  0  0  0  0  0  0
    6.6150    2.3746   -4.1478 H   0  0  0  0  0  0  0  0  0  0  0  0
  1  3  1  0  0  0  0
  1  7  1  0  0  0  0
  1  2  2  0  0  0  0
 31 32  1  0  0  0  0
 32 40  1  0  0  0  0
 32 33  2  0  0  0  0
  8  9  1  0  0  0  0
  9 17  1  0  0  0  0
  9 10  2  0  0  0  0
 18 19  1  0  0  0  0
 19 30  1  0  0  0  0
 19 20  2  0  0  0  0
 21 22  1  0  0  0  0
 22 23  2  0  0  0  0
 22 24  1  0  0  0  0
 31 34  1  0  0  0  0
  8 11  1  0  0  0  0
 40 41  1  0  0  0  0
 18 21  1  0  0  0  0
 30 31  1  0  0  0  0
  7  8  1  0  0  0  0
 17 18  1  0  0  0  0
  3  4  1  0  0  0  0
  3  5  1  0  0  0  0
  3  6  1  0  0  0  0
 34 37  1  0  0  0  0
 34 38  1  0  0  0  0
 34 39  1  0  0  0  0
 11 14  1  0  0  0  0
 11 15  1  0  0  0  0
 11 16  1  0  0  0  0
 41 43  1  0  0  0  0
 41 44  1  0  0  0  0
 41 45  1  0  0  0  0
 21 27  1  0  0  0  0
 21 28  1  0  0  0  0
 31 36  1  0  0  0  0
  8 13  1  0  0  0  0
 18 26  1  0  0  0  0
 40 42  1  0  0  0  0
  7 12  1  0  0  0  0
 30 35  1  0  0  0  0
 17 25  1  0  0  0  0
 24 29  1  0  0  0  0
M  END
$$$$

  -OEChem-05262214473D

 45 44  0     1  0  0  0  0  0999 V2000
   -2.2987    4.1032   -0.3022 C   0  0  0  0  0  0  0  0  0  0  0  0
   -1.8049    3.7117   -1.3532 O   0  0  0  0  0  0  0  0  0  0  0  0
   -3.0791    5.3755   -0.2846 C   0  0  0  0  0  0  0  0  0  0  0  0
   -2.4478    6.2532   -0.0717 H   0  0  0  0  0  0  0  0  0  0  0  0
   -3.5571    5.5891   -1.2541 H   0  0  0  0  0  0  0  0  0  0  0  0
   -3.8940    5.4184    0.4556 H   0  0  0  0  0  0  0  0  0  0  0  0
   -2.2137    3.4712    0.9275 N   0  0  0  0  0  0  0  0  0  0  0  0
   -1.5102    2.2327    1.1338 C   0  0  2  0  0  0  0  0  0  0  0  0
   -1.3539    1.5497   -0.2184 C   0  0  0  0  0  0  0  0  0  0  0  0
   -2.0852    1.7861   -1.1778 O   0  0  0  0  0  0  0  0  0  0  0  0
   -2.2477    1.3342    2.1145 C   0  0  0  0  0  0  0  0  0  0  0  0
   -2.6724    3.9052    1.7265 H   0  0  0  0  0  0  0  0  0  0  0  0
   -0.5220    2.4922    1.5290 H   0  0  0  0  0  0  0  0  0  0  0  0
   -3.2400    1.0636    1.7358 H   0  0  0  0  0  0  0  0  0  0  0  0
   -1.6970    0.4046    2.2923 H   0  0  0  0  0  0  0  0  0  0  0  0
   -2.3854    1.8384    3.0772 H   0  0  0  0  0  0  0  0  0  0  0  0
   -0.3283    0.6116   -0.2182 N   0  0  0  0  0  0  0  0  0  0  0  0
    0.0090   -0.1762   -1.3759 C   0  0  2  0  0  0  0  0  0  0  0  0
    0.7495    0.7270   -2.3540 C   0  0  0  0  0  0  0  0  0  0  0  0
    0.7851    1.9505   -2.2398 O   0  0  0  0  0  0  0  0  0  0  0  0
   -1.2275   -0.7866   -2.0305 C   0  0  0  0  0  0  0  0  0  0  0  0
   -1.8398   -1.8531   -1.1561 C   0  0  0  0  0  0  0  0  0  0  0  0
   -1.2035   -2.5398   -0.3674 O   0  0  0  0  0  0  0  0  0  0  0  0
   -3.1755   -1.9830   -1.3506 O   0  0  0  0  0  0  0  0  0  0  0  0
    0.2381    0.4970    0.6194 H   0  0  0  0  0  0  0  0  0  0  0  0
    0.6936   -0.9584   -1.0262 H   0  0  0  0  0  0  0  0  0  0  0  0
   -2.0048   -0.0290   -2.1919 H   0  0  0  0  0  0  0  0  0  0  0  0
   -1.0121   -1.2049   -3.0211 H   0  0  0  0  0  0  0  0  0  0  0  0
   -3.6075   -2.6766   -0.8076 H   0  0  0  0  0  0  0  0  0  0  0  0
    1.4045    0.0034   -3.3407 N   0  0  0  0  0  0  0  0  0  0  0  0
    2.1883    0.6325   -4.3779 C   0  0  2  0  0  0  0  0  0  0  0  0
    3.4106    1.2649   -3.7256 C   0  0  0  0  0  0  0  0  0  0  0  0
    3.4533    1.5704   -2.5357 O   0  0  0  0  0  0  0  0  0  0  0  0
    1.3750    1.6731   -5.1318 C   0  0  0  0  0  0  0  0  0  0  0  0
    1.3297   -1.0096   -3.3330 H   0  0  0  0  0  0  0  0  0  0  0  0
    2.5080   -0.1634   -5.0594 H   0  0  0  0  0  0  0  0  0  0  0  0
    1.0458    2.4786   -4.4654 H   0  0  0  0  0  0  0  0  0  0  0  0
    1.9617    2.1287   -5.9363 H   0  0  0  0  0  0  0  0  0  0  0  0
    0.4806    1.2223   -5.5753 H   0  0  0  0  0  0  0  0  0  0  0  0
    4.4325    1.4877   -4.6379 N   0  0  0  0  0  0  0  0  0  0  0  0
    5.6918    2.0896   -4.2664 C   0  0  0  0  0  0  0  0  0  0  0  0
    4.3174    1.1854   -5.6008 H   0  0  0  0  0  0  0  0  0  0  0  0
    5.6386    3.1774   -4.4209 H   0  0  0  0  0  0  0  0  0  0  0  0
    5.9000    1.8795   -3.2070 H   0  0  0  0  0  0  0  0  0  0  0  0
    6.4962    1.6699   -4.8884 H   0  0  0  0  0  0  0  0  0  0  0  0
  1  3  1  0  0  0  0
  1  7  1  0  0  0  0
  1  2  2  0  0  0  0
 31 32  1  0  0  0  0
 32 40  1  0  0  0  0
 32 33  2  0  0  0  0
  8  9  1  0  0  0  0
  9 17  1  0  0  0  0
  9 10  2  0  0  0  0
 18 19  1  0  0  0  0
 19 30  1  0  0  0  0
 19 20  2  0  0  0  0
 21 22  1  0  0  0  0
 22 23  2  0  0  0  0
 22 24  1  0  0  0  0
 31 34  1  0  0  0  0
  8 11  1  0  0  0  0
 40 41  1  0  0  0  0
 18 21  1  0  0  0  0
 30 31  1  0  0  0  0
  7  8  1  0  0  0  0
 17 18  1  0  0  0  0
  3  4  1  0  0  0  0
  3  5  1  0  0  0  0
  3  6  1  0  0  0  0
 34 37  1  0  0  0  0
 34 38  1  0  0  0  0
 34 39  1  0  0  0  0
 11 14  1  0  0  0  0
 11 15  1  0  0  0  0
 11 16  1  0  0  0  0
 41 43  1  0  0  0  0
 41 44  1  0  0  0  0
 41 45  1  0  0  0  0
 21 27  1  0  0  0  0
 21 28  1  0  0  0  0
 31 36  1  0  0  0  0
  8 13  1  0  0  0  0
 18 26  1  0  0  0  0
 40 42  1  0  0  0  0
  7 12  1  0  0  0  0
 30 35  1  0  0  0  0
 17 25  1  0  0  0  0
 24 29  1  0  0  0  0
M  END
$$$$

  -OEChem-05262214473D

 45 44  0     1  0  0  0  0  0999 V2000
   -2.2987    4.1032   -0.3022 C   0  0  0  0  0  0  0  0  0  0  0  0
   -1.8049    3.7117   -1.3532 O   0  0  0  0  0  0  0  0  0  0  0  0
   -3.0791    5.3755   -0.2846 C   0  0  0  0  0  0  0  0  0  0  0  0
   -2.4478    6.2532   -0.0717 H   0  0  0  0  0  0  0  0  0  0  0  0
   -3.5571    5.5891   -1.2541 H   0  0  0  0  0  0  0  0  0  0  0  0
   -3.8940    5.4184    0.4556 H   0  0  0  0  0  0  0  0  0  0  0  0
   -2.2137    3.4712    0.9275 N   0  0  0  0  0  0  0  0  0  0  0  0
   -1.5102    2.2327    1.1338 C   0  0  2  0  0  0  0  0  0  0  0  0
   -1.3539    1.5497   -0.2184 C   0  0  0  0  0  0  0  0  0  0  0  0
   -2.0852    1.7861   -1.1778 O   0  0  0  0  0  0  0  0  0  0  0  0
   -2.2477    1.3342    2.1145 C   0  0  0  0  0  0  0  0  0  0  0  0
   -2.6724    3.9052    1.7265 H   0  0  0  0  0  0  0  0  0  0  0  0
   -0.5220    2.4922    1.5290 H   0  0  0  0  0  0  0  0  0  0  0  0
   -3.2400    1.0636    1.7358 H   0  0  0  0  0  0  0  0  0  0  0  0
   -1.6970    0.4046    2.2923 H   0  0  0  0  0  0  0  0  0  0  0  0
   -2.3854    1.8384    3.0772 H   0  0  0  0  0  0  0  0  0  0  0  0
   -0.3283    0.6116   -0.2182 N   0  0  0  0  0  0  0  0  0  0  0  0
    0.0090   -0.1762   -1.3759 C   0  0  2  0  0  0  0  0  0  0  0  0
    1.0543    0.5928   -2.1739 C   0  0  0  0  0  0  0  0  0  0  0  0
    1.5153    1.6720   -1.8079 O   0  0  0  0  0  0  0  0  0  0  0  0
   -1.2151   -0.4795   -2.2358 C   0  0  0  0  0  0  0  0  0  0  0  0
   -2.1543   -1.4304   -1.5353 C   0  0  0  0  0  0  0  0  0  0  0  0
   -1.7950   -2.2718   -0.7221 O   0  0  0  0  0  0  0  0  0  0  0  0
   -3.4446   -1.2646   -1.9178 O   0  0  0  0  0  0  0  0  0  0  0  0
    0.2381    0.4970    0.6194 H   0  0  0  0  0  0  0  0  0  0  0  0
    0.4605   -1.1011   -0.9970 H   0  0  0  0  0  0  0  0  0  0  0  0
   -1.7892    0.4324   -2.4431 H   0  0  0  0  0  0  0  0  0  0  0  0
   -0.9452   -0.8884   -3.2171 H   0  0  0  0  0  0  0  0  0  0  0  0
   -4.0844   -1.8747   -1.4923 H   0  0  0  0  0  0  0  0  0  0  0  0
    1.4462   -0.0900   -3.3168 N   0  0  0  0  0  0  0  0  0  0  0  0
    2.4373    0.4262   -4.2318 C   0  0  2  0  0  0  0  0  0  0  0  0
    3.7805    0.4354   -3.5139 C   0  0  0  0  0  0  0  0  0  0  0  0
    3.8865    0.4485   -2.2893 O   0  0  0  0  0  0  0  0  0  0  0  0
    2.0704    1.8202   -4.7163 C   0  0  0  0  0  0  0  0  0  0  0  0
    1.0186   -0.9892   -3.5180 H   0  0  0  0  0  0  0  0  0  0  0  0
    2.4794   -0.2688   -5.0775 H   0  0  0  0  0  0  0  0  0  0  0  0
    2.0234    2.5305   -3.8827 H   0  0  0  0  0  0  0  0  0  0  0  0
    2.8080    2.1985   -5.4317 H   0  0  0  0  0  0  0  0  0  0  0  0
    1.0906    1.8172   -5.2060 H   0  0  0  0  0  0  0  0  0  0  0  0
    4.8466    0.4709   -4.4018 N   0  0  0  0  0  0  0  0  0  0  0  0
    6.2233    0.4984   -3.9662 C   0  0  0  0  0  0  0  0  0  0  0  0
    4.6661    0.4384   -5.4008 H   0  0  0  0  0  0  0  0  0  0  0  0
    6.5628    1.5417   -3.8873 H   0  0  0  0  0  0  0  0  0  0  0  0
    6.3068    0.0105   -2.9839 H   0  0  0  0  0  0  0  0  0  0  0  0
    6.8493   -0.0366   -4.6957 H   0  0  0  0  0  0  0  0  0  0  0  0
  1  3  1  0  0  0  0
  1  7  1  0  0  0  0
  1  2  2  0  0  0  0
 31 32  1  0  0  0  0
 32 40  1  0  0  0  0
 32 33  2  0  0  0  0
  8  9  1  0  0  0  0
  9 17  1  0  0  0  0
  9 10  2  0  0  0  0
 18 19  1  0  0  0  0
 19 30  1  0  0  0  0
 19 20  2  0  0  0  0
 21 22  1  0  0  0  0
 22 23  2  0  0  0  0
 22 24  1  0  0  0  0
 31 34  1  0  0  0  0
  8 11  1  0  0  0  0
 40 41  1  0  0  0  0
 18 21  1  0  0  0  0
 30 31  1  0  0  0  0
  7  8  1  0  0  0  0
 17 18  1  0  0  0  0
  3  4  1  0  0  0  0
  3  5  1  0  0  0  0
  3  6  1  0  0  0  0
 34 37  1  0  0  0  0
 34 38  1  0  0  0  0
 34 39  1  0  0  0  0
 11 14  1  0  0  0  0
 11 15  1  0  0  0  0
 11 16  1  0  0  0  0
 41 43  1  0  0  0  0
 41 44  1  0  0  0  0
 41 45  1  0  0  0  0
 21 27  1  0  0  0  0
 21 28  1  0  0  0  0
 31 36  1  0  0  0  0
  8 13  1  0  0  0  0
 18 26  1  0  0  0  0
 40 42  1  0  0  0  0
  7 12  1  0  0  0  0
 30 35  1  0  0  0  0
 17 25  1  0  0  0  0
 24 29  1  0  0  0  0
M  END
$$$$

  -OEChem-05262214473D

 45 44  0     1  0  0  0  0  0999 V2000
   -2.2987    4.1032   -0.3022 C   0  0  0  0  0  0  0  0  0  0  0  0
   -1.8049    3.7117   -1.3532 O   0  0  0  0  0  0  0  0  0  0  0  0
   -3.0791    5.3755   -0.2846 C   0  0  0  0  0  0  0  0  0  0  0  0
   -2.4478    6.2532   -0.0717 H   0  0  0  0  0  0  0  0  0  0  0  0
   -3.5571    5.5891   -1.2541 H   0  0  0  0  0  0  0  0  0  0  0  0
   -3.8940    5.4184    0.4556 H   0  0  0  0  0  0  0  0  0  0  0  0
   -2.2137    3.4712    0.9275 N   0  0  0  0  0  0  0  0  0  0  0  0
   -1.5102    2.2327    1.1338 C   0  0  2  0  0  0  0  0  0  0  0  0
   -1.3539    1.5497   -0.2184 C   0  0  0  0  0  0  0  0  0  0  0  0
   -2.0852    1.7861   -1.1778 O   0  0  0  0  0  0  0  0  0  0  0  0
   -2.2477    1.3342    2.1145 C   0  0  0  0  0  0  0  0  0  0  0  0
   -2.6724    3.9052    1.7265 H   0  0  0  0  0  0  0  0  0  0  0  0
   -0.5220    2.4922    1.5290 H   0  0  0  0  0  0  0  0  0  0  0  0
   -3.2400    1.0636    1.7358 H   0  0  0  0  0  0  0  0  0  0  0  0
   -1.6970    0.4046    2.2923 H   0  0  0  0  0  0  0  0  0  0  0  0
   -2.3854    1.8384    3.0772 H   0  0  0  0  0  0  0  0  0  0  0  0
   -0.3283    0.6116   -0.2182 N   0  0  0  0  0  0  0  0  0  0  0  0
    0.0090   -0.1762   -1.3759 C   0  0  2  0  0  0  0  0  0  0  0  0
    1.0543    0.5928   -2.1739 C   0  0  0  0  0  0  0  0  0  0  0  0
    1.7094    1.5193   -1.7009 O   0  0  0  0  0  0  0  0  0  0  0  0
   -1.2151   -0.4795   -2.2358 C   0  0  0  0  0  0  0  0  0  0  0  0
   -2.1543   -1.4304   -1.5353 C   0  0  0  0  0  0  0  0  0  0  0  0
   -1.7950   -2.2718   -0.7221 O   0  0  0  0  0  0  0  0  0  0  0  0
   -3.4446   -1.2646   -1.9178 O   0  0  0  0  0  0  0  0  0  0  0  0
    0.2381    0.4970    0.6194 H   0  0  0  0  0  0  0  0  0  0  0  0
    0.4605   -1.1011   -0.9970 H   0  0  0  0  0  0  0  0  0  0  0  0
   -1.7892    0.4324   -2.4431 H   0  0  0  0  0  0  0  0  0  0  0  0
   -0.9452   -0.8884   -3.2171 H   0  0  0  0  0  0  0  0  0  0  0  0
   -4.0844   -1.8747   -1.4923 H   0  0  0  0  0  0  0  0  0  0  0  0
    1.2031    0.0921   -3.4597 N   0  0  0  0  0  0  0  0  0  0  0  0
    2.1442    0.6432   -4.4066 C   0  0  2  0  0  0  0  0  0  0  0  0
    3.5495    0.3520   -3.8968 C   0  0  0  0  0  0  0  0  0  0  0  0
    3.8005    0.1231   -2.7154 O   0  0  0  0  0  0  0  0  0  0  0  0
    1.9319    2.1377   -4.5917 C   0  0  0  0  0  0  0  0  0  0  0  0
    0.6269   -0.6938   -3.7464 H   0  0  0  0  0  0  0  0  0  0  0  0
    1.9829    0.1185   -5.3546 H   0  0  0  0  0  0  0  0  0  0  0  0
    2.0891    2.6802   -3.6523 H   0  0  0  0  0  0  0  0  0  0  0  0
    2.6272    2.5486   -5.3310 H   0  0  0  0  0  0  0  0  0  0  0  0
    0.9114    2.3474   -4.9298 H   0  0  0  0  0  0  0  0  0  0  0  0
    4.4964    0.4204   -4.9091 N   0  0  0  0  0  0  0  0  0  0  0  0
    5.9040    0.1955   -4.6765 C   0  0  0  0  0  0  0  0  0  0  0  0
    4.1961    0.5974   -5.8632 H   0  0  0  0  0  0  0  0  0  0  0  0
    6.4004    1.1556   -4.4722 H   0  0  0  0  0  0  0  0  0  0  0  0
    6.0304   -0.4737   -3.8126 H   0  0  0  0  0  0  0  0  0  0  0  0
    6.3534   -0.2673   -5.5675 H   0  0  0  0  0  0  0  0  0  0  0  0
  1  3  1  0  0  0  0
  1  7  1  0  0  0  0
  1  2  2  0  0  0  0
 31 32  1  0  0  0  0
 32 40  1  0  0  0  0
 32 33  2  0  0  0  0
  8  9  1  0  0  0  0
  9 17  1  0  0  0  0
  9 10  2  0  0  0  0
 18 19  1  0  0  0  0
 19 30  1  0  0  0  0
 19 20  2  0  0  0  0
 21 22  1  0  0  0  0
 22 23  2  0  0  0  0
 22 24  1  0  0  0  0
 31 34  1  0  0  0  0
  8 11  1  0  0  0  0
 40 41  1  0  0  0  0
 18 21  1  0  0  0  0
 30 31  1  0  0  0  0
  7  8  1  0  0  0  0
 17 18  1  0  0  0  0
  3  4  1  0  0  0  0
  3  5  1  0  0  0  0
  3  6  1  0  0  0  0
 34 37  1  0  0  0  0
 34 38  1  0  0  0  0
 34 39  1  0  0  0  0
 11 14  1  0  0  0  0
 11 15  1  0  0  0  0
 11 16  1  0  0  0  0
 41 43  1  0  0  0  0
 41 44  1  0  0  0  0
 41 45  1  0  0  0  0
 21 27  1  0  0  0  0
 21 28  1  0  0  0  0
 31 36  1  0  0  0  0
  8 13  1  0  0  0  0
 18 26  1  0  0  0  0
 40 42  1  0  0  0  0
  7 12  1  0  0  0  0
 30 35  1  0  0  0  0
 17 25  1  0  0  0  0
 24 29  1  0  0  0  0
M  END
$$$$

  -OEChem-05262214473D

 45 44  0     1  0  0  0  0  0999 V2000
   -2.2987    4.1032   -0.3022 C   0  0  0  0  0  0  0  0  0  0  0  0
   -1.8049    3.7117   -1.3532 O   0  0  0  0  0  0  0  0  0  0  0  0
   -3.0791    5.3755   -0.2846 C   0  0  0  0  0  0  0  0  0  0  0  0
   -2.4478    6.2532   -0.0717 H   0  0  0  0  0  0  0  0  0  0  0  0
   -3.5571    5.5891   -1.2541 H   0  0  0  0  0  0  0  0  0  0  0  0
   -3.8940    5.4184    0.4556 H   0  0  0  0  0  0  0  0  0  0  0  0
   -2.2137    3.4712    0.9275 N   0  0  0  0  0  0  0  0  0  0  0  0
   -1.5102    2.2327    1.1338 C   0  0  2  0  0  0  0  0  0  0  0  0
   -1.3539    1.5497   -0.2184 C   0  0  0  0  0  0  0  0  0  0  0  0
   -2.0852    1.7861   -1.1778 O   0  0  0  0  0  0  0  0  0  0  0  0
   -2.2477    1.3342    2.1145 C   0  0  0  0  0  0  0  0  0  0  0  0
   -2.6724    3.9052    1.7265 H   0  0  0  0  0  0  0  0  0  0  0  0
   -0.5220    2.4922    1.5290 H   0  0  0  0  0  0  0  0  0  0  0  0
   -3.2400    1.0636    1.7358 H   0  0  0  0  0  0  0  0  0  0  0  0
   -1.6970    0.4046    2.2923 H   0  0  0  0  0  0  0  0  0  0  0  0
   -2.3854    1.8384    3.0772 H   0  0  0  0  0  0  0  0  0  0  0  0
   -0.3283    0.6116   -0.2182 N   0  0  0  0  0  0  0  0  0  0  0  0
    0.0090   -0.1762   -1.3759 C   0  0  2  0  0  0  0  0  0  0  0  0
    1.0543    0.5928   -2.1739 C   0  0  0  0  0  0  0  0  0  0  0  0
    1.8901    1.3264   -1.6500 O   0  0  0  0  0  0  0  0  0  0  0  0
   -1.2151   -0.4795   -2.2358 C   0  0  0  0  0  0  0  0  0  0  0  0
   -2.1543   -1.4304   -1.5353 C   0  0  0  0  0  0  0  0  0  0  0  0
   -1.7950   -2.2718   -0.7221 O   0  0  0  0  0  0  0  0  0  0  0  0
   -3.4446   -1.2646   -1.9178 O   0  0  0  0  0  0  0  0  0  0  0  0
    0.2381    0.4970    0.6194 H   0  0  0  0  0  0  0  0  0  0  0  0
    0.4605   -1.1011   -0.9970 H   0  0  0  0  0  0  0  0  0  0  0  0
   -1.7892    0.4324   -2.4431 H   0  0  0  0  0  0  0  0  0  0  0  0
   -0.9452   -0.8884   -3.2171 H   0  0  0  0  0  0  0  0  0  0  0  0
   -4.0844   -1.8747   -1.4923 H   0  0  0  0  0  0  0  0  0  0  0  0
    0.9744    0.3263   -3.5336 N   0  0  0  0  0  0  0  0  0  0  0  0
    1.8676    0.9237   -4.4986 C   0  0  2  0  0  0  0  0  0  0  0  0
    3.2650    0.3708   -4.2514 C   0  0  0  0  0  0  0  0  0  0  0  0
    3.6176   -0.1038   -3.1736 O   0  0  0  0  0  0  0  0  0  0  0  0
    1.8575    2.4410   -4.3969 C   0  0  0  0  0  0  0  0  0  0  0  0
    0.2588   -0.3148   -3.8633 H   0  0  0  0  0  0  0  0  0  0  0  0
    1.5197    0.6092   -5.4886 H   0  0  0  0  0  0  0  0  0  0  0  0
    2.2030    2.7750   -3.4117 H   0  0  0  0  0  0  0  0  0  0  0  0
    2.5133    2.8934   -5.1480 H   0  0  0  0  0  0  0  0  0  0  0  0
    0.8462    2.8348   -4.5455 H   0  0  0  0  0  0  0  0  0  0  0  0
    4.0851    0.5091   -5.3624 N   0  0  0  0  0  0  0  0  0  0  0  0
    5.4617    0.0723   -5.3746 C   0  0  0  0  0  0  0  0  0  0  0  0
    3.7033    0.8969   -6.2201 H   0  0  0  0  0  0  0  0  0  0  0  0
    6.1148    0.9084   -5.0844 H   0  0  0  0  0  0  0  0  0  0  0  0
    5.5894   -0.7567   -4.6629 H   0  0  0  0  0  0  0  0  0  0  0  0
    5.7293   -0.2680   -6.3858 H   0  0  0  0  0  0  0  0  0  0  0  0
  1  3  1  0  0  0  0
  1  7  1  0  0  0  0
  1  2  2  0  0  0  0
 31 32  1  0  0  0  0
 32 40  1  0  0  0  0
 32 33  2  0  0  0  0
  8  9  1  0  0  0  0
  9 17  1  0  0  0  0
  9 10  2  0  0  0  0
 18 19  1  0  0  0  0
 19 30  1  0  0  0  0
 19 20  2  0  0  0  0
 21 22  1  0  0  0  0
 22 23  2  0  0  0  0
 22 24  1  0  0  0  0
 31 34  1  0  0  0  0
  8 11  1  0  0  0  0
 40 41  1  0  0  0  0
 18 21  1  0  0  0  0
 30 31  1  0  0  0  0
  7  8  1  0  0  0  0
 17 18  1  0  0  0  0
  3  4  1  0  0  0  0
  3  5  1  0  0  0  0
  3  6  1  0  0  0  0
 34 37  1  0  0  0  0
 34 38  1  0  0  0  0
 34 39  1  0  0  0  0
 11 14  1  0  0  0  0
 11 15  1  0  0  0  0
 11 16  1  0  0  0  0
 41 43  1  0  0  0  0
 41 44  1  0  0  0  0
 41 45  1  0  0  0  0
 21 27  1  0  0  0  0
 21 28  1  0  0  0  0
 31 36  1  0  0  0  0
  8 13  1  0  0  0  0
 18 26  1  0  0  0  0
 40 42  1  0  0  0  0
  7 12  1  0  0  0  0
 30 35  1  0  0  0  0
 17 25  1  0  0  0  0
 24 29  1  0  0  0  0
M  END
$$$$

  -OEChem-05262214473D

 45 44  0     1  0  0  0  0  0999 V2000
   -2.2987    4.1032   -0.3022 C   0  0  0  0  0  0  0  0  0  0  0  0
   -1.8049    3.7117   -1.3532 O   0  0  0  0  0  0  0  0  0  0  0  0
   -3.0791    5.3755   -0.2846 C   0  0  0  0  0  0  0  0  0  0  0  0
   -2.4478    6.2532   -0.0717 H   0  0  0  0  0  0  0  0  0  0  0  0
   -3.5571    5.5891   -1.2541 H   0  0  0  0  0  0  0  0  0  0  0  0
   -3.8940    5.4184    0.4556 H   0  0  0  0  0  0  0  0  0  0  0  0
   -2.2137    3.4712    0.9275 N   0  0  0  0  0  0  0  0  0  0  0  0
   -1.5102    2.2327    1.1338 C   0  0  2  0  0  0  0  0  0  0  0  0
   -1.3539    1.5497   -0.2184 C   0  0  0  0  0  0  0  0  0  0  0  0
   -2.0852    1.7861   -1.1778 O   0  0  0  0  0  0  0  0  0  0  0  0
   -2.2477    1.3342    2.1145 C   0  0  0  0  0  0  0  0  0  0  0  0
   -2.6724    3.9052    1.7265 H   0  0  0  0  0  0  0  0  0  0  0  0
   -0.5220    2.4922    1.5290 H   0  0  0  0  0  0  0  0  0  0  0  0
   -3.2400    1.0636    1.7358 H   0  0  0  0  0  0  0  0  0  0  0  0
   -1.6970    0.4046    2.2923 H   0  0  0  0  0  0  0  0  0  0  0  0
   -2.3854    1.8384    3.0772 H   0  0  0  0  0  0  0  0  0  0  0  0
   -0.3283    0.6116   -0.2182 N   0  0  0  0  0  0  0  0  0  0  0  0
    0.0090   -0.1762   -1.3759 C   0  0  2  0  0  0  0  0  0  0  0  0
    1.0543    0.5928   -2.1739 C   0  0  0  0  0  0  0  0  0  0  0  0
    2.0452    1.1066   -1.6587 O   0  0  0  0  0  0  0  0  0  0  0  0
   -1.2151   -0.4795   -2.2358 C   0  0  0  0  0  0  0  0  0  0  0  0
   -2.1543   -1.4304   -1.5353 C   0  0  0  0  0  0  0  0  0  0  0  0
   -1.7950   -2.2718   -0.7221 O   0  0  0  0  0  0  0  0  0  0  0  0
   -3.4446   -1.2646   -1.9178 O   0  0  0  0  0  0  0  0  0  0  0  0
    0.2381    0.4970    0.6194 H   0  0  0  0  0  0  0  0  0  0  0  0
    0.4605   -1.1011   -0.9970 H   0  0  0  0  0  0  0  0  0  0  0  0
   -1.7892    0.4324   -2.4431 H   0  0  0  0  0  0  0  0  0  0  0  0
   -0.9452   -0.8884   -3.2171 H   0  0  0  0  0  0  0  0  0  0  0  0
   -4.0844   -1.8747   -1.4923 H   0  0  0  0  0  0  0  0  0  0  0  0
    0.7756    0.5967   -3.5334 N   0  0  0  0  0  0  0  0  0  0  0  0
    1.6264    1.2484   -4.5016 C   0  0  2  0  0  0  0  0  0  0  0  0
    2.9464    0.4905   -4.5533 C   0  0  0  0  0  0  0  0  0  0  0  0
    3.3503   -0.2168   -3.6326 O   0  0  0  0  0  0  0  0  0  0  0  0
    1.8521    2.7095   -4.1451 C   0  0  0  0  0  0  0  0  0  0  0  0
   -0.0606    0.1220   -3.8609 H   0  0  0  0  0  0  0  0  0  0  0  0
    1.1212    1.1697   -5.4704 H   0  0  0  0  0  0  0  0  0  0  0  0
    2.3574    2.8084   -3.1774 H   0  0  0  0  0  0  0  0  0  0  0  0
    2.4739    3.2094   -4.8951 H   0  0  0  0  0  0  0  0  0  0  0  0
    0.8996    3.2462   -4.0791 H   0  0  0  0  0  0  0  0  0  0  0  0
    3.6406    0.7311   -5.7308 N   0  0  0  0  0  0  0  0  0  0  0  0
    4.9265    0.1373   -6.0130 C   0  0  0  0  0  0  0  0  0  0  0  0
    3.2213    1.3163   -6.4474 H   0  0  0  0  0  0  0  0  0  0  0  0
    5.7255    0.8172   -5.6824 H   0  0  0  0  0  0  0  0  0  0  0  0
    5.0141   -0.8193   -5.4769 H   0  0  0  0  0  0  0  0  0  0  0  0
    5.0194   -0.0389   -7.0948 H   0  0  0  0  0  0  0  0  0  0  0  0
  1  3  1  0  0  0  0
  1  7  1  0  0  0  0
  1  2  2  0  0  0  0
 31 32  1  0  0  0  0
 32 40  1  0  0  0  0
 32 33  2  0  0  0  0
  8  9  1  0  0  0  0
  9 17  1  0  0  0  0
  9 10  2  0  0  0  0
 18 19  1  0  0  0  0
 19 30  1  0  0  0  0
 19 20  2  0  0  0  0
 21 22  1  0  0  0  0
 22 23  2  0  0  0  0
 22 24  1  0  0  0  0
 31 34  1  0  0  0  0
  8 11  1  0  0  0  0
 40 41  1  0  0  0  0
 18 21  1  0  0  0  0
 30 31  1  0  0  0  0
  7  8  1  0  0  0  0
 17 18  1  0  0  0  0
  3  4  1  0  0  0  0
  3  5  1  0  0  0  0
  3  6  1  0  0  0  0
 34 37  1  0  0  0  0
 34 38  1  0  0  0  0
 34 39  1  0  0  0  0
 11 14  1  0  0  0  0
 11 15  1  0  0  0  0
 11 16  1  0  0  0  0
 41 43  1  0  0  0  0
 41 44  1  0  0  0  0
 41 45  1  0  0  0  0
 21 27  1  0  0  0  0
 21 28  1  0  0  0  0
 31 36  1  0  0  0  0
  8 13  1  0  0  0  0
 18 26  1  0  0  0  0
 40 42  1  0  0  0  0
  7 12  1  0  0  0  0
 30 35  1  0  0  0  0
 17 25  1  0  0  0  0
 24 29  1  0  0  0  0
M  END
$$$$

  -OEChem-05262214473D

 45 44  0     1  0  0  0  0  0999 V2000
   -2.2987    4.1032   -0.3022 C   0  0  0  0  0  0  0  0  0  0  0  0
   -1.8049    3.7117   -1.3532 O   0  0  0  0  0  0  0  0  0  0  0  0
   -3.0791    5.3755   -0.2846 C   0  0  0  0  0  0  0  0  0  0  0  0
   -2.4478    6.2532   -0.0717 H   0  0  0  0  0  0  0  0  0  0  0  0
   -3.5571    5.5891   -1.2541 H   0  0  0  0  0  0  0  0  0  0  0  0
   -3.8940    5.4184    0.4556 H   0  0  0  0  0  0  0  0  0  0  0  0
   -2.2137    3.4712    0.9275 N   0  0  0  0  0  0  0  0  0  0  0  0
   -1.5102    2.2327    1.1338 C   0  0  2  0  0  0  0  0  0  0  0  0
   -1.3539    1.5497   -0.2184 C   0  0  0  0  0  0  0  0  0  0  0  0
   -2.0852    1.7861   -1.1778 O   0  0  0  0  0  0  0  0  0  0  0  0
   -2.2477    1.3342    2.1145 C   0  0  0  0  0  0  0  0  0  0  0  0
   -2.6724    3.9052    1.7265 H   0  0  0  0  0  0  0  0  0  0  0  0
   -0.5220    2.4922    1.5290 H   0  0  0  0  0  0  0  0  0  0  0  0
   -3.2400    1.0636    1.7358 H   0  0  0  0  0  0  0  0  0  0  0  0
   -1.6970    0.4046    2.2923 H   0  0  0  0  0  0  0  0  0  0  0  0
   -2.3854    1.8384    3.0772 H   0  0  0  0  0  0  0  0  0  0  0  0
   -0.3283    0.6116   -0.2182 N   0  0  0  0  0  0  0  0  0  0  0  0
    0.0090   -0.1762   -1.3759 C   0  0  2  0  0  0  0  0  0  0  0  0
    1.0543    0.5928   -2.1739 C   0  0  0  0  0  0  0  0  0  0  0  0
    2.1640    0.8748   -1.7264 O   0  0  0  0  0  0  0  0  0  0  0  0
   -1.2151   -0.4795   -2.2358 C   0  0  0  0  0  0  0  0  0  0  0  0
   -2.1543   -1.4304   -1.5353 C   0  0  0  0  0  0  0  0  0  0  0  0
   -1.7950   -2.2718   -0.7221 O   0  0  0  0  0  0  0  0  0  0  0  0
   -3.4446   -1.2646   -1.9178 O   0  0  0  0  0  0  0  0  0  0  0  0
    0.2381    0.4970    0.6194 H   0  0  0  0  0  0  0  0  0  0  0  0
    0.4605   -1.1011   -0.9970 H   0  0  0  0  0  0  0  0  0  0  0  0
   -1.7892    0.4324   -2.4431 H   0  0  0  0  0  0  0  0  0  0  0  0
   -0.9452   -0.8884   -3.2171 H   0  0  0  0  0  0  0  0  0  0  0  0
   -4.0844   -1.8747   -1.4923 H   0  0  0  0  0  0  0  0  0  0  0  0
    0.6202    0.8848   -3.4593 N   0  0  0  0  0  0  0  0  0  0  0  0
    1.4371    1.5953   -4.4153 C   0  0  2  0  0  0  0  0  0  0  0  0
    2.6155    0.7029   -4.7821 C   0  0  0  0  0  0  0  0  0  0  0  0
    3.0169   -0.2082   -4.0611 O   0  0  0  0  0  0  0  0  0  0  0  0
    1.9163    2.9248   -3.8536 C   0  0  0  0  0  0  0  0  0  0  0  0
   -0.3096    0.5867   -3.7392 H   0  0  0  0  0  0  0  0  0  0  0  0
    0.8147    1.7619   -5.3012 H   0  0  0  0  0  0  0  0  0  0  0  0
    2.5416    2.7781   -2.9653 H   0  0  0  0  0  0  0  0  0  0  0  0
    2.5117    3.4750   -4.5896 H   0  0  0  0  0  0  0  0  0  0  0  0
    1.0678    3.5535   -3.5626 H   0  0  0  0  0  0  0  0  0  0  0  0
    3.1932    1.0712   -5.9891 N   0  0  0  0  0  0  0  0  0  0  0  0
    4.3350    0.3859   -6.5482 C   0  0  0  0  0  0  0  0  0  0  0  0
    2.7828    1.8272   -6.5294 H   0  0  0  0  0  0  0  0  0  0  0  0
    5.2589    0.8880   -6.2253 H   0  0  0  0  0  0  0  0  0  0  0  0
    4.3435   -0.6572   -6.1991 H   0  0  0  0  0  0  0  0  0  0  0  0
    4.2722    0.4047   -7.6462 H   0  0  0  0  0  0  0  0  0  0  0  0
  1  3  1  0  0  0  0
  1  7  1  0  0  0  0
  1  2  2  0  0  0  0
 31 32  1  0  0  0  0
 32 40  1  0  0  0  0
 32 33  2  0  0  0  0
  8  9  1  0  0  0  0
  9 17  1  0  0  0  0
  9 10  2  0  0  0  0
 18 19  1  0  0  0  0
 19 30  1  0  0  0  0
 19 20  2  0  0  0  0
 21 22  1  0  0  0  0
 22 23  2  0  0  0  0
 22 24  1  0  0  0  0
 31 34  1  0  0  0  0
  8 11  1  0  0  0  0
 40 41  1  0  0  0  0
 18 21  1  0  0  0  0
 30 31  1  0  0  0  0
  7  8  1  0  0  0  0
 17 18  1  0  0  0  0
  3  4  1  0  0  0  0
  3  5  1  0  0  0  0
  3  6  1  0  0  0  0
 34 37  1  0  0  0  0
 34 38  1  0  0  0  0
 34 39  1  0  0  0  0
 11 14  1  0  0  0  0
 11 15  1  0  0  0  0
 11 16  1  0  0  0  0
 41 43  1  0  0  0  0
 41 44  1  0  0  0  0
 41 45  1  0  0  0  0
 21 27  1  0  0  0  0
 21 28  1  0  0  0  0
 31 36  1  0  0  0  0
  8 13  1  0  0  0  0
 18 26  1  0  0  0  0
 40 42  1  0  0  0  0
  7 12  1  0  0  0  0
 30 35  1  0  0  0  0
 17 25  1  0  0  0  0
 24 29  1  0  0  0  0
M  END
$$$$

  -OEChem-05262214473D

 45 44  0     1  0  0  0  0  0999 V2000
   -2.2987    4.1032   -0.3022 C   0  0  0  0  0  0  0  0  0  0  0  0
   -1.8049    3.7117   -1.3532 O   0  0  0  0  0  0  0  0  0  0  0  0
   -3.0791    5.3755   -0.2846 C   0  0  0  0  0  0  0  0  0  0  0  0
   -2.4478    6.2532   -0.0717 H   0  0  0  0  0  0  0  0  0  0  0  0
   -3.5571    5.5891   -1.2541 H   0  0  0  0  0  0  0  0  0  0  0  0
   -3.8940    5.4184    0.4556 H   0  0  0  0  0  0  0  0  0  0  0  0
   -2.2137    3.4712    0.9275 N   0  0  0  0  0  0  0  0  0  0  0  0
   -1.5102    2.2327    1.1338 C   0  0  2  0  0  0  0  0  0  0  0  0
   -1.3539    1.5497   -0.2184 C   0  0  0  0  0  0  0  0  0  0  0  0
   -2.0852    1.7861   -1.1778 O   0  0  0  0  0  0  0  0  0  0  0  0
   -2.2477    1.3342    2.1145 C   0  0  0  0  0  0  0  0  0  0  0  0
   -2.6724    3.9052    1.7265 H   0  0  0  0  0  0  0  0  0  0  0  0
   -0.5220    2.4922    1.5290 H   0  0  0  0  0  0  0  0  0  0  0  0
   -3.2400    1.0636    1.7358 H   0  0  0  0  0  0  0  0  0  0  0  0
   -1.6970    0.4046    2.2923 H   0  0  0  0  0  0  0  0  0  0  0  0
   -2.3854    1.8384    3.0772 H   0  0  0  0  0  0  0  0  0  0  0  0
   -0.3283    0.6116   -0.2182 N   0  0  0  0  0  0  0  0  0  0  0  0
    0.0090   -0.1762   -1.3759 C   0  0  2  0  0  0  0  0  0  0  0  0
    1.0543    0.5928   -2.1739 C   0  0  0  0  0  0  0  0  0  0  0  0
    2.2386    0.6468   -1.8485 O   0  0  0  0  0  0  0  0  0  0  0  0
   -1.2151   -0.4795   -2.2358 C   0  0  0  0  0  0  0  0  0  0  0  0
   -2.1543   -1.4304   -1.5353 C   0  0  0  0  0  0  0  0  0  0  0  0
   -1.7950   -2.2718   -0.7221 O   0  0  0  0  0  0  0  0  0  0  0  0
   -3.4446   -1.2646   -1.9178 O   0  0  0  0  0  0  0  0  0  0  0  0
    0.2381    0.4970    0.6194 H   0  0  0  0  0  0  0  0  0  0  0  0
    0.4605   -1.1011   -0.9970 H   0  0  0  0  0  0  0  0  0  0  0  0
   -1.7892    0.4324   -2.4431 H   0  0  0  0  0  0  0  0  0  0  0  0
   -0.9452   -0.8884   -3.2171 H   0  0  0  0  0  0  0  0  0  0  0  0
   -4.0844   -1.8747   -1.4923 H   0  0  0  0  0  0  0  0  0  0  0  0
    0.5189    1.1710   -3.3163 N   0  0  0  0  0  0  0  0  0  0  0  0
    1.3126    1.9407   -4.2455 C   0  0  2  0  0  0  0  0  0  0  0  0
    2.2947    0.9936   -4.9221 C   0  0  0  0  0  0  0  0  0  0  0  0
    2.6400   -0.0786   -4.4299 O   0  0  0  0  0  0  0  0  0  0  0  0
    2.0456    3.0723   -3.5421 C   0  0  0  0  0  0  0  0  0  0  0  0
   -0.4713    1.0478   -3.5066 H   0  0  0  0  0  0  0  0  0  0  0  0
    0.6210    2.3454   -4.9925 H   0  0  0  0  0  0  0  0  0  0  0  0
    2.7431    2.6862   -2.7899 H   0  0  0  0  0  0  0  0  0  0  0  0
    2.6241    3.6723   -4.2523 H   0  0  0  0  0  0  0  0  0  0  0  0
    1.3395    3.7358   -3.0311 H   0  0  0  0  0  0  0  0  0  0  0  0
    2.7734    1.5063   -6.1197 N   0  0  0  0  0  0  0  0  0  0  0  0
    3.7274    0.8014   -6.9437 C   0  0  0  0  0  0  0  0  0  0  0  0
    2.4178    2.3946   -6.4606 H   0  0  0  0  0  0  0  0  0  0  0  0
    4.7469    1.1161   -6.6762 H   0  0  0  0  0  0  0  0  0  0  0  0
    3.6233   -0.2814   -6.7803 H   0  0  0  0  0  0  0  0  0  0  0  0
    3.5385    1.0323   -8.0025 H   0  0  0  0  0  0  0  0  0  0  0  0
  1  3  1  0  0  0  0
  1  7  1  0  0  0  0
  1  2  2  0  0  0  0
 31 32  1  0  0  0  0
 32 40  1  0  0  0  0
 32 33  2  0  0  0  0
  8  9  1  0  0  0  0
  9 17  1  0  0  0  0
  9 10  2  0  0  0  0
 18 19  1  0  0  0  0
 19 30  1  0  0  0  0
 19 20  2  0  0  0  0
 21 22  1  0  0  0  0
 22 23  2  0  0  0  0
 22 24  1  0  0  0  0
 31 34  1  0  0  0  0
  8 11  1  0  0  0  0
 40 41  1  0  0  0  0
 18 21  1  0  0  0  0
 30 31  1  0  0  0  0
  7  8  1  0  0  0  0
 17 18  1  0  0  0  0
  3  4  1  0  0  0  0
  3  5  1  0  0  0  0
  3  6  1  0  0  0  0
 34 37  1  0  0  0  0
 34 38  1  0  0  0  0
 34 39  1  0  0  0  0
 11 14  1  0  0  0  0
 11 15  1  0  0  0  0
 11 16  1  0  0  0  0
 41 43  1  0  0  0  0
 41 44  1  0  0  0  0
 41 45  1  0  0  0  0
 21 27  1  0  0  0  0
 21 28  1  0  0  0  0
 31 36  1  0  0  0  0
  8 13  1  0  0  0  0
 18 26  1  0  0  0  0
 40 42  1  0  0  0  0
  7 12  1  0  0  0  0
 30 35  1  0  0  0  0
 17 25  1  0  0  0  0
 24 29  1  0  0  0  0
M  END
$$$$

  -OEChem-05262214473D

 45 44  0     1  0  0  0  0  0999 V2000
   -2.2987    4.1032   -0.3022 C   0  0  0  0  0  0  0  0  0  0  0  0
   -1.8049    3.7117   -1.3532 O   0  0  0  0  0  0  0  0  0  0  0  0
   -3.0791    5.3755   -0.2846 C   0  0  0  0  0  0  0  0  0  0  0  0
   -2.4478    6.2532   -0.0717 H   0  0  0  0  0  0  0  0  0  0  0  0
   -3.5571    5.5891   -1.2541 H   0  0  0  0  0  0  0  0  0  0  0  0
   -3.8940    5.4184    0.4556 H   0  0  0  0  0  0  0  0  0  0  0  0
   -2.2137    3.4712    0.9275 N   0  0  0  0  0  0  0  0  0  0  0  0
   -1.5102    2.2327    1.1338 C   0  0  2  0  0  0  0  0  0  0  0  0
   -1.3539    1.5497   -0.2184 C   0  0  0  0  0  0  0  0  0  0  0  0
   -2.0852    1.7861   -1.1778 O   0  0  0  0  0  0  0  0  0  0  0  0
   -2.2477    1.3342    2.1145 C   0  0  0  0  0  0  0  0  0  0  0  0
   -2.6724    3.9052    1.7265 H   0  0  0  0  0  0  0  0  0  0  0  0
   -0.5220    2.4922    1.5290 H   0  0  0  0  0  0  0  0  0  0  0  0
   -3.2400    1.0636    1.7358 H   0  0  0  0  0  0  0  0  0  0  0  0
   -1.6970    0.4046    2.2923 H   0  0  0  0  0  0  0  0  0  0  0  0
   -2.3854    1.8384    3.0772 H   0  0  0  0  0  0  0  0  0  0  0  0
   -0.3283    0.6116   -0.2182 N   0  0  0  0  0  0  0  0  0  0  0  0
    0.0090   -0.1762   -1.3759 C   0  0  2  0  0  0  0  0  0  0  0  0
    1.0543    0.5928   -2.1739 C   0  0  0  0  0  0  0  0  0  0  0  0
    2.2637    0.4381   -2.0167 O   0  0  0  0  0  0  0  0  0  0  0  0
   -1.2151   -0.4795   -2.2358 C   0  0  0  0  0  0  0  0  0  0  0  0
   -2.1543   -1.4304   -1.5353 C   0  0  0  0  0  0  0  0  0  0  0  0
   -1.7950   -2.2718   -0.7221 O   0  0  0  0  0  0  0  0  0  0  0  0
   -3.4446   -1.2646   -1.9178 O   0  0  0  0  0  0  0  0  0  0  0  0
    0.2381    0.4970    0.6194 H   0  0  0  0  0  0  0  0  0  0  0  0
    0.4605   -1.1011   -0.9970 H   0  0  0  0  0  0  0  0  0  0  0  0
   -1.7892    0.4324   -2.4431 H   0  0  0  0  0  0  0  0  0  0  0  0
   -0.9452   -0.8884   -3.2171 H   0  0  0  0  0  0  0  0  0  0  0  0
   -4.0844   -1.8747   -1.4923 H   0  0  0  0  0  0  0  0  0  0  0  0
    0.4785    1.4357   -3.1141 N   0  0  0  0  0  0  0  0  0  0  0  0
    1.2613    2.2611   -4.0040 C   0  0  2  0  0  0  0  0  0  0  0  0
    2.0060    1.3427   -4.9639 C   0  0  0  0  0  0  0  0  0  0  0  0
    2.2453    0.1632   -4.7139 O   0  0  0  0  0  0  0  0  0  0  0  0
    2.2311    3.1420   -3.2319 C   0  0  0  0  0  0  0  0  0  0  0  0
   -0.5345    1.4737   -3.1789 H   0  0  0  0  0  0  0  0  0  0  0  0
    0.5534    2.8805   -4.5655 H   0  0  0  0  0  0  0  0  0  0  0  0
    2.9482    2.5390   -2.6630 H   0  0  0  0  0  0  0  0  0  0  0  0
    2.8036    3.7876   -3.9061 H   0  0  0  0  0  0  0  0  0  0  0  0
    1.6960    3.7806   -2.5208 H   0  0  0  0  0  0  0  0  0  0  0  0
    2.4098    2.0066   -6.1138 N   0  0  0  0  0  0  0  0  0  0  0  0
    3.1452    1.3553   -7.1726 C   0  0  0  0  0  0  0  0  0  0  0  0
    2.1512    2.9800   -6.2457 H   0  0  0  0  0  0  0  0  0  0  0  0
    4.2243    1.4859   -7.0043 H   0  0  0  0  0  0  0  0  0  0  0  0
    2.9027    0.2824   -7.1809 H   0  0  0  0  0  0  0  0  0  0  0  0
    2.8683    1.8013   -8.1393 H   0  0  0  0  0  0  0  0  0  0  0  0
  1  3  1  0  0  0  0
  1  7  1  0  0  0  0
  1  2  2  0  0  0  0
 31 32  1  0  0  0  0
 32 40  1  0  0  0  0
 32 33  2  0  0  0  0
  8  9  1  0  0  0  0
  9 17  1  0  0  0  0
  9 10  2  0  0  0  0
 18 19  1  0  0  0  0
 19 30  1  0  0  0  0
 19 20  2  0  0  0  0
 21 22  1  0  0  0  0
 22 23  2  0  0  0  0
 22 24  1  0  0  0  0
 31 34  1  0  0  0  0
  8 11  1  0  0  0  0
 40 41  1  0  0  0  0
 18 21  1  0  0  0  0
 30 31  1  0  0  0  0
  7  8  1  0  0  0  0
 17 18  1  0  0  0  0
  3  4  1  0  0  0  0
  3  5  1  0  0  0  0
  3  6  1  0  0  0  0
 34 37  1  0  0  0  0
 34 38  1  0  0  0  0
 34 39  1  0  0  0  0
 11 14  1  0  0  0  0
 11 15  1  0  0  0  0
 11 16  1  0  0  0  0
 41 43  1  0  0  0  0
 41 44  1  0  0  0  0
 41 45  1  0  0  0  0
 21 27  1  0  0  0  0
 21 28  1  0  0  0  0
 31 36  1  0  0  0  0
  8 13  1  0  0  0  0
 18 26  1  0  0  0  0
 40 42  1  0  0  0  0
  7 12  1  0  0  0  0
 30 35  1  0  0  0  0
 17 25  1  0  0  0  0
 24 29  1  0  0  0  0
M  END
$$$$

  -OEChem-05262214473D

 45 44  0     1  0  0  0  0  0999 V2000
   -2.2987    4.1032   -0.3022 C   0  0  0  0  0  0  0  0  0  0  0  0
   -1.8049    3.7117   -1.3532 O   0  0  0  0  0  0  0  0  0  0  0  0
   -3.0791    5.3755   -0.2846 C   0  0  0  0  0  0  0  0  0  0  0  0
   -2.4478    6.2532   -0.0717 H   0  0  0  0  0  0  0  0  0  0  0  0
   -3.5571    5.5891   -1.2541 H   0  0  0  0  0  0  0  0  0  0  0  0
   -3.8940    5.4184    0.4556 H   0  0  0  0  0  0  0  0  0  0  0  0
   -2.2137    3.4712    0.9275 N   0  0  0  0  0  0  0  0  0  0  0  0
   -1.5102    2.2327    1.1338 C   0  0  2  0  0  0  0  0  0  0  0  0
   -1.3539    1.5497   -0.2184 C   0  0  0  0  0  0  0  0  0  0  0  0
   -2.0852    1.7861   -1.1778 O   0  0  0  0  0  0  0  0  0  0  0  0
   -2.2477    1.3342    2.1145 C   0  0  0  0  0  0  0  0  0  0  0  0
   -2.6724    3.9052    1.7265 H   0  0  0  0  0  0  0  0  0  0  0  0
   -0.5220    2.4922    1.5290 H   0  0  0  0  0  0  0  0  0  0  0  0
   -3.2400    1.0636    1.7358 H   0  0  0  0  0  0  0  0  0  0  0  0
   -1.6970    0.4046    2.2923 H   0  0  0  0  0  0  0  0  0  0  0  0
   -2.3854    1.8384    3.0772 H   0  0  0  0  0  0  0  0  0  0  0  0
   -0.3283    0.6116   -0.2182 N   0  0  0  0  0  0  0  0  0  0  0  0
    0.0090   -0.1762   -1.3759 C   0  0  2  0  0  0  0  0  0  0  0  0
    1.0543    0.5928   -2.1739 C   0  0  0  0  0  0  0  0  0  0  0  0
    2.2377    0.2630   -2.2195 O   0  0  0  0  0  0  0  0  0  0  0  0
   -1.2151   -0.4795   -2.2358 C   0  0  0  0  0  0  0  0  0  0  0  0
   -2.1543   -1.4304   -1.5353 C   0  0  0  0  0  0  0  0  0  0  0  0
   -1.7950   -2.2718   -0.7221 O   0  0  0  0  0  0  0  0  0  0  0  0
   -3.4446   -1.2646   -1.9178 O   0  0  0  0  0  0  0  0  0  0  0  0
    0.2381    0.4970    0.6194 H   0  0  0  0  0  0  0  0  0  0  0  0
    0.4605   -1.1011   -0.9970 H   0  0  0  0  0  0  0  0  0  0  0  0
   -1.7892    0.4324   -2.4431 H   0  0  0  0  0  0  0  0  0  0  0  0
   -0.9452   -0.8884   -3.2171 H   0  0  0  0  0  0  0  0  0  0  0  0
   -4.0844   -1.8747   -1.4923 H   0  0  0  0  0  0  0  0  0  0  0  0
    0.5017    1.6610   -2.8664 N   0  0  0  0  0  0  0  0  0  0  0  0
    1.2867    2.5346   -3.7071 C   0  0  2  0  0  0  0  0  0  0  0  0
    1.7690    1.7265   -4.9045 C   0  0  0  0  0  0  0  0  0  0  0  0
    1.8598    0.5006   -4.8938 O   0  0  0  0  0  0  0  0  0  0  0  0
    2.4603    3.1291   -2.9441 C   0  0  0  0  0  0  0  0  0  0  0  0
   -0.4951    1.8356   -2.7785 H   0  0  0  0  0  0  0  0  0  0  0  0
    0.6164    3.3307   -4.0491 H   0  0  0  0  0  0  0  0  0  0  0  0
    3.1430    2.3465   -2.5935 H   0  0  0  0  0  0  0  0  0  0  0  0
    3.0378    3.8132   -3.5746 H   0  0  0  0  0  0  0  0  0  0  0  0
    2.1132    3.6850   -2.0665 H   0  0  0  0  0  0  0  0  0  0  0  0
    2.1272    2.5381   -5.9718 N   0  0  0  0  0  0  0  0  0  0  0  0
    2.6280    2.0099   -7.2192 C   0  0  0  0  0  0  0  0  0  0  0  0
    2.0011    3.5434   -5.8993 H   0  0  0  0  0  0  0  0  0  0  0  0
    3.7268    1.9723   -7.1873 H   0  0  0  0  0  0  0  0  0  0  0  0
    2.2308    0.9958   -7.3736 H   0  0  0  0  0  0  0  0  0  0  0  0
    2.3074    2.6592   -8.0473 H   0  0  0  0  0  0  0  0  0  0  0  0
  1  3  1  0  0  0  0
  1  7  1  0  0  0  0
  1  2  2  0  0  0  0
 31 32  1  0  0  0  0
 32 40  1  0  0  0  0
 32 33  2  0  0  0  0
  8  9  1  0  0  0  0
  9 17  1  0  0  0  0
  9 10  2  0  0  0  0
 18 19  1  0  0  0  0
 19 30  1  0  0  0  0
 19 20  2  0  0  0  0
 21 22  1  0  0  0  0
 22 23  2  0  0  0  0
 22 24  1  0  0  0  0
 31 34  1  0  0  0  0
  8 11  1  0  0  0  0
 40 41  1  0  0  0  0
 18 21  1  0  0  0  0
 30 31  1  0  0  0  0
  7  8  1  0  0  0  0
 17 18  1  0  0  0  0
  3  4  1  0  0  0  0
  3  5  1  0  0  0  0
  3  6  1  0  0  0  0
 34 37  1  0  0  0  0
 34 38  1  0  0  0  0
 34 39  1  0  0  0  0
 11 14  1  0  0  0  0
 11 15  1  0  0  0  0
 11 16  1  0  0  0  0
 41 43  1  0  0  0  0
 41 44  1  0  0  0  0
 41 45  1  0  0  0  0
 21 27  1  0  0  0  0
 21 28  1  0  0  0  0
 31 36  1  0  0  0  0
  8 13  1  0  0  0  0
 18 26  1  0  0  0  0
 40 42  1  0  0  0  0
  7 12  1  0  0  0  0
 30 35  1  0  0  0  0
 17 25  1  0  0  0  0
 24 29  1  0  0  0  0
M  END
$$$$

  -OEChem-05262214473D

 45 44  0     1  0  0  0  0  0999 V2000
   -2.2987    4.1032   -0.3022 C   0  0  0  0  0  0  0  0  0  0  0  0
   -1.8049    3.7117   -1.3532 O   0  0  0  0  0  0  0  0  0  0  0  0
   -3.0791    5.3755   -0.2846 C   0  0  0  0  0  0  0  0  0  0  0  0
   -2.4478    6.2532   -0.0717 H   0  0  0  0  0  0  0  0  0  0  0  0
   -3.5571    5.5891   -1.2541 H   0  0  0  0  0  0  0  0  0  0  0  0
   -3.8940    5.4184    0.4556 H   0  0  0  0  0  0  0  0  0  0  0  0
   -2.2137    3.4712    0.9275 N   0  0  0  0  0  0  0  0  0  0  0  0
   -1.5102    2.2327    1.1338 C   0  0  2  0  0  0  0  0  0  0  0  0
   -1.3539    1.5497   -0.2184 C   0  0  0  0  0  0  0  0  0  0  0  0
   -2.0852    1.7861   -1.1778 O   0  0  0  0  0  0  0  0  0  0  0  0
   -2.2477    1.3342    2.1145 C   0  0  0  0  0  0  0  0  0  0  0  0
   -2.6724    3.9052    1.7265 H   0  0  0  0  0  0  0  0  0  0  0  0
   -0.5220    2.4922    1.5290 H   0  0  0  0  0  0  0  0  0  0  0  0
   -3.2400    1.0636    1.7358 H   0  0  0  0  0  0  0  0  0  0  0  0
   -1.6970    0.4046    2.2923 H   0  0  0  0  0  0  0  0  0  0  0  0
   -2.3854    1.8384    3.0772 H   0  0  0  0  0  0  0  0  0  0  0  0
   -0.3283    0.6116   -0.2182 N   0  0  0  0  0  0  0  0  0  0  0  0
    0.0090   -0.1762   -1.3759 C   0  0  2  0  0  0  0  0  0  0  0  0
    1.0543    0.5928   -2.1739 C   0  0  0  0  0  0  0  0  0  0  0  0
    2.1624    0.1334   -2.4430 O   0  0  0  0  0  0  0  0  0  0  0  0
   -1.2151   -0.4795   -2.2358 C   0  0  0  0  0  0  0  0  0  0  0  0
   -2.1543   -1.4304   -1.5353 C   0  0  0  0  0  0  0  0  0  0  0  0
   -1.7950   -2.2718   -0.7221 O   0  0  0  0  0  0  0  0  0  0  0  0
   -3.4446   -1.2646   -1.9178 O   0  0  0  0  0  0  0  0  0  0  0  0
    0.2381    0.4970    0.6194 H   0  0  0  0  0  0  0  0  0  0  0  0
    0.4605   -1.1011   -0.9970 H   0  0  0  0  0  0  0  0  0  0  0  0
   -1.7892    0.4324   -2.4431 H   0  0  0  0  0  0  0  0  0  0  0  0
   -0.9452   -0.8884   -3.2171 H   0  0  0  0  0  0  0  0  0  0  0  0
   -4.0844   -1.8747   -1.4923 H   0  0  0  0  0  0  0  0  0  0  0  0
    0.5871    1.8315   -2.5903 N   0  0  0  0  0  0  0  0  0  0  0  0
    1.3871    2.7426   -3.3750 C   0  0  2  0  0  0  0  0  0  0  0  0
    1.5999    2.1188   -4.7480 C   0  0  0  0  0  0  0  0  0  0  0  0
    1.5096    0.9108   -4.9571 O   0  0  0  0  0  0  0  0  0  0  0  0
    2.7175    3.0344   -2.6985 C   0  0  0  0  0  0  0  0  0  0  0  0
   -0.3556    2.1086   -2.3327 H   0  0  0  0  0  0  0  0  0  0  0  0
    0.8057    3.6653   -3.4786 H   0  0  0  0  0  0  0  0  0  0  0  0
    3.3141    2.1217   -2.5859 H   0  0  0  0  0  0  0  0  0  0  0  0
    3.3107    3.7473   -3.2805 H   0  0  0  0  0  0  0  0  0  0  0  0
    2.5625    3.4554   -1.6992 H   0  0  0  0  0  0  0  0  0  0  0  0
    1.9448    3.0646   -5.7032 N   0  0  0  0  0  0  0  0  0  0  0  0
    2.2110    2.7206   -7.0805 C   0  0  0  0  0  0  0  0  0  0  0  0
    1.9778    4.0465   -5.4451 H   0  0  0  0  0  0  0  0  0  0  0  0
    3.2883    2.5420   -7.2127 H   0  0  0  0  0  0  0  0  0  0  0  0
    1.6533    1.8102   -7.3452 H   0  0  0  0  0  0  0  0  0  0  0  0
    1.8939    3.5476   -7.7327 H   0  0  0  0  0  0  0  0  0  0  0  0
  1  3  1  0  0  0  0
  1  7  1  0  0  0  0
  1  2  2  0  0  0  0
 31 32  1  0  0  0  0
 32 40  1  0  0  0  0
 32 33  2  0  0  0  0
  8  9  1  0  0  0  0
  9 17  1  0  0  0  0
  9 10  2  0  0  0  0
 18 19  1  0  0  0  0
 19 30  1  0  0  0  0
 19 20  2  0  0  0  0
 21 22  1  0  0  0  0
 22 23  2  0  0  0  0
 22 24  1  0  0  0  0
 31 34  1  0  0  0  0
  8 11  1  0  0  0  0
 40 41  1  0  0  0  0
 18 21  1  0  0  0  0
 30 31  1  0  0  0  0
  7  8  1  0  0  0  0
 17 18  1  0  0  0  0
  3  4  1  0  0  0  0
  3  5  1  0  0  0  0
  3  6  1  0  0  0  0
 34 37  1  0  0  0  0
 34 38  1  0  0  0  0
 34 39  1  0  0  0  0
 11 14  1  0  0  0  0
 11 15  1  0  0  0  0
 11 16  1  0  0  0  0
 41 43  1  0  0  0  0
 41 44  1  0  0  0  0
 41 45  1  0  0  0  0
 21 27  1  0  0  0  0
 21 28  1  0  0  0  0
 31 36  1  0  0  0  0
  8 13  1  0  0  0  0
 18 26  1  0  0  0  0
 40 42  1  0  0  0  0
  7 12  1  0  0  0  0
 30 35  1  0  0  0  0
 17 25  1  0  0  0  0
 24 29  1  0  0  0  0
M  END
$$$$

  -OEChem-05262214473D

 45 44  0     1  0  0  0  0  0999 V2000
   -2.2987    4.1032   -0.3022 C   0  0  0  0  0  0  0  0  0  0  0  0
   -1.8049    3.7117   -1.3532 O   0  0  0  0  0  0  0  0  0  0  0  0
   -3.0791    5.3755   -0.2846 C   0  0  0  0  0  0  0  0  0  0  0  0
   -2.4478    6.2532   -0.0717 H   0  0  0  0  0  0  0  0  0  0  0  0
   -3.5571    5.5891   -1.2541 H   0  0  0  0  0  0  0  0  0  0  0  0
   -3.8940    5.4184    0.4556 H   0  0  0  0  0  0  0  0  0  0  0  0
   -2.2137    3.4712    0.9275 N   0  0  0  0  0  0  0  0  0  0  0  0
   -1.5102    2.2327    1.1338 C   0  0  2  0  0  0  0  0  0  0  0  0
   -1.3539    1.5497   -0.2184 C   0  0  0  0  0  0  0  0  0  0  0  0
   -2.0852    1.7861   -1.1778 O   0  0  0  0  0  0  0  0  0  0  0  0
   -2.2477    1.3342    2.1145 C   0  0  0  0  0  0  0  0  0  0  0  0
   -2.6724    3.9052    1.7265 H   0  0  0  0  0  0  0  0  0  0  0  0
   -0.5220    2.4922    1.5290 H   0  0  0  0  0  0  0  0  0  0  0  0
   -3.2400    1.0636    1.7358 H   0  0  0  0  0  0  0  0  0  0  0  0
   -1.6970    0.4046    2.2923 H   0  0  0  0  0  0  0  0  0  0  0  0
   -2.3854    1.8384    3.0772 H   0  0  0  0  0  0  0  0  0  0  0  0
   -0.3283    0.6116   -0.2182 N   0  0  0  0  0  0  0  0  0  0  0  0
    0.0090   -0.1762   -1.3759 C   0  0  2  0  0  0  0  0  0  0  0  0
    1.0543    0.5928   -2.1739 C   0  0  0  0  0  0  0  0  0  0  0  0
    2.0428    0.0582   -2.6721 O   0  0  0  0  0  0  0  0  0  0  0  0
   -1.2151   -0.4795   -2.2358 C   0  0  0  0  0  0  0  0  0  0  0  0
   -2.1543   -1.4304   -1.5353 C   0  0  0  0  0  0  0  0  0  0  0  0
   -1.7950   -2.2718   -0.7221 O   0  0  0  0  0  0  0  0  0  0  0  0
   -3.4446   -1.2646   -1.9178 O   0  0  0  0  0  0  0  0  0  0  0  0
    0.2381    0.4970    0.6194 H   0  0  0  0  0  0  0  0  0  0  0  0
    0.4605   -1.1011   -0.9970 H   0  0  0  0  0  0  0  0  0  0  0  0
   -1.7892    0.4324   -2.4431 H   0  0  0  0  0  0  0  0  0  0  0  0
   -0.9452   -0.8884   -3.2171 H   0  0  0  0  0  0  0  0  0  0  0  0
   -4.0844   -1.8747   -1.4923 H   0  0  0  0  0  0  0  0  0  0  0  0
    0.7288    1.9356   -2.3044 N   0  0  0  0  0  0  0  0  0  0  0  0
    1.5558    2.8710   -3.0305 C   0  0  2  0  0  0  0  0  0  0  0  0
    1.5102    2.4928   -4.5050 C   0  0  0  0  0  0  0  0  0  0  0  0
    1.2187    1.3657   -4.8998 O   0  0  0  0  0  0  0  0  0  0  0  0
    2.9852    2.8644   -2.5116 C   0  0  0  0  0  0  0  0  0  0  0  0
   -0.1255    2.2743   -1.8718 H   0  0  0  0  0  0  0  0  0  0  0  0
    1.1085    3.8615   -2.8929 H   0  0  0  0  0  0  0  0  0  0  0  0
    3.4499    1.8801   -2.6409 H   0  0  0  0  0  0  0  0  0  0  0  0
    3.6039    3.5944   -3.0438 H   0  0  0  0  0  0  0  0  0  0  0  0
    3.0134    3.1075   -1.4439 H   0  0  0  0  0  0  0  0  0  0  0  0
    1.8752    3.5502   -5.3265 N   0  0  0  0  0  0  0  0  0  0  0  0
    1.9228    3.4390   -6.7657 C   0  0  0  0  0  0  0  0  0  0  0  0
    2.0828    4.4549   -4.9140 H   0  0  0  0  0  0  0  0  0  0  0  0
    2.9387    3.1562   -7.0788 H   0  0  0  0  0  0  0  0  0  0  0  0
    1.2096    2.6701   -7.0977 H   0  0  0  0  0  0  0  0  0  0  0  0
    1.6560    4.4060   -7.2171 H   0  0  0  0  0  0  0  0  0  0  0  0
  1  3  1  0  0  0  0
  1  7  1  0  0  0  0
  1  2  2  0  0  0  0
 31 32  1  0  0  0  0
 32 40  1  0  0  0  0
 32 33  2  0  0  0  0
  8  9  1  0  0  0  0
  9 17  1  0  0  0  0
  9 10  2  0  0  0  0
 18 19  1  0  0  0  0
 19 30  1  0  0  0  0
 19 20  2  0  0  0  0
 21 22  1  0  0  0  0
 22 23  2  0  0  0  0
 22 24  1  0  0  0  0
 31 34  1  0  0  0  0
  8 11  1  0  0  0  0
 40 41  1  0  0  0  0
 18 21  1  0  0  0  0
 30 31  1  0  0  0  0
  7  8  1  0  0  0  0
 17 18  1  0  0  0  0
  3  4  1  0  0  0  0
  3  5  1  0  0  0  0
  3  6  1  0  0  0  0
 34 37  1  0  0  0  0
 34 38  1  0  0  0  0
 34 39  1  0  0  0  0
 11 14  1  0  0  0  0
 11 15  1  0  0  0  0
 11 16  1  0  0  0  0
 41 43  1  0  0  0  0
 41 44  1  0  0  0  0
 41 45  1  0  0  0  0
 21 27  1  0  0  0  0
 21 28  1  0  0  0  0
 31 36  1  0  0  0  0
  8 13  1  0  0  0  0
 18 26  1  0  0  0  0
 40 42  1  0  0  0  0
  7 12  1  0  0  0  0
 30 35  1  0  0  0  0
 17 25  1  0  0  0  0
 24 29  1  0  0  0  0
M  END
$$$$

  -OEChem-05262214473D

 45 44  0     1  0  0  0  0  0999 V2000
   -2.2987    4.1032   -0.3022 C   0  0  0  0  0  0  0  0  0  0  0  0
   -1.8049    3.7117   -1.3532 O   0  0  0  0  0  0  0  0  0  0  0  0
   -3.0791    5.3755   -0.2846 C   0  0  0  0  0  0  0  0  0  0  0  0
   -2.4478    6.2532   -0.0717 H   0  0  0  0  0  0  0  0  0  0  0  0
   -3.5571    5.5891   -1.2541 H   0  0  0  0  0  0  0  0  0  0  0  0
   -3.8940    5.4184    0.4556 H   0  0  0  0  0  0  0  0  0  0  0  0
   -2.2137    3.4712    0.9275 N   0  0  0  0  0  0  0  0  0  0  0  0
   -1.5102    2.2327    1.1338 C   0  0  2  0  0  0  0  0  0  0  0  0
   -1.3539    1.5497   -0.2184 C   0  0  0  0  0  0  0  0  0  0  0  0
   -2.0852    1.7861   -1.1778 O   0  0  0  0  0  0  0  0  0  0  0  0
   -2.2477    1.3342    2.1145 C   0  0  0  0  0  0  0  0  0  0  0  0
   -2.6724    3.9052    1.7265 H   0  0  0  0  0  0  0  0  0  0  0  0
   -0.5220    2.4922    1.5290 H   0  0  0  0  0  0  0  0  0  0  0  0
   -3.2400    1.0636    1.7358 H   0  0  0  0  0  0  0  0  0  0  0  0
   -1.6970    0.4046    2.2923 H   0  0  0  0  0  0  0  0  0  0  0  0
   -2.3854    1.8384    3.0772 H   0  0  0  0  0  0  0  0  0  0  0  0
   -0.3283    0.6116   -0.2182 N   0  0  0  0  0  0  0  0  0  0  0  0
    0.0090   -0.1762   -1.3759 C   0  0  2  0  0  0  0  0  0  0  0  0
    1.0543    0.5928   -2.1739 C   0  0  0  0  0  0  0  0  0  0  0  0
    1.8872    0.0424   -2.8912 O   0  0  0  0  0  0  0  0  0  0  0  0
   -1.2151   -0.4795   -2.2358 C   0  0  0  0  0  0  0  0  0  0  0  0
   -2.1543   -1.4304   -1.5353 C   0  0  0  0  0  0  0  0  0  0  0  0
   -1.7950   -2.2718   -0.7221 O   0  0  0  0  0  0  0  0  0  0  0  0
   -3.4446   -1.2646   -1.9178 O   0  0  0  0  0  0  0  0  0  0  0  0
    0.2381    0.4970    0.6194 H   0  0  0  0  0  0  0  0  0  0  0  0
    0.4605   -1.1011   -0.9970 H   0  0  0  0  0  0  0  0  0  0  0  0
   -1.7892    0.4324   -2.4431 H   0  0  0  0  0  0  0  0  0  0  0  0
   -0.9452   -0.8884   -3.2171 H   0  0  0  0  0  0  0  0  0  0  0  0
   -4.0844   -1.8747   -1.4923 H   0  0  0  0  0  0  0  0  0  0  0  0
    0.9171    1.9662   -2.0283 N   0  0  0  0  0  0  0  0  0  0  0  0
    1.7810    2.9109   -2.6969 C   0  0  2  0  0  0  0  0  0  0  0  0
    1.5060    2.8232   -4.1922 C   0  0  0  0  0  0  0  0  0  0  0  0
    1.0069    1.8344   -4.7256 O   0  0  0  0  0  0  0  0  0  0  0  0
    3.2452    2.6308   -2.3962 C   0  0  0  0  0  0  0  0  0  0  0  0
    0.1793    2.3212   -1.4272 H   0  0  0  0  0  0  0  0  0  0  0  0
    1.5042    3.9060   -2.3318 H   0  0  0  0  0  0  0  0  0  0  0  0
    3.5411    1.6381   -2.7547 H   0  0  0  0  0  0  0  0  0  0  0  0
    3.8973    3.3650   -2.8806 H   0  0  0  0  0  0  0  0  0  0  0  0
    3.4351    2.6649   -1.3180 H   0  0  0  0  0  0  0  0  0  0  0  0
    1.9229    3.9618   -4.8673 N   0  0  0  0  0  0  0  0  0  0  0  0
    1.7829    4.1161   -6.2965 C   0  0  0  0  0  0  0  0  0  0  0  0
    2.3090    4.7408   -4.3421 H   0  0  0  0  0  0  0  0  0  0  0  0
    2.7017    3.7731   -6.7946 H   0  0  0  0  0  0  0  0  0  0  0  0
    0.9299    3.5169   -6.6480 H   0  0  0  0  0  0  0  0  0  0  0  0
    1.6100    5.1757   -6.5356 H   0  0  0  0  0  0  0  0  0  0  0  0
  1  3  1  0  0  0  0
  1  7  1  0  0  0  0
  1  2  2  0  0  0  0
 31 32  1  0  0  0  0
 32 40  1  0  0  0  0
 32 33  2  0  0  0  0
  8  9  1  0  0  0  0
  9 17  1  0  0  0  0
  9 10  2  0  0  0  0
 18 19  1  0  0  0  0
 19 30  1  0  0  0  0
 19 20  2  0  0  0  0
 21 22  1  0  0  0  0
 22 23  2  0  0  0  0
 22 24  1  0  0  0  0
 31 34  1  0  0  0  0
  8 11  1  0  0  0  0
 40 41  1  0  0  0  0
 18 21  1  0  0  0  0
 30 31  1  0  0  0  0
  7  8  1  0  0  0  0
 17 18  1  0  0  0  0
  3  4  1  0  0  0  0
  3  5  1  0  0  0  0
  3  6  1  0  0  0  0
 34 37  1  0  0  0  0
 34 38  1  0  0  0  0
 34 39  1  0  0  0  0
 11 14  1  0  0  0  0
 11 15  1  0  0  0  0
 11 16  1  0  0  0  0
 41 43  1  0  0  0  0
 41 44  1  0  0  0  0
 41 45  1  0  0  0  0
 21 27  1  0  0  0  0
 21 28  1  0  0  0  0
 31 36  1  0  0  0  0
  8 13  1  0  0  0  0
 18 26  1  0  0  0  0
 40 42  1  0  0  0  0
  7 12  1  0  0  0  0
 30 35  1  0  0  0  0
 17 25  1  0  0  0  0
 24 29  1  0  0  0  0
M  END
$$$$

  -OEChem-05262214473D

 45 44  0     1  0  0  0  0  0999 V2000
   -2.2987    4.1032   -0.3022 C   0  0  0  0  0  0  0  0  0  0  0  0
   -1.8049    3.7117   -1.3532 O   0  0  0  0  0  0  0  0  0  0  0  0
   -3.0791    5.3755   -0.2846 C   0  0  0  0  0  0  0  0  0  0  0  0
   -2.4478    6.2532   -0.0717 H   0  0  0  0  0  0  0  0  0  0  0  0
   -3.5571    5.5891   -1.2541 H   0  0  0  0  0  0  0  0  0  0  0  0
   -3.8940    5.4184    0.4556 H   0  0  0  0  0  0  0  0  0  0  0  0
   -2.2137    3.4712    0.9275 N   0  0  0  0  0  0  0  0  0  0  0  0
   -1.5102    2.2327    1.1338 C   0  0  2  0  0  0  0  0  0  0  0  0
   -1.3539    1.5497   -0.2184 C   0  0  0  0  0  0  0  0  0  0  0  0
   -2.0852    1.7861   -1.1778 O   0  0  0  0  0  0  0  0  0  0  0  0
   -2.2477    1.3342    2.1145 C   0  0  0  0  0  0  0  0  0  0  0  0
   -2.6724    3.9052    1.7265 H   0  0  0  0  0  0  0  0  0  0  0  0
   -0.5220    2.4922    1.5290 H   0  0  0  0  0  0  0  0  0  0  0  0
   -3.2400    1.0636    1.7358 H   0  0  0  0  0  0  0  0  0  0  0  0
   -1.6970    0.4046    2.2923 H   0  0  0  0  0  0  0  0  0  0  0  0
   -2.3854    1.8384    3.0772 H   0  0  0  0  0  0  0  0  0  0  0  0
   -0.3283    0.6116   -0.2182 N   0  0  0  0  0  0  0  0  0  0  0  0
    0.0090   -0.1762   -1.3759 C   0  0  2  0  0  0  0  0  0  0  0  0
    1.0543    0.5928   -2.1739 C   0  0  0  0  0  0  0  0  0  0  0  0
    1.7061    0.0871   -3.0853 O   0  0  0  0  0  0  0  0  0  0  0  0
   -1.2151   -0.4795   -2.2358 C   0  0  0  0  0  0  0  0  0  0  0  0
   -2.1543   -1.4304   -1.5353 C   0  0  0  0  0  0  0  0  0  0  0  0
   -1.7950   -2.2718   -0.7221 O   0  0  0  0  0  0  0  0  0  0  0  0
   -3.4446   -1.2646   -1.9178 O   0  0  0  0  0  0  0  0  0  0  0  0
    0.2381    0.4970    0.6194 H   0  0  0  0  0  0  0  0  0  0  0  0
    0.4605   -1.1011   -0.9970 H   0  0  0  0  0  0  0  0  0  0  0  0
   -1.7892    0.4324   -2.4431 H   0  0  0  0  0  0  0  0  0  0  0  0
   -0.9452   -0.8884   -3.2171 H   0  0  0  0  0  0  0  0  0  0  0  0
   -4.0844   -1.8747   -1.4923 H   0  0  0  0  0  0  0  0  0  0  0  0
    1.1392    1.9211   -1.7807 N   0  0  0  0  0  0  0  0  0  0  0  0
    2.0476    2.8597   -2.3970 C   0  0  2  0  0  0  0  0  0  0  0  0
    1.5875    3.0872   -3.8309 C   0  0  0  0  0  0  0  0  0  0  0  0
    0.8886    2.2849   -4.4464 O   0  0  0  0  0  0  0  0  0  0  0  0
    3.4797    2.3493   -2.3602 C   0  0  0  0  0  0  0  0  0  0  0  0
    0.5382    2.2463   -1.0292 H   0  0  0  0  0  0  0  0  0  0  0  0
    1.9656    3.7956   -1.8336 H   0  0  0  0  0  0  0  0  0  0  0  0
    3.5815    1.4121   -2.9195 H   0  0  0  0  0  0  0  0  0  0  0  0
    4.1709    3.0746   -2.8021 H   0  0  0  0  0  0  0  0  0  0  0  0
    3.7989    2.1579   -1.3300 H   0  0  0  0  0  0  0  0  0  0  0  0
    2.0849    4.2714   -4.3569 N   0  0  0  0  0  0  0  0  0  0  0  0
    1.8008    4.7057   -5.7047 C   0  0  0  0  0  0  0  0  0  0  0  0
    2.6410    4.8848   -3.7685 H   0  0  0  0  0  0  0  0  0  0  0  0
    2.5936    4.3507   -6.3796 H   0  0  0  0  0  0  0  0  0  0  0  0
    0.8334    4.2929   -6.0266 H   0  0  0  0  0  0  0  0  0  0  0  0
    1.7589    5.8045   -5.7346 H   0  0  0  0  0  0  0  0  0  0  0  0
  1  3  1  0  0  0  0
  1  7  1  0  0  0  0
  1  2  2  0  0  0  0
 31 32  1  0  0  0  0
 32 40  1  0  0  0  0
 32 33  2  0  0  0  0
  8  9  1  0  0  0  0
  9 17  1  0  0  0  0
  9 10  2  0  0  0  0
 18 19  1  0  0  0  0
 19 30  1  0  0  0  0
 19 20  2  0  0  0  0
 21 22  1  0  0  0  0
 22 23  2  0  0  0  0
 22 24  1  0  0  0  0
 31 34  1  0  0  0  0
  8 11  1  0  0  0  0
 40 41  1  0  0  0  0
 18 21  1  0  0  0  0
 30 31  1  0  0  0  0
  7  8  1  0  0  0  0
 17 18  1  0  0  0  0
  3  4  1  0  0  0  0
  3  5  1  0  0  0  0
  3  6  1  0  0  0  0
 34 37  1  0  0  0  0
 34 38  1  0  0  0  0
 34 39  1  0  0  0  0
 11 14  1  0  0  0  0
 11 15  1  0  0  0  0
 11 16  1  0  0  0  0
 41 43  1  0  0  0  0
 41 44  1  0  0  0  0
 41 45  1  0  0  0  0
 21 27  1  0  0  0  0
 21 28  1  0  0  0  0
 31 36  1  0  0  0  0
  8 13  1  0  0  0  0
 18 26  1  0  0  0  0
 40 42  1  0  0  0  0
  7 12  1  0  0  0  0
 30 35  1  0  0  0  0
 17 25  1  0  0  0  0
 24 29  1  0  0  0  0
M  END
$$$$

  -OEChem-05262214473D

 45 44  0     1  0  0  0  0  0999 V2000
   -2.2987    4.1032   -0.3022 C   0  0  0  0  0  0  0  0  0  0  0  0
   -1.8049    3.7117   -1.3532 O   0  0  0  0  0  0  0  0  0  0  0  0
   -3.0791    5.3755   -0.2846 C   0  0  0  0  0  0  0  0  0  0  0  0
   -2.4478    6.2532   -0.0717 H   0  0  0  0  0  0  0  0  0  0  0  0
   -3.5571    5.5891   -1.2541 H   0  0  0  0  0  0  0  0  0  0  0  0
   -3.8940    5.4184    0.4556 H   0  0  0  0  0  0  0  0  0  0  0  0
   -2.2137    3.4712    0.9275 N   0  0  0  0  0  0  0  0  0  0  0  0
   -1.5102    2.2327    1.1338 C   0  0  2  0  0  0  0  0  0  0  0  0
   -1.3539    1.5497   -0.2184 C   0  0  0  0  0  0  0  0  0  0  0  0
   -2.0852    1.7861   -1.1778 O   0  0  0  0  0  0  0  0  0  0  0  0
   -2.2477    1.3342    2.1145 C   0  0  0  0  0  0  0  0  0  0  0  0
   -2.6724    3.9052    1.7265 H   0  0  0  0  0  0  0  0  0  0  0  0
   -0.5220    2.4922    1.5290 H   0  0  0  0  0  0  0  0  0  0  0  0
   -3.2400    1.0636    1.7358 H   0  0  0  0  0  0  0  0  0  0  0  0
   -1.6970    0.4046    2.2923 H   0  0  0  0  0  0  0  0  0  0  0  0
   -2.3854    1.8384    3.0772 H   0  0  0  0  0  0  0  0  0  0  0  0
   -0.3283    0.6116   -0.2182 N   0  0  0  0  0  0  0  0  0  0  0  0
    0.0090   -0.1762   -1.3759 C   0  0  2  0  0  0  0  0  0  0  0  0
    1.0543    0.5928   -2.1739 C   0  0  0  0  0  0  0  0  0  0  0  0
    1.5120    0.1894   -3.2411 O   0  0  0  0  0  0  0  0  0  0  0  0
   -1.2151   -0.4795   -2.2358 C   0  0  0  0  0  0  0  0  0  0  0  0
   -2.1543   -1.4304   -1.5353 C   0  0  0  0  0  0  0  0  0  0  0  0
   -1.7950   -2.2718   -0.7221 O   0  0  0  0  0  0  0  0  0  0  0  0
   -3.4446   -1.2646   -1.9178 O   0  0  0  0  0  0  0  0  0  0  0  0
    0.2381    0.4970    0.6194 H   0  0  0  0  0  0  0  0  0  0  0  0
    0.4605   -1.1011   -0.9970 H   0  0  0  0  0  0  0  0  0  0  0  0
   -1.7892    0.4324   -2.4431 H   0  0  0  0  0  0  0  0  0  0  0  0
   -0.9452   -0.8884   -3.2171 H   0  0  0  0  0  0  0  0  0  0  0  0
   -4.0844   -1.8747   -1.4923 H   0  0  0  0  0  0  0  0  0  0  0  0
    1.3800    1.8035   -1.5787 N   0  0  0  0  0  0  0  0  0  0  0  0
    2.3374    2.7208   -2.1513 C   0  0  2  0  0  0  0  0  0  0  0  0
    1.7493    3.2671   -3.4456 C   0  0  0  0  0  0  0  0  0  0  0  0
    0.8719    2.6865   -4.0813 O   0  0  0  0  0  0  0  0  0  0  0  0
    3.6728    2.0393   -2.4061 C   0  0  0  0  0  0  0  0  0  0  0  0
    0.9267    2.0546   -0.7050 H   0  0  0  0  0  0  0  0  0  0  0  0
    2.4615    3.5380   -1.4323 H   0  0  0  0  0  0  0  0  0  0  0  0
    3.5684    1.2177   -3.1240 H   0  0  0  0  0  0  0  0  0  0  0  0
    4.4061    2.7431   -2.8135 H   0  0  0  0  0  0  0  0  0  0  0  0
    4.0800    1.6210   -1.4792 H   0  0  0  0  0  0  0  0  0  0  0  0
    2.3499    4.4578   -3.8300 N   0  0  0  0  0  0  0  0  0  0  0  0
    1.9754    5.1677   -5.0308 C   0  0  0  0  0  0  0  0  0  0  0  0
    3.0561    4.8770   -3.2323 H   0  0  0  0  0  0  0  0  0  0  0  0
    2.6217    4.8496   -5.8621 H   0  0  0  0  0  0  0  0  0  0  0  0
    0.9265    4.9453   -5.2760 H   0  0  0  0  0  0  0  0  0  0  0  0
    2.0927    6.2494   -4.8686 H   0  0  0  0  0  0  0  0  0  0  0  0
  1  3  1  0  0  0  0
  1  7  1  0  0  0  0
  1  2  2  0  0  0  0
 31 32  1  0  0  0  0
 32 40  1  0  0  0  0
 32 33  2  0  0  0  0
  8  9  1  0  0  0  0
  9 17  1  0  0  0  0
  9 10  2  0  0  0  0
 18 19  1  0  0  0  0
 19 30  1  0  0  0  0
 19 20  2  0  0  0  0
 21 22  1  0  0  0  0
 22 23  2  0  0  0  0
 22 24  1  0  0  0  0
 31 34  1  0  0  0  0
  8 11  1  0  0  0  0
 40 41  1  0  0  0  0
 18 21  1  0  0  0  0
 30 31  1  0  0  0  0
  7  8  1  0  0  0  0
 17 18  1  0  0  0  0
  3  4  1  0  0  0  0
  3  5  1  0  0  0  0
  3  6  1  0  0  0  0
 34 37  1  0  0  0  0
 34 38  1  0  0  0  0
 34 39  1  0  0  0  0
 11 14  1  0  0  0  0
 11 15  1  0  0  0  0
 11 16  1  0  0  0  0
 41 43  1  0  0  0  0
 41 44  1  0  0  0  0
 41 45  1  0  0  0  0
 21 27  1  0  0  0  0
 21 28  1  0  0  0  0
 31 36  1  0  0  0  0
  8 13  1  0  0  0  0
 18 26  1  0  0  0  0
 40 42  1  0  0  0  0
  7 12  1  0  0  0  0
 30 35  1  0  0  0  0
 17 25  1  0  0  0  0
 24 29  1  0  0  0  0
M  END
$$$$

  -OEChem-05262214473D

 45 44  0     1  0  0  0  0  0999 V2000
   -2.2987    4.1032   -0.3022 C   0  0  0  0  0  0  0  0  0  0  0  0
   -1.8049    3.7117   -1.3532 O   0  0  0  0  0  0  0  0  0  0  0  0
   -3.0791    5.3755   -0.2846 C   0  0  0  0  0  0  0  0  0  0  0  0
   -2.4478    6.2532   -0.0717 H   0  0  0  0  0  0  0  0  0  0  0  0
   -3.5571    5.5891   -1.2541 H   0  0  0  0  0  0  0  0  0  0  0  0
   -3.8940    5.4184    0.4556 H   0  0  0  0  0  0  0  0  0  0  0  0
   -2.2137    3.4712    0.9275 N   0  0  0  0  0  0  0  0  0  0  0  0
   -1.5102    2.2327    1.1338 C   0  0  2  0  0  0  0  0  0  0  0  0
   -1.3539    1.5497   -0.2184 C   0  0  0  0  0  0  0  0  0  0  0  0
   -2.0852    1.7861   -1.1778 O   0  0  0  0  0  0  0  0  0  0  0  0
   -2.2477    1.3342    2.1145 C   0  0  0  0  0  0  0  0  0  0  0  0
   -2.6724    3.9052    1.7265 H   0  0  0  0  0  0  0  0  0  0  0  0
   -0.5220    2.4922    1.5290 H   0  0  0  0  0  0  0  0  0  0  0  0
   -3.2400    1.0636    1.7358 H   0  0  0  0  0  0  0  0  0  0  0  0
   -1.6970    0.4046    2.2923 H   0  0  0  0  0  0  0  0  0  0  0  0
   -2.3854    1.8384    3.0772 H   0  0  0  0  0  0  0  0  0  0  0  0
   -0.3283    0.6116   -0.2182 N   0  0  0  0  0  0  0  0  0  0  0  0
    0.0090   -0.1762   -1.3759 C   0  0  2  0  0  0  0  0  0  0  0  0
    1.0543    0.5928   -2.1739 C   0  0  0  0  0  0  0  0  0  0  0  0
    1.3179    0.3421   -3.3481 O   0  0  0  0  0  0  0  0  0  0  0  0
   -1.2151   -0.4795   -2.2358 C   0  0  0  0  0  0  0  0  0  0  0  0
   -2.1543   -1.4304   -1.5353 C   0  0  0  0  0  0  0  0  0  0  0  0
   -1.7950   -2.2718   -0.7221 O   0  0  0  0  0  0  0  0  0  0  0  0
   -3.4446   -1.2646   -1.9178 O   0  0  0  0  0  0  0  0  0  0  0  0
    0.2381    0.4970    0.6194 H   0  0  0  0  0  0  0  0  0  0  0  0
    0.4605   -1.1011   -0.9970 H   0  0  0  0  0  0  0  0  0  0  0  0
   -1.7892    0.4324   -2.4431 H   0  0  0  0  0  0  0  0  0  0  0  0
   -0.9452   -0.8884   -3.2171 H   0  0  0  0  0  0  0  0  0  0  0  0
   -4.0844   -1.8747   -1.4923 H   0  0  0  0  0  0  0  0  0  0  0  0
    1.6230    1.6214   -1.4358 N   0  0  0  0  0  0  0  0  0  0  0  0
    2.6306    2.5038   -1.9764 C   0  0  2  0  0  0  0  0  0  0  0  0
    1.9803    3.3505   -3.0626 C   0  0  0  0  0  0  0  0  0  0  0  0
    0.9579    3.0118   -3.6551 O   0  0  0  0  0  0  0  0  0  0  0  0
    3.8113    1.7218   -2.5306 C   0  0  0  0  0  0  0  0  0  0  0  0
    1.3184    1.7592   -0.4767 H   0  0  0  0  0  0  0  0  0  0  0  0
    2.9580    3.1507   -1.1553 H   0  0  0  0  0  0  0  0  0  0  0  0
    3.5027    1.0679   -3.3545 H   0  0  0  0  0  0  0  0  0  0  0  0
    4.5868    2.3930   -2.9142 H   0  0  0  0  0  0  0  0  0  0  0  0
    4.2592    1.0908   -1.7554 H   0  0  0  0  0  0  0  0  0  0  0  0
    2.7001    4.5083   -3.3227 N   0  0  0  0  0  0  0  0  0  0  0  0
    2.2948    5.4706   -4.3205 C   0  0  0  0  0  0  0  0  0  0  0  0
    3.5260    4.7180   -2.7699 H   0  0  0  0  0  0  0  0  0  0  0  0
    2.7840    5.2357   -5.2773 H   0  0  0  0  0  0  0  0  0  0  0  0
    1.2029    5.4294   -4.4473 H   0  0  0  0  0  0  0  0  0  0  0  0
    2.5885    6.4801   -3.9968 H   0  0  0  0  0  0  0  0  0  0  0  0
  1  3  1  0  0  0  0
  1  7  1  0  0  0  0
  1  2  2  0  0  0  0
 31 32  1  0  0  0  0
 32 40  1  0  0  0  0
 32 33  2  0  0  0  0
  8  9  1  0  0  0  0
  9 17  1  0  0  0  0
  9 10  2  0  0  0  0
 18 19  1  0  0  0  0
 19 30  1  0  0  0  0
 19 20  2  0  0  0  0
 21 22  1  0  0  0  0
 22 23  2  0  0  0  0
 22 24  1  0  0  0  0
 31 34  1  0  0  0  0
  8 11  1  0  0  0  0
 40 41  1  0  0  0  0
 18 21  1  0  0  0  0
 30 31  1  0  0  0  0
  7  8  1  0  0  0  0
 17 18  1  0  0  0  0
  3  4  1  0  0  0  0
  3  5  1  0  0  0  0
  3  6  1  0  0  0  0
 34 37  1  0  0  0  0
 34 38  1  0  0  0  0
 34 39  1  0  0  0  0
 11 14  1  0  0  0  0
 11 15  1  0  0  0  0
 11 16  1  0  0  0  0
 41 43  1  0  0  0  0
 41 44  1  0  0  0  0
 41 45  1  0  0  0  0
 21 27  1  0  0  0  0
 21 28  1  0  0  0  0
 31 36  1  0  0  0  0
  8 13  1  0  0  0  0
 18 26  1  0  0  0  0
 40 42  1  0  0  0  0
  7 12  1  0  0  0  0
 30 35  1  0  0  0  0
 17 25  1  0  0  0  0
 24 29  1  0  0  0  0
M  END
$$$$

  -OEChem-05262214473D

 45 44  0     1  0  0  0  0  0999 V2000
   -2.2987    4.1032   -0.3022 C   0  0  0  0  0  0  0  0  0  0  0  0
   -1.8049    3.7117   -1.3532 O   0  0  0  0  0  0  0  0  0  0  0  0
   -3.0791    5.3755   -0.2846 C   0  0  0  0  0  0  0  0  0  0  0  0
   -2.4478    6.2532   -0.0717 H   0  0  0  0  0  0  0  0  0  0  0  0
   -3.5571    5.5891   -1.2541 H   0  0  0  0  0  0  0  0  0  0  0  0
   -3.8940    5.4184    0.4556 H   0  0  0  0  0  0  0  0  0  0  0  0
   -2.2137    3.4712    0.9275 N   0  0  0  0  0  0  0  0  0  0  0  0
   -1.5102    2.2327    1.1338 C   0  0  2  0  0  0  0  0  0  0  0  0
   -1.3539    1.5497   -0.2184 C   0  0  0  0  0  0  0  0  0  0  0  0
   -2.0852    1.7861   -1.1778 O   0  0  0  0  0  0  0  0  0  0  0  0
   -2.2477    1.3342    2.1145 C   0  0  0  0  0  0  0  0  0  0  0  0
   -2.6724    3.9052    1.7265 H   0  0  0  0  0  0  0  0  0  0  0  0
   -0.5220    2.4922    1.5290 H   0  0  0  0  0  0  0  0  0  0  0  0
   -3.2400    1.0636    1.7358 H   0  0  0  0  0  0  0  0  0  0  0  0
   -1.6970    0.4046    2.2923 H   0  0  0  0  0  0  0  0  0  0  0  0
   -2.3854    1.8384    3.0772 H   0  0  0  0  0  0  0  0  0  0  0  0
   -0.3283    0.6116   -0.2182 N   0  0  0  0  0  0  0  0  0  0  0  0
    0.0090   -0.1762   -1.3759 C   0  0  2  0  0  0  0  0  0  0  0  0
    1.0543    0.5928   -2.1739 C   0  0  0  0  0  0  0  0  0  0  0  0
    1.1371    0.5350   -3.3990 O   0  0  0  0  0  0  0  0  0  0  0  0
   -1.2151   -0.4795   -2.2358 C   0  0  0  0  0  0  0  0  0  0  0  0
   -2.1543   -1.4304   -1.5353 C   0  0  0  0  0  0  0  0  0  0  0  0
   -1.7950   -2.2718   -0.7221 O   0  0  0  0  0  0  0  0  0  0  0  0
   -3.4446   -1.2646   -1.9178 O   0  0  0  0  0  0  0  0  0  0  0  0
    0.2381    0.4970    0.6194 H   0  0  0  0  0  0  0  0  0  0  0  0
    0.4605   -1.1011   -0.9970 H   0  0  0  0  0  0  0  0  0  0  0  0
   -1.7892    0.4324   -2.4431 H   0  0  0  0  0  0  0  0  0  0  0  0
   -0.9452   -0.8884   -3.2171 H   0  0  0  0  0  0  0  0  0  0  0  0
   -4.0844   -1.8747   -1.4923 H   0  0  0  0  0  0  0  0  0  0  0  0
    1.8518    1.3872   -1.3619 N   0  0  0  0  0  0  0  0  0  0  0  0
    2.9071    2.2233   -1.8844 C   0  0  2  0  0  0  0  0  0  0  0  0
    2.2648    3.3317   -2.7081 C   0  0  0  0  0  0  0  0  0  0  0  0
    1.1408    3.2387   -3.1969 O   0  0  0  0  0  0  0  0  0  0  0  0
    3.8857    1.4185   -2.7255 C   0  0  0  0  0  0  0  0  0  0  0  0
    1.6865    1.3802   -0.3597 H   0  0  0  0  0  0  0  0  0  0  0  0
    3.4212    2.6601   -1.0213 H   0  0  0  0  0  0  0  0  0  0  0  0
    3.3887    0.9731   -3.5950 H   0  0  0  0  0  0  0  0  0  0  0  0
    4.7007    2.0482   -3.0972 H   0  0  0  0  0  0  0  0  0  0  0  0
    4.3244    0.6034   -2.1398 H   0  0  0  0  0  0  0  0  0  0  0  0
    3.1114    4.4196   -2.8694 N   0  0  0  0  0  0  0  0  0  0  0  0
    2.7371    5.5938   -3.6224 C   0  0  0  0  0  0  0  0  0  0  0  0
    4.0188    4.4185   -2.4130 H   0  0  0  0  0  0  0  0  0  0  0  0
    3.0696    5.4828   -4.6650 H   0  0  0  0  0  0  0  0  0  0  0  0
    1.6438    5.7125   -3.5970 H   0  0  0  0  0  0  0  0  0  0  0  0
    3.2126    6.4809   -3.1785 H   0  0  0  0  0  0  0  0  0  0  0  0
  1  3  1  0  0  0  0
  1  7  1  0  0  0  0
  1  2  2  0  0  0  0
 31 32  1  0  0  0  0
 32 40  1  0  0  0  0
 32 33  2  0  0  0  0
  8  9  1  0  0  0  0
  9 17  1  0  0  0  0
  9 10  2  0  0  0  0
 18 19  1  0  0  0  0
 19 30  1  0  0  0  0
 19 20  2  0  0  0  0
 21 22  1  0  0  0  0
 22 23  2  0  0  0  0
 22 24  1  0  0  0  0
 31 34  1  0  0  0  0
  8 11  1  0  0  0  0
 40 41  1  0  0  0  0
 18 21  1  0  0  0  0
 30 31  1  0  0  0  0
  7  8  1  0  0  0  0
 17 18  1  0  0  0  0
  3  4  1  0  0  0  0
  3  5  1  0  0  0  0
  3  6  1  0  0  0  0
 34 37  1  0  0  0  0
 34 38  1  0  0  0  0
 34 39  1  0  0  0  0
 11 14  1  0  0  0  0
 11 15  1  0  0  0  0
 11 16  1  0  0  0  0
 41 43  1  0  0  0  0
 41 44  1  0  0  0  0
 41 45  1  0  0  0  0
 21 27  1  0  0  0  0
 21 28  1  0  0  0  0
 31 36  1  0  0  0  0
  8 13  1  0  0  0  0
 18 26  1  0  0  0  0
 40 42  1  0  0  0  0
  7 12  1  0  0  0  0
 30 35  1  0  0  0  0
 17 25  1  0  0  0  0
 24 29  1  0  0  0  0
M  END
$$$$

  -OEChem-05262214473D

 45 44  0     1  0  0  0  0  0999 V2000
   -2.2987    4.1032   -0.3022 C   0  0  0  0  0  0  0  0  0  0  0  0
   -1.8049    3.7117   -1.3532 O   0  0  0  0  0  0  0  0  0  0  0  0
   -3.0791    5.3755   -0.2846 C   0  0  0  0  0  0  0  0  0  0  0  0
   -2.4478    6.2532   -0.0717 H   0  0  0  0  0  0  0  0  0  0  0  0
   -3.5571    5.5891   -1.2541 H   0  0  0  0  0  0  0  0  0  0  0  0
   -3.8940    5.4184    0.4556 H   0  0  0  0  0  0  0  0  0  0  0  0
   -2.2137    3.4712    0.9275 N   0  0  0  0  0  0  0  0  0  0  0  0
   -1.5102    2.2327    1.1338 C   0  0  2  0  0  0  0  0  0  0  0  0
   -1.3539    1.5497   -0.2184 C   0  0  0  0  0  0  0  0  0  0  0  0
   -2.0852    1.7861   -1.1778 O   0  0  0  0  0  0  0  0  0  0  0  0
   -2.2477    1.3342    2.1145 C   0  0  0  0  0  0  0  0  0  0  0  0
   -2.6724    3.9052    1.7265 H   0  0  0  0  0  0  0  0  0  0  0  0
   -0.5220    2.4922    1.5290 H   0  0  0  0  0  0  0  0  0  0  0  0
   -3.2400    1.0636    1.7358 H   0  0  0  0  0  0  0  0  0  0  0  0
   -1.6970    0.4046    2.2923 H   0  0  0  0  0  0  0  0  0  0  0  0
   -2.3854    1.8384    3.0772 H   0  0  0  0  0  0  0  0  0  0  0  0
   -0.3283    0.6116   -0.2182 N   0  0  0  0  0  0  0  0  0  0  0  0
    0.0090   -0.1762   -1.3759 C   0  0  2  0  0  0  0  0  0  0  0  0
    1.0543    0.5928   -2.1739 C   0  0  0  0  0  0  0  0  0  0  0  0
    0.9821    0.7548   -3.3903 O   0  0  0  0  0  0  0  0  0  0  0  0
   -1.2151   -0.4795   -2.2358 C   0  0  0  0  0  0  0  0  0  0  0  0
   -2.1543   -1.4304   -1.5353 C   0  0  0  0  0  0  0  0  0  0  0  0
   -1.7950   -2.2718   -0.7221 O   0  0  0  0  0  0  0  0  0  0  0  0
   -3.4446   -1.2646   -1.9178 O   0  0  0  0  0  0  0  0  0  0  0  0
    0.2381    0.4970    0.6194 H   0  0  0  0  0  0  0  0  0  0  0  0
    0.4605   -1.1011   -0.9970 H   0  0  0  0  0  0  0  0  0  0  0  0
   -1.7892    0.4324   -2.4431 H   0  0  0  0  0  0  0  0  0  0  0  0
   -0.9452   -0.8884   -3.2171 H   0  0  0  0  0  0  0  0  0  0  0  0
   -4.0844   -1.8747   -1.4923 H   0  0  0  0  0  0  0  0  0  0  0  0
    2.0506    1.1168   -1.3621 N   0  0  0  0  0  0  0  0  0  0  0  0
    3.1483    1.8986   -1.8814 C   0  0  2  0  0  0  0  0  0  0  0  0
    2.5834    3.2120   -2.4061 C   0  0  0  0  0  0  0  0  0  0  0  0
    1.4080    3.3517   -2.7379 O   0  0  0  0  0  0  0  0  0  0  0  0
    3.8910    1.1500   -2.9772 C   0  0  0  0  0  0  0  0  0  0  0  0
    2.0059    0.9434   -0.3622 H   0  0  0  0  0  0  0  0  0  0  0  0
    3.8197    2.0996   -1.0395 H   0  0  0  0  0  0  0  0  0  0  0  0
    3.2344    0.9397   -3.8294 H   0  0  0  0  0  0  0  0  0  0  0  0
    4.7402    1.7322   -3.3501 H   0  0  0  0  0  0  0  0  0  0  0  0
    4.2710    0.1921   -2.6061 H   0  0  0  0  0  0  0  0  0  0  0  0
    3.5559    4.1976   -2.5010 N   0  0  0  0  0  0  0  0  0  0  0  0
    3.2723    5.5288   -2.9840 C   0  0  0  0  0  0  0  0  0  0  0  0
    4.5009    3.9991   -2.1857 H   0  0  0  0  0  0  0  0  0  0  0  0
    3.4590    5.5741   -4.0671 H   0  0  0  0  0  0  0  0  0  0  0  0
    2.2192    5.7750   -2.7830 H   0  0  0  0  0  0  0  0  0  0  0  0
    3.9225    6.2517   -2.4695 H   0  0  0  0  0  0  0  0  0  0  0  0
  1  3  1  0  0  0  0
  1  7  1  0  0  0  0
  1  2  2  0  0  0  0
 31 32  1  0  0  0  0
 32 40  1  0  0  0  0
 32 33  2  0  0  0  0
  8  9  1  0  0  0  0
  9 17  1  0  0  0  0
  9 10  2  0  0  0  0
 18 19  1  0  0  0  0
 19 30  1  0  0  0  0
 19 20  2  0  0  0  0
 21 22  1  0  0  0  0
 22 23  2  0  0  0  0
 22 24  1  0  0  0  0
 31 34  1  0  0  0  0
  8 11  1  0  0  0  0
 40 41  1  0  0  0  0
 18 21  1  0  0  0  0
 30 31  1  0  0  0  0
  7  8  1  0  0  0  0
 17 18  1  0  0  0  0
  3  4  1  0  0  0  0
  3  5  1  0  0  0  0
  3  6  1  0  0  0  0
 34 37  1  0  0  0  0
 34 38  1  0  0  0  0
 34 39  1  0  0  0  0
 11 14  1  0  0  0  0
 11 15  1  0  0  0  0
 11 16  1  0  0  0  0
 41 43  1  0  0  0  0
 41 44  1  0  0  0  0
 41 45  1  0  0  0  0
 21 27  1  0  0  0  0
 21 28  1  0  0  0  0
 31 36  1  0  0  0  0
  8 13  1  0  0  0  0
 18 26  1  0  0  0  0
 40 42  1  0  0  0  0
  7 12  1  0  0  0  0
 30 35  1  0  0  0  0
 17 25  1  0  0  0  0
 24 29  1  0  0  0  0
M  END
$$$$

  -OEChem-05262214473D

 45 44  0     1  0  0  0  0  0999 V2000
   -2.2987    4.1032   -0.3022 C   0  0  0  0  0  0  0  0  0  0  0  0
   -1.8049    3.7117   -1.3532 O   0  0  0  0  0  0  0  0  0  0  0  0
   -3.0791    5.3755   -0.2846 C   0  0  0  0  0  0  0  0  0  0  0  0
   -2.4478    6.2532   -0.0717 H   0  0  0  0  0  0  0  0  0  0  0  0
   -3.5571    5.5891   -1.2541 H   0  0  0  0  0  0  0  0  0  0  0  0
   -3.8940    5.4184    0.4556 H   0  0  0  0  0  0  0  0  0  0  0  0
   -2.2137    3.4712    0.9275 N   0  0  0  0  0  0  0  0  0  0  0  0
   -1.5102    2.2327    1.1338 C   0  0  2  0  0  0  0  0  0  0  0  0
   -1.3539    1.5497   -0.2184 C   0  0  0  0  0  0  0  0  0  0  0  0
   -2.0852    1.7861   -1.1778 O   0  0  0  0  0  0  0  0  0  0  0  0
   -2.2477    1.3342    2.1145 C   0  0  0  0  0  0  0  0  0  0  0  0
   -2.6724    3.9052    1.7265 H   0  0  0  0  0  0  0  0  0  0  0  0
   -0.5220    2.4922    1.5290 H   0  0  0  0  0  0  0  0  0  0  0  0
   -3.2400    1.0636    1.7358 H   0  0  0  0  0  0  0  0  0  0  0  0
   -1.6970    0.4046    2.2923 H   0  0  0  0  0  0  0  0  0  0  0  0
   -2.3854    1.8384    3.0772 H   0  0  0  0  0  0  0  0  0  0  0  0
   -0.3283    0.6116   -0.2182 N   0  0  0  0  0  0  0  0  0  0  0  0
    0.0090   -0.1762   -1.3759 C   0  0  2  0  0  0  0  0  0  0  0  0
    1.0543    0.5928   -2.1739 C   0  0  0  0  0  0  0  0  0  0  0  0
    0.8632    0.9866   -3.3226 O   0  0  0  0  0  0  0  0  0  0  0  0
   -1.2151   -0.4795   -2.2358 C   0  0  0  0  0  0  0  0  0  0  0  0
   -2.1543   -1.4304   -1.5353 C   0  0  0  0  0  0  0  0  0  0  0  0
   -1.7950   -2.2718   -0.7221 O   0  0  0  0  0  0  0  0  0  0  0  0
   -3.4446   -1.2646   -1.9178 O   0  0  0  0  0  0  0  0  0  0  0  0
    0.2381    0.4970    0.6194 H   0  0  0  0  0  0  0  0  0  0  0  0
    0.4605   -1.1011   -0.9970 H   0  0  0  0  0  0  0  0  0  0  0  0
   -1.7892    0.4324   -2.4431 H   0  0  0  0  0  0  0  0  0  0  0  0
   -0.9452   -0.8884   -3.2171 H   0  0  0  0  0  0  0  0  0  0  0  0
   -4.0844   -1.8747   -1.4923 H   0  0  0  0  0  0  0  0  0  0  0  0
    2.2060    0.8287   -1.4362 N   0  0  0  0  0  0  0  0  0  0  0  0
    3.3376    1.5517   -1.9678 C   0  0  2  0  0  0  0  0  0  0  0  0
    2.9143    2.9996   -2.1774 C   0  0  0  0  0  0  0  0  0  0  0  0
    1.7415    3.3432   -2.3094 O   0  0  0  0  0  0  0  0  0  0  0  0
    3.8269    0.9347   -3.2688 C   0  0  0  0  0  0  0  0  0  0  0  0
    2.2550    0.4787   -0.4839 H   0  0  0  0  0  0  0  0  0  0  0  0
    4.1262    1.5074   -1.2087 H   0  0  0  0  0  0  0  0  0  0  0  0
    3.0502    0.9700   -4.0415 H   0  0  0  0  0  0  0  0  0  0  0  0
    4.7023    1.4666   -3.6556 H   0  0  0  0  0  0  0  0  0  0  0  0
    4.1028   -0.1152   -3.1226 H   0  0  0  0  0  0  0  0  0  0  0  0
    4.0033    3.8575   -2.2427 N   0  0  0  0  0  0  0  0  0  0  0  0
    3.8638    5.2802   -2.4488 C   0  0  0  0  0  0  0  0  0  0  0  0
    4.9393    3.4882   -2.1037 H   0  0  0  0  0  0  0  0  0  0  0  0
    3.9256    5.5032   -3.5242 H   0  0  0  0  0  0  0  0  0  0  0  0
    2.8898    5.6129   -2.0608 H   0  0  0  0  0  0  0  0  0  0  0  0
    4.6698    5.8082   -1.9180 H   0  0  0  0  0  0  0  0  0  0  0  0
  1  3  1  0  0  0  0
  1  7  1  0  0  0  0
  1  2  2  0  0  0  0
 31 32  1  0  0  0  0
 32 40  1  0  0  0  0
 32 33  2  0  0  0  0
  8  9  1  0  0  0  0
  9 17  1  0  0  0  0
  9 10  2  0  0  0  0
 18 19  1  0  0  0  0
 19 30  1  0  0  0  0
 19 20  2  0  0  0  0
 21 22  1  0  0  0  0
 22 23  2  0  0  0  0
 22 24  1  0  0  0  0
 31 34  1  0  0  0  0
  8 11  1  0  0  0  0
 40 41  1  0  0  0  0
 18 21  1  0  0  0  0
 30 31  1  0  0  0  0
  7  8  1  0  0  0  0
 17 18  1  0  0  0  0
  3  4  1  0  0  0  0
  3  5  1  0  0  0  0
  3  6  1  0  0  0  0
 34 37  1  0  0  0  0
 34 38  1  0  0  0  0
 34 39  1  0  0  0  0
 11 14  1  0  0  0  0
 11 15  1  0  0  0  0
 11 16  1  0  0  0  0
 41 43  1  0  0  0  0
 41 44  1  0  0  0  0
 41 45  1  0  0  0  0
 21 27  1  0  0  0  0
 21 28  1  0  0  0  0
 31 36  1  0  0  0  0
  8 13  1  0  0  0  0
 18 26  1  0  0  0  0
 40 42  1  0  0  0  0
  7 12  1  0  0  0  0
 30 35  1  0  0  0  0
 17 25  1  0  0  0  0
 24 29  1  0  0  0  0
M  END
$$$$

  -OEChem-05262214473D

 45 44  0     1  0  0  0  0  0999 V2000
   -2.2987    4.1032   -0.3022 C   0  0  0  0  0  0  0  0  0  0  0  0
   -1.8049    3.7117   -1.3532 O   0  0  0  0  0  0  0  0  0  0  0  0
   -3.0791    5.3755   -0.2846 C   0  0  0  0  0  0  0  0  0  0  0  0
   -2.4478    6.2532   -0.0717 H   0  0  0  0  0  0  0  0  0  0  0  0
   -3.5571    5.5891   -1.2541 H   0  0  0  0  0  0  0  0  0  0  0  0
   -3.8940    5.4184    0.4556 H   0  0  0  0  0  0  0  0  0  0  0  0
   -2.2137    3.4712    0.9275 N   0  0  0  0  0  0  0  0  0  0  0  0
   -1.5102    2.2327    1.1338 C   0  0  2  0  0  0  0  0  0  0  0  0
   -1.3539    1.5497   -0.2184 C   0  0  0  0  0  0  0  0  0  0  0  0
   -2.0852    1.7861   -1.1778 O   0  0  0  0  0  0  0  0  0  0  0  0
   -2.2477    1.3342    2.1145 C   0  0  0  0  0  0  0  0  0  0  0  0
   -2.6724    3.9052    1.7265 H   0  0  0  0  0  0  0  0  0  0  0  0
   -0.5220    2.4922    1.5290 H   0  0  0  0  0  0  0  0  0  0  0  0
   -3.2400    1.0636    1.7358 H   0  0  0  0  0  0  0  0  0  0  0  0
   -1.6970    0.4046    2.2923 H   0  0  0  0  0  0  0  0  0  0  0  0
   -2.3854    1.8384    3.0772 H   0  0  0  0  0  0  0  0  0  0  0  0
   -0.3283    0.6116   -0.2182 N   0  0  0  0  0  0  0  0  0  0  0  0
    0.0090   -0.1762   -1.3759 C   0  0  2  0  0  0  0  0  0  0  0  0
    1.0543    0.5928   -2.1739 C   0  0  0  0  0  0  0  0  0  0  0  0
    0.7887    1.2146   -3.2005 O   0  0  0  0  0  0  0  0  0  0  0  0
   -1.2151   -0.4795   -2.2358 C   0  0  0  0  0  0  0  0  0  0  0  0
   -2.1543   -1.4304   -1.5353 C   0  0  0  0  0  0  0  0  0  0  0  0
   -1.7950   -2.2718   -0.7221 O   0  0  0  0  0  0  0  0  0  0  0  0
   -3.4446   -1.2646   -1.9178 O   0  0  0  0  0  0  0  0  0  0  0  0
    0.2381    0.4970    0.6194 H   0  0  0  0  0  0  0  0  0  0  0  0
    0.4605   -1.1011   -0.9970 H   0  0  0  0  0  0  0  0  0  0  0  0
   -1.7892    0.4324   -2.4431 H   0  0  0  0  0  0  0  0  0  0  0  0
   -0.9452   -0.8884   -3.2171 H   0  0  0  0  0  0  0  0  0  0  0  0
   -4.0844   -1.8747   -1.4923 H   0  0  0  0  0  0  0  0  0  0  0  0
    2.3073    0.5425   -1.5792 N   0  0  0  0  0  0  0  0  0  0  0  0
    3.4622    1.2063   -2.1375 C   0  0  2  0  0  0  0  0  0  0  0  0
    3.2351    2.7089   -2.0373 C   0  0  0  0  0  0  0  0  0  0  0  0
    2.1184    3.2136   -1.9406 O   0  0  0  0  0  0  0  0  0  0  0  0
    3.6976    0.7872   -3.5803 C   0  0  0  0  0  0  0  0  0  0  0  0
    2.4166    0.0176   -0.7164 H   0  0  0  0  0  0  0  0  0  0  0  0
    4.3199    0.9238   -1.5173 H   0  0  0  0  0  0  0  0  0  0  0  0
    2.8487    1.0619   -4.2169 H   0  0  0  0  0  0  0  0  0  0  0  0
    4.5899    1.2694   -3.9930 H   0  0  0  0  0  0  0  0  0  0  0  0
    3.8311   -0.2975   -3.6542 H   0  0  0  0  0  0  0  0  0  0  0  0
    4.4231    3.4224   -2.1121 N   0  0  0  0  0  0  0  0  0  0  0  0
    4.4714    4.8647   -2.0533 C   0  0  0  0  0  0  0  0  0  0  0  0
    5.3043    2.9208   -2.1725 H   0  0  0  0  0  0  0  0  0  0  0  0
    4.4376    5.2751   -3.0733 H   0  0  0  0  0  0  0  0  0  0  0  0
    3.6099    5.2372   -1.4796 H   0  0  0  0  0  0  0  0  0  0  0  0
    5.4035    5.1805   -1.5618 H   0  0  0  0  0  0  0  0  0  0  0  0
  1  3  1  0  0  0  0
  1  7  1  0  0  0  0
  1  2  2  0  0  0  0
 31 32  1  0  0  0  0
 32 40  1  0  0  0  0
 32 33  2  0  0  0  0
  8  9  1  0  0  0  0
  9 17  1  0  0  0  0
  9 10  2  0  0  0  0
 18 19  1  0  0  0  0
 19 30  1  0  0  0  0
 19 20  2  0  0  0  0
 21 22  1  0  0  0  0
 22 23  2  0  0  0  0
 22 24  1  0  0  0  0
 31 34  1  0  0  0  0
  8 11  1  0  0  0  0
 40 41  1  0  0  0  0
 18 21  1  0  0  0  0
 30 31  1  0  0  0  0
  7  8  1  0  0  0  0
 17 18  1  0  0  0  0
  3  4  1  0  0  0  0
  3  5  1  0  0  0  0
  3  6  1  0  0  0  0
 34 37  1  0  0  0  0
 34 38  1  0  0  0  0
 34 39  1  0  0  0  0
 11 14  1  0  0  0  0
 11 15  1  0  0  0  0
 11 16  1  0  0  0  0
 41 43  1  0  0  0  0
 41 44  1  0  0  0  0
 41 45  1  0  0  0  0
 21 27  1  0  0  0  0
 21 28  1  0  0  0  0
 31 36  1  0  0  0  0
  8 13  1  0  0  0  0
 18 26  1  0  0  0  0
 40 42  1  0  0  0  0
  7 12  1  0  0  0  0
 30 35  1  0  0  0  0
 17 25  1  0  0  0  0
 24 29  1  0  0  0  0
M  END
$$$$

  -OEChem-05262214473D

 45 44  0     1  0  0  0  0  0999 V2000
   -2.2987    4.1032   -0.3022 C   0  0  0  0  0  0  0  0  0  0  0  0
   -1.8049    3.7117   -1.3532 O   0  0  0  0  0  0  0  0  0  0  0  0
   -3.0791    5.3755   -0.2846 C   0  0  0  0  0  0  0  0  0  0  0  0
   -2.4478    6.2532   -0.0717 H   0  0  0  0  0  0  0  0  0  0  0  0
   -3.5571    5.5891   -1.2541 H   0  0  0  0  0  0  0  0  0  0  0  0
   -3.8940    5.4184    0.4556 H   0  0  0  0  0  0  0  0  0  0  0  0
   -2.2137    3.4712    0.9275 N   0  0  0  0  0  0  0  0  0  0  0  0
   -1.5102    2.2327    1.1338 C   0  0  2  0  0  0  0  0  0  0  0  0
   -1.3539    1.5497   -0.2184 C   0  0  0  0  0  0  0  0  0  0  0  0
   -2.0852    1.7861   -1.1778 O   0  0  0  0  0  0  0  0  0  0  0  0
   -2.2477    1.3342    2.1145 C   0  0  0  0  0  0  0  0  0  0  0  0
   -2.6724    3.9052    1.7265 H   0  0  0  0  0  0  0  0  0  0  0  0
   -0.5220    2.4922    1.5290 H   0  0  0  0  0  0  0  0  0  0  0  0
   -3.2400    1.0636    1.7358 H   0  0  0  0  0  0  0  0  0  0  0  0
   -1.6970    0.4046    2.2923 H   0  0  0  0  0  0  0  0  0  0  0  0
   -2.3854    1.8384    3.0772 H   0  0  0  0  0  0  0  0  0  0  0  0
   -0.3283    0.6116   -0.2182 N   0  0  0  0  0  0  0  0  0  0  0  0
    0.0090   -0.1762   -1.3759 C   0  0  2  0  0  0  0  0  0  0  0  0
    1.0543    0.5928   -2.1739 C   0  0  0  0  0  0  0  0  0  0  0  0
    0.7636    1.4233   -3.0323 O   0  0  0  0  0  0  0  0  0  0  0  0
   -1.2151   -0.4795   -2.2358 C   0  0  0  0  0  0  0  0  0  0  0  0
   -2.1543   -1.4304   -1.5353 C   0  0  0  0  0  0  0  0  0  0  0  0
   -1.7950   -2.2718   -0.7221 O   0  0  0  0  0  0  0  0  0  0  0  0
   -3.4446   -1.2646   -1.9178 O   0  0  0  0  0  0  0  0  0  0  0  0
    0.2381    0.4970    0.6194 H   0  0  0  0  0  0  0  0  0  0  0  0
    0.4605   -1.1011   -0.9970 H   0  0  0  0  0  0  0  0  0  0  0  0
   -1.7892    0.4324   -2.4431 H   0  0  0  0  0  0  0  0  0  0  0  0
   -0.9452   -0.8884   -3.2171 H   0  0  0  0  0  0  0  0  0  0  0  0
   -4.0844   -1.8747   -1.4923 H   0  0  0  0  0  0  0  0  0  0  0  0
    2.3477    0.2777   -1.7814 N   0  0  0  0  0  0  0  0  0  0  0  0
    3.5135    0.8859   -2.3790 C   0  0  2  0  0  0  0  0  0  0  0  0
    3.5238    2.3598   -1.9956 C   0  0  0  0  0  0  0  0  0  0  0  0
    2.5130    2.9718   -1.6566 O   0  0  0  0  0  0  0  0  0  0  0  0
    3.5121    0.7175   -3.8904 C   0  0  0  0  0  0  0  0  0  0  0  0
    2.4798   -0.4083   -1.0441 H   0  0  0  0  0  0  0  0  0  0  0  0
    4.3875    0.3888   -1.9444 H   0  0  0  0  0  0  0  0  0  0  0  0
    2.6436    1.2091   -4.3437 H   0  0  0  0  0  0  0  0  0  0  0  0
    4.4105    1.1540   -4.3392 H   0  0  0  0  0  0  0  0  0  0  0  0
    3.4746   -0.3424   -4.1644 H   0  0  0  0  0  0  0  0  0  0  0  0
    4.7867    2.9221   -2.1180 N   0  0  0  0  0  0  0  0  0  0  0  0
    5.0536    4.3108   -1.8244 C   0  0  0  0  0  0  0  0  0  0  0  0
    5.5709    2.3354   -2.3874 H   0  0  0  0  0  0  0  0  0  0  0  0
    4.9601    4.9053   -2.7452 H   0  0  0  0  0  0  0  0  0  0  0  0
    4.3305    4.6734   -1.0790 H   0  0  0  0  0  0  0  0  0  0  0  0
    6.0736    4.4115   -1.4250 H   0  0  0  0  0  0  0  0  0  0  0  0
  1  3  1  0  0  0  0
  1  7  1  0  0  0  0
  1  2  2  0  0  0  0
 31 32  1  0  0  0  0
 32 40  1  0  0  0  0
 32 33  2  0  0  0  0
  8  9  1  0  0  0  0
  9 17  1  0  0  0  0
  9 10  2  0  0  0  0
 18 19  1  0  0  0  0
 19 30  1  0  0  0  0
 19 20  2  0  0  0  0
 21 22  1  0  0  0  0
 22 23  2  0  0  0  0
 22 24  1  0  0  0  0
 31 34  1  0  0  0  0
  8 11  1  0  0  0  0
 40 41  1  0  0  0  0
 18 21  1  0  0  0  0
 30 31  1  0  0  0  0
  7  8  1  0  0  0  0
 17 18  1  0  0  0  0
  3  4  1  0  0  0  0
  3  5  1  0  0  0  0
  3  6  1  0  0  0  0
 34 37  1  0  0  0  0
 34 38  1  0  0  0  0
 34 39  1  0  0  0  0
 11 14  1  0  0  0  0
 11 15  1  0  0  0  0
 11 16  1  0  0  0  0
 41 43  1  0  0  0  0
 41 44  1  0  0  0  0
 41 45  1  0  0  0  0
 21 27  1  0  0  0  0
 21 28  1  0  0  0  0
 31 36  1  0  0  0  0
  8 13  1  0  0  0  0
 18 26  1  0  0  0  0
 40 42  1  0  0  0  0
  7 12  1  0  0  0  0
 30 35  1  0  0  0  0
 17 25  1  0  0  0  0
 24 29  1  0  0  0  0
M  END
$$$$

  -OEChem-05262214473D

 45 44  0     1  0  0  0  0  0999 V2000
   -2.2987    4.1032   -0.3022 C   0  0  0  0  0  0  0  0  0  0  0  0
   -1.8049    3.7117   -1.3532 O   0  0  0  0  0  0  0  0  0  0  0  0
   -3.0791    5.3755   -0.2846 C   0  0  0  0  0  0  0  0  0  0  0  0
   -2.4478    6.2532   -0.0717 H   0  0  0  0  0  0  0  0  0  0  0  0
   -3.5571    5.5891   -1.2541 H   0  0  0  0  0  0  0  0  0  0  0  0
   -3.8940    5.4184    0.4556 H   0  0  0  0  0  0  0  0  0  0  0  0
   -2.2137    3.4712    0.9275 N   0  0  0  0  0  0  0  0  0  0  0  0
   -1.5102    2.2327    1.1338 C   0  0  2  0  0  0  0  0  0  0  0  0
   -1.3539    1.5497   -0.2184 C   0  0  0  0  0  0  0  0  0  0  0  0
   -2.0852    1.7861   -1.1778 O   0  0  0  0  0  0  0  0  0  0  0  0
   -2.2477    1.3342    2.1145 C   0  0  0  0  0  0  0  0  0  0  0  0
   -2.6724    3.9052    1.7265 H   0  0  0  0  0  0  0  0  0  0  0  0
   -0.5220    2.4922    1.5290 H   0  0  0  0  0  0  0  0  0  0  0  0
   -3.2400    1.0636    1.7358 H   0  0  0  0  0  0  0  0  0  0  0  0
   -1.6970    0.4046    2.2923 H   0  0  0  0  0  0  0  0  0  0  0  0
   -2.3854    1.8384    3.0772 H   0  0  0  0  0  0  0  0  0  0  0  0
   -0.3283    0.6116   -0.2182 N   0  0  0  0  0  0  0  0  0  0  0  0
    0.0090   -0.1762   -1.3759 C   0  0  2  0  0  0  0  0  0  0  0  0
    1.0543    0.5928   -2.1739 C   0  0  0  0  0  0  0  0  0  0  0  0
    0.7896    1.5984   -2.8295 O   0  0  0  0  0  0  0  0  0  0  0  0
   -1.2151   -0.4795   -2.2358 C   0  0  0  0  0  0  0  0  0  0  0  0
   -2.1543   -1.4304   -1.5353 C   0  0  0  0  0  0  0  0  0  0  0  0
   -1.7950   -2.2718   -0.7221 O   0  0  0  0  0  0  0  0  0  0  0  0
   -3.4446   -1.2646   -1.9178 O   0  0  0  0  0  0  0  0  0  0  0  0
    0.2381    0.4970    0.6194 H   0  0  0  0  0  0  0  0  0  0  0  0
    0.4605   -1.1011   -0.9970 H   0  0  0  0  0  0  0  0  0  0  0  0
   -1.7892    0.4324   -2.4431 H   0  0  0  0  0  0  0  0  0  0  0  0
   -0.9452   -0.8884   -3.2171 H   0  0  0  0  0  0  0  0  0  0  0  0
   -4.0844   -1.8747   -1.4923 H   0  0  0  0  0  0  0  0  0  0  0  0
    2.3244    0.0524   -2.0291 N   0  0  0  0  0  0  0  0  0  0  0  0
    3.4880    0.6124   -2.6760 C   0  0  2  0  0  0  0  0  0  0  0  0
    3.7608    1.9760   -2.0550 C   0  0  0  0  0  0  0  0  0  0  0  0
    2.8986    2.6343   -1.4768 O   0  0  0  0  0  0  0  0  0  0  0  0
    3.2829    0.7304   -4.1782 C   0  0  0  0  0  0  0  0  0  0  0  0
    2.4404   -0.7701   -1.4445 H   0  0  0  0  0  0  0  0  0  0  0  0
    4.3245   -0.0614   -2.4608 H   0  0  0  0  0  0  0  0  0  0  0  0
    2.4488    1.4017   -4.4133 H   0  0  0  0  0  0  0  0  0  0  0  0
    4.1763    1.1284   -4.6706 H   0  0  0  0  0  0  0  0  0  0  0  0
    3.0574   -0.2467   -4.6187 H   0  0  0  0  0  0  0  0  0  0  0  0
    5.0693    2.3906   -2.2601 N   0  0  0  0  0  0  0  0  0  0  0  0
    5.5708    3.6562   -1.7777 C   0  0  0  0  0  0  0  0  0  0  0  0
    5.7210    1.7720   -2.7338 H   0  0  0  0  0  0  0  0  0  0  0  0
    5.4576    4.4190   -2.5622 H   0  0  0  0  0  0  0  0  0  0  0  0
    5.0025    3.9600   -0.8863 H   0  0  0  0  0  0  0  0  0  0  0  0
    6.6346    3.5536   -1.5170 H   0  0  0  0  0  0  0  0  0  0  0  0
  1  3  1  0  0  0  0
  1  7  1  0  0  0  0
  1  2  2  0  0  0  0
 31 32  1  0  0  0  0
 32 40  1  0  0  0  0
 32 33  2  0  0  0  0
  8  9  1  0  0  0  0
  9 17  1  0  0  0  0
  9 10  2  0  0  0  0
 18 19  1  0  0  0  0
 19 30  1  0  0  0  0
 19 20  2  0  0  0  0
 21 22  1  0  0  0  0
 22 23  2  0  0  0  0
 22 24  1  0  0  0  0
 31 34  1  0  0  0  0
  8 11  1  0  0  0  0
 40 41  1  0  0  0  0
 18 21  1  0  0  0  0
 30 31  1  0  0  0  0
  7  8  1  0  0  0  0
 17 18  1  0  0  0  0
  3  4  1  0  0  0  0
  3  5  1  0  0  0  0
  3  6  1  0  0  0  0
 34 37  1  0  0  0  0
 34 38  1  0  0  0  0
 34 39  1  0  0  0  0
 11 14  1  0  0  0  0
 11 15  1  0  0  0  0
 11 16  1  0  0  0  0
 41 43  1  0  0  0  0
 41 44  1  0  0  0  0
 41 45  1  0  0  0  0
 21 27  1  0  0  0  0
 21 28  1  0  0  0  0
 31 36  1  0  0  0  0
  8 13  1  0  0  0  0
 18 26  1  0  0  0  0
 40 42  1  0  0  0  0
  7 12  1  0  0  0  0
 30 35  1  0  0  0  0
 17 25  1  0  0  0  0
 24 29  1  0  0  0  0
M  END
$$$$

  -OEChem-05262214473D

 45 44  0     1  0  0  0  0  0999 V2000
   -2.2987    4.1032   -0.3022 C   0  0  0  0  0  0  0  0  0  0  0  0
   -1.8049    3.7117   -1.3532 O   0  0  0  0  0  0  0  0  0  0  0  0
   -3.0791    5.3755   -0.2846 C   0  0  0  0  0  0  0  0  0  0  0  0
   -2.4478    6.2532   -0.0717 H   0  0  0  0  0  0  0  0  0  0  0  0
   -3.5571    5.5891   -1.2541 H   0  0  0  0  0  0  0  0  0  0  0  0
   -3.8940    5.4184    0.4556 H   0  0  0  0  0  0  0  0  0  0  0  0
   -2.2137    3.4712    0.9275 N   0  0  0  0  0  0  0  0  0  0  0  0
   -1.5102    2.2327    1.1338 C   0  0  2  0  0  0  0  0  0  0  0  0
   -1.3539    1.5497   -0.2184 C   0  0  0  0  0  0  0  0  0  0  0  0
   -2.0852    1.7861   -1.1778 O   0  0  0  0  0  0  0  0  0  0  0  0
   -2.2477    1.3342    2.1145 C   0  0  0  0  0  0  0  0  0  0  0  0
   -2.6724    3.9052    1.7265 H   0  0  0  0  0  0  0  0  0  0  0  0
   -0.5220    2.4922    1.5290 H   0  0  0  0  0  0  0  0  0  0  0  0
   -3.2400    1.0636    1.7358 H   0  0  0  0  0  0  0  0  0  0  0  0
   -1.6970    0.4046    2.2923 H   0  0  0  0  0  0  0  0  0  0  0  0
   -2.3854    1.8384    3.0772 H   0  0  0  0  0  0  0  0  0  0  0  0
   -0.3283    0.6116   -0.2182 N   0  0  0  0  0  0  0  0  0  0  0  0
    0.0090   -0.1762   -1.3759 C   0  0  2  0  0  0  0  0  0  0  0  0
    1.0543    0.5928   -2.1739 C   0  0  0  0  0  0  0  0  0  0  0  0
    0.8649    1.7280   -2.6060 O   0  0  0  0  0  0  0  0  0  0  0  0
   -1.2151   -0.4795   -2.2358 C   0  0  0  0  0  0  0  0  0  0  0  0
   -2.1543   -1.4304   -1.5353 C   0  0  0  0  0  0  0  0  0  0  0  0
   -1.7950   -2.2718   -0.7221 O   0  0  0  0  0  0  0  0  0  0  0  0
   -3.4446   -1.2646   -1.9178 O   0  0  0  0  0  0  0  0  0  0  0  0
    0.2381    0.4970    0.6194 H   0  0  0  0  0  0  0  0  0  0  0  0
    0.4605   -1.1011   -0.9970 H   0  0  0  0  0  0  0  0  0  0  0  0
   -1.7892    0.4324   -2.4431 H   0  0  0  0  0  0  0  0  0  0  0  0
   -0.9452   -0.8884   -3.2171 H   0  0  0  0  0  0  0  0  0  0  0  0
   -4.0844   -1.8747   -1.4923 H   0  0  0  0  0  0  0  0  0  0  0  0
    2.2390   -0.1181   -2.3052 N   0  0  0  0  0  0  0  0  0  0  0  0
    3.3876    0.4044   -3.0080 C   0  0  2  0  0  0  0  0  0  0  0  0
    3.9299    1.5838   -2.2115 C   0  0  0  0  0  0  0  0  0  0  0  0
    3.2487    2.2242   -1.4134 O   0  0  0  0  0  0  0  0  0  0  0  0
    3.0256    0.8251   -4.4239 C   0  0  0  0  0  0  0  0  0  0  0  0
    2.3009   -1.0432   -1.8904 H   0  0  0  0  0  0  0  0  0  0  0  0
    4.1351   -0.3960   -3.0313 H   0  0  0  0  0  0  0  0  0  0  0  0
    2.2777    1.6264   -4.4208 H   0  0  0  0  0  0  0  0  0  0  0  0
    3.9033    1.1943   -4.9647 H   0  0  0  0  0  0  0  0  0  0  0  0
    2.6081   -0.0171   -4.9860 H   0  0  0  0  0  0  0  0  0  0  0  0
    5.2516    1.8641   -2.5286 N   0  0  0  0  0  0  0  0  0  0  0  0
    5.9878    2.9455   -1.9165 C   0  0  0  0  0  0  0  0  0  0  0  0
    5.7443    1.2689   -3.1880 H   0  0  0  0  0  0  0  0  0  0  0  0
    5.8961    3.8493   -2.5368 H   0  0  0  0  0  0  0  0  0  0  0  0
    5.5800    3.1456   -0.9147 H   0  0  0  0  0  0  0  0  0  0  0  0
    7.0481    2.6652   -1.8316 H   0  0  0  0  0  0  0  0  0  0  0  0
  1  3  1  0  0  0  0
  1  7  1  0  0  0  0
  1  2  2  0  0  0  0
 31 32  1  0  0  0  0
 32 40  1  0  0  0  0
 32 33  2  0  0  0  0
  8  9  1  0  0  0  0
  9 17  1  0  0  0  0
  9 10  2  0  0  0  0
 18 19  1  0  0  0  0
 19 30  1  0  0  0  0
 19 20  2  0  0  0  0
 21 22  1  0  0  0  0
 22 23  2  0  0  0  0
 22 24  1  0  0  0  0
 31 34  1  0  0  0  0
  8 11  1  0  0  0  0
 40 41  1  0  0  0  0
 18 21  1  0  0  0  0
 30 31  1  0  0  0  0
  7  8  1  0  0  0  0
 17 18  1  0  0  0  0
  3  4  1  0  0  0  0
  3  5  1  0  0  0  0
  3  6  1  0  0  0  0
 34 37  1  0  0  0  0
 34 38  1  0  0  0  0
 34 39  1  0  0  0  0
 11 14  1  0  0  0  0
 11 15  1  0  0  0  0
 11 16  1  0  0  0  0
 41 43  1  0  0  0  0
 41 44  1  0  0  0  0
 41 45  1  0  0  0  0
 21 27  1  0  0  0  0
 21 28  1  0  0  0  0
 31 36  1  0  0  0  0
  8 13  1  0  0  0  0
 18 26  1  0  0  0  0
 40 42  1  0  0  0  0
  7 12  1  0  0  0  0
 30 35  1  0  0  0  0
 17 25  1  0  0  0  0
 24 29  1  0  0  0  0
M  END
$$$$

  -OEChem-05262214473D

 45 44  0     1  0  0  0  0  0999 V2000
   -2.2987    4.1032   -0.3022 C   0  0  0  0  0  0  0  0  0  0  0  0
   -1.8049    3.7117   -1.3532 O   0  0  0  0  0  0  0  0  0  0  0  0
   -3.0791    5.3755   -0.2846 C   0  0  0  0  0  0  0  0  0  0  0  0
   -2.4478    6.2532   -0.0717 H   0  0  0  0  0  0  0  0  0  0  0  0
   -3.5571    5.5891   -1.2541 H   0  0  0  0  0  0  0  0  0  0  0  0
   -3.8940    5.4184    0.4556 H   0  0  0  0  0  0  0  0  0  0  0  0
   -2.2137    3.4712    0.9275 N   0  0  0  0  0  0  0  0  0  0  0  0
   -1.5102    2.2327    1.1338 C   0  0  2  0  0  0  0  0  0  0  0  0
   -1.3539    1.5497   -0.2184 C   0  0  0  0  0  0  0  0  0  0  0  0
   -2.0852    1.7861   -1.1778 O   0  0  0  0  0  0  0  0  0  0  0  0
   -2.2477    1.3342    2.1145 C   0  0  0  0  0  0  0  0  0  0  0  0
   -2.6724    3.9052    1.7265 H   0  0  0  0  0  0  0  0  0  0  0  0
   -0.5220    2.4922    1.5290 H   0  0  0  0  0  0  0  0  0  0  0  0
   -3.2400    1.0636    1.7358 H   0  0  0  0  0  0  0  0  0  0  0  0
   -1.6970    0.4046    2.2923 H   0  0  0  0  0  0  0  0  0  0  0  0
   -2.3854    1.8384    3.0772 H   0  0  0  0  0  0  0  0  0  0  0  0
   -0.3283    0.6116   -0.2182 N   0  0  0  0  0  0  0  0  0  0  0  0
    0.0090   -0.1762   -1.3759 C   0  0  2  0  0  0  0  0  0  0  0  0
    1.0543    0.5928   -2.1739 C   0  0  0  0  0  0  0  0  0  0  0  0
    0.9844    1.8032   -2.3769 O   0  0  0  0  0  0  0  0  0  0  0  0
   -1.2151   -0.4795   -2.2358 C   0  0  0  0  0  0  0  0  0  0  0  0
   -2.1543   -1.4304   -1.5353 C   0  0  0  0  0  0  0  0  0  0  0  0
   -1.7950   -2.2718   -0.7221 O   0  0  0  0  0  0  0  0  0  0  0  0
   -3.4446   -1.2646   -1.9178 O   0  0  0  0  0  0  0  0  0  0  0  0
    0.2381    0.4970    0.6194 H   0  0  0  0  0  0  0  0  0  0  0  0
    0.4605   -1.1011   -0.9970 H   0  0  0  0  0  0  0  0  0  0  0  0
   -1.7892    0.4324   -2.4431 H   0  0  0  0  0  0  0  0  0  0  0  0
   -0.9452   -0.8884   -3.2171 H   0  0  0  0  0  0  0  0  0  0  0  0
   -4.0844   -1.8747   -1.4923 H   0  0  0  0  0  0  0  0  0  0  0  0
    2.0974   -0.2221   -2.5911 N   0  0  0  0  0  0  0  0  0  0  0  0
    3.2190    0.2760   -3.3526 C   0  0  2  0  0  0  0  0  0  0  0  0
    4.0196    1.2097   -2.4544 C   0  0  0  0  0  0  0  0  0  0  0  0
    3.5396    1.7692   -1.4708 O   0  0  0  0  0  0  0  0  0  0  0  0
    2.7579    0.9951   -4.6108 C   0  0  0  0  0  0  0  0  0  0  0  0
    2.0709   -1.2088   -2.3513 H   0  0  0  0  0  0  0  0  0  0  0  0
    3.8323   -0.5922   -3.6170 H   0  0  0  0  0  0  0  0  0  0  0  0
    2.1419    1.8680   -4.3658 H   0  0  0  0  0  0  0  0  0  0  0  0
    3.6101    1.3472   -5.2014 H   0  0  0  0  0  0  0  0  0  0  0  0
    2.1572    0.3308   -5.2414 H   0  0  0  0  0  0  0  0  0  0  0  0
    5.3213    1.3785   -2.9053 N   0  0  0  0  0  0  0  0  0  0  0  0
    6.2760    2.2271   -2.2312 C   0  0  0  0  0  0  0  0  0  0  0  0
    5.6393    0.8605   -3.7191 H   0  0  0  0  0  0  0  0  0  0  0  0
    6.2458    3.2351   -2.6707 H   0  0  0  0  0  0  0  0  0  0  0  0
    6.0237    2.2856   -1.1622 H   0  0  0  0  0  0  0  0  0  0  0  0
    7.2859    1.8069   -2.3471 H   0  0  0  0  0  0  0  0  0  0  0  0
  1  3  1  0  0  0  0
  1  7  1  0  0  0  0
  1  2  2  0  0  0  0
 31 32  1  0  0  0  0
 32 40  1  0  0  0  0
 32 33  2  0  0  0  0
  8  9  1  0  0  0  0
  9 17  1  0  0  0  0
  9 10  2  0  0  0  0
 18 19  1  0  0  0  0
 19 30  1  0  0  0  0
 19 20  2  0  0  0  0
 21 22  1  0  0  0  0
 22 23  2  0  0  0  0
 22 24  1  0  0  0  0
 31 34  1  0  0  0  0
  8 11  1  0  0  0  0
 40 41  1  0  0  0  0
 18 21  1  0  0  0  0
 30 31  1  0  0  0  0
  7  8  1  0  0  0  0
 17 18  1  0  0  0  0
  3  4  1  0  0  0  0
  3  5  1  0  0  0  0
  3  6  1  0  0  0  0
 34 37  1  0  0  0  0
 34 38  1  0  0  0  0
 34 39  1  0  0  0  0
 11 14  1  0  0  0  0
 11 15  1  0  0  0  0
 11 16  1  0  0  0  0
 41 43  1  0  0  0  0
 41 44  1  0  0  0  0
 41 45  1  0  0  0  0
 21 27  1  0  0  0  0
 21 28  1  0  0  0  0
 31 36  1  0  0  0  0
  8 13  1  0  0  0  0
 18 26  1  0  0  0  0
 40 42  1  0  0  0  0
  7 12  1  0  0  0  0
 30 35  1  0  0  0  0
 17 25  1  0  0  0  0
 24 29  1  0  0  0  0
M  END
$$$$

  -OEChem-05262214473D

 45 44  0     1  0  0  0  0  0999 V2000
   -2.2987    4.1032   -0.3022 C   0  0  0  0  0  0  0  0  0  0  0  0
   -1.8049    3.7117   -1.3532 O   0  0  0  0  0  0  0  0  0  0  0  0
   -3.0791    5.3755   -0.2846 C   0  0  0  0  0  0  0  0  0  0  0  0
   -2.4478    6.2532   -0.0717 H   0  0  0  0  0  0  0  0  0  0  0  0
   -3.5571    5.5891   -1.2541 H   0  0  0  0  0  0  0  0  0  0  0  0
   -3.8940    5.4184    0.4556 H   0  0  0  0  0  0  0  0  0  0  0  0
   -2.2137    3.4712    0.9275 N   0  0  0  0  0  0  0  0  0  0  0  0
   -1.5102    2.2327    1.1338 C   0  0  2  0  0  0  0  0  0  0  0  0
   -1.3539    1.5497   -0.2184 C   0  0  0  0  0  0  0  0  0  0  0  0
   -2.0852    1.7861   -1.1778 O   0  0  0  0  0  0  0  0  0  0  0  0
   -2.2477    1.3342    2.1145 C   0  0  0  0  0  0  0  0  0  0  0  0
   -2.6724    3.9052    1.7265 H   0  0  0  0  0  0  0  0  0  0  0  0
   -0.5220    2.4922    1.5290 H   0  0  0  0  0  0  0  0  0  0  0  0
   -3.2400    1.0636    1.7358 H   0  0  0  0  0  0  0  0  0  0  0  0
   -1.6970    0.4046    2.2923 H   0  0  0  0  0  0  0  0  0  0  0  0
   -2.3854    1.8384    3.0772 H   0  0  0  0  0  0  0  0  0  0  0  0
   -0.3283    0.6116   -0.2182 N   0  0  0  0  0  0  0  0  0  0  0  0
    0.0090   -0.1762   -1.3759 C   0  0  2  0  0  0  0  0  0  0  0  0
    1.0543    0.5928   -2.1739 C   0  0  0  0  0  0  0  0  0  0  0  0
    1.1400    1.8190   -2.1578 O   0  0  0  0  0  0  0  0  0  0  0  0
   -1.2151   -0.4795   -2.2358 C   0  0  0  0  0  0  0  0  0  0  0  0
   -2.1543   -1.4304   -1.5353 C   0  0  0  0  0  0  0  0  0  0  0  0
   -1.7950   -2.2718   -0.7221 O   0  0  0  0  0  0  0  0  0  0  0  0
   -3.4446   -1.2646   -1.9178 O   0  0  0  0  0  0  0  0  0  0  0  0
    0.2381    0.4970    0.6194 H   0  0  0  0  0  0  0  0  0  0  0  0
    0.4605   -1.1011   -0.9970 H   0  0  0  0  0  0  0  0  0  0  0  0
   -1.7892    0.4324   -2.4431 H   0  0  0  0  0  0  0  0  0  0  0  0
   -0.9452   -0.8884   -3.2171 H   0  0  0  0  0  0  0  0  0  0  0  0
   -4.0844   -1.8747   -1.4923 H   0  0  0  0  0  0  0  0  0  0  0  0
    1.9091   -0.2527   -2.8672 N   0  0  0  0  0  0  0  0  0  0  0  0
    2.9937    0.2361   -3.6862 C   0  0  2  0  0  0  0  0  0  0  0  0
    4.0239    0.8794   -2.7672 C   0  0  0  0  0  0  0  0  0  0  0  0
    3.7514    1.3006   -1.6450 O   0  0  0  0  0  0  0  0  0  0  0  0
    2.4980    1.2287   -4.7262 C   0  0  0  0  0  0  0  0  0  0  0  0
    1.7660   -1.2558   -2.7959 H   0  0  0  0  0  0  0  0  0  0  0  0
    3.4367   -0.6367   -4.1781 H   0  0  0  0  0  0  0  0  0  0  0  0
    2.0507    2.1101   -4.2521 H   0  0  0  0  0  0  0  0  0  0  0  0
    3.3167    1.5766   -5.3646 H   0  0  0  0  0  0  0  0  0  0  0  0
    1.7355    0.7733   -5.3673 H   0  0  0  0  0  0  0  0  0  0  0  0
    5.2736    0.9669   -3.3645 N   0  0  0  0  0  0  0  0  0  0  0  0
    6.4159    1.5500   -2.7005 C   0  0  0  0  0  0  0  0  0  0  0  0
    5.4131    0.5746   -4.2910 H   0  0  0  0  0  0  0  0  0  0  0  0
    6.4828    2.6181   -2.9548 H   0  0  0  0  0  0  0  0  0  0  0  0
    6.3033    1.4388   -1.6119 H   0  0  0  0  0  0  0  0  0  0  0  0
    7.3320    1.0371   -3.0287 H   0  0  0  0  0  0  0  0  0  0  0  0
  1  3  1  0  0  0  0
  1  7  1  0  0  0  0
  1  2  2  0  0  0  0
 31 32  1  0  0  0  0
 32 40  1  0  0  0  0
 32 33  2  0  0  0  0
  8  9  1  0  0  0  0
  9 17  1  0  0  0  0
  9 10  2  0  0  0  0
 18 19  1  0  0  0  0
 19 30  1  0  0  0  0
 19 20  2  0  0  0  0
 21 22  1  0  0  0  0
 22 23  2  0  0  0  0
 22 24  1  0  0  0  0
 31 34  1  0  0  0  0
  8 11  1  0  0  0  0
 40 41  1  0  0  0  0
 18 21  1  0  0  0  0
 30 31  1  0  0  0  0
  7  8  1  0  0  0  0
 17 18  1  0  0  0  0
  3  4  1  0  0  0  0
  3  5  1  0  0  0  0
  3  6  1  0  0  0  0
 34 37  1  0  0  0  0
 34 38  1  0  0  0  0
 34 39  1  0  0  0  0
 11 14  1  0  0  0  0
 11 15  1  0  0  0  0
 11 16  1  0  0  0  0
 41 43  1  0  0  0  0
 41 44  1  0  0  0  0
 41 45  1  0  0  0  0
 21 27  1  0  0  0  0
 21 28  1  0  0  0  0
 31 36  1  0  0  0  0
  8 13  1  0  0  0  0
 18 26  1  0  0  0  0
 40 42  1  0  0  0  0
  7 12  1  0  0  0  0
 30 35  1  0  0  0  0
 17 25  1  0  0  0  0
 24 29  1  0  0  0  0
M  END
$$$$

  -OEChem-05262214473D

 45 44  0     1  0  0  0  0  0999 V2000
   -2.2987    4.1032   -0.3022 C   0  0  0  0  0  0  0  0  0  0  0  0
   -1.8049    3.7117   -1.3532 O   0  0  0  0  0  0  0  0  0  0  0  0
   -3.0791    5.3755   -0.2846 C   0  0  0  0  0  0  0  0  0  0  0  0
   -2.4478    6.2532   -0.0717 H   0  0  0  0  0  0  0  0  0  0  0  0
   -3.5571    5.5891   -1.2541 H   0  0  0  0  0  0  0  0  0  0  0  0
   -3.8940    5.4184    0.4556 H   0  0  0  0  0  0  0  0  0  0  0  0
   -2.2137    3.4712    0.9275 N   0  0  0  0  0  0  0  0  0  0  0  0
   -1.5102    2.2327    1.1338 C   0  0  2  0  0  0  0  0  0  0  0  0
   -1.3539    1.5497   -0.2184 C   0  0  0  0  0  0  0  0  0  0  0  0
   -2.0852    1.7861   -1.1778 O   0  0  0  0  0  0  0  0  0  0  0  0
   -2.2477    1.3342    2.1145 C   0  0  0  0  0  0  0  0  0  0  0  0
   -2.6724    3.9052    1.7265 H   0  0  0  0  0  0  0  0  0  0  0  0
   -0.5220    2.4922    1.5290 H   0  0  0  0  0  0  0  0  0  0  0  0
   -3.2400    1.0636    1.7358 H   0  0  0  0  0  0  0  0  0  0  0  0
   -1.6970    0.4046    2.2923 H   0  0  0  0  0  0  0  0  0  0  0  0
   -2.3854    1.8384    3.0772 H   0  0  0  0  0  0  0  0  0  0  0  0
   -0.3283    0.6116   -0.2182 N   0  0  0  0  0  0  0  0  0  0  0  0
    0.0090   -0.1762   -1.3759 C   0  0  2  0  0  0  0  0  0  0  0  0
    1.0543    0.5928   -2.1739 C   0  0  0  0  0  0  0  0  0  0  0  0
    1.3211    1.7743   -1.9637 O   0  0  0  0  0  0  0  0  0  0  0  0
   -1.2151   -0.4795   -2.2358 C   0  0  0  0  0  0  0  0  0  0  0  0
   -2.1543   -1.4304   -1.5353 C   0  0  0  0  0  0  0  0  0  0  0  0
   -1.7950   -2.2718   -0.7221 O   0  0  0  0  0  0  0  0  0  0  0  0
   -3.4446   -1.2646   -1.9178 O   0  0  0  0  0  0  0  0  0  0  0  0
    0.2381    0.4970    0.6194 H   0  0  0  0  0  0  0  0  0  0  0  0
    0.4605   -1.1011   -0.9970 H   0  0  0  0  0  0  0  0  0  0  0  0
   -1.7892    0.4324   -2.4431 H   0  0  0  0  0  0  0  0  0  0  0  0
   -0.9452   -0.8884   -3.2171 H   0  0  0  0  0  0  0  0  0  0  0  0
   -4.0844   -1.8747   -1.4923 H   0  0  0  0  0  0  0  0  0  0  0  0
    1.6869   -0.2076   -3.1148 N   0  0  0  0  0  0  0  0  0  0  0  0
    2.7271    0.2873   -3.9860 C   0  0  2  0  0  0  0  0  0  0  0  0
    3.9423    0.6153   -3.1286 C   0  0  0  0  0  0  0  0  0  0  0  0
    3.8697    0.8501   -1.9241 O   0  0  0  0  0  0  0  0  0  0  0  0
    2.2634    1.5102   -4.7621 C   0  0  0  0  0  0  0  0  0  0  0  0
    1.4071   -1.1809   -3.1938 H   0  0  0  0  0  0  0  0  0  0  0  0
    2.9753   -0.5264   -4.6762 H   0  0  0  0  0  0  0  0  0  0  0  0
    2.0103    2.3360   -4.0873 H   0  0  0  0  0  0  0  0  0  0  0  0
    3.0431    1.8670   -5.4431 H   0  0  0  0  0  0  0  0  0  0  0  0
    1.3717    1.2803   -5.3552 H   0  0  0  0  0  0  0  0  0  0  0  0
    5.1116    0.6573   -3.8749 N   0  0  0  0  0  0  0  0  0  0  0  0
    6.3979    0.9604   -3.2923 C   0  0  0  0  0  0  0  0  0  0  0  0
    5.0812    0.4306   -4.8646 H   0  0  0  0  0  0  0  0  0  0  0  0
    6.5909    2.0406   -3.3698 H   0  0  0  0  0  0  0  0  0  0  0  0
    6.3999    0.6628   -2.2333 H   0  0  0  0  0  0  0  0  0  0  0  0
    7.1830    0.4083   -3.8297 H   0  0  0  0  0  0  0  0  0  0  0  0
  1  3  1  0  0  0  0
  1  7  1  0  0  0  0
  1  2  2  0  0  0  0
 31 32  1  0  0  0  0
 32 40  1  0  0  0  0
 32 33  2  0  0  0  0
  8  9  1  0  0  0  0
  9 17  1  0  0  0  0
  9 10  2  0  0  0  0
 18 19  1  0  0  0  0
 19 30  1  0  0  0  0
 19 20  2  0  0  0  0
 21 22  1  0  0  0  0
 22 23  2  0  0  0  0
 22 24  1  0  0  0  0
 31 34  1  0  0  0  0
  8 11  1  0  0  0  0
 40 41  1  0  0  0  0
 18 21  1  0  0  0  0
 30 31  1  0  0  0  0
  7  8  1  0  0  0  0
 17 18  1  0  0  0  0
  3  4  1  0  0  0  0
  3  5  1  0  0  0  0
  3  6  1  0  0  0  0
 34 37  1  0  0  0  0
 34 38  1  0  0  0  0
 34 39  1  0  0  0  0
 11 14  1  0  0  0  0
 11 15  1  0  0  0  0
 11 16  1  0  0  0  0
 41 43  1  0  0  0  0
 41 44  1  0  0  0  0
 41 45  1  0  0  0  0
 21 27  1  0  0  0  0
 21 28  1  0  0  0  0
 31 36  1  0  0  0  0
  8 13  1  0  0  0  0
 18 26  1  0  0  0  0
 40 42  1  0  0  0  0
  7 12  1  0  0  0  0
 30 35  1  0  0  0  0
 17 25  1  0  0  0  0
 24 29  1  0  0  0  0
M  END
$$$$

  -OEChem-05262214473D

 45 44  0     1  0  0  0  0  0999 V2000
   -2.2987    4.1032   -0.3022 C   0  0  0  0  0  0  0  0  0  0  0  0
   -1.8049    3.7117   -1.3532 O   0  0  0  0  0  0  0  0  0  0  0  0
   -3.0791    5.3755   -0.2846 C   0  0  0  0  0  0  0  0  0  0  0  0
   -2.4478    6.2532   -0.0717 H   0  0  0  0  0  0  0  0  0  0  0  0
   -3.5571    5.5891   -1.2541 H   0  0  0  0  0  0  0  0  0  0  0  0
   -3.8940    5.4184    0.4556 H   0  0  0  0  0  0  0  0  0  0  0  0
   -2.2137    3.4712    0.9275 N   0  0  0  0  0  0  0  0  0  0  0  0
   -1.5102    2.2327    1.1338 C   0  0  2  0  0  0  0  0  0  0  0  0
   -1.3539    1.5497   -0.2184 C   0  0  0  0  0  0  0  0  0  0  0  0
   -2.0852    1.7861   -1.1778 O   0  0  0  0  0  0  0  0  0  0  0  0
   -2.2477    1.3342    2.1145 C   0  0  0  0  0  0  0  0  0  0  0  0
   -2.6724    3.9052    1.7265 H   0  0  0  0  0  0  0  0  0  0  0  0
   -0.5220    2.4922    1.5290 H   0  0  0  0  0  0  0  0  0  0  0  0
   -3.2400    1.0636    1.7358 H   0  0  0  0  0  0  0  0  0  0  0  0
   -1.6970    0.4046    2.2923 H   0  0  0  0  0  0  0  0  0  0  0  0
   -2.3854    1.8384    3.0772 H   0  0  0  0  0  0  0  0  0  0  0  0
   -0.3283    0.6116   -0.2182 N   0  0  0  0  0  0  0  0  0  0  0  0
    0.0090   -0.1762   -1.3759 C   0  0  2  0  0  0  0  0  0  0  0  0
    1.2954    0.3888   -1.9648 C   0  0  0  0  0  0  0  0  0  0  0  0
    1.9071    1.3277   -1.4594 O   0  0  0  0  0  0  0  0  0  0  0  0
   -1.1102   -0.1731   -2.4138 C   0  0  0  0  0  0  0  0  0  0  0  0
   -2.3164   -0.9337   -1.9206 C   0  0  0  0  0  0  0  0  0  0  0  0
   -2.2605   -1.8685   -1.1322 O   0  0  0  0  0  0  0  0  0  0  0  0
   -3.4748   -0.4804   -2.4603 O   0  0  0  0  0  0  0  0  0  0  0  0
    0.2381    0.4970    0.6194 H   0  0  0  0  0  0  0  0  0  0  0  0
    0.2016   -1.1921   -1.0105 H   0  0  0  0  0  0  0  0  0  0  0  0
   -1.4494    0.8484   -2.6273 H   0  0  0  0  0  0  0  0  0  0  0  0
   -0.7871   -0.5848   -3.3777 H   0  0  0  0  0  0  0  0  0  0  0  0
   -4.2812   -0.9595   -2.1725 H   0  0  0  0  0  0  0  0  0  0  0  0
    1.7047   -0.3088   -3.0927 N   0  0  0  0  0  0  0  0  0  0  0  0
    2.9044    0.0263   -3.8236 C   0  0  2  0  0  0  0  0  0  0  0  0
    4.1000   -0.2827   -2.9321 C   0  0  0  0  0  0  0  0  0  0  0  0
    4.0240   -0.3483   -1.7070 O   0  0  0  0  0  0  0  0  0  0  0  0
    2.9049    1.4871   -4.2465 C   0  0  0  0  0  0  0  0  0  0  0  0
    1.1375   -1.0865   -3.4172 H   0  0  0  0  0  0  0  0  0  0  0  0
    2.9288   -0.6224   -4.7060 H   0  0  0  0  0  0  0  0  0  0  0  0
    2.8807    2.1524   -3.3757 H   0  0  0  0  0  0  0  0  0  0  0  0
    3.8017    1.7324   -4.8250 H   0  0  0  0  0  0  0  0  0  0  0  0
    2.0285    1.7146   -4.8630 H   0  0  0  0  0  0  0  0  0  0  0  0
    5.2703   -0.4339   -3.6625 N   0  0  0  0  0  0  0  0  0  0  0  0
    6.5439   -0.7194   -3.0441 C   0  0  0  0  0  0  0  0  0  0  0  0
    5.2369   -0.3817   -4.6764 H   0  0  0  0  0  0  0  0  0  0  0  0
    7.0733    0.2233   -2.8414 H   0  0  0  0  0  0  0  0  0  0  0  0
    6.3800   -1.2582   -2.0992 H   0  0  0  0  0  0  0  0  0  0  0  0
    7.1487   -1.3412   -3.7205 H   0  0  0  0  0  0  0  0  0  0  0  0
  1  3  1  0  0  0  0
  1  7  1  0  0  0  0
  1  2  2  0  0  0  0
 31 32  1  0  0  0  0
 32 40  1  0  0  0  0
 32 33  2  0  0  0  0
  8  9  1  0  0  0  0
  9 17  1  0  0  0  0
  9 10  2  0  0  0  0
 18 19  1  0  0  0  0
 19 30  1  0  0  0  0
 19 20  2  0  0  0  0
 21 22  1  0  0  0  0
 22 23  2  0  0  0  0
 22 24  1  0  0  0  0
 31 34  1  0  0  0  0
  8 11  1  0  0  0  0
 40 41  1  0  0  0  0
 18 21  1  0  0  0  0
 30 31  1  0  0  0  0
  7  8  1  0  0  0  0
 17 18  1  0  0  0  0
  3  4  1  0  0  0  0
  3  5  1  0  0  0  0
  3  6  1  0  0  0  0
 34 37  1  0  0  0  0
 34 38  1  0  0  0  0
 34 39  1  0  0  0  0
 11 14  1  0  0  0  0
 11 15  1  0  0  0  0
 11 16  1  0  0  0  0
 41 43  1  0  0  0  0
 41 44  1  0  0  0  0
 41 45  1  0  0  0  0
 21 27  1  0  0  0  0
 21 28  1  0  0  0  0
 31 36  1  0  0  0  0
  8 13  1  0  0  0  0
 18 26  1  0  0  0  0
 40 42  1  0  0  0  0
  7 12  1  0  0  0  0
 30 35  1  0  0  0  0
 17 25  1  0  0  0  0
 24 29  1  0  0  0  0
M  END
$$$$

  -OEChem-05262214473D

 45 44  0     1  0  0  0  0  0999 V2000
   -2.2987    4.1032   -0.3022 C   0  0  0  0  0  0  0  0  0  0  0  0
   -1.8049    3.7117   -1.3532 O   0  0  0  0  0  0  0  0  0  0  0  0
   -3.0791    5.3755   -0.2846 C   0  0  0  0  0  0  0  0  0  0  0  0
   -2.4478    6.2532   -0.0717 H   0  0  0  0  0  0  0  0  0  0  0  0
   -3.5571    5.5891   -1.2541 H   0  0  0  0  0  0  0  0  0  0  0  0
   -3.8940    5.4184    0.4556 H   0  0  0  0  0  0  0  0  0  0  0  0
   -2.2137    3.4712    0.9275 N   0  0  0  0  0  0  0  0  0  0  0  0
   -1.5102    2.2327    1.1338 C   0  0  2  0  0  0  0  0  0  0  0  0
   -1.3539    1.5497   -0.2184 C   0  0  0  0  0  0  0  0  0  0  0  0
   -2.0852    1.7861   -1.1778 O   0  0  0  0  0  0  0  0  0  0  0  0
   -2.2477    1.3342    2.1145 C   0  0  0  0  0  0  0  0  0  0  0  0
   -2.6724    3.9052    1.7265 H   0  0  0  0  0  0  0  0  0  0  0  0
   -0.5220    2.4922    1.5290 H   0  0  0  0  0  0  0  0  0  0  0  0
   -3.2400    1.0636    1.7358 H   0  0  0  0  0  0  0  0  0  0  0  0
   -1.6970    0.4046    2.2923 H   0  0  0  0  0  0  0  0  0  0  0  0
   -2.3854    1.8384    3.0772 H   0  0  0  0  0  0  0  0  0  0  0  0
   -0.3283    0.6116   -0.2182 N   0  0  0  0  0  0  0  0  0  0  0  0
    0.0090   -0.1762   -1.3759 C   0  0  2  0  0  0  0  0  0  0  0  0
    1.2954    0.3888   -1.9648 C   0  0  0  0  0  0  0  0  0  0  0  0
    2.0480    1.1325   -1.3390 O   0  0  0  0  0  0  0  0  0  0  0  0
   -1.1102   -0.1731   -2.4138 C   0  0  0  0  0  0  0  0  0  0  0  0
   -2.3164   -0.9337   -1.9206 C   0  0  0  0  0  0  0  0  0  0  0  0
   -2.2605   -1.8685   -1.1322 O   0  0  0  0  0  0  0  0  0  0  0  0
   -3.4748   -0.4804   -2.4603 O   0  0  0  0  0  0  0  0  0  0  0  0
    0.2381    0.4970    0.6194 H   0  0  0  0  0  0  0  0  0  0  0  0
    0.2016   -1.1921   -1.0105 H   0  0  0  0  0  0  0  0  0  0  0  0
   -1.4494    0.8484   -2.6273 H   0  0  0  0  0  0  0  0  0  0  0  0
   -0.7871   -0.5848   -3.3777 H   0  0  0  0  0  0  0  0  0  0  0  0
   -4.2812   -0.9595   -2.1725 H   0  0  0  0  0  0  0  0  0  0  0  0
    1.5277   -0.0729   -3.2529 N   0  0  0  0  0  0  0  0  0  0  0  0
    2.6908    0.3084   -4.0195 C   0  0  2  0  0  0  0  0  0  0  0  0
    3.9161   -0.2975   -3.3480 C   0  0  0  0  0  0  0  0  0  0  0  0
    3.9376   -0.6281   -2.1642 O   0  0  0  0  0  0  0  0  0  0  0  0
    2.8171    1.8207   -4.1181 C   0  0  0  0  0  0  0  0  0  0  0  0
    0.8524   -0.7045   -3.6734 H   0  0  0  0  0  0  0  0  0  0  0  0
    2.5682   -0.1262   -5.0175 H   0  0  0  0  0  0  0  0  0  0  0  0
    2.9407    2.2741   -3.1278 H   0  0  0  0  0  0  0  0  0  0  0  0
    3.6832    2.1079   -4.7235 H   0  0  0  0  0  0  0  0  0  0  0  0
    1.9222    2.2577   -4.5742 H   0  0  0  0  0  0  0  0  0  0  0  0
    4.9963   -0.3857   -4.2149 N   0  0  0  0  0  0  0  0  0  0  0  0
    6.2783   -0.9149   -3.8118 C   0  0  0  0  0  0  0  0  0  0  0  0
    4.8829   -0.1056   -5.1847 H   0  0  0  0  0  0  0  0  0  0  0  0
    6.9240   -0.0924   -3.4703 H   0  0  0  0  0  0  0  0  0  0  0  0
    6.1365   -1.6342   -2.9918 H   0  0  0  0  0  0  0  0  0  0  0  0
    6.7508   -1.4213   -4.6663 H   0  0  0  0  0  0  0  0  0  0  0  0
  1  3  1  0  0  0  0
  1  7  1  0  0  0  0
  1  2  2  0  0  0  0
 31 32  1  0  0  0  0
 32 40  1  0  0  0  0
 32 33  2  0  0  0  0
  8  9  1  0  0  0  0
  9 17  1  0  0  0  0
  9 10  2  0  0  0  0
 18 19  1  0  0  0  0
 19 30  1  0  0  0  0
 19 20  2  0  0  0  0
 21 22  1  0  0  0  0
 22 23  2  0  0  0  0
 22 24  1  0  0  0  0
 31 34  1  0  0  0  0
  8 11  1  0  0  0  0
 40 41  1  0  0  0  0
 18 21  1  0  0  0  0
 30 31  1  0  0  0  0
  7  8  1  0  0  0  0
 17 18  1  0  0  0  0
  3  4  1  0  0  0  0
  3  5  1  0  0  0  0
  3  6  1  0  0  0  0
 34 37  1  0  0  0  0
 34 38  1  0  0  0  0
 34 39  1  0  0  0  0
 11 14  1  0  0  0  0
 11 15  1  0  0  0  0
 11 16  1  0  0  0  0
 41 43  1  0  0  0  0
 41 44  1  0  0  0  0
 41 45  1  0  0  0  0
 21 27  1  0  0  0  0
 21 28  1  0  0  0  0
 31 36  1  0  0  0  0
  8 13  1  0  0  0  0
 18 26  1  0  0  0  0
 40 42  1  0  0  0  0
  7 12  1  0  0  0  0
 30 35  1  0  0  0  0
 17 25  1  0  0  0  0
 24 29  1  0  0  0  0
M  END
$$$$

  -OEChem-05262214473D

 45 44  0     1  0  0  0  0  0999 V2000
   -2.2987    4.1032   -0.3022 C   0  0  0  0  0  0  0  0  0  0  0  0
   -1.8049    3.7117   -1.3532 O   0  0  0  0  0  0  0  0  0  0  0  0
   -3.0791    5.3755   -0.2846 C   0  0  0  0  0  0  0  0  0  0  0  0
   -2.4478    6.2532   -0.0717 H   0  0  0  0  0  0  0  0  0  0  0  0
   -3.5571    5.5891   -1.2541 H   0  0  0  0  0  0  0  0  0  0  0  0
   -3.8940    5.4184    0.4556 H   0  0  0  0  0  0  0  0  0  0  0  0
   -2.2137    3.4712    0.9275 N   0  0  0  0  0  0  0  0  0  0  0  0
   -1.5102    2.2327    1.1338 C   0  0  2  0  0  0  0  0  0  0  0  0
   -1.3539    1.5497   -0.2184 C   0  0  0  0  0  0  0  0  0  0  0  0
   -2.0852    1.7861   -1.1778 O   0  0  0  0  0  0  0  0  0  0  0  0
   -2.2477    1.3342    2.1145 C   0  0  0  0  0  0  0  0  0  0  0  0
   -2.6724    3.9052    1.7265 H   0  0  0  0  0  0  0  0  0  0  0  0
   -0.5220    2.4922    1.5290 H   0  0  0  0  0  0  0  0  0  0  0  0
   -3.2400    1.0636    1.7358 H   0  0  0  0  0  0  0  0  0  0  0  0
   -1.6970    0.4046    2.2923 H   0  0  0  0  0  0  0  0  0  0  0  0
   -2.3854    1.8384    3.0772 H   0  0  0  0  0  0  0  0  0  0  0  0
   -0.3283    0.6116   -0.2182 N   0  0  0  0  0  0  0  0  0  0  0  0
    0.0090   -0.1762   -1.3759 C   0  0  2  0  0  0  0  0  0  0  0  0
    1.2954    0.3888   -1.9648 C   0  0  0  0  0  0  0  0  0  0  0  0
    2.1761    0.9035   -1.2789 O   0  0  0  0  0  0  0  0  0  0  0  0
   -1.1102   -0.1731   -2.4138 C   0  0  0  0  0  0  0  0  0  0  0  0
   -2.3164   -0.9337   -1.9206 C   0  0  0  0  0  0  0  0  0  0  0  0
   -2.2605   -1.8685   -1.1322 O   0  0  0  0  0  0  0  0  0  0  0  0
   -3.4748   -0.4804   -2.4603 O   0  0  0  0  0  0  0  0  0  0  0  0
    0.2381    0.4970    0.6194 H   0  0  0  0  0  0  0  0  0  0  0  0
    0.2016   -1.1921   -1.0105 H   0  0  0  0  0  0  0  0  0  0  0  0
   -1.4494    0.8484   -2.6273 H   0  0  0  0  0  0  0  0  0  0  0  0
   -0.7871   -0.5848   -3.3777 H   0  0  0  0  0  0  0  0  0  0  0  0
   -4.2812   -0.9595   -2.1725 H   0  0  0  0  0  0  0  0  0  0  0  0
    1.3650    0.2077   -3.3391 N   0  0  0  0  0  0  0  0  0  0  0  0
    2.4938    0.6451   -4.1266 C   0  0  2  0  0  0  0  0  0  0  0  0
    3.6971   -0.2026   -3.7353 C   0  0  0  0  0  0  0  0  0  0  0  0
    3.7822   -0.7899   -2.6587 O   0  0  0  0  0  0  0  0  0  0  0  0
    2.7780    2.1237   -3.9128 C   0  0  0  0  0  0  0  0  0  0  0  0
    0.5907   -0.2510   -3.8100 H   0  0  0  0  0  0  0  0  0  0  0  0
    2.2396    0.4572   -5.1755 H   0  0  0  0  0  0  0  0  0  0  0  0
    3.0347    2.3314   -2.8676 H   0  0  0  0  0  0  0  0  0  0  0  0
    3.6160    2.4603   -4.5321 H   0  0  0  0  0  0  0  0  0  0  0  0
    1.9015    2.7297   -4.1665 H   0  0  0  0  0  0  0  0  0  0  0  0
    4.6833   -0.1910   -4.7116 N   0  0  0  0  0  0  0  0  0  0  0  0
    5.9284   -0.9093   -4.5706 C   0  0  0  0  0  0  0  0  0  0  0  0
    4.5197    0.3077   -5.5813 H   0  0  0  0  0  0  0  0  0  0  0  0
    6.6879   -0.2451   -4.1325 H   0  0  0  0  0  0  0  0  0  0  0  0
    5.7779   -1.7781   -3.9129 H   0  0  0  0  0  0  0  0  0  0  0  0
    6.2678   -1.2522   -5.5592 H   0  0  0  0  0  0  0  0  0  0  0  0
  1  3  1  0  0  0  0
  1  7  1  0  0  0  0
  1  2  2  0  0  0  0
 31 32  1  0  0  0  0
 32 40  1  0  0  0  0
 32 33  2  0  0  0  0
  8  9  1  0  0  0  0
  9 17  1  0  0  0  0
  9 10  2  0  0  0  0
 18 19  1  0  0  0  0
 19 30  1  0  0  0  0
 19 20  2  0  0  0  0
 21 22  1  0  0  0  0
 22 23  2  0  0  0  0
 22 24  1  0  0  0  0
 31 34  1  0  0  0  0
  8 11  1  0  0  0  0
 40 41  1  0  0  0  0
 18 21  1  0  0  0  0
 30 31  1  0  0  0  0
  7  8  1  0  0  0  0
 17 18  1  0  0  0  0
  3  4  1  0  0  0  0
  3  5  1  0  0  0  0
  3  6  1  0  0  0  0
 34 37  1  0  0  0  0
 34 38  1  0  0  0  0
 34 39  1  0  0  0  0
 11 14  1  0  0  0  0
 11 15  1  0  0  0  0
 11 16  1  0  0  0  0
 41 43  1  0  0  0  0
 41 44  1  0  0  0  0
 41 45  1  0  0  0  0
 21 27  1  0  0  0  0
 21 28  1  0  0  0  0
 31 36  1  0  0  0  0
  8 13  1  0  0  0  0
 18 26  1  0  0  0  0
 40 42  1  0  0  0  0
  7 12  1  0  0  0  0
 30 35  1  0  0  0  0
 17 25  1  0  0  0  0
 24 29  1  0  0  0  0
M  END
$$$$

  -OEChem-05262214473D

 45 44  0     1  0  0  0  0  0999 V2000
   -2.2987    4.1032   -0.3022 C   0  0  0  0  0  0  0  0  0  0  0  0
   -1.8049    3.7117   -1.3532 O   0  0  0  0  0  0  0  0  0  0  0  0
   -3.0791    5.3755   -0.2846 C   0  0  0  0  0  0  0  0  0  0  0  0
   -2.4478    6.2532   -0.0717 H   0  0  0  0  0  0  0  0  0  0  0  0
   -3.5571    5.5891   -1.2541 H   0  0  0  0  0  0  0  0  0  0  0  0
   -3.8940    5.4184    0.4556 H   0  0  0  0  0  0  0  0  0  0  0  0
   -2.2137    3.4712    0.9275 N   0  0  0  0  0  0  0  0  0  0  0  0
   -1.5102    2.2327    1.1338 C   0  0  2  0  0  0  0  0  0  0  0  0
   -1.3539    1.5497   -0.2184 C   0  0  0  0  0  0  0  0  0  0  0  0
   -2.0852    1.7861   -1.1778 O   0  0  0  0  0  0  0  0  0  0  0  0
   -2.2477    1.3342    2.1145 C   0  0  0  0  0  0  0  0  0  0  0  0
   -2.6724    3.9052    1.7265 H   0  0  0  0  0  0  0  0  0  0  0  0
   -0.5220    2.4922    1.5290 H   0  0  0  0  0  0  0  0  0  0  0  0
   -3.2400    1.0636    1.7358 H   0  0  0  0  0  0  0  0  0  0  0  0
   -1.6970    0.4046    2.2923 H   0  0  0  0  0  0  0  0  0  0  0  0
   -2.3854    1.8384    3.0772 H   0  0  0  0  0  0  0  0  0  0  0  0
   -0.3283    0.6116   -0.2182 N   0  0  0  0  0  0  0  0  0  0  0  0
    0.0090   -0.1762   -1.3759 C   0  0  2  0  0  0  0  0  0  0  0  0
    1.2954    0.3888   -1.9648 C   0  0  0  0  0  0  0  0  0  0  0  0
    2.2827    0.6564   -1.2831 O   0  0  0  0  0  0  0  0  0  0  0  0
   -1.1102   -0.1731   -2.4138 C   0  0  0  0  0  0  0  0  0  0  0  0
   -2.3164   -0.9337   -1.9206 C   0  0  0  0  0  0  0  0  0  0  0  0
   -2.2605   -1.8685   -1.1322 O   0  0  0  0  0  0  0  0  0  0  0  0
   -3.4748   -0.4804   -2.4603 O   0  0  0  0  0  0  0  0  0  0  0  0
    0.2381    0.4970    0.6194 H   0  0  0  0  0  0  0  0  0  0  0  0
    0.2016   -1.1921   -1.0105 H   0  0  0  0  0  0  0  0  0  0  0  0
   -1.4494    0.8484   -2.6273 H   0  0  0  0  0  0  0  0  0  0  0  0
   -0.7871   -0.5848   -3.3777 H   0  0  0  0  0  0  0  0  0  0  0  0
   -4.2812   -0.9595   -2.1725 H   0  0  0  0  0  0  0  0  0  0  0  0
    1.2276    0.5138   -3.3454 N   0  0  0  0  0  0  0  0  0  0  0  0
    2.3270    1.0135   -4.1376 C   0  0  2  0  0  0  0  0  0  0  0  0
    3.4578   -0.0043   -4.0676 C   0  0  0  0  0  0  0  0  0  0  0  0
    3.5684   -0.8225   -3.1569 O   0  0  0  0  0  0  0  0  0  0  0  0
    2.7903    2.3754   -3.6445 C   0  0  0  0  0  0  0  0  0  0  0  0
    0.3701    0.2430   -3.8177 H   0  0  0  0  0  0  0  0  0  0  0  0
    1.9654    1.0881   -5.1689 H   0  0  0  0  0  0  0  0  0  0  0  0
    3.1562    2.3206   -2.6127 H   0  0  0  0  0  0  0  0  0  0  0  0
    3.6048    2.7656   -4.2637 H   0  0  0  0  0  0  0  0  0  0  0  0
    1.9679    3.0986   -3.6675 H   0  0  0  0  0  0  0  0  0  0  0  0
    4.3528    0.1369   -5.1188 N   0  0  0  0  0  0  0  0  0  0  0  0
    5.5182   -0.7031   -5.2687 C   0  0  0  0  0  0  0  0  0  0  0  0
    4.1723    0.8298   -5.8392 H   0  0  0  0  0  0  0  0  0  0  0  0
    6.3810   -0.2242   -4.7827 H   0  0  0  0  0  0  0  0  0  0  0  0
    5.3288   -1.6798   -4.7996 H   0  0  0  0  0  0  0  0  0  0  0  0
    5.7323   -0.8454   -6.3383 H   0  0  0  0  0  0  0  0  0  0  0  0
  1  3  1  0  0  0  0
  1  7  1  0  0  0  0
  1  2  2  0  0  0  0
 31 32  1  0  0  0  0
 32 40  1  0  0  0  0
 32 33  2  0  0  0  0
  8  9  1  0  0  0  0
  9 17  1  0  0  0  0
  9 10  2  0  0  0  0
 18 19  1  0  0  0  0
 19 30  1  0  0  0  0
 19 20  2  0  0  0  0
 21 22  1  0  0  0  0
 22 23  2  0  0  0  0
 22 24  1  0  0  0  0
 31 34  1  0  0  0  0
  8 11  1  0  0  0  0
 40 41  1  0  0  0  0
 18 21  1  0  0  0  0
 30 31  1  0  0  0  0
  7  8  1  0  0  0  0
 17 18  1  0  0  0  0
  3  4  1  0  0  0  0
  3  5  1  0  0  0  0
  3  6  1  0  0  0  0
 34 37  1  0  0  0  0
 34 38  1  0  0  0  0
 34 39  1  0  0  0  0
 11 14  1  0  0  0  0
 11 15  1  0  0  0  0
 11 16  1  0  0  0  0
 41 43  1  0  0  0  0
 41 44  1  0  0  0  0
 41 45  1  0  0  0  0
 21 27  1  0  0  0  0
 21 28  1  0  0  0  0
 31 36  1  0  0  0  0
  8 13  1  0  0  0  0
 18 26  1  0  0  0  0
 40 42  1  0  0  0  0
  7 12  1  0  0  0  0
 30 35  1  0  0  0  0
 17 25  1  0  0  0  0
 24 29  1  0  0  0  0
M  END
$$$$

  -OEChem-05262214473D

 45 44  0     1  0  0  0  0  0999 V2000
   -2.2987    4.1032   -0.3022 C   0  0  0  0  0  0  0  0  0  0  0  0
   -1.8049    3.7117   -1.3532 O   0  0  0  0  0  0  0  0  0  0  0  0
   -3.0791    5.3755   -0.2846 C   0  0  0  0  0  0  0  0  0  0  0  0
   -2.4478    6.2532   -0.0717 H   0  0  0  0  0  0  0  0  0  0  0  0
   -3.5571    5.5891   -1.2541 H   0  0  0  0  0  0  0  0  0  0  0  0
   -3.8940    5.4184    0.4556 H   0  0  0  0  0  0  0  0  0  0  0  0
   -2.2137    3.4712    0.9275 N   0  0  0  0  0  0  0  0  0  0  0  0
   -1.5102    2.2327    1.1338 C   0  0  2  0  0  0  0  0  0  0  0  0
   -1.3539    1.5497   -0.2184 C   0  0  0  0  0  0  0  0  0  0  0  0
   -2.0852    1.7861   -1.1778 O   0  0  0  0  0  0  0  0  0  0  0  0
   -2.2477    1.3342    2.1145 C   0  0  0  0  0  0  0  0  0  0  0  0
   -2.6724    3.9052    1.7265 H   0  0  0  0  0  0  0  0  0  0  0  0
   -0.5220    2.4922    1.5290 H   0  0  0  0  0  0  0  0  0  0  0  0
   -3.2400    1.0636    1.7358 H   0  0  0  0  0  0  0  0  0  0  0  0
   -1.6970    0.4046    2.2923 H   0  0  0  0  0  0  0  0  0  0  0  0
   -2.3854    1.8384    3.0772 H   0  0  0  0  0  0  0  0  0  0  0  0
   -0.3283    0.6116   -0.2182 N   0  0  0  0  0  0  0  0  0  0  0  0
    0.0090   -0.1762   -1.3759 C   0  0  2  0  0  0  0  0  0  0  0  0
    1.2954    0.3888   -1.9648 C   0  0  0  0  0  0  0  0  0  0  0  0
    2.3606    0.4080   -1.3515 O   0  0  0  0  0  0  0  0  0  0  0  0
   -1.1102   -0.1731   -2.4138 C   0  0  0  0  0  0  0  0  0  0  0  0
   -2.3164   -0.9337   -1.9206 C   0  0  0  0  0  0  0  0  0  0  0  0
   -2.2605   -1.8685   -1.1322 O   0  0  0  0  0  0  0  0  0  0  0  0
   -3.4748   -0.4804   -2.4603 O   0  0  0  0  0  0  0  0  0  0  0  0
    0.2381    0.4970    0.6194 H   0  0  0  0  0  0  0  0  0  0  0  0
    0.2016   -1.1921   -1.0105 H   0  0  0  0  0  0  0  0  0  0  0  0
   -1.4494    0.8484   -2.6273 H   0  0  0  0  0  0  0  0  0  0  0  0
   -0.7871   -0.5848   -3.3777 H   0  0  0  0  0  0  0  0  0  0  0  0
   -4.2812   -0.9595   -2.1725 H   0  0  0  0  0  0  0  0  0  0  0  0
    1.1249    0.8247   -3.2714 N   0  0  0  0  0  0  0  0  0  0  0  0
    2.2017    1.3884   -4.0517 C   0  0  2  0  0  0  0  0  0  0  0  0
    3.2147    0.2838   -4.3223 C   0  0  0  0  0  0  0  0  0  0  0  0
    3.3109   -0.7238   -3.6246 O   0  0  0  0  0  0  0  0  0  0  0  0
    2.8531    2.5587   -3.3315 C   0  0  0  0  0  0  0  0  0  0  0  0
    0.2057    0.7440   -3.6961 H   0  0  0  0  0  0  0  0  0  0  0  0
    1.7643    1.7236   -4.9985 H   0  0  0  0  0  0  0  0  0  0  0  0
    3.2969    2.2422   -2.3805 H   0  0  0  0  0  0  0  0  0  0  0  0
    3.6503    3.0029   -3.9366 H   0  0  0  0  0  0  0  0  0  0  0  0
    2.1169    3.3393   -3.1112 H   0  0  0  0  0  0  0  0  0  0  0  0
    4.0273    0.5756   -5.4088 N   0  0  0  0  0  0  0  0  0  0  0  0
    5.0756   -0.3103   -5.8586 C   0  0  0  0  0  0  0  0  0  0  0  0
    3.8641    1.4253   -5.9409 H   0  0  0  0  0  0  0  0  0  0  0  0
    6.0242   -0.0311   -5.3768 H   0  0  0  0  0  0  0  0  0  0  0  0
    4.8197   -1.3462   -5.5915 H   0  0  0  0  0  0  0  0  0  0  0  0
    5.1811   -0.2286   -6.9505 H   0  0  0  0  0  0  0  0  0  0  0  0
  1  3  1  0  0  0  0
  1  7  1  0  0  0  0
  1  2  2  0  0  0  0
 31 32  1  0  0  0  0
 32 40  1  0  0  0  0
 32 33  2  0  0  0  0
  8  9  1  0  0  0  0
  9 17  1  0  0  0  0
  9 10  2  0  0  0  0
 18 19  1  0  0  0  0
 19 30  1  0  0  0  0
 19 20  2  0  0  0  0
 21 22  1  0  0  0  0
 22 23  2  0  0  0  0
 22 24  1  0  0  0  0
 31 34  1  0  0  0  0
  8 11  1  0  0  0  0
 40 41  1  0  0  0  0
 18 21  1  0  0  0  0
 30 31  1  0  0  0  0
  7  8  1  0  0  0  0
 17 18  1  0  0  0  0
  3  4  1  0  0  0  0
  3  5  1  0  0  0  0
  3  6  1  0  0  0  0
 34 37  1  0  0  0  0
 34 38  1  0  0  0  0
 34 39  1  0  0  0  0
 11 14  1  0  0  0  0
 11 15  1  0  0  0  0
 11 16  1  0  0  0  0
 41 43  1  0  0  0  0
 41 44  1  0  0  0  0
 41 45  1  0  0  0  0
 21 27  1  0  0  0  0
 21 28  1  0  0  0  0
 31 36  1  0  0  0  0
  8 13  1  0  0  0  0
 18 26  1  0  0  0  0
 40 42  1  0  0  0  0
  7 12  1  0  0  0  0
 30 35  1  0  0  0  0
 17 25  1  0  0  0  0
 24 29  1  0  0  0  0
M  END
$$$$

  -OEChem-05262214473D

 45 44  0     1  0  0  0  0  0999 V2000
   -2.2987    4.1032   -0.3022 C   0  0  0  0  0  0  0  0  0  0  0  0
   -1.8049    3.7117   -1.3532 O   0  0  0  0  0  0  0  0  0  0  0  0
   -3.0791    5.3755   -0.2846 C   0  0  0  0  0  0  0  0  0  0  0  0
   -2.4478    6.2532   -0.0717 H   0  0  0  0  0  0  0  0  0  0  0  0
   -3.5571    5.5891   -1.2541 H   0  0  0  0  0  0  0  0  0  0  0  0
   -3.8940    5.4184    0.4556 H   0  0  0  0  0  0  0  0  0  0  0  0
   -2.2137    3.4712    0.9275 N   0  0  0  0  0  0  0  0  0  0  0  0
   -1.5102    2.2327    1.1338 C   0  0  2  0  0  0  0  0  0  0  0  0
   -1.3539    1.5497   -0.2184 C   0  0  0  0  0  0  0  0  0  0  0  0
   -2.0852    1.7861   -1.1778 O   0  0  0  0  0  0  0  0  0  0  0  0
   -2.2477    1.3342    2.1145 C   0  0  0  0  0  0  0  0  0  0  0  0
   -2.6724    3.9052    1.7265 H   0  0  0  0  0  0  0  0  0  0  0  0
   -0.5220    2.4922    1.5290 H   0  0  0  0  0  0  0  0  0  0  0  0
   -3.2400    1.0636    1.7358 H   0  0  0  0  0  0  0  0  0  0  0  0
   -1.6970    0.4046    2.2923 H   0  0  0  0  0  0  0  0  0  0  0  0
   -2.3854    1.8384    3.0772 H   0  0  0  0  0  0  0  0  0  0  0  0
   -0.3283    0.6116   -0.2182 N   0  0  0  0  0  0  0  0  0  0  0  0
    0.0090   -0.1762   -1.3759 C   0  0  2  0  0  0  0  0  0  0  0  0
    1.2954    0.3888   -1.9648 C   0  0  0  0  0  0  0  0  0  0  0  0
    2.4043    0.1752   -1.4793 O   0  0  0  0  0  0  0  0  0  0  0  0
   -1.1102   -0.1731   -2.4138 C   0  0  0  0  0  0  0  0  0  0  0  0
   -2.3164   -0.9337   -1.9206 C   0  0  0  0  0  0  0  0  0  0  0  0
   -2.2605   -1.8685   -1.1322 O   0  0  0  0  0  0  0  0  0  0  0  0
   -3.4748   -0.4804   -2.4603 O   0  0  0  0  0  0  0  0  0  0  0  0
    0.2381    0.4970    0.6194 H   0  0  0  0  0  0  0  0  0  0  0  0
    0.2016   -1.1921   -1.0105 H   0  0  0  0  0  0  0  0  0  0  0  0
   -1.4494    0.8484   -2.6273 H   0  0  0  0  0  0  0  0  0  0  0  0
   -0.7871   -0.5848   -3.3777 H   0  0  0  0  0  0  0  0  0  0  0  0
   -4.2812   -0.9595   -2.1725 H   0  0  0  0  0  0  0  0  0  0  0  0
    1.0640    1.1190   -3.1222 N   0  0  0  0  0  0  0  0  0  0  0  0
    2.1264    1.7442   -3.8747 C   0  0  2  0  0  0  0  0  0  0  0  0
    2.9842    0.6420   -4.4820 C   0  0  0  0  0  0  0  0  0  0  0  0
    3.0271   -0.5004   -4.0301 O   0  0  0  0  0  0  0  0  0  0  0  0
    2.9621    2.6611   -2.9952 C   0  0  0  0  0  0  0  0  0  0  0  0
    0.1088    1.2178   -3.4533 H   0  0  0  0  0  0  0  0  0  0  0  0
    1.6501    2.3202   -4.6756 H   0  0  0  0  0  0  0  0  0  0  0  0
    3.4472    2.1017   -2.1869 H   0  0  0  0  0  0  0  0  0  0  0  0
    3.7494    3.1562   -3.5732 H   0  0  0  0  0  0  0  0  0  0  0  0
    2.3383    3.4353   -2.5356 H   0  0  0  0  0  0  0  0  0  0  0  0
    3.7290    1.0954   -5.5617 N   0  0  0  0  0  0  0  0  0  0  0  0
    4.6307    0.2423   -6.3001 C   0  0  0  0  0  0  0  0  0  0  0  0
    3.6163    2.0536   -5.8794 H   0  0  0  0  0  0  0  0  0  0  0  0
    5.6418    0.3208   -5.8742 H   0  0  0  0  0  0  0  0  0  0  0  0
    4.2853   -0.8000   -6.2346 H   0  0  0  0  0  0  0  0  0  0  0  0
    4.6515    0.5561   -7.3542 H   0  0  0  0  0  0  0  0  0  0  0  0
  1  3  1  0  0  0  0
  1  7  1  0  0  0  0
  1  2  2  0  0  0  0
 31 32  1  0  0  0  0
 32 40  1  0  0  0  0
 32 33  2  0  0  0  0
  8  9  1  0  0  0  0
  9 17  1  0  0  0  0
  9 10  2  0  0  0  0
 18 19  1  0  0  0  0
 19 30  1  0  0  0  0
 19 20  2  0  0  0  0
 21 22  1  0  0  0  0
 22 23  2  0  0  0  0
 22 24  1  0  0  0  0
 31 34  1  0  0  0  0
  8 11  1  0  0  0  0
 40 41  1  0  0  0  0
 18 21  1  0  0  0  0
 30 31  1  0  0  0  0
  7  8  1  0  0  0  0
 17 18  1  0  0  0  0
  3  4  1  0  0  0  0
  3  5  1  0  0  0  0
  3  6  1  0  0  0  0
 34 37  1  0  0  0  0
 34 38  1  0  0  0  0
 34 39  1  0  0  0  0
 11 14  1  0  0  0  0
 11 15  1  0  0  0  0
 11 16  1  0  0  0  0
 41 43  1  0  0  0  0
 41 44  1  0  0  0  0
 41 45  1  0  0  0  0
 21 27  1  0  0  0  0
 21 28  1  0  0  0  0
 31 36  1  0  0  0  0
  8 13  1  0  0  0  0
 18 26  1  0  0  0  0
 40 42  1  0  0  0  0
  7 12  1  0  0  0  0
 30 35  1  0  0  0  0
 17 25  1  0  0  0  0
 24 29  1  0  0  0  0
M  END
$$$$

  -OEChem-05262214473D

 45 44  0     1  0  0  0  0  0999 V2000
   -2.2987    4.1032   -0.3022 C   0  0  0  0  0  0  0  0  0  0  0  0
   -1.8049    3.7117   -1.3532 O   0  0  0  0  0  0  0  0  0  0  0  0
   -3.0791    5.3755   -0.2846 C   0  0  0  0  0  0  0  0  0  0  0  0
   -2.4478    6.2532   -0.0717 H   0  0  0  0  0  0  0  0  0  0  0  0
   -3.5571    5.5891   -1.2541 H   0  0  0  0  0  0  0  0  0  0  0  0
   -3.8940    5.4184    0.4556 H   0  0  0  0  0  0  0  0  0  0  0  0
   -2.2137    3.4712    0.9275 N   0  0  0  0  0  0  0  0  0  0  0  0
   -1.5102    2.2327    1.1338 C   0  0  2  0  0  0  0  0  0  0  0  0
   -1.3539    1.5497   -0.2184 C   0  0  0  0  0  0  0  0  0  0  0  0
   -2.0852    1.7861   -1.1778 O   0  0  0  0  0  0  0  0  0  0  0  0
   -2.2477    1.3342    2.1145 C   0  0  0  0  0  0  0  0  0  0  0  0
   -2.6724    3.9052    1.7265 H   0  0  0  0  0  0  0  0  0  0  0  0
   -0.5220    2.4922    1.5290 H   0  0  0  0  0  0  0  0  0  0  0  0
   -3.2400    1.0636    1.7358 H   0  0  0  0  0  0  0  0  0  0  0  0
   -1.6970    0.4046    2.2923 H   0  0  0  0  0  0  0  0  0  0  0  0
   -2.3854    1.8384    3.0772 H   0  0  0  0  0  0  0  0  0  0  0  0
   -0.3283    0.6116   -0.2182 N   0  0  0  0  0  0  0  0  0  0  0  0
    0.0090   -0.1762   -1.3759 C   0  0  2  0  0  0  0  0  0  0  0  0
    1.2954    0.3888   -1.9648 C   0  0  0  0  0  0  0  0  0  0  0  0
    2.4110   -0.0262   -1.6578 O   0  0  0  0  0  0  0  0  0  0  0  0
   -1.1102   -0.1731   -2.4138 C   0  0  0  0  0  0  0  0  0  0  0  0
   -2.3164   -0.9337   -1.9206 C   0  0  0  0  0  0  0  0  0  0  0  0
   -2.2605   -1.8685   -1.1322 O   0  0  0  0  0  0  0  0  0  0  0  0
   -3.4748   -0.4804   -2.4603 O   0  0  0  0  0  0  0  0  0  0  0  0
    0.2381    0.4970    0.6194 H   0  0  0  0  0  0  0  0  0  0  0  0
    0.2016   -1.1921   -1.0105 H   0  0  0  0  0  0  0  0  0  0  0  0
   -1.4494    0.8484   -2.6273 H   0  0  0  0  0  0  0  0  0  0  0  0
   -0.7871   -0.5848   -3.3777 H   0  0  0  0  0  0  0  0  0  0  0  0
   -4.2812   -0.9595   -2.1725 H   0  0  0  0  0  0  0  0  0  0  0  0
    1.0489    1.3768   -2.9078 N   0  0  0  0  0  0  0  0  0  0  0  0
    2.1062    2.0568   -3.6188 C   0  0  2  0  0  0  0  0  0  0  0  0
    2.7820    1.0460   -4.5359 C   0  0  0  0  0  0  0  0  0  0  0  0
    2.7364   -0.1676   -4.3458 O   0  0  0  0  0  0  0  0  0  0  0  0
    3.1100    2.6755   -2.6584 C   0  0  0  0  0  0  0  0  0  0  0  0
    0.0858    1.6320   -3.1059 H   0  0  0  0  0  0  0  0  0  0  0  0
    1.6304    2.8374   -4.2224 H   0  0  0  0  0  0  0  0  0  0  0  0
    3.5970    1.9086   -2.0450 H   0  0  0  0  0  0  0  0  0  0  0  0
    3.8953    3.2148   -3.1982 H   0  0  0  0  0  0  0  0  0  0  0  0
    2.6170    3.3801   -1.9799 H   0  0  0  0  0  0  0  0  0  0  0  0
    3.4781    1.6608   -5.5672 N   0  0  0  0  0  0  0  0  0  0  0  0
    4.2139    0.9171   -6.5630 C   0  0  0  0  0  0  0  0  0  0  0  0
    3.4457    2.6718   -5.6589 H   0  0  0  0  0  0  0  0  0  0  0  0
    5.2600    0.8078   -6.2410 H   0  0  0  0  0  0  0  0  0  0  0  0
    3.7620   -0.0783   -6.6851 H   0  0  0  0  0  0  0  0  0  0  0  0
    4.1798    1.4553   -7.5218 H   0  0  0  0  0  0  0  0  0  0  0  0
  1  3  1  0  0  0  0
  1  7  1  0  0  0  0
  1  2  2  0  0  0  0
 31 32  1  0  0  0  0
 32 40  1  0  0  0  0
 32 33  2  0  0  0  0
  8  9  1  0  0  0  0
  9 17  1  0  0  0  0
  9 10  2  0  0  0  0
 18 19  1  0  0  0  0
 19 30  1  0  0  0  0
 19 20  2  0  0  0  0
 21 22  1  0  0  0  0
 22 23  2  0  0  0  0
 22 24  1  0  0  0  0
 31 34  1  0  0  0  0
  8 11  1  0  0  0  0
 40 41  1  0  0  0  0
 18 21  1  0  0  0  0
 30 31  1  0  0  0  0
  7  8  1  0  0  0  0
 17 18  1  0  0  0  0
  3  4  1  0  0  0  0
  3  5  1  0  0  0  0
  3  6  1  0  0  0  0
 34 37  1  0  0  0  0
 34 38  1  0  0  0  0
 34 39  1  0  0  0  0
 11 14  1  0  0  0  0
 11 15  1  0  0  0  0
 11 16  1  0  0  0  0
 41 43  1  0  0  0  0
 41 44  1  0  0  0  0
 41 45  1  0  0  0  0
 21 27  1  0  0  0  0
 21 28  1  0  0  0  0
 31 36  1  0  0  0  0
  8 13  1  0  0  0  0
 18 26  1  0  0  0  0
 40 42  1  0  0  0  0
  7 12  1  0  0  0  0
 30 35  1  0  0  0  0
 17 25  1  0  0  0  0
 24 29  1  0  0  0  0
M  END
$$$$

  -OEChem-05262214473D

 45 44  0     1  0  0  0  0  0999 V2000
   -2.2987    4.1032   -0.3022 C   0  0  0  0  0  0  0  0  0  0  0  0
   -1.8049    3.7117   -1.3532 O   0  0  0  0  0  0  0  0  0  0  0  0
   -3.0791    5.3755   -0.2846 C   0  0  0  0  0  0  0  0  0  0  0  0
   -2.4478    6.2532   -0.0717 H   0  0  0  0  0  0  0  0  0  0  0  0
   -3.5571    5.5891   -1.2541 H   0  0  0  0  0  0  0  0  0  0  0  0
   -3.8940    5.4184    0.4556 H   0  0  0  0  0  0  0  0  0  0  0  0
   -2.2137    3.4712    0.9275 N   0  0  0  0  0  0  0  0  0  0  0  0
   -1.5102    2.2327    1.1338 C   0  0  2  0  0  0  0  0  0  0  0  0
   -1.3539    1.5497   -0.2184 C   0  0  0  0  0  0  0  0  0  0  0  0
   -2.0852    1.7861   -1.1778 O   0  0  0  0  0  0  0  0  0  0  0  0
   -2.2477    1.3342    2.1145 C   0  0  0  0  0  0  0  0  0  0  0  0
   -2.6724    3.9052    1.7265 H   0  0  0  0  0  0  0  0  0  0  0  0
   -0.5220    2.4922    1.5290 H   0  0  0  0  0  0  0  0  0  0  0  0
   -3.2400    1.0636    1.7358 H   0  0  0  0  0  0  0  0  0  0  0  0
   -1.6970    0.4046    2.2923 H   0  0  0  0  0  0  0  0  0  0  0  0
   -2.3854    1.8384    3.0772 H   0  0  0  0  0  0  0  0  0  0  0  0
   -0.3283    0.6116   -0.2182 N   0  0  0  0  0  0  0  0  0  0  0  0
    0.0090   -0.1762   -1.3759 C   0  0  2  0  0  0  0  0  0  0  0  0
    1.2954    0.3888   -1.9648 C   0  0  0  0  0  0  0  0  0  0  0  0
    2.3802   -0.1823   -1.8749 O   0  0  0  0  0  0  0  0  0  0  0  0
   -1.1102   -0.1731   -2.4138 C   0  0  0  0  0  0  0  0  0  0  0  0
   -2.3164   -0.9337   -1.9206 C   0  0  0  0  0  0  0  0  0  0  0  0
   -2.2605   -1.8685   -1.1322 O   0  0  0  0  0  0  0  0  0  0  0  0
   -3.4748   -0.4804   -2.4603 O   0  0  0  0  0  0  0  0  0  0  0  0
    0.2381    0.4970    0.6194 H   0  0  0  0  0  0  0  0  0  0  0  0
    0.2016   -1.1921   -1.0105 H   0  0  0  0  0  0  0  0  0  0  0  0
   -1.4494    0.8484   -2.6273 H   0  0  0  0  0  0  0  0  0  0  0  0
   -0.7871   -0.5848   -3.3777 H   0  0  0  0  0  0  0  0  0  0  0  0
   -4.2812   -0.9595   -2.1725 H   0  0  0  0  0  0  0  0  0  0  0  0
    1.0806    1.5805   -2.6430 N   0  0  0  0  0  0  0  0  0  0  0  0
    2.1426    2.3049   -3.3014 C   0  0  2  0  0  0  0  0  0  0  0  0
    2.6220    1.4682   -4.4802 C   0  0  0  0  0  0  0  0  0  0  0  0
    2.4586    0.2519   -4.5500 O   0  0  0  0  0  0  0  0  0  0  0  0
    3.2866    2.6011   -2.3441 C   0  0  0  0  0  0  0  0  0  0  0  0
    0.1385    1.9586   -2.6777 H   0  0  0  0  0  0  0  0  0  0  0  0
    1.7066    3.2399   -3.6697 H   0  0  0  0  0  0  0  0  0  0  0  0
    3.7360    1.6762   -1.9646 H   0  0  0  0  0  0  0  0  0  0  0  0
    4.0781    3.1750   -2.8372 H   0  0  0  0  0  0  0  0  0  0  0  0
    2.9340    3.1774   -1.4819 H   0  0  0  0  0  0  0  0  0  0  0  0
    3.2919    2.2331   -5.4249 N   0  0  0  0  0  0  0  0  0  0  0  0
    3.8535    1.6681   -6.6295 C   0  0  0  0  0  0  0  0  0  0  0  0
    3.3639    3.2379   -5.2944 H   0  0  0  0  0  0  0  0  0  0  0  0
    4.9047    1.3965   -6.4523 H   0  0  0  0  0  0  0  0  0  0  0  0
    3.2855    0.7695   -6.9124 H   0  0  0  0  0  0  0  0  0  0  0  0
    3.7980    2.4077   -7.4418 H   0  0  0  0  0  0  0  0  0  0  0  0
  1  3  1  0  0  0  0
  1  7  1  0  0  0  0
  1  2  2  0  0  0  0
 31 32  1  0  0  0  0
 32 40  1  0  0  0  0
 32 33  2  0  0  0  0
  8  9  1  0  0  0  0
  9 17  1  0  0  0  0
  9 10  2  0  0  0  0
 18 19  1  0  0  0  0
 19 30  1  0  0  0  0
 19 20  2  0  0  0  0
 21 22  1  0  0  0  0
 22 23  2  0  0  0  0
 22 24  1  0  0  0  0
 31 34  1  0  0  0  0
  8 11  1  0  0  0  0
 40 41  1  0  0  0  0
 18 21  1  0  0  0  0
 30 31  1  0  0  0  0
  7  8  1  0  0  0  0
 17 18  1  0  0  0  0
  3  4  1  0  0  0  0
  3  5  1  0  0  0  0
  3  6  1  0  0  0  0
 34 37  1  0  0  0  0
 34 38  1  0  0  0  0
 34 39  1  0  0  0  0
 11 14  1  0  0  0  0
 11 15  1  0  0  0  0
 11 16  1  0  0  0  0
 41 43  1  0  0  0  0
 41 44  1  0  0  0  0
 41 45  1  0  0  0  0
 21 27  1  0  0  0  0
 21 28  1  0  0  0  0
 31 36  1  0  0  0  0
  8 13  1  0  0  0  0
 18 26  1  0  0  0  0
 40 42  1  0  0  0  0
  7 12  1  0  0  0  0
 30 35  1  0  0  0  0
 17 25  1  0  0  0  0
 24 29  1  0  0  0  0
M  END
$$$$

  -OEChem-05262214473D

 45 44  0     1  0  0  0  0  0999 V2000
   -2.2987    4.1032   -0.3022 C   0  0  0  0  0  0  0  0  0  0  0  0
   -1.8049    3.7117   -1.3532 O   0  0  0  0  0  0  0  0  0  0  0  0
   -3.0791    5.3755   -0.2846 C   0  0  0  0  0  0  0  0  0  0  0  0
   -2.4478    6.2532   -0.0717 H   0  0  0  0  0  0  0  0  0  0  0  0
   -3.5571    5.5891   -1.2541 H   0  0  0  0  0  0  0  0  0  0  0  0
   -3.8940    5.4184    0.4556 H   0  0  0  0  0  0  0  0  0  0  0  0
   -2.2137    3.4712    0.9275 N   0  0  0  0  0  0  0  0  0  0  0  0
   -1.5102    2.2327    1.1338 C   0  0  2  0  0  0  0  0  0  0  0  0
   -1.3539    1.5497   -0.2184 C   0  0  0  0  0  0  0  0  0  0  0  0
   -2.0852    1.7861   -1.1778 O   0  0  0  0  0  0  0  0  0  0  0  0
   -2.2477    1.3342    2.1145 C   0  0  0  0  0  0  0  0  0  0  0  0
   -2.6724    3.9052    1.7265 H   0  0  0  0  0  0  0  0  0  0  0  0
   -0.5220    2.4922    1.5290 H   0  0  0  0  0  0  0  0  0  0  0  0
   -3.2400    1.0636    1.7358 H   0  0  0  0  0  0  0  0  0  0  0  0
   -1.6970    0.4046    2.2923 H   0  0  0  0  0  0  0  0  0  0  0  0
   -2.3854    1.8384    3.0772 H   0  0  0  0  0  0  0  0  0  0  0  0
   -0.3283    0.6116   -0.2182 N   0  0  0  0  0  0  0  0  0  0  0  0
    0.0090   -0.1762   -1.3759 C   0  0  2  0  0  0  0  0  0  0  0  0
    1.2954    0.3888   -1.9648 C   0  0  0  0  0  0  0  0  0  0  0  0
    2.3140   -0.2826   -2.1157 O   0  0  0  0  0  0  0  0  0  0  0  0
   -1.1102   -0.1731   -2.4138 C   0  0  0  0  0  0  0  0  0  0  0  0
   -2.3164   -0.9337   -1.9206 C   0  0  0  0  0  0  0  0  0  0  0  0
   -2.2605   -1.8685   -1.1322 O   0  0  0  0  0  0  0  0  0  0  0  0
   -3.4748   -0.4804   -2.4603 O   0  0  0  0  0  0  0  0  0  0  0  0
    0.2381    0.4970    0.6194 H   0  0  0  0  0  0  0  0  0  0  0  0
    0.2016   -1.1921   -1.0105 H   0  0  0  0  0  0  0  0  0  0  0  0
   -1.4494    0.8484   -2.6273 H   0  0  0  0  0  0  0  0  0  0  0  0
   -0.7871   -0.5848   -3.3777 H   0  0  0  0  0  0  0  0  0  0  0  0
   -4.2812   -0.9595   -2.1725 H   0  0  0  0  0  0  0  0  0  0  0  0
    1.1571    1.7162   -2.3457 N   0  0  0  0  0  0  0  0  0  0  0  0
    2.2331    2.4715   -2.9440 C   0  0  2  0  0  0  0  0  0  0  0  0
    2.5151    1.8799   -4.3188 C   0  0  0  0  0  0  0  0  0  0  0  0
    2.2127    0.7295   -4.6290 O   0  0  0  0  0  0  0  0  0  0  0  0
    3.4799    2.4428   -2.0738 C   0  0  0  0  0  0  0  0  0  0  0  0
    0.2631    2.1751   -2.1977 H   0  0  0  0  0  0  0  0  0  0  0  0
    1.8736    3.5003   -3.0552 H   0  0  0  0  0  0  0  0  0  0  0  0
    3.8547    1.4201   -1.9510 H   0  0  0  0  0  0  0  0  0  0  0  0
    4.2853    3.0393   -2.5148 H   0  0  0  0  0  0  0  0  0  0  0  0
    3.2677    2.8411   -1.0757 H   0  0  0  0  0  0  0  0  0  0  0  0
    3.1829    2.7735   -5.1444 N   0  0  0  0  0  0  0  0  0  0  0  0
    3.5743    2.4440   -6.4951 C   0  0  0  0  0  0  0  0  0  0  0  0
    3.3766    3.7132   -4.8108 H   0  0  0  0  0  0  0  0  0  0  0  0
    4.6000    2.0468   -6.4936 H   0  0  0  0  0  0  0  0  0  0  0  0
    2.8883    1.6859   -6.9008 H   0  0  0  0  0  0  0  0  0  0  0  0
    3.5323    3.3484   -7.1198 H   0  0  0  0  0  0  0  0  0  0  0  0
  1  3  1  0  0  0  0
  1  7  1  0  0  0  0
  1  2  2  0  0  0  0
 31 32  1  0  0  0  0
 32 40  1  0  0  0  0
 32 33  2  0  0  0  0
  8  9  1  0  0  0  0
  9 17  1  0  0  0  0
  9 10  2  0  0  0  0
 18 19  1  0  0  0  0
 19 30  1  0  0  0  0
 19 20  2  0  0  0  0
 21 22  1  0  0  0  0
 22 23  2  0  0  0  0
 22 24  1  0  0  0  0
 31 34  1  0  0  0  0
  8 11  1  0  0  0  0
 40 41  1  0  0  0  0
 18 21  1  0  0  0  0
 30 31  1  0  0  0  0
  7  8  1  0  0  0  0
 17 18  1  0  0  0  0
  3  4  1  0  0  0  0
  3  5  1  0  0  0  0
  3  6  1  0  0  0  0
 34 37  1  0  0  0  0
 34 38  1  0  0  0  0
 34 39  1  0  0  0  0
 11 14  1  0  0  0  0
 11 15  1  0  0  0  0
 11 16  1  0  0  0  0
 41 43  1  0  0  0  0
 41 44  1  0  0  0  0
 41 45  1  0  0  0  0
 21 27  1  0  0  0  0
 21 28  1  0  0  0  0
 31 36  1  0  0  0  0
  8 13  1  0  0  0  0
 18 26  1  0  0  0  0
 40 42  1  0  0  0  0
  7 12  1  0  0  0  0
 30 35  1  0  0  0  0
 17 25  1  0  0  0  0
 24 29  1  0  0  0  0
M  END
$$$$

  -OEChem-05262214473D

 45 44  0     1  0  0  0  0  0999 V2000
   -2.2987    4.1032   -0.3022 C   0  0  0  0  0  0  0  0  0  0  0  0
   -1.8049    3.7117   -1.3532 O   0  0  0  0  0  0  0  0  0  0  0  0
   -3.0791    5.3755   -0.2846 C   0  0  0  0  0  0  0  0  0  0  0  0
   -2.4478    6.2532   -0.0717 H   0  0  0  0  0  0  0  0  0  0  0  0
   -3.5571    5.5891   -1.2541 H   0  0  0  0  0  0  0  0  0  0  0  0
   -3.8940    5.4184    0.4556 H   0  0  0  0  0  0  0  0  0  0  0  0
   -2.2137    3.4712    0.9275 N   0  0  0  0  0  0  0  0  0  0  0  0
   -1.5102    2.2327    1.1338 C   0  0  2  0  0  0  0  0  0  0  0  0
   -1.3539    1.5497   -0.2184 C   0  0  0  0  0  0  0  0  0  0  0  0
   -2.0852    1.7861   -1.1778 O   0  0  0  0  0  0  0  0  0  0  0  0
   -2.2477    1.3342    2.1145 C   0  0  0  0  0  0  0  0  0  0  0  0
   -2.6724    3.9052    1.7265 H   0  0  0  0  0  0  0  0  0  0  0  0
   -0.5220    2.4922    1.5290 H   0  0  0  0  0  0  0  0  0  0  0  0
   -3.2400    1.0636    1.7358 H   0  0  0  0  0  0  0  0  0  0  0  0
   -1.6970    0.4046    2.2923 H   0  0  0  0  0  0  0  0  0  0  0  0
   -2.3854    1.8384    3.0772 H   0  0  0  0  0  0  0  0  0  0  0  0
   -0.3283    0.6116   -0.2182 N   0  0  0  0  0  0  0  0  0  0  0  0
    0.0090   -0.1762   -1.3759 C   0  0  2  0  0  0  0  0  0  0  0  0
    1.2954    0.3888   -1.9648 C   0  0  0  0  0  0  0  0  0  0  0  0
    2.2169   -0.3202   -2.3639 O   0  0  0  0  0  0  0  0  0  0  0  0
   -1.1102   -0.1731   -2.4138 C   0  0  0  0  0  0  0  0  0  0  0  0
   -2.3164   -0.9337   -1.9206 C   0  0  0  0  0  0  0  0  0  0  0  0
   -2.2605   -1.8685   -1.1322 O   0  0  0  0  0  0  0  0  0  0  0  0
   -3.4748   -0.4804   -2.4603 O   0  0  0  0  0  0  0  0  0  0  0  0
    0.2381    0.4970    0.6194 H   0  0  0  0  0  0  0  0  0  0  0  0
    0.2016   -1.1921   -1.0105 H   0  0  0  0  0  0  0  0  0  0  0  0
   -1.4494    0.8484   -2.6273 H   0  0  0  0  0  0  0  0  0  0  0  0
   -0.7871   -0.5848   -3.3777 H   0  0  0  0  0  0  0  0  0  0  0  0
   -4.2812   -0.9595   -2.1725 H   0  0  0  0  0  0  0  0  0  0  0  0
    1.2731    1.7747   -2.0363 N   0  0  0  0  0  0  0  0  0  0  0  0
    2.3714    2.5452   -2.5711 C   0  0  2  0  0  0  0  0  0  0  0  0
    2.4685    2.2530   -4.0627 C   0  0  0  0  0  0  0  0  0  0  0  0
    2.0153    1.2328   -4.5772 O   0  0  0  0  0  0  0  0  0  0  0  0
    3.6767    2.2115   -1.8658 C   0  0  0  0  0  0  0  0  0  0  0  0
    0.4512    2.2669   -1.6987 H   0  0  0  0  0  0  0  0  0  0  0  0
    2.1199    3.6008   -2.4208 H   0  0  0  0  0  0  0  0  0  0  0  0
    3.9450    1.1579   -2.0052 H   0  0  0  0  0  0  0  0  0  0  0  0
    4.5029    2.8170   -2.2528 H   0  0  0  0  0  0  0  0  0  0  0  0
    3.5955    2.3941   -0.7888 H   0  0  0  0  0  0  0  0  0  0  0  0
    3.1586    3.2451   -4.7450 N   0  0  0  0  0  0  0  0  0  0  0  0
    3.3950    3.1921   -6.1688 C   0  0  0  0  0  0  0  0  0  0  0  0
    3.4828    4.0653   -4.2410 H   0  0  0  0  0  0  0  0  0  0  0  0
    4.3669    2.7146   -6.3621 H   0  0  0  0  0  0  0  0  0  0  0  0
    2.5973    2.6082   -6.6513 H   0  0  0  0  0  0  0  0  0  0  0  0
    3.4005    4.2132   -6.5777 H   0  0  0  0  0  0  0  0  0  0  0  0
  1  3  1  0  0  0  0
  1  7  1  0  0  0  0
  1  2  2  0  0  0  0
 31 32  1  0  0  0  0
 32 40  1  0  0  0  0
 32 33  2  0  0  0  0
  8  9  1  0  0  0  0
  9 17  1  0  0  0  0
  9 10  2  0  0  0  0
 18 19  1  0  0  0  0
 19 30  1  0  0  0  0
 19 20  2  0  0  0  0
 21 22  1  0  0  0  0
 22 23  2  0  0  0  0
 22 24  1  0  0  0  0
 31 34  1  0  0  0  0
  8 11  1  0  0  0  0
 40 41  1  0  0  0  0
 18 21  1  0  0  0  0
 30 31  1  0  0  0  0
  7  8  1  0  0  0  0
 17 18  1  0  0  0  0
  3  4  1  0  0  0  0
  3  5  1  0  0  0  0
  3  6  1  0  0  0  0
 34 37  1  0  0  0  0
 34 38  1  0  0  0  0
 34 39  1  0  0  0  0
 11 14  1  0  0  0  0
 11 15  1  0  0  0  0
 11 16  1  0  0  0  0
 41 43  1  0  0  0  0
 41 44  1  0  0  0  0
 41 45  1  0  0  0  0
 21 27  1  0  0  0  0
 21 28  1  0  0  0  0
 31 36  1  0  0  0  0
  8 13  1  0  0  0  0
 18 26  1  0  0  0  0
 40 42  1  0  0  0  0
  7 12  1  0  0  0  0
 30 35  1  0  0  0  0
 17 25  1  0  0  0  0
 24 29  1  0  0  0  0
M  END
$$$$

  -OEChem-05262214473D

 45 44  0     1  0  0  0  0  0999 V2000
   -2.2987    4.1032   -0.3022 C   0  0  0  0  0  0  0  0  0  0  0  0
   -1.8049    3.7117   -1.3532 O   0  0  0  0  0  0  0  0  0  0  0  0
   -3.0791    5.3755   -0.2846 C   0  0  0  0  0  0  0  0  0  0  0  0
   -2.4478    6.2532   -0.0717 H   0  0  0  0  0  0  0  0  0  0  0  0
   -3.5571    5.5891   -1.2541 H   0  0  0  0  0  0  0  0  0  0  0  0
   -3.8940    5.4184    0.4556 H   0  0  0  0  0  0  0  0  0  0  0  0
   -2.2137    3.4712    0.9275 N   0  0  0  0  0  0  0  0  0  0  0  0
   -1.5102    2.2327    1.1338 C   0  0  2  0  0  0  0  0  0  0  0  0
   -1.3539    1.5497   -0.2184 C   0  0  0  0  0  0  0  0  0  0  0  0
   -2.0852    1.7861   -1.1778 O   0  0  0  0  0  0  0  0  0  0  0  0
   -2.2477    1.3342    2.1145 C   0  0  0  0  0  0  0  0  0  0  0  0
   -2.6724    3.9052    1.7265 H   0  0  0  0  0  0  0  0  0  0  0  0
   -0.5220    2.4922    1.5290 H   0  0  0  0  0  0  0  0  0  0  0  0
   -3.2400    1.0636    1.7358 H   0  0  0  0  0  0  0  0  0  0  0  0
   -1.6970    0.4046    2.2923 H   0  0  0  0  0  0  0  0  0  0  0  0
   -2.3854    1.8384    3.0772 H   0  0  0  0  0  0  0  0  0  0  0  0
   -0.3283    0.6116   -0.2182 N   0  0  0  0  0  0  0  0  0  0  0  0
    0.0090   -0.1762   -1.3759 C   0  0  2  0  0  0  0  0  0  0  0  0
    1.2954    0.3888   -1.9648 C   0  0  0  0  0  0  0  0  0  0  0  0
    2.0955   -0.2926   -2.6025 O   0  0  0  0  0  0  0  0  0  0  0  0
   -1.1102   -0.1731   -2.4138 C   0  0  0  0  0  0  0  0  0  0  0  0
   -2.3164   -0.9337   -1.9206 C   0  0  0  0  0  0  0  0  0  0  0  0
   -2.2605   -1.8685   -1.1322 O   0  0  0  0  0  0  0  0  0  0  0  0
   -3.4748   -0.4804   -2.4603 O   0  0  0  0  0  0  0  0  0  0  0  0
    0.2381    0.4970    0.6194 H   0  0  0  0  0  0  0  0  0  0  0  0
    0.2016   -1.1921   -1.0105 H   0  0  0  0  0  0  0  0  0  0  0  0
   -1.4494    0.8484   -2.6273 H   0  0  0  0  0  0  0  0  0  0  0  0
   -0.7871   -0.5848   -3.3777 H   0  0  0  0  0  0  0  0  0  0  0  0
   -4.2812   -0.9595   -2.1725 H   0  0  0  0  0  0  0  0  0  0  0  0
    1.4207    1.7519   -1.7357 N   0  0  0  0  0  0  0  0  0  0  0  0
    2.5482    2.5211   -2.2081 C   0  0  2  0  0  0  0  0  0  0  0  0
    2.4854    2.5621   -3.7292 C   0  0  0  0  0  0  0  0  0  0  0  0
    1.8800    1.7273   -4.3983 O   0  0  0  0  0  0  0  0  0  0  0  0
    3.8636    1.9229   -1.7343 C   0  0  0  0  0  0  0  0  0  0  0  0
    0.6900    2.2277   -1.2148 H   0  0  0  0  0  0  0  0  0  0  0  0
    2.4288    3.5345   -1.8096 H   0  0  0  0  0  0  0  0  0  0  0  0
    4.0009    0.9075   -2.1235 H   0  0  0  0  0  0  0  0  0  0  0  0
    4.7160    2.5233   -2.0693 H   0  0  0  0  0  0  0  0  0  0  0  0
    3.8948    1.8668   -0.6409 H   0  0  0  0  0  0  0  0  0  0  0  0
    3.2207    3.6158   -4.2537 N   0  0  0  0  0  0  0  0  0  0  0  0
    3.3281    3.8613   -5.6730 C   0  0  0  0  0  0  0  0  0  0  0  0
    3.6753    4.2703   -3.6238 H   0  0  0  0  0  0  0  0  0  0  0  0
    4.2212    3.3541   -6.0668 H   0  0  0  0  0  0  0  0  0  0  0  0
    2.4326    3.4737   -6.1808 H   0  0  0  0  0  0  0  0  0  0  0  0
    3.4119    4.9433   -5.8525 H   0  0  0  0  0  0  0  0  0  0  0  0
  1  3  1  0  0  0  0
  1  7  1  0  0  0  0
  1  2  2  0  0  0  0
 31 32  1  0  0  0  0
 32 40  1  0  0  0  0
 32 33  2  0  0  0  0
  8  9  1  0  0  0  0
  9 17  1  0  0  0  0
  9 10  2  0  0  0  0
 18 19  1  0  0  0  0
 19 30  1  0  0  0  0
 19 20  2  0  0  0  0
 21 22  1  0  0  0  0
 22 23  2  0  0  0  0
 22 24  1  0  0  0  0
 31 34  1  0  0  0  0
  8 11  1  0  0  0  0
 40 41  1  0  0  0  0
 18 21  1  0  0  0  0
 30 31  1  0  0  0  0
  7  8  1  0  0  0  0
 17 18  1  0  0  0  0
  3  4  1  0  0  0  0
  3  5  1  0  0  0  0
  3  6  1  0  0  0  0
 34 37  1  0  0  0  0
 34 38  1  0  0  0  0
 34 39  1  0  0  0  0
 11 14  1  0  0  0  0
 11 15  1  0  0  0  0
 11 16  1  0  0  0  0
 41 43  1  0  0  0  0
 41 44  1  0  0  0  0
 41 45  1  0  0  0  0
 21 27  1  0  0  0  0
 21 28  1  0  0  0  0
 31 36  1  0  0  0  0
  8 13  1  0  0  0  0
 18 26  1  0  0  0  0
 40 42  1  0  0  0  0
  7 12  1  0  0  0  0
 30 35  1  0  0  0  0
 17 25  1  0  0  0  0
 24 29  1  0  0  0  0
M  END
$$$$

  -OEChem-05262214473D

 45 44  0     1  0  0  0  0  0999 V2000
   -2.2987    4.1032   -0.3022 C   0  0  0  0  0  0  0  0  0  0  0  0
   -1.8049    3.7117   -1.3532 O   0  0  0  0  0  0  0  0  0  0  0  0
   -3.0791    5.3755   -0.2846 C   0  0  0  0  0  0  0  0  0  0  0  0
   -2.4478    6.2532   -0.0717 H   0  0  0  0  0  0  0  0  0  0  0  0
   -3.5571    5.5891   -1.2541 H   0  0  0  0  0  0  0  0  0  0  0  0
   -3.8940    5.4184    0.4556 H   0  0  0  0  0  0  0  0  0  0  0  0
   -2.2137    3.4712    0.9275 N   0  0  0  0  0  0  0  0  0  0  0  0
   -1.5102    2.2327    1.1338 C   0  0  2  0  0  0  0  0  0  0  0  0
   -1.3539    1.5497   -0.2184 C   0  0  0  0  0  0  0  0  0  0  0  0
   -2.0852    1.7861   -1.1778 O   0  0  0  0  0  0  0  0  0  0  0  0
   -2.2477    1.3342    2.1145 C   0  0  0  0  0  0  0  0  0  0  0  0
   -2.6724    3.9052    1.7265 H   0  0  0  0  0  0  0  0  0  0  0  0
   -0.5220    2.4922    1.5290 H   0  0  0  0  0  0  0  0  0  0  0  0
   -3.2400    1.0636    1.7358 H   0  0  0  0  0  0  0  0  0  0  0  0
   -1.6970    0.4046    2.2923 H   0  0  0  0  0  0  0  0  0  0  0  0
   -2.3854    1.8384    3.0772 H   0  0  0  0  0  0  0  0  0  0  0  0
   -0.3283    0.6116   -0.2182 N   0  0  0  0  0  0  0  0  0  0  0  0
    0.0090   -0.1762   -1.3759 C   0  0  2  0  0  0  0  0  0  0  0  0
    1.2954    0.3888   -1.9648 C   0  0  0  0  0  0  0  0  0  0  0  0
    1.9581   -0.2016   -2.8154 O   0  0  0  0  0  0  0  0  0  0  0  0
   -1.1102   -0.1731   -2.4138 C   0  0  0  0  0  0  0  0  0  0  0  0
   -2.3164   -0.9337   -1.9206 C   0  0  0  0  0  0  0  0  0  0  0  0
   -2.2605   -1.8685   -1.1322 O   0  0  0  0  0  0  0  0  0  0  0  0
   -3.4748   -0.4804   -2.4603 O   0  0  0  0  0  0  0  0  0  0  0  0
    0.2381    0.4970    0.6194 H   0  0  0  0  0  0  0  0  0  0  0  0
    0.2016   -1.1921   -1.0105 H   0  0  0  0  0  0  0  0  0  0  0  0
   -1.4494    0.8484   -2.6273 H   0  0  0  0  0  0  0  0  0  0  0  0
   -0.7871   -0.5848   -3.3777 H   0  0  0  0  0  0  0  0  0  0  0  0
   -4.2812   -0.9595   -2.1725 H   0  0  0  0  0  0  0  0  0  0  0  0
    1.5899    1.6494   -1.4646 N   0  0  0  0  0  0  0  0  0  0  0  0
    2.7514    2.4008   -1.8797 C   0  0  2  0  0  0  0  0  0  0  0  0
    2.5646    2.7861   -3.3413 C   0  0  0  0  0  0  0  0  0  0  0  0
    1.8159    2.1794   -4.1045 O   0  0  0  0  0  0  0  0  0  0  0  0
    4.0280    1.5968   -1.6883 C   0  0  0  0  0  0  0  0  0  0  0  0
    0.9632    2.0602   -0.7788 H   0  0  0  0  0  0  0  0  0  0  0  0
    2.7792    3.3061   -1.2635 H   0  0  0  0  0  0  0  0  0  0  0  0
    4.0184    0.6859   -2.2979 H   0  0  0  0  0  0  0  0  0  0  0  0
    4.9100    2.1781   -1.9767 H   0  0  0  0  0  0  0  0  0  0  0  0
    4.1454    1.2952   -0.6419 H   0  0  0  0  0  0  0  0  0  0  0  0
    3.3649    3.8603   -3.7042 N   0  0  0  0  0  0  0  0  0  0  0  0
    3.3780    4.4060   -5.0413 C   0  0  0  0  0  0  0  0  0  0  0  0
    3.9410    4.3141   -3.0014 H   0  0  0  0  0  0  0  0  0  0  0  0
    4.1728    3.9219   -5.6278 H   0  0  0  0  0  0  0  0  0  0  0  0
    2.4052    4.2233   -5.5213 H   0  0  0  0  0  0  0  0  0  0  0  0
    3.5656    5.4889   -4.9935 H   0  0  0  0  0  0  0  0  0  0  0  0
  1  3  1  0  0  0  0
  1  7  1  0  0  0  0
  1  2  2  0  0  0  0
 31 32  1  0  0  0  0
 32 40  1  0  0  0  0
 32 33  2  0  0  0  0
  8  9  1  0  0  0  0
  9 17  1  0  0  0  0
  9 10  2  0  0  0  0
 18 19  1  0  0  0  0
 19 30  1  0  0  0  0
 19 20  2  0  0  0  0
 21 22  1  0  0  0  0
 22 23  2  0  0  0  0
 22 24  1  0  0  0  0
 31 34  1  0  0  0  0
  8 11  1  0  0  0  0
 40 41  1  0  0  0  0
 18 21  1  0  0  0  0
 30 31  1  0  0  0  0
  7  8  1  0  0  0  0
 17 18  1  0  0  0  0
  3  4  1  0  0  0  0
  3  5  1  0  0  0  0
  3  6  1  0  0  0  0
 34 37  1  0  0  0  0
 34 38  1  0  0  0  0
 34 39  1  0  0  0  0
 11 14  1  0  0  0  0
 11 15  1  0  0  0  0
 11 16  1  0  0  0  0
 41 43  1  0  0  0  0
 41 44  1  0  0  0  0
 41 45  1  0  0  0  0
 21 27  1  0  0  0  0
 21 28  1  0  0  0  0
 31 36  1  0  0  0  0
  8 13  1  0  0  0  0
 18 26  1  0  0  0  0
 40 42  1  0  0  0  0
  7 12  1  0  0  0  0
 30 35  1  0  0  0  0
 17 25  1  0  0  0  0
 24 29  1  0  0  0  0
M  END
$$$$

  -OEChem-05262214473D

 45 44  0     1  0  0  0  0  0999 V2000
   -2.2987    4.1032   -0.3022 C   0  0  0  0  0  0  0  0  0  0  0  0
   -1.8049    3.7117   -1.3532 O   0  0  0  0  0  0  0  0  0  0  0  0
   -3.0791    5.3755   -0.2846 C   0  0  0  0  0  0  0  0  0  0  0  0
   -2.4478    6.2532   -0.0717 H   0  0  0  0  0  0  0  0  0  0  0  0
   -3.5571    5.5891   -1.2541 H   0  0  0  0  0  0  0  0  0  0  0  0
   -3.8940    5.4184    0.4556 H   0  0  0  0  0  0  0  0  0  0  0  0
   -2.2137    3.4712    0.9275 N   0  0  0  0  0  0  0  0  0  0  0  0
   -1.5102    2.2327    1.1338 C   0  0  2  0  0  0  0  0  0  0  0  0
   -1.3539    1.5497   -0.2184 C   0  0  0  0  0  0  0  0  0  0  0  0
   -2.0852    1.7861   -1.1778 O   0  0  0  0  0  0  0  0  0  0  0  0
   -2.2477    1.3342    2.1145 C   0  0  0  0  0  0  0  0  0  0  0  0
   -2.6724    3.9052    1.7265 H   0  0  0  0  0  0  0  0  0  0  0  0
   -0.5220    2.4922    1.5290 H   0  0  0  0  0  0  0  0  0  0  0  0
   -3.2400    1.0636    1.7358 H   0  0  0  0  0  0  0  0  0  0  0  0
   -1.6970    0.4046    2.2923 H   0  0  0  0  0  0  0  0  0  0  0  0
   -2.3854    1.8384    3.0772 H   0  0  0  0  0  0  0  0  0  0  0  0
   -0.3283    0.6116   -0.2182 N   0  0  0  0  0  0  0  0  0  0  0  0
    0.0090   -0.1762   -1.3759 C   0  0  2  0  0  0  0  0  0  0  0  0
    1.2954    0.3888   -1.9648 C   0  0  0  0  0  0  0  0  0  0  0  0
    1.8140   -0.0535   -2.9878 O   0  0  0  0  0  0  0  0  0  0  0  0
   -1.1102   -0.1731   -2.4138 C   0  0  0  0  0  0  0  0  0  0  0  0
   -2.3164   -0.9337   -1.9206 C   0  0  0  0  0  0  0  0  0  0  0  0
   -2.2605   -1.8685   -1.1322 O   0  0  0  0  0  0  0  0  0  0  0  0
   -3.4748   -0.4804   -2.4603 O   0  0  0  0  0  0  0  0  0  0  0  0
    0.2381    0.4970    0.6194 H   0  0  0  0  0  0  0  0  0  0  0  0
    0.2016   -1.1921   -1.0105 H   0  0  0  0  0  0  0  0  0  0  0  0
   -1.4494    0.8484   -2.6273 H   0  0  0  0  0  0  0  0  0  0  0  0
   -0.7871   -0.5848   -3.3777 H   0  0  0  0  0  0  0  0  0  0  0  0
   -4.2812   -0.9595   -2.1725 H   0  0  0  0  0  0  0  0  0  0  0  0
    1.7691    1.4743   -1.2413 N   0  0  0  0  0  0  0  0  0  0  0  0
    2.9672    2.1925   -1.6083 C   0  0  2  0  0  0  0  0  0  0  0  0
    2.7008    2.9097   -2.9252 C   0  0  0  0  0  0  0  0  0  0  0  0
    1.8275    2.5583   -3.7156 O   0  0  0  0  0  0  0  0  0  0  0  0
    4.1585    1.2553   -1.7310 C   0  0  0  0  0  0  0  0  0  0  0  0
    1.2522    1.7758   -0.4205 H   0  0  0  0  0  0  0  0  0  0  0  0
    3.1473    2.9310   -0.8195 H   0  0  0  0  0  0  0  0  0  0  0  0
    3.9963    0.5082   -2.5165 H   0  0  0  0  0  0  0  0  0  0  0  0
    5.0718    1.8051   -1.9812 H   0  0  0  0  0  0  0  0  0  0  0  0
    4.3302    0.7182   -0.7919 H   0  0  0  0  0  0  0  0  0  0  0  0
    3.5815    3.9619   -3.1338 N   0  0  0  0  0  0  0  0  0  0  0  0
    3.5413    4.7892   -4.3170 C   0  0  0  0  0  0  0  0  0  0  0  0
    4.2618    4.1939   -2.4161 H   0  0  0  0  0  0  0  0  0  0  0  0
    4.2250    4.3793   -5.0750 H   0  0  0  0  0  0  0  0  0  0  0  0
    2.5171    4.8060   -4.7179 H   0  0  0  0  0  0  0  0  0  0  0  0
    3.8510    5.8127   -4.0592 H   0  0  0  0  0  0  0  0  0  0  0  0
  1  3  1  0  0  0  0
  1  7  1  0  0  0  0
  1  2  2  0  0  0  0
 31 32  1  0  0  0  0
 32 40  1  0  0  0  0
 32 33  2  0  0  0  0
  8  9  1  0  0  0  0
  9 17  1  0  0  0  0
  9 10  2  0  0  0  0
 18 19  1  0  0  0  0
 19 30  1  0  0  0  0
 19 20  2  0  0  0  0
 21 22  1  0  0  0  0
 22 23  2  0  0  0  0
 22 24  1  0  0  0  0
 31 34  1  0  0  0  0
  8 11  1  0  0  0  0
 40 41  1  0  0  0  0
 18 21  1  0  0  0  0
 30 31  1  0  0  0  0
  7  8  1  0  0  0  0
 17 18  1  0  0  0  0
  3  4  1  0  0  0  0
  3  5  1  0  0  0  0
  3  6  1  0  0  0  0
 34 37  1  0  0  0  0
 34 38  1  0  0  0  0
 34 39  1  0  0  0  0
 11 14  1  0  0  0  0
 11 15  1  0  0  0  0
 11 16  1  0  0  0  0
 41 43  1  0  0  0  0
 41 44  1  0  0  0  0
 41 45  1  0  0  0  0
 21 27  1  0  0  0  0
 21 28  1  0  0  0  0
 31 36  1  0  0  0  0
  8 13  1  0  0  0  0
 18 26  1  0  0  0  0
 40 42  1  0  0  0  0
  7 12  1  0  0  0  0
 30 35  1  0  0  0  0
 17 25  1  0  0  0  0
 24 29  1  0  0  0  0
M  END
$$$$

  -OEChem-05262214473D

 45 44  0     1  0  0  0  0  0999 V2000
   -2.2987    4.1032   -0.3022 C   0  0  0  0  0  0  0  0  0  0  0  0
   -1.8049    3.7117   -1.3532 O   0  0  0  0  0  0  0  0  0  0  0  0
   -3.0791    5.3755   -0.2846 C   0  0  0  0  0  0  0  0  0  0  0  0
   -2.4478    6.2532   -0.0717 H   0  0  0  0  0  0  0  0  0  0  0  0
   -3.5571    5.5891   -1.2541 H   0  0  0  0  0  0  0  0  0  0  0  0
   -3.8940    5.4184    0.4556 H   0  0  0  0  0  0  0  0  0  0  0  0
   -2.2137    3.4712    0.9275 N   0  0  0  0  0  0  0  0  0  0  0  0
   -1.5102    2.2327    1.1338 C   0  0  2  0  0  0  0  0  0  0  0  0
   -1.3539    1.5497   -0.2184 C   0  0  0  0  0  0  0  0  0  0  0  0
   -2.0852    1.7861   -1.1778 O   0  0  0  0  0  0  0  0  0  0  0  0
   -2.2477    1.3342    2.1145 C   0  0  0  0  0  0  0  0  0  0  0  0
   -2.6724    3.9052    1.7265 H   0  0  0  0  0  0  0  0  0  0  0  0
   -0.5220    2.4922    1.5290 H   0  0  0  0  0  0  0  0  0  0  0  0
   -3.2400    1.0636    1.7358 H   0  0  0  0  0  0  0  0  0  0  0  0
   -1.6970    0.4046    2.2923 H   0  0  0  0  0  0  0  0  0  0  0  0
   -2.3854    1.8384    3.0772 H   0  0  0  0  0  0  0  0  0  0  0  0
   -0.3283    0.6116   -0.2182 N   0  0  0  0  0  0  0  0  0  0  0  0
    0.0090   -0.1762   -1.3759 C   0  0  2  0  0  0  0  0  0  0  0  0
    1.2954    0.3888   -1.9648 C   0  0  0  0  0  0  0  0  0  0  0  0
    1.6732    0.1417   -3.1083 O   0  0  0  0  0  0  0  0  0  0  0  0
   -1.1102   -0.1731   -2.4138 C   0  0  0  0  0  0  0  0  0  0  0  0
   -2.3164   -0.9337   -1.9206 C   0  0  0  0  0  0  0  0  0  0  0  0
   -2.2605   -1.8685   -1.1322 O   0  0  0  0  0  0  0  0  0  0  0  0
   -3.4748   -0.4804   -2.4603 O   0  0  0  0  0  0  0  0  0  0  0  0
    0.2381    0.4970    0.6194 H   0  0  0  0  0  0  0  0  0  0  0  0
    0.2016   -1.1921   -1.0105 H   0  0  0  0  0  0  0  0  0  0  0  0
   -1.4494    0.8484   -2.6273 H   0  0  0  0  0  0  0  0  0  0  0  0
   -0.7871   -0.5848   -3.3777 H   0  0  0  0  0  0  0  0  0  0  0  0
   -4.2812   -0.9595   -2.1725 H   0  0  0  0  0  0  0  0  0  0  0  0
    1.9460    1.2384   -1.0811 N   0  0  0  0  0  0  0  0  0  0  0  0
    3.1808    1.9104   -1.4123 C   0  0  2  0  0  0  0  0  0  0  0  0
    2.8847    2.9245   -2.5093 C   0  0  0  0  0  0  0  0  0  0  0  0
    1.9139    2.8381   -3.2584 O   0  0  0  0  0  0  0  0  0  0  0  0
    4.2462    0.9216   -1.8594 C   0  0  0  0  0  0  0  0  0  0  0  0
    1.5373    1.3939   -0.1643 H   0  0  0  0  0  0  0  0  0  0  0  0
    3.5079    2.4349   -0.5079 H   0  0  0  0  0  0  0  0  0  0  0  0
    3.9363    0.3865   -2.7644 H   0  0  0  0  0  0  0  0  0  0  0  0
    5.1902    1.4296   -2.0827 H   0  0  0  0  0  0  0  0  0  0  0  0
    4.4366    0.1752   -1.0806 H   0  0  0  0  0  0  0  0  0  0  0  0
    3.8555    3.9137   -2.5814 N   0  0  0  0  0  0  0  0  0  0  0  0
    3.8070    4.9847   -3.5492 C   0  0  0  0  0  0  0  0  0  0  0  0
    4.6158    3.9177   -1.9078 H   0  0  0  0  0  0  0  0  0  0  0  0
    4.3742    4.6951   -4.4461 H   0  0  0  0  0  0  0  0  0  0  0  0
    2.7606    5.1821   -3.8252 H   0  0  0  0  0  0  0  0  0  0  0  0
    4.2489    5.8929   -3.1135 H   0  0  0  0  0  0  0  0  0  0  0  0
  1  3  1  0  0  0  0
  1  7  1  0  0  0  0
  1  2  2  0  0  0  0
 31 32  1  0  0  0  0
 32 40  1  0  0  0  0
 32 33  2  0  0  0  0
  8  9  1  0  0  0  0
  9 17  1  0  0  0  0
  9 10  2  0  0  0  0
 18 19  1  0  0  0  0
 19 30  1  0  0  0  0
 19 20  2  0  0  0  0
 21 22  1  0  0  0  0
 22 23  2  0  0  0  0
 22 24  1  0  0  0  0
 31 34  1  0  0  0  0
  8 11  1  0  0  0  0
 40 41  1  0  0  0  0
 18 21  1  0  0  0  0
 30 31  1  0  0  0  0
  7  8  1  0  0  0  0
 17 18  1  0  0  0  0
  3  4  1  0  0  0  0
  3  5  1  0  0  0  0
  3  6  1  0  0  0  0
 34 37  1  0  0  0  0
 34 38  1  0  0  0  0
 34 39  1  0  0  0  0
 11 14  1  0  0  0  0
 11 15  1  0  0  0  0
 11 16  1  0  0  0  0
 41 43  1  0  0  0  0
 41 44  1  0  0  0  0
 41 45  1  0  0  0  0
 21 27  1  0  0  0  0
 21 28  1  0  0  0  0
 31 36  1  0  0  0  0
  8 13  1  0  0  0  0
 18 26  1  0  0  0  0
 40 42  1  0  0  0  0
  7 12  1  0  0  0  0
 30 35  1  0  0  0  0
 17 25  1  0  0  0  0
 24 29  1  0  0  0  0
M  END
$$$$

  -OEChem-05262214473D

 45 44  0     1  0  0  0  0  0999 V2000
   -2.2987    4.1032   -0.3022 C   0  0  0  0  0  0  0  0  0  0  0  0
   -1.8049    3.7117   -1.3532 O   0  0  0  0  0  0  0  0  0  0  0  0
   -3.0791    5.3755   -0.2846 C   0  0  0  0  0  0  0  0  0  0  0  0
   -2.4478    6.2532   -0.0717 H   0  0  0  0  0  0  0  0  0  0  0  0
   -3.5571    5.5891   -1.2541 H   0  0  0  0  0  0  0  0  0  0  0  0
   -3.8940    5.4184    0.4556 H   0  0  0  0  0  0  0  0  0  0  0  0
   -2.2137    3.4712    0.9275 N   0  0  0  0  0  0  0  0  0  0  0  0
   -1.5102    2.2327    1.1338 C   0  0  2  0  0  0  0  0  0  0  0  0
   -1.3539    1.5497   -0.2184 C   0  0  0  0  0  0  0  0  0  0  0  0
   -2.0852    1.7861   -1.1778 O   0  0  0  0  0  0  0  0  0  0  0  0
   -2.2477    1.3342    2.1145 C   0  0  0  0  0  0  0  0  0  0  0  0
   -2.6724    3.9052    1.7265 H   0  0  0  0  0  0  0  0  0  0  0  0
   -0.5220    2.4922    1.5290 H   0  0  0  0  0  0  0  0  0  0  0  0
   -3.2400    1.0636    1.7358 H   0  0  0  0  0  0  0  0  0  0  0  0
   -1.6970    0.4046    2.2923 H   0  0  0  0  0  0  0  0  0  0  0  0
   -2.3854    1.8384    3.0772 H   0  0  0  0  0  0  0  0  0  0  0  0
   -0.3283    0.6116   -0.2182 N   0  0  0  0  0  0  0  0  0  0  0  0
    0.0090   -0.1762   -1.3759 C   0  0  2  0  0  0  0  0  0  0  0  0
    1.2954    0.3888   -1.9648 C   0  0  0  0  0  0  0  0  0  0  0  0
    1.5450    0.3707   -3.1684 O   0  0  0  0  0  0  0  0  0  0  0  0
   -1.1102   -0.1731   -2.4138 C   0  0  0  0  0  0  0  0  0  0  0  0
   -2.3164   -0.9337   -1.9206 C   0  0  0  0  0  0  0  0  0  0  0  0
   -2.2605   -1.8685   -1.1322 O   0  0  0  0  0  0  0  0  0  0  0  0
   -3.4748   -0.4804   -2.4603 O   0  0  0  0  0  0  0  0  0  0  0  0
    0.2381    0.4970    0.6194 H   0  0  0  0  0  0  0  0  0  0  0  0
    0.2016   -1.1921   -1.0105 H   0  0  0  0  0  0  0  0  0  0  0  0
   -1.4494    0.8484   -2.6273 H   0  0  0  0  0  0  0  0  0  0  0  0
   -0.7871   -0.5848   -3.3777 H   0  0  0  0  0  0  0  0  0  0  0  0
   -4.2812   -0.9595   -2.1725 H   0  0  0  0  0  0  0  0  0  0  0  0
    2.1088    0.9578   -0.9949 N   0  0  0  0  0  0  0  0  0  0  0  0
    3.3777    1.5737   -1.3052 C   0  0  2  0  0  0  0  0  0  0  0  0
    3.1037    2.8296   -2.1220 C   0  0  0  0  0  0  0  0  0  0  0  0
    2.0693    2.9999   -2.7639 O   0  0  0  0  0  0  0  0  0  0  0  0
    4.2853    0.6186   -2.0647 C   0  0  0  0  0  0  0  0  0  0  0  0
    1.7991    0.9404   -0.0276 H   0  0  0  0  0  0  0  0  0  0  0  0
    3.8365    1.8515   -0.3500 H   0  0  0  0  0  0  0  0  0  0  0  0
    3.8424    0.3291   -3.0246 H   0  0  0  0  0  0  0  0  0  0  0  0
    5.2574    1.0772   -2.2742 H   0  0  0  0  0  0  0  0  0  0  0  0
    4.4572   -0.2969   -1.4884 H   0  0  0  0  0  0  0  0  0  0  0  0
    4.1685    3.7190   -2.0847 N   0  0  0  0  0  0  0  0  0  0  0  0
    4.1568    4.9791   -2.7905 C   0  0  0  0  0  0  0  0  0  0  0  0
    4.9789    3.5045   -1.5112 H   0  0  0  0  0  0  0  0  0  0  0  0
    4.6103    4.8477   -3.7840 H   0  0  0  0  0  0  0  0  0  0  0  0
    3.1191    5.3260   -2.9042 H   0  0  0  0  0  0  0  0  0  0  0  0
    4.7320    5.7237   -2.2206 H   0  0  0  0  0  0  0  0  0  0  0  0
  1  3  1  0  0  0  0
  1  7  1  0  0  0  0
  1  2  2  0  0  0  0
 31 32  1  0  0  0  0
 32 40  1  0  0  0  0
 32 33  2  0  0  0  0
  8  9  1  0  0  0  0
  9 17  1  0  0  0  0
  9 10  2  0  0  0  0
 18 19  1  0  0  0  0
 19 30  1  0  0  0  0
 19 20  2  0  0  0  0
 21 22  1  0  0  0  0
 22 23  2  0  0  0  0
 22 24  1  0  0  0  0
 31 34  1  0  0  0  0
  8 11  1  0  0  0  0
 40 41  1  0  0  0  0
 18 21  1  0  0  0  0
 30 31  1  0  0  0  0
  7  8  1  0  0  0  0
 17 18  1  0  0  0  0
  3  4  1  0  0  0  0
  3  5  1  0  0  0  0
  3  6  1  0  0  0  0
 34 37  1  0  0  0  0
 34 38  1  0  0  0  0
 34 39  1  0  0  0  0
 11 14  1  0  0  0  0
 11 15  1  0  0  0  0
 11 16  1  0  0  0  0
 41 43  1  0  0  0  0
 41 44  1  0  0  0  0
 41 45  1  0  0  0  0
 21 27  1  0  0  0  0
 21 28  1  0  0  0  0
 31 36  1  0  0  0  0
  8 13  1  0  0  0  0
 18 26  1  0  0  0  0
 40 42  1  0  0  0  0
  7 12  1  0  0  0  0
 30 35  1  0  0  0  0
 17 25  1  0  0  0  0
 24 29  1  0  0  0  0
M  END
$$$$

  -OEChem-05262214473D

 45 44  0     1  0  0  0  0  0999 V2000
   -2.2987    4.1032   -0.3022 C   0  0  0  0  0  0  0  0  0  0  0  0
   -1.8049    3.7117   -1.3532 O   0  0  0  0  0  0  0  0  0  0  0  0
   -3.0791    5.3755   -0.2846 C   0  0  0  0  0  0  0  0  0  0  0  0
   -2.4478    6.2532   -0.0717 H   0  0  0  0  0  0  0  0  0  0  0  0
   -3.5571    5.5891   -1.2541 H   0  0  0  0  0  0  0  0  0  0  0  0
   -3.8940    5.4184    0.4556 H   0  0  0  0  0  0  0  0  0  0  0  0
   -2.2137    3.4712    0.9275 N   0  0  0  0  0  0  0  0  0  0  0  0
   -1.5102    2.2327    1.1338 C   0  0  2  0  0  0  0  0  0  0  0  0
   -1.3539    1.5497   -0.2184 C   0  0  0  0  0  0  0  0  0  0  0  0
   -2.0852    1.7861   -1.1778 O   0  0  0  0  0  0  0  0  0  0  0  0
   -2.2477    1.3342    2.1145 C   0  0  0  0  0  0  0  0  0  0  0  0
   -2.6724    3.9052    1.7265 H   0  0  0  0  0  0  0  0  0  0  0  0
   -0.5220    2.4922    1.5290 H   0  0  0  0  0  0  0  0  0  0  0  0
   -3.2400    1.0636    1.7358 H   0  0  0  0  0  0  0  0  0  0  0  0
   -1.6970    0.4046    2.2923 H   0  0  0  0  0  0  0  0  0  0  0  0
   -2.3854    1.8384    3.0772 H   0  0  0  0  0  0  0  0  0  0  0  0
   -0.3283    0.6116   -0.2182 N   0  0  0  0  0  0  0  0  0  0  0  0
    0.0090   -0.1762   -1.3759 C   0  0  2  0  0  0  0  0  0  0  0  0
    1.2954    0.3888   -1.9648 C   0  0  0  0  0  0  0  0  0  0  0  0
    1.4384    0.6178   -3.1641 O   0  0  0  0  0  0  0  0  0  0  0  0
   -1.1102   -0.1731   -2.4138 C   0  0  0  0  0  0  0  0  0  0  0  0
   -2.3164   -0.9337   -1.9206 C   0  0  0  0  0  0  0  0  0  0  0  0
   -2.2605   -1.8685   -1.1322 O   0  0  0  0  0  0  0  0  0  0  0  0
   -3.4748   -0.4804   -2.4603 O   0  0  0  0  0  0  0  0  0  0  0  0
    0.2381    0.4970    0.6194 H   0  0  0  0  0  0  0  0  0  0  0  0
    0.2016   -1.1921   -1.0105 H   0  0  0  0  0  0  0  0  0  0  0  0
   -1.4494    0.8484   -2.6273 H   0  0  0  0  0  0  0  0  0  0  0  0
   -0.7871   -0.5848   -3.3777 H   0  0  0  0  0  0  0  0  0  0  0  0
   -4.2812   -0.9595   -2.1725 H   0  0  0  0  0  0  0  0  0  0  0  0
    2.2461    0.6517   -0.9886 N   0  0  0  0  0  0  0  0  0  0  0  0
    3.5446    1.2054   -1.2942 C   0  0  2  0  0  0  0  0  0  0  0  0
    3.3430    2.6313   -1.7897 C   0  0  0  0  0  0  0  0  0  0  0  0
    2.2830    3.0325   -2.2657 O   0  0  0  0  0  0  0  0  0  0  0  0
    4.2731    0.3669   -2.3330 C   0  0  0  0  0  0  0  0  0  0  0  0
    2.0196    0.4463   -0.0199 H   0  0  0  0  0  0  0  0  0  0  0  0
    4.1107    1.2205   -0.3565 H   0  0  0  0  0  0  0  0  0  0  0  0
    3.7209    0.3400   -3.2795 H   0  0  0  0  0  0  0  0  0  0  0  0
    5.2686    0.7719   -2.5426 H   0  0  0  0  0  0  0  0  0  0  0  0
    4.3908   -0.6658   -1.9874 H   0  0  0  0  0  0  0  0  0  0  0  0
    4.4990    3.3911   -1.6775 N   0  0  0  0  0  0  0  0  0  0  0  0
    4.5670    4.7729   -2.0923 C   0  0  0  0  0  0  0  0  0  0  0  0
    5.3264    2.9823   -1.2533 H   0  0  0  0  0  0  0  0  0  0  0  0
    4.9172    4.8268   -3.1337 H   0  0  0  0  0  0  0  0  0  0  0  0
    3.5683    5.2277   -2.0175 H   0  0  0  0  0  0  0  0  0  0  0  0
    5.2674    5.3169   -1.4415 H   0  0  0  0  0  0  0  0  0  0  0  0
  1  3  1  0  0  0  0
  1  7  1  0  0  0  0
  1  2  2  0  0  0  0
 31 32  1  0  0  0  0
 32 40  1  0  0  0  0
 32 33  2  0  0  0  0
  8  9  1  0  0  0  0
  9 17  1  0  0  0  0
  9 10  2  0  0  0  0
 18 19  1  0  0  0  0
 19 30  1  0  0  0  0
 19 20  2  0  0  0  0
 21 22  1  0  0  0  0
 22 23  2  0  0  0  0
 22 24  1  0  0  0  0
 31 34  1  0  0  0  0
  8 11  1  0  0  0  0
 40 41  1  0  0  0  0
 18 21  1  0  0  0  0
 30 31  1  0  0  0  0
  7  8  1  0  0  0  0
 17 18  1  0  0  0  0
  3  4  1  0  0  0  0
  3  5  1  0  0  0  0
  3  6  1  0  0  0  0
 34 37  1  0  0  0  0
 34 38  1  0  0  0  0
 34 39  1  0  0  0  0
 11 14  1  0  0  0  0
 11 15  1  0  0  0  0
 11 16  1  0  0  0  0
 41 43  1  0  0  0  0
 41 44  1  0  0  0  0
 41 45  1  0  0  0  0
 21 27  1  0  0  0  0
 21 28  1  0  0  0  0
 31 36  1  0  0  0  0
  8 13  1  0  0  0  0
 18 26  1  0  0  0  0
 40 42  1  0  0  0  0
  7 12  1  0  0  0  0
 30 35  1  0  0  0  0
 17 25  1  0  0  0  0
 24 29  1  0  0  0  0
M  END
$$$$

  -OEChem-05262214473D

 45 44  0     1  0  0  0  0  0999 V2000
   -2.2987    4.1032   -0.3022 C   0  0  0  0  0  0  0  0  0  0  0  0
   -1.8049    3.7117   -1.3532 O   0  0  0  0  0  0  0  0  0  0  0  0
   -3.0791    5.3755   -0.2846 C   0  0  0  0  0  0  0  0  0  0  0  0
   -2.4478    6.2532   -0.0717 H   0  0  0  0  0  0  0  0  0  0  0  0
   -3.5571    5.5891   -1.2541 H   0  0  0  0  0  0  0  0  0  0  0  0
   -3.8940    5.4184    0.4556 H   0  0  0  0  0  0  0  0  0  0  0  0
   -2.2137    3.4712    0.9275 N   0  0  0  0  0  0  0  0  0  0  0  0
   -1.5102    2.2327    1.1338 C   0  0  2  0  0  0  0  0  0  0  0  0
   -1.3539    1.5497   -0.2184 C   0  0  0  0  0  0  0  0  0  0  0  0
   -2.0852    1.7861   -1.1778 O   0  0  0  0  0  0  0  0  0  0  0  0
   -2.2477    1.3342    2.1145 C   0  0  0  0  0  0  0  0  0  0  0  0
   -2.6724    3.9052    1.7265 H   0  0  0  0  0  0  0  0  0  0  0  0
   -0.5220    2.4922    1.5290 H   0  0  0  0  0  0  0  0  0  0  0  0
   -3.2400    1.0636    1.7358 H   0  0  0  0  0  0  0  0  0  0  0  0
   -1.6970    0.4046    2.2923 H   0  0  0  0  0  0  0  0  0  0  0  0
   -2.3854    1.8384    3.0772 H   0  0  0  0  0  0  0  0  0  0  0  0
   -0.3283    0.6116   -0.2182 N   0  0  0  0  0  0  0  0  0  0  0  0
    0.0090   -0.1762   -1.3759 C   0  0  2  0  0  0  0  0  0  0  0  0
    1.2954    0.3888   -1.9648 C   0  0  0  0  0  0  0  0  0  0  0  0
    1.3606    0.8662   -3.0958 O   0  0  0  0  0  0  0  0  0  0  0  0
   -1.1102   -0.1731   -2.4138 C   0  0  0  0  0  0  0  0  0  0  0  0
   -2.3164   -0.9337   -1.9206 C   0  0  0  0  0  0  0  0  0  0  0  0
   -2.2605   -1.8685   -1.1322 O   0  0  0  0  0  0  0  0  0  0  0  0
   -3.4748   -0.4804   -2.4603 O   0  0  0  0  0  0  0  0  0  0  0  0
    0.2381    0.4970    0.6194 H   0  0  0  0  0  0  0  0  0  0  0  0
    0.2016   -1.1921   -1.0105 H   0  0  0  0  0  0  0  0  0  0  0  0
   -1.4494    0.8484   -2.6273 H   0  0  0  0  0  0  0  0  0  0  0  0
   -0.7871   -0.5848   -3.3777 H   0  0  0  0  0  0  0  0  0  0  0  0
   -4.2812   -0.9595   -2.1725 H   0  0  0  0  0  0  0  0  0  0  0  0
    2.3488    0.3408   -1.0625 N   0  0  0  0  0  0  0  0  0  0  0  0
    3.6699    0.8305   -1.3801 C   0  0  2  0  0  0  0  0  0  0  0  0
    3.5861    2.3433   -1.5350 C   0  0  0  0  0  0  0  0  0  0  0  0
    2.5406    2.9338   -1.7980 O   0  0  0  0  0  0  0  0  0  0  0  0
    4.2103    0.1837   -2.6460 C   0  0  0  0  0  0  0  0  0  0  0  0
    2.1840   -0.0546   -0.1416 H   0  0  0  0  0  0  0  0  0  0  0  0
    4.3117    0.5851   -0.5270 H   0  0  0  0  0  0  0  0  0  0  0  0
    3.5802    0.4183   -3.5116 H   0  0  0  0  0  0  0  0  0  0  0  0
    5.2231    0.5346   -2.8696 H   0  0  0  0  0  0  0  0  0  0  0  0
    4.2418   -0.9065   -2.5437 H   0  0  0  0  0  0  0  0  0  0  0  0
    4.8245    2.9524   -1.3875 N   0  0  0  0  0  0  0  0  0  0  0  0
    5.0097    4.3801   -1.5024 C   0  0  0  0  0  0  0  0  0  0  0  0
    5.6346    2.3868   -1.1516 H   0  0  0  0  0  0  0  0  0  0  0  0
    5.2740    4.6338   -2.5396 H   0  0  0  0  0  0  0  0  0  0  0  0
    4.0774    4.8941   -1.2256 H   0  0  0  0  0  0  0  0  0  0  0  0
    5.8186    4.7001   -0.8293 H   0  0  0  0  0  0  0  0  0  0  0  0
  1  3  1  0  0  0  0
  1  7  1  0  0  0  0
  1  2  2  0  0  0  0
 31 32  1  0  0  0  0
 32 40  1  0  0  0  0
 32 33  2  0  0  0  0
  8  9  1  0  0  0  0
  9 17  1  0  0  0  0
  9 10  2  0  0  0  0
 18 19  1  0  0  0  0
 19 30  1  0  0  0  0
 19 20  2  0  0  0  0
 21 22  1  0  0  0  0
 22 23  2  0  0  0  0
 22 24  1  0  0  0  0
 31 34  1  0  0  0  0
  8 11  1  0  0  0  0
 40 41  1  0  0  0  0
 18 21  1  0  0  0  0
 30 31  1  0  0  0  0
  7  8  1  0  0  0  0
 17 18  1  0  0  0  0
  3  4  1  0  0  0  0
  3  5  1  0  0  0  0
  3  6  1  0  0  0  0
 34 37  1  0  0  0  0
 34 38  1  0  0  0  0
 34 39  1  0  0  0  0
 11 14  1  0  0  0  0
 11 15  1  0  0  0  0
 11 16  1  0  0  0  0
 41 43  1  0  0  0  0
 41 44  1  0  0  0  0
 41 45  1  0  0  0  0
 21 27  1  0  0  0  0
 21 28  1  0  0  0  0
 31 36  1  0  0  0  0
  8 13  1  0  0  0  0
 18 26  1  0  0  0  0
 40 42  1  0  0  0  0
  7 12  1  0  0  0  0
 30 35  1  0  0  0  0
 17 25  1  0  0  0  0
 24 29  1  0  0  0  0
M  END
$$$$

  -OEChem-05262214473D

 45 44  0     1  0  0  0  0  0999 V2000
   -2.2987    4.1032   -0.3022 C   0  0  0  0  0  0  0  0  0  0  0  0
   -1.8049    3.7117   -1.3532 O   0  0  0  0  0  0  0  0  0  0  0  0
   -3.0791    5.3755   -0.2846 C   0  0  0  0  0  0  0  0  0  0  0  0
   -2.4478    6.2532   -0.0717 H   0  0  0  0  0  0  0  0  0  0  0  0
   -3.5571    5.5891   -1.2541 H   0  0  0  0  0  0  0  0  0  0  0  0
   -3.8940    5.4184    0.4556 H   0  0  0  0  0  0  0  0  0  0  0  0
   -2.2137    3.4712    0.9275 N   0  0  0  0  0  0  0  0  0  0  0  0
   -1.5102    2.2327    1.1338 C   0  0  2  0  0  0  0  0  0  0  0  0
   -1.3539    1.5497   -0.2184 C   0  0  0  0  0  0  0  0  0  0  0  0
   -2.0852    1.7861   -1.1778 O   0  0  0  0  0  0  0  0  0  0  0  0
   -2.2477    1.3342    2.1145 C   0  0  0  0  0  0  0  0  0  0  0  0
   -2.6724    3.9052    1.7265 H   0  0  0  0  0  0  0  0  0  0  0  0
   -0.5220    2.4922    1.5290 H   0  0  0  0  0  0  0  0  0  0  0  0
   -3.2400    1.0636    1.7358 H   0  0  0  0  0  0  0  0  0  0  0  0
   -1.6970    0.4046    2.2923 H   0  0  0  0  0  0  0  0  0  0  0  0
   -2.3854    1.8384    3.0772 H   0  0  0  0  0  0  0  0  0  0  0  0
   -0.3283    0.6116   -0.2182 N   0  0  0  0  0  0  0  0  0  0  0  0
    0.0090   -0.1762   -1.3759 C   0  0  2  0  0  0  0  0  0  0  0  0
    1.2954    0.3888   -1.9648 C   0  0  0  0  0  0  0  0  0  0  0  0
    1.3168    1.0991   -2.9680 O   0  0  0  0  0  0  0  0  0  0  0  0
   -1.1102   -0.1731   -2.4138 C   0  0  0  0  0  0  0  0  0  0  0  0
   -2.3164   -0.9337   -1.9206 C   0  0  0  0  0  0  0  0  0  0  0  0
   -2.2605   -1.8685   -1.1322 O   0  0  0  0  0  0  0  0  0  0  0  0
   -3.4748   -0.4804   -2.4603 O   0  0  0  0  0  0  0  0  0  0  0  0
    0.2381    0.4970    0.6194 H   0  0  0  0  0  0  0  0  0  0  0  0
    0.2016   -1.1921   -1.0105 H   0  0  0  0  0  0  0  0  0  0  0  0
   -1.4494    0.8484   -2.6273 H   0  0  0  0  0  0  0  0  0  0  0  0
   -0.7871   -0.5848   -3.3777 H   0  0  0  0  0  0  0  0  0  0  0  0
   -4.2812   -0.9595   -2.1725 H   0  0  0  0  0  0  0  0  0  0  0  0
    2.4098    0.0465   -1.2118 N   0  0  0  0  0  0  0  0  0  0  0  0
    3.7452    0.4746   -1.5571 C   0  0  2  0  0  0  0  0  0  0  0  0
    3.8166    1.9850   -1.3753 C   0  0  0  0  0  0  0  0  0  0  0  0
    2.8243    2.7104   -1.3925 O   0  0  0  0  0  0  0  0  0  0  0  0
    4.1012    0.0813   -2.9823 C   0  0  0  0  0  0  0  0  0  0  0  0
    2.2810   -0.5284   -0.3843 H   0  0  0  0  0  0  0  0  0  0  0  0
    4.4260   -0.0115   -0.8498 H   0  0  0  0  0  0  0  0  0  0  0  0
    3.4298    0.5588   -3.7053 H   0  0  0  0  0  0  0  0  0  0  0  0
    5.1241    0.3813   -3.2330 H   0  0  0  0  0  0  0  0  0  0  0  0
    4.0205   -1.0024   -3.1193 H   0  0  0  0  0  0  0  0  0  0  0  0
    5.1228    2.4326   -1.2346 N   0  0  0  0  0  0  0  0  0  0  0  0
    5.4546    3.8275   -1.0610 C   0  0  0  0  0  0  0  0  0  0  0  0
    5.8824    1.7585   -1.2131 H   0  0  0  0  0  0  0  0  0  0  0  0
    5.6564    4.2818   -2.0422 H   0  0  0  0  0  0  0  0  0  0  0  0
    4.6118    4.3479   -0.5825 H   0  0  0  0  0  0  0  0  0  0  0  0
    6.3482    3.9154   -0.4256 H   0  0  0  0  0  0  0  0  0  0  0  0
  1  3  1  0  0  0  0
  1  7  1  0  0  0  0
  1  2  2  0  0  0  0
 31 32  1  0  0  0  0
 32 40  1  0  0  0  0
 32 33  2  0  0  0  0
  8  9  1  0  0  0  0
  9 17  1  0  0  0  0
  9 10  2  0  0  0  0
 18 19  1  0  0  0  0
 19 30  1  0  0  0  0
 19 20  2  0  0  0  0
 21 22  1  0  0  0  0
 22 23  2  0  0  0  0
 22 24  1  0  0  0  0
 31 34  1  0  0  0  0
  8 11  1  0  0  0  0
 40 41  1  0  0  0  0
 18 21  1  0  0  0  0
 30 31  1  0  0  0  0
  7  8  1  0  0  0  0
 17 18  1  0  0  0  0
  3  4  1  0  0  0  0
  3  5  1  0  0  0  0
  3  6  1  0  0  0  0
 34 37  1  0  0  0  0
 34 38  1  0  0  0  0
 34 39  1  0  0  0  0
 11 14  1  0  0  0  0
 11 15  1  0  0  0  0
 11 16  1  0  0  0  0
 41 43  1  0  0  0  0
 41 44  1  0  0  0  0
 41 45  1  0  0  0  0
 21 27  1  0  0  0  0
 21 28  1  0  0  0  0
 31 36  1  0  0  0  0
  8 13  1  0  0  0  0
 18 26  1  0  0  0  0
 40 42  1  0  0  0  0
  7 12  1  0  0  0  0
 30 35  1  0  0  0  0
 17 25  1  0  0  0  0
 24 29  1  0  0  0  0
M  END
$$$$

  -OEChem-05262214473D

 45 44  0     1  0  0  0  0  0999 V2000
   -2.2987    4.1032   -0.3022 C   0  0  0  0  0  0  0  0  0  0  0  0
   -1.8049    3.7117   -1.3532 O   0  0  0  0  0  0  0  0  0  0  0  0
   -3.0791    5.3755   -0.2846 C   0  0  0  0  0  0  0  0  0  0  0  0
   -2.4478    6.2532   -0.0717 H   0  0  0  0  0  0  0  0  0  0  0  0
   -3.5571    5.5891   -1.2541 H   0  0  0  0  0  0  0  0  0  0  0  0
   -3.8940    5.4184    0.4556 H   0  0  0  0  0  0  0  0  0  0  0  0
   -2.2137    3.4712    0.9275 N   0  0  0  0  0  0  0  0  0  0  0  0
   -1.5102    2.2327    1.1338 C   0  0  2  0  0  0  0  0  0  0  0  0
   -1.3539    1.5497   -0.2184 C   0  0  0  0  0  0  0  0  0  0  0  0
   -2.0852    1.7861   -1.1778 O   0  0  0  0  0  0  0  0  0  0  0  0
   -2.2477    1.3342    2.1145 C   0  0  0  0  0  0  0  0  0  0  0  0
   -2.6724    3.9052    1.7265 H   0  0  0  0  0  0  0  0  0  0  0  0
   -0.5220    2.4922    1.5290 H   0  0  0  0  0  0  0  0  0  0  0  0
   -3.2400    1.0636    1.7358 H   0  0  0  0  0  0  0  0  0  0  0  0
   -1.6970    0.4046    2.2923 H   0  0  0  0  0  0  0  0  0  0  0  0
   -2.3854    1.8384    3.0772 H   0  0  0  0  0  0  0  0  0  0  0  0
   -0.3283    0.6116   -0.2182 N   0  0  0  0  0  0  0  0  0  0  0  0
    0.0090   -0.1762   -1.3759 C   0  0  2  0  0  0  0  0  0  0  0  0
    1.2954    0.3888   -1.9648 C   0  0  0  0  0  0  0  0  0  0  0  0
    1.3101    1.3004   -2.7895 O   0  0  0  0  0  0  0  0  0  0  0  0
   -1.1102   -0.1731   -2.4138 C   0  0  0  0  0  0  0  0  0  0  0  0
   -2.3164   -0.9337   -1.9206 C   0  0  0  0  0  0  0  0  0  0  0  0
   -2.2605   -1.8685   -1.1322 O   0  0  0  0  0  0  0  0  0  0  0  0
   -3.4748   -0.4804   -2.4603 O   0  0  0  0  0  0  0  0  0  0  0  0
    0.2381    0.4970    0.6194 H   0  0  0  0  0  0  0  0  0  0  0  0
    0.2016   -1.1921   -1.0105 H   0  0  0  0  0  0  0  0  0  0  0  0
   -1.4494    0.8484   -2.6273 H   0  0  0  0  0  0  0  0  0  0  0  0
   -0.7871   -0.5848   -3.3777 H   0  0  0  0  0  0  0  0  0  0  0  0
   -4.2812   -0.9595   -2.1725 H   0  0  0  0  0  0  0  0  0  0  0  0
    2.4249   -0.2113   -1.4261 N   0  0  0  0  0  0  0  0  0  0  0  0
    3.7654    0.1620   -1.8130 C   0  0  2  0  0  0  0  0  0  0  0  0
    4.0188    1.5810   -1.3214 C   0  0  0  0  0  0  0  0  0  0  0  0
    3.1150    2.3776   -1.0768 O   0  0  0  0  0  0  0  0  0  0  0  0
    3.9534    0.0669   -3.3191 C   0  0  0  0  0  0  0  0  0  0  0  0
    2.3039   -0.9427   -0.7317 H   0  0  0  0  0  0  0  0  0  0  0  0
    4.4457   -0.5287   -1.3031 H   0  0  0  0  0  0  0  0  0  0  0  0
    3.2800    0.7519   -3.8472 H   0  0  0  0  0  0  0  0  0  0  0  0
    4.9781    0.3227   -3.6080 H   0  0  0  0  0  0  0  0  0  0  0  0
    3.7418   -0.9472   -3.6750 H   0  0  0  0  0  0  0  0  0  0  0  0
    5.3737    1.8672   -1.2291 N   0  0  0  0  0  0  0  0  0  0  0  0
    5.8714    3.1527   -0.7980 C   0  0  0  0  0  0  0  0  0  0  0  0
    6.0530    1.1403   -1.4336 H   0  0  0  0  0  0  0  0  0  0  0  0
    6.0382    3.7949   -1.6754 H   0  0  0  0  0  0  0  0  0  0  0  0
    5.1351    3.6262   -0.1319 H   0  0  0  0  0  0  0  0  0  0  0  0
    6.8199    3.0162   -0.2580 H   0  0  0  0  0  0  0  0  0  0  0  0
  1  3  1  0  0  0  0
  1  7  1  0  0  0  0
  1  2  2  0  0  0  0
 31 32  1  0  0  0  0
 32 40  1  0  0  0  0
 32 33  2  0  0  0  0
  8  9  1  0  0  0  0
  9 17  1  0  0  0  0
  9 10  2  0  0  0  0
 18 19  1  0  0  0  0
 19 30  1  0  0  0  0
 19 20  2  0  0  0  0
 21 22  1  0  0  0  0
 22 23  2  0  0  0  0
 22 24  1  0  0  0  0
 31 34  1  0  0  0  0
  8 11  1  0  0  0  0
 40 41  1  0  0  0  0
 18 21  1  0  0  0  0
 30 31  1  0  0  0  0
  7  8  1  0  0  0  0
 17 18  1  0  0  0  0
  3  4  1  0  0  0  0
  3  5  1  0  0  0  0
  3  6  1  0  0  0  0
 34 37  1  0  0  0  0
 34 38  1  0  0  0  0
 34 39  1  0  0  0  0
 11 14  1  0  0  0  0
 11 15  1  0  0  0  0
 11 16  1  0  0  0  0
 41 43  1  0  0  0  0
 41 44  1  0  0  0  0
 41 45  1  0  0  0  0
 21 27  1  0  0  0  0
 21 28  1  0  0  0  0
 31 36  1  0  0  0  0
  8 13  1  0  0  0  0
 18 26  1  0  0  0  0
 40 42  1  0  0  0  0
  7 12  1  0  0  0  0
 30 35  1  0  0  0  0
 17 25  1  0  0  0  0
 24 29  1  0  0  0  0
M  END
$$$$

  -OEChem-05262214473D

 45 44  0     1  0  0  0  0  0999 V2000
   -2.2987    4.1032   -0.3022 C   0  0  0  0  0  0  0  0  0  0  0  0
   -1.8049    3.7117   -1.3532 O   0  0  0  0  0  0  0  0  0  0  0  0
   -3.0791    5.3755   -0.2846 C   0  0  0  0  0  0  0  0  0  0  0  0
   -2.4478    6.2532   -0.0717 H   0  0  0  0  0  0  0  0  0  0  0  0
   -3.5571    5.5891   -1.2541 H   0  0  0  0  0  0  0  0  0  0  0  0
   -3.8940    5.4184    0.4556 H   0  0  0  0  0  0  0  0  0  0  0  0
   -2.2137    3.4712    0.9275 N   0  0  0  0  0  0  0  0  0  0  0  0
   -1.5102    2.2327    1.1338 C   0  0  2  0  0  0  0  0  0  0  0  0
   -1.3539    1.5497   -0.2184 C   0  0  0  0  0  0  0  0  0  0  0  0
   -2.0852    1.7861   -1.1778 O   0  0  0  0  0  0  0  0  0  0  0  0
   -2.2477    1.3342    2.1145 C   0  0  0  0  0  0  0  0  0  0  0  0
   -2.6724    3.9052    1.7265 H   0  0  0  0  0  0  0  0  0  0  0  0
   -0.5220    2.4922    1.5290 H   0  0  0  0  0  0  0  0  0  0  0  0
   -3.2400    1.0636    1.7358 H   0  0  0  0  0  0  0  0  0  0  0  0
   -1.6970    0.4046    2.2923 H   0  0  0  0  0  0  0  0  0  0  0  0
   -2.3854    1.8384    3.0772 H   0  0  0  0  0  0  0  0  0  0  0  0
   -0.3283    0.6116   -0.2182 N   0  0  0  0  0  0  0  0  0  0  0  0
    0.0090   -0.1762   -1.3759 C   0  0  2  0  0  0  0  0  0  0  0  0
    1.2954    0.3888   -1.9648 C   0  0  0  0  0  0  0  0  0  0  0  0
    1.3409    1.4565   -2.5724 O   0  0  0  0  0  0  0  0  0  0  0  0
   -1.1102   -0.1731   -2.4138 C   0  0  0  0  0  0  0  0  0  0  0  0
   -2.3164   -0.9337   -1.9206 C   0  0  0  0  0  0  0  0  0  0  0  0
   -2.2605   -1.8685   -1.1322 O   0  0  0  0  0  0  0  0  0  0  0  0
   -3.4748   -0.4804   -2.4603 O   0  0  0  0  0  0  0  0  0  0  0  0
    0.2381    0.4970    0.6194 H   0  0  0  0  0  0  0  0  0  0  0  0
    0.2016   -1.1921   -1.0105 H   0  0  0  0  0  0  0  0  0  0  0  0
   -1.4494    0.8484   -2.6273 H   0  0  0  0  0  0  0  0  0  0  0  0
   -0.7871   -0.5848   -3.3777 H   0  0  0  0  0  0  0  0  0  0  0  0
   -4.2812   -0.9595   -2.1725 H   0  0  0  0  0  0  0  0  0  0  0  0
    2.3931   -0.4150   -1.6910 N   0  0  0  0  0  0  0  0  0  0  0  0
    3.7290   -0.0860   -2.1305 C   0  0  2  0  0  0  0  0  0  0  0  0
    4.1788    1.1588   -1.3771 C   0  0  0  0  0  0  0  0  0  0  0  0
    3.3928    1.9581   -0.8726 O   0  0  0  0  0  0  0  0  0  0  0  0
    3.7768    0.1413   -3.6334 C   0  0  0  0  0  0  0  0  0  0  0  0
    2.2513   -1.2692   -1.1599 H   0  0  0  0  0  0  0  0  0  0  0  0
    4.3694   -0.9312   -1.8557 H   0  0  0  0  0  0  0  0  0  0  0  0
    3.1411    0.9844   -3.9276 H   0  0  0  0  0  0  0  0  0  0  0  0
    4.7953    0.3625   -3.9690 H   0  0  0  0  0  0  0  0  0  0  0  0
    3.4248   -0.7445   -4.1729 H   0  0  0  0  0  0  0  0  0  0  0  0
    5.5599    1.2949   -1.3714 N   0  0  0  0  0  0  0  0  0  0  0  0
    6.2317    2.4018   -0.7315 C   0  0  0  0  0  0  0  0  0  0  0  0
    6.1348    0.5743   -1.7981 H   0  0  0  0  0  0  0  0  0  0  0  0
    6.3936    3.2062   -1.4641 H   0  0  0  0  0  0  0  0  0  0  0  0
    5.6116    2.7783    0.0953 H   0  0  0  0  0  0  0  0  0  0  0  0
    7.2017    2.0638   -0.3379 H   0  0  0  0  0  0  0  0  0  0  0  0
  1  3  1  0  0  0  0
  1  7  1  0  0  0  0
  1  2  2  0  0  0  0
 31 32  1  0  0  0  0
 32 40  1  0  0  0  0
 32 33  2  0  0  0  0
  8  9  1  0  0  0  0
  9 17  1  0  0  0  0
  9 10  2  0  0  0  0
 18 19  1  0  0  0  0
 19 30  1  0  0  0  0
 19 20  2  0  0  0  0
 21 22  1  0  0  0  0
 22 23  2  0  0  0  0
 22 24  1  0  0  0  0
 31 34  1  0  0  0  0
  8 11  1  0  0  0  0
 40 41  1  0  0  0  0
 18 21  1  0  0  0  0
 30 31  1  0  0  0  0
  7  8  1  0  0  0  0
 17 18  1  0  0  0  0
  3  4  1  0  0  0  0
  3  5  1  0  0  0  0
  3  6  1  0  0  0  0
 34 37  1  0  0  0  0
 34 38  1  0  0  0  0
 34 39  1  0  0  0  0
 11 14  1  0  0  0  0
 11 15  1  0  0  0  0
 11 16  1  0  0  0  0
 41 43  1  0  0  0  0
 41 44  1  0  0  0  0
 41 45  1  0  0  0  0
 21 27  1  0  0  0  0
 21 28  1  0  0  0  0
 31 36  1  0  0  0  0
  8 13  1  0  0  0  0
 18 26  1  0  0  0  0
 40 42  1  0  0  0  0
  7 12  1  0  0  0  0
 30 35  1  0  0  0  0
 17 25  1  0  0  0  0
 24 29  1  0  0  0  0
M  END
$$$$

  -OEChem-05262214473D

 45 44  0     1  0  0  0  0  0999 V2000
   -2.2987    4.1032   -0.3022 C   0  0  0  0  0  0  0  0  0  0  0  0
   -1.8049    3.7117   -1.3532 O   0  0  0  0  0  0  0  0  0  0  0  0
   -3.0791    5.3755   -0.2846 C   0  0  0  0  0  0  0  0  0  0  0  0
   -2.4478    6.2532   -0.0717 H   0  0  0  0  0  0  0  0  0  0  0  0
   -3.5571    5.5891   -1.2541 H   0  0  0  0  0  0  0  0  0  0  0  0
   -3.8940    5.4184    0.4556 H   0  0  0  0  0  0  0  0  0  0  0  0
   -2.2137    3.4712    0.9275 N   0  0  0  0  0  0  0  0  0  0  0  0
   -1.5102    2.2327    1.1338 C   0  0  2  0  0  0  0  0  0  0  0  0
   -1.3539    1.5497   -0.2184 C   0  0  0  0  0  0  0  0  0  0  0  0
   -2.0852    1.7861   -1.1778 O   0  0  0  0  0  0  0  0  0  0  0  0
   -2.2477    1.3342    2.1145 C   0  0  0  0  0  0  0  0  0  0  0  0
   -2.6724    3.9052    1.7265 H   0  0  0  0  0  0  0  0  0  0  0  0
   -0.5220    2.4922    1.5290 H   0  0  0  0  0  0  0  0  0  0  0  0
   -3.2400    1.0636    1.7358 H   0  0  0  0  0  0  0  0  0  0  0  0
   -1.6970    0.4046    2.2923 H   0  0  0  0  0  0  0  0  0  0  0  0
   -2.3854    1.8384    3.0772 H   0  0  0  0  0  0  0  0  0  0  0  0
   -0.3283    0.6116   -0.2182 N   0  0  0  0  0  0  0  0  0  0  0  0
    0.0090   -0.1762   -1.3759 C   0  0  2  0  0  0  0  0  0  0  0  0
    1.2954    0.3888   -1.9648 C   0  0  0  0  0  0  0  0  0  0  0  0
    1.4072    1.5568   -2.3315 O   0  0  0  0  0  0  0  0  0  0  0  0
   -1.1102   -0.1731   -2.4138 C   0  0  0  0  0  0  0  0  0  0  0  0
   -2.3164   -0.9337   -1.9206 C   0  0  0  0  0  0  0  0  0  0  0  0
   -2.2605   -1.8685   -1.1322 O   0  0  0  0  0  0  0  0  0  0  0  0
   -3.4748   -0.4804   -2.4603 O   0  0  0  0  0  0  0  0  0  0  0  0
    0.2381    0.4970    0.6194 H   0  0  0  0  0  0  0  0  0  0  0  0
    0.2016   -1.1921   -1.0105 H   0  0  0  0  0  0  0  0  0  0  0  0
   -1.4494    0.8484   -2.6273 H   0  0  0  0  0  0  0  0  0  0  0  0
   -0.7871   -0.5848   -3.3777 H   0  0  0  0  0  0  0  0  0  0  0  0
   -4.2812   -0.9595   -2.1725 H   0  0  0  0  0  0  0  0  0  0  0  0
    2.3166   -0.5507   -1.9882 N   0  0  0  0  0  0  0  0  0  0  0  0
    3.6385   -0.2526   -2.4878 C   0  0  2  0  0  0  0  0  0  0  0  0
    4.2857    0.7471   -1.5385 C   0  0  0  0  0  0  0  0  0  0  0  0
    3.6388    1.4805   -0.7936 O   0  0  0  0  0  0  0  0  0  0  0  0
    3.5835    0.2996   -3.9037 C   0  0  0  0  0  0  0  0  0  0  0  0
    2.1266   -1.4858   -1.6399 H   0  0  0  0  0  0  0  0  0  0  0  0
    4.2025   -1.1916   -2.4702 H   0  0  0  0  0  0  0  0  0  0  0  0
    3.0224    1.2404   -3.9412 H   0  0  0  0  0  0  0  0  0  0  0  0
    4.5881    0.4982   -4.2915 H   0  0  0  0  0  0  0  0  0  0  0  0
    3.0910   -0.4082   -4.5792 H   0  0  0  0  0  0  0  0  0  0  0  0
    5.6689    0.7545   -1.6519 N   0  0  0  0  0  0  0  0  0  0  0  0
    6.5110    1.6258   -0.8660 C   0  0  0  0  0  0  0  0  0  0  0  0
    6.1221    0.0990   -2.2817 H   0  0  0  0  0  0  0  0  0  0  0  0
    6.6982    2.5558   -1.4228 H   0  0  0  0  0  0  0  0  0  0  0  0
    6.0088    1.8620    0.0838 H   0  0  0  0  0  0  0  0  0  0  0  0
    7.4675    1.1231   -0.6599 H   0  0  0  0  0  0  0  0  0  0  0  0
  1  3  1  0  0  0  0
  1  7  1  0  0  0  0
  1  2  2  0  0  0  0
 31 32  1  0  0  0  0
 32 40  1  0  0  0  0
 32 33  2  0  0  0  0
  8  9  1  0  0  0  0
  9 17  1  0  0  0  0
  9 10  2  0  0  0  0
 18 19  1  0  0  0  0
 19 30  1  0  0  0  0
 19 20  2  0  0  0  0
 21 22  1  0  0  0  0
 22 23  2  0  0  0  0
 22 24  1  0  0  0  0
 31 34  1  0  0  0  0
  8 11  1  0  0  0  0
 40 41  1  0  0  0  0
 18 21  1  0  0  0  0
 30 31  1  0  0  0  0
  7  8  1  0  0  0  0
 17 18  1  0  0  0  0
  3  4  1  0  0  0  0
  3  5  1  0  0  0  0
  3  6  1  0  0  0  0
 34 37  1  0  0  0  0
 34 38  1  0  0  0  0
 34 39  1  0  0  0  0
 11 14  1  0  0  0  0
 11 15  1  0  0  0  0
 11 16  1  0  0  0  0
 41 43  1  0  0  0  0
 41 44  1  0  0  0  0
 41 45  1  0  0  0  0
 21 27  1  0  0  0  0
 21 28  1  0  0  0  0
 31 36  1  0  0  0  0
  8 13  1  0  0  0  0
 18 26  1  0  0  0  0
 40 42  1  0  0  0  0
  7 12  1  0  0  0  0
 30 35  1  0  0  0  0
 17 25  1  0  0  0  0
 24 29  1  0  0  0  0
M  END
$$$$

  -OEChem-05262214473D

 45 44  0     1  0  0  0  0  0999 V2000
   -2.2987    4.1032   -0.3022 C   0  0  0  0  0  0  0  0  0  0  0  0
   -1.8049    3.7117   -1.3532 O   0  0  0  0  0  0  0  0  0  0  0  0
   -3.0791    5.3755   -0.2846 C   0  0  0  0  0  0  0  0  0  0  0  0
   -2.4478    6.2532   -0.0717 H   0  0  0  0  0  0  0  0  0  0  0  0
   -3.5571    5.5891   -1.2541 H   0  0  0  0  0  0  0  0  0  0  0  0
   -3.8940    5.4184    0.4556 H   0  0  0  0  0  0  0  0  0  0  0  0
   -2.2137    3.4712    0.9275 N   0  0  0  0  0  0  0  0  0  0  0  0
   -1.5102    2.2327    1.1338 C   0  0  2  0  0  0  0  0  0  0  0  0
   -1.3539    1.5497   -0.2184 C   0  0  0  0  0  0  0  0  0  0  0  0
   -2.0852    1.7861   -1.1778 O   0  0  0  0  0  0  0  0  0  0  0  0
   -2.2477    1.3342    2.1145 C   0  0  0  0  0  0  0  0  0  0  0  0
   -2.6724    3.9052    1.7265 H   0  0  0  0  0  0  0  0  0  0  0  0
   -0.5220    2.4922    1.5290 H   0  0  0  0  0  0  0  0  0  0  0  0
   -3.2400    1.0636    1.7358 H   0  0  0  0  0  0  0  0  0  0  0  0
   -1.6970    0.4046    2.2923 H   0  0  0  0  0  0  0  0  0  0  0  0
   -2.3854    1.8384    3.0772 H   0  0  0  0  0  0  0  0  0  0  0  0
   -0.3283    0.6116   -0.2182 N   0  0  0  0  0  0  0  0  0  0  0  0
    0.0090   -0.1762   -1.3759 C   0  0  2  0  0  0  0  0  0  0  0  0
    1.2954    0.3888   -1.9648 C   0  0  0  0  0  0  0  0  0  0  0  0
    1.5043    1.5944   -2.0833 O   0  0  0  0  0  0  0  0  0  0  0  0
   -1.1102   -0.1731   -2.4138 C   0  0  0  0  0  0  0  0  0  0  0  0
   -2.3164   -0.9337   -1.9206 C   0  0  0  0  0  0  0  0  0  0  0  0
   -2.2605   -1.8685   -1.1322 O   0  0  0  0  0  0  0  0  0  0  0  0
   -3.4748   -0.4804   -2.4603 O   0  0  0  0  0  0  0  0  0  0  0  0
    0.2381    0.4970    0.6194 H   0  0  0  0  0  0  0  0  0  0  0  0
    0.2016   -1.1921   -1.0105 H   0  0  0  0  0  0  0  0  0  0  0  0
   -1.4494    0.8484   -2.6273 H   0  0  0  0  0  0  0  0  0  0  0  0
   -0.7871   -0.5848   -3.3777 H   0  0  0  0  0  0  0  0  0  0  0  0
   -4.2812   -0.9595   -2.1725 H   0  0  0  0  0  0  0  0  0  0  0  0
    2.2006   -0.6091   -2.2977 N   0  0  0  0  0  0  0  0  0  0  0  0
    3.5002   -0.3264   -2.8607 C   0  0  2  0  0  0  0  0  0  0  0  0
    4.3323    0.3740   -1.7946 C   0  0  0  0  0  0  0  0  0  0  0  0
    3.8362    0.9773   -0.8454 O   0  0  0  0  0  0  0  0  0  0  0  0
    3.3867    0.5309   -4.1117 C   0  0  0  0  0  0  0  0  0  0  0  0
    1.9385   -1.5776   -2.1389 H   0  0  0  0  0  0  0  0  0  0  0  0
    3.9561   -1.2921   -3.1047 H   0  0  0  0  0  0  0  0  0  0  0  0
    2.9320    1.5026   -3.8870 H   0  0  0  0  0  0  0  0  0  0  0  0
    4.3705    0.7205   -4.5534 H   0  0  0  0  0  0  0  0  0  0  0  0
    2.7633    0.0388   -4.8661 H   0  0  0  0  0  0  0  0  0  0  0  0
    5.6932    0.2829   -2.0513 N   0  0  0  0  0  0  0  0  0  0  0  0
    6.6902    0.8777   -1.1923 C   0  0  0  0  0  0  0  0  0  0  0  0
    6.0159   -0.2531   -2.8515 H   0  0  0  0  0  0  0  0  0  0  0  0
    6.9313    1.8881   -1.5543 H   0  0  0  0  0  0  0  0  0  0  0  0
    6.2997    0.9397   -0.1658 H   0  0  0  0  0  0  0  0  0  0  0  0
    7.5992    0.2583   -1.2020 H   0  0  0  0  0  0  0  0  0  0  0  0
  1  3  1  0  0  0  0
  1  7  1  0  0  0  0
  1  2  2  0  0  0  0
 31 32  1  0  0  0  0
 32 40  1  0  0  0  0
 32 33  2  0  0  0  0
  8  9  1  0  0  0  0
  9 17  1  0  0  0  0
  9 10  2  0  0  0  0
 18 19  1  0  0  0  0
 19 30  1  0  0  0  0
 19 20  2  0  0  0  0
 21 22  1  0  0  0  0
 22 23  2  0  0  0  0
 22 24  1  0  0  0  0
 31 34  1  0  0  0  0
  8 11  1  0  0  0  0
 40 41  1  0  0  0  0
 18 21  1  0  0  0  0
 30 31  1  0  0  0  0
  7  8  1  0  0  0  0
 17 18  1  0  0  0  0
  3  4  1  0  0  0  0
  3  5  1  0  0  0  0
  3  6  1  0  0  0  0
 34 37  1  0  0  0  0
 34 38  1  0  0  0  0
 34 39  1  0  0  0  0
 11 14  1  0  0  0  0
 11 15  1  0  0  0  0
 11 16  1  0  0  0  0
 41 43  1  0  0  0  0
 41 44  1  0  0  0  0
 41 45  1  0  0  0  0
 21 27  1  0  0  0  0
 21 28  1  0  0  0  0
 31 36  1  0  0  0  0
  8 13  1  0  0  0  0
 18 26  1  0  0  0  0
 40 42  1  0  0  0  0
  7 12  1  0  0  0  0
 30 35  1  0  0  0  0
 17 25  1  0  0  0  0
 24 29  1  0  0  0  0
M  END
$$$$

  -OEChem-05262214473D

 45 44  0     1  0  0  0  0  0999 V2000
   -2.2987    4.1032   -0.3022 C   0  0  0  0  0  0  0  0  0  0  0  0
   -1.8049    3.7117   -1.3532 O   0  0  0  0  0  0  0  0  0  0  0  0
   -3.0791    5.3755   -0.2846 C   0  0  0  0  0  0  0  0  0  0  0  0
   -2.4478    6.2532   -0.0717 H   0  0  0  0  0  0  0  0  0  0  0  0
   -3.5571    5.5891   -1.2541 H   0  0  0  0  0  0  0  0  0  0  0  0
   -3.8940    5.4184    0.4556 H   0  0  0  0  0  0  0  0  0  0  0  0
   -2.2137    3.4712    0.9275 N   0  0  0  0  0  0  0  0  0  0  0  0
   -1.5102    2.2327    1.1338 C   0  0  2  0  0  0  0  0  0  0  0  0
   -1.3539    1.5497   -0.2184 C   0  0  0  0  0  0  0  0  0  0  0  0
   -2.0852    1.7861   -1.1778 O   0  0  0  0  0  0  0  0  0  0  0  0
   -2.2477    1.3342    2.1145 C   0  0  0  0  0  0  0  0  0  0  0  0
   -2.6724    3.9052    1.7265 H   0  0  0  0  0  0  0  0  0  0  0  0
   -0.5220    2.4922    1.5290 H   0  0  0  0  0  0  0  0  0  0  0  0
   -3.2400    1.0636    1.7358 H   0  0  0  0  0  0  0  0  0  0  0  0
   -1.6970    0.4046    2.2923 H   0  0  0  0  0  0  0  0  0  0  0  0
   -2.3854    1.8384    3.0772 H   0  0  0  0  0  0  0  0  0  0  0  0
   -0.3283    0.6116   -0.2182 N   0  0  0  0  0  0  0  0  0  0  0  0
    0.0090   -0.1762   -1.3759 C   0  0  2  0  0  0  0  0  0  0  0  0
    1.2954    0.3888   -1.9648 C   0  0  0  0  0  0  0  0  0  0  0  0
    1.6257    1.5668   -1.8447 O   0  0  0  0  0  0  0  0  0  0  0  0
   -1.1102   -0.1731   -2.4138 C   0  0  0  0  0  0  0  0  0  0  0  0
   -2.3164   -0.9337   -1.9206 C   0  0  0  0  0  0  0  0  0  0  0  0
   -2.2605   -1.8685   -1.1322 O   0  0  0  0  0  0  0  0  0  0  0  0
   -3.4748   -0.4804   -2.4603 O   0  0  0  0  0  0  0  0  0  0  0  0
    0.2381    0.4970    0.6194 H   0  0  0  0  0  0  0  0  0  0  0  0
    0.2016   -1.1921   -1.0105 H   0  0  0  0  0  0  0  0  0  0  0  0
   -1.4494    0.8484   -2.6273 H   0  0  0  0  0  0  0  0  0  0  0  0
   -0.7871   -0.5848   -3.3777 H   0  0  0  0  0  0  0  0  0  0  0  0
   -4.2812   -0.9595   -2.1725 H   0  0  0  0  0  0  0  0  0  0  0  0
    2.0530   -0.5864   -2.5982 N   0  0  0  0  0  0  0  0  0  0  0  0
    3.3234   -0.3023   -3.2237 C   0  0  2  0  0  0  0  0  0  0  0  0
    4.3154    0.0650   -2.1280 C   0  0  0  0  0  0  0  0  0  0  0  0
    3.9715    0.4827   -1.0243 O   0  0  0  0  0  0  0  0  0  0  0  0
    3.1997    0.8194   -4.2432 C   0  0  0  0  0  0  0  0  0  0  0  0
    1.6997   -1.5384   -2.6229 H   0  0  0  0  0  0  0  0  0  0  0  0
    3.6472   -1.2259   -3.7158 H   0  0  0  0  0  0  0  0  0  0  0  0
    2.8762    1.7530   -3.7686 H   0  0  0  0  0  0  0  0  0  0  0  0
    4.1575    1.0142   -4.7369 H   0  0  0  0  0  0  0  0  0  0  0  0
    2.4639    0.5661   -5.0140 H   0  0  0  0  0  0  0  0  0  0  0  0
    5.6311   -0.0878   -2.5426 N   0  0  0  0  0  0  0  0  0  0  0  0
    6.7572    0.2085   -1.6881 C   0  0  0  0  0  0  0  0  0  0  0  0
    5.8234   -0.4581   -3.4687 H   0  0  0  0  0  0  0  0  0  0  0  0
    7.0770    1.2485   -1.8496 H   0  0  0  0  0  0  0  0  0  0  0  0
    6.4645    0.0742   -0.6363 H   0  0  0  0  0  0  0  0  0  0  0  0
    7.5878   -0.4718   -1.9273 H   0  0  0  0  0  0  0  0  0  0  0  0
  1  3  1  0  0  0  0
  1  7  1  0  0  0  0
  1  2  2  0  0  0  0
 31 32  1  0  0  0  0
 32 40  1  0  0  0  0
 32 33  2  0  0  0  0
  8  9  1  0  0  0  0
  9 17  1  0  0  0  0
  9 10  2  0  0  0  0
 18 19  1  0  0  0  0
 19 30  1  0  0  0  0
 19 20  2  0  0  0  0
 21 22  1  0  0  0  0
 22 23  2  0  0  0  0
 22 24  1  0  0  0  0
 31 34  1  0  0  0  0
  8 11  1  0  0  0  0
 40 41  1  0  0  0  0
 18 21  1  0  0  0  0
 30 31  1  0  0  0  0
  7  8  1  0  0  0  0
 17 18  1  0  0  0  0
  3  4  1  0  0  0  0
  3  5  1  0  0  0  0
  3  6  1  0  0  0  0
 34 37  1  0  0  0  0
 34 38  1  0  0  0  0
 34 39  1  0  0  0  0
 11 14  1  0  0  0  0
 11 15  1  0  0  0  0
 11 16  1  0  0  0  0
 41 43  1  0  0  0  0
 41 44  1  0  0  0  0
 41 45  1  0  0  0  0
 21 27  1  0  0  0  0
 21 28  1  0  0  0  0
 31 36  1  0  0  0  0
  8 13  1  0  0  0  0
 18 26  1  0  0  0  0
 40 42  1  0  0  0  0
  7 12  1  0  0  0  0
 30 35  1  0  0  0  0
 17 25  1  0  0  0  0
 24 29  1  0  0  0  0
M  END
$$$$

  -OEChem-05262214473D

 45 44  0     1  0  0  0  0  0999 V2000
   -2.2987    4.1032   -0.3022 C   0  0  0  0  0  0  0  0  0  0  0  0
   -1.8049    3.7117   -1.3532 O   0  0  0  0  0  0  0  0  0  0  0  0
   -3.0791    5.3755   -0.2846 C   0  0  0  0  0  0  0  0  0  0  0  0
   -2.4478    6.2532   -0.0717 H   0  0  0  0  0  0  0  0  0  0  0  0
   -3.5571    5.5891   -1.2541 H   0  0  0  0  0  0  0  0  0  0  0  0
   -3.8940    5.4184    0.4556 H   0  0  0  0  0  0  0  0  0  0  0  0
   -2.2137    3.4712    0.9275 N   0  0  0  0  0  0  0  0  0  0  0  0
   -1.5102    2.2327    1.1338 C   0  0  2  0  0  0  0  0  0  0  0  0
   -1.3539    1.5497   -0.2184 C   0  0  0  0  0  0  0  0  0  0  0  0
   -2.0852    1.7861   -1.1778 O   0  0  0  0  0  0  0  0  0  0  0  0
   -2.2477    1.3342    2.1145 C   0  0  0  0  0  0  0  0  0  0  0  0
   -2.6724    3.9052    1.7265 H   0  0  0  0  0  0  0  0  0  0  0  0
   -0.5220    2.4922    1.5290 H   0  0  0  0  0  0  0  0  0  0  0  0
   -3.2400    1.0636    1.7358 H   0  0  0  0  0  0  0  0  0  0  0  0
   -1.6970    0.4046    2.2923 H   0  0  0  0  0  0  0  0  0  0  0  0
   -2.3854    1.8384    3.0772 H   0  0  0  0  0  0  0  0  0  0  0  0
   -0.3283    0.6116   -0.2182 N   0  0  0  0  0  0  0  0  0  0  0  0
    0.0090   -0.1762   -1.3759 C   0  0  2  0  0  0  0  0  0  0  0  0
    1.2954    0.3888   -1.9648 C   0  0  0  0  0  0  0  0  0  0  0  0
    1.7631    1.4758   -1.6319 O   0  0  0  0  0  0  0  0  0  0  0  0
   -1.1102   -0.1731   -2.4138 C   0  0  0  0  0  0  0  0  0  0  0  0
   -2.3164   -0.9337   -1.9206 C   0  0  0  0  0  0  0  0  0  0  0  0
   -2.2605   -1.8685   -1.1322 O   0  0  0  0  0  0  0  0  0  0  0  0
   -3.4748   -0.4804   -2.4603 O   0  0  0  0  0  0  0  0  0  0  0  0
    0.2381    0.4970    0.6194 H   0  0  0  0  0  0  0  0  0  0  0  0
    0.2016   -1.1921   -1.0105 H   0  0  0  0  0  0  0  0  0  0  0  0
   -1.4494    0.8484   -2.6273 H   0  0  0  0  0  0  0  0  0  0  0  0
   -0.7871   -0.5848   -3.3777 H   0  0  0  0  0  0  0  0  0  0  0  0
   -4.2812   -0.9595   -2.1725 H   0  0  0  0  0  0  0  0  0  0  0  0
    1.8838   -0.4839   -2.8694 N   0  0  0  0  0  0  0  0  0  0  0  0
    3.1202   -0.1820   -3.5521 C   0  0  2  0  0  0  0  0  0  0  0  0
    4.2362   -0.1590   -2.5160 C   0  0  0  0  0  0  0  0  0  0  0  0
    4.0355    0.0306   -1.3182 O   0  0  0  0  0  0  0  0  0  0  0  0
    3.0354    1.1456   -4.2891 C   0  0  0  0  0  0  0  0  0  0  0  0
    1.4265   -1.3709   -3.0589 H   0  0  0  0  0  0  0  0  0  0  0  0
    3.2968   -0.9974   -4.2620 H   0  0  0  0  0  0  0  0  0  0  0  0
    2.8587    1.9747   -3.5942 H   0  0  0  0  0  0  0  0  0  0  0  0
    3.9634    1.3594   -4.8296 H   0  0  0  0  0  0  0  0  0  0  0  0
    2.2133    1.1377   -5.0130 H   0  0  0  0  0  0  0  0  0  0  0  0
    5.4869   -0.3323   -3.0921 N   0  0  0  0  0  0  0  0  0  0  0  0
    6.7073   -0.3362   -2.3197 C   0  0  0  0  0  0  0  0  0  0  0  0
    5.5577   -0.5020   -4.0911 H   0  0  0  0  0  0  0  0  0  0  0  0
    7.1254    0.6807   -2.2886 H   0  0  0  0  0  0  0  0  0  0  0  0
    6.4918   -0.6754   -1.2957 H   0  0  0  0  0  0  0  0  0  0  0  0
    7.4342   -1.0173   -2.7863 H   0  0  0  0  0  0  0  0  0  0  0  0
  1  3  1  0  0  0  0
  1  7  1  0  0  0  0
  1  2  2  0  0  0  0
 31 32  1  0  0  0  0
 32 40  1  0  0  0  0
 32 33  2  0  0  0  0
  8  9  1  0  0  0  0
  9 17  1  0  0  0  0
  9 10  2  0  0  0  0
 18 19  1  0  0  0  0
 19 30  1  0  0  0  0
 19 20  2  0  0  0  0
 21 22  1  0  0  0  0
 22 23  2  0  0  0  0
 22 24  1  0  0  0  0
 31 34  1  0  0  0  0
  8 11  1  0  0  0  0
 40 41  1  0  0  0  0
 18 21  1  0  0  0  0
 30 31  1  0  0  0  0
  7  8  1  0  0  0  0
 17 18  1  0  0  0  0
  3  4  1  0  0  0  0
  3  5  1  0  0  0  0
  3  6  1  0  0  0  0
 34 37  1  0  0  0  0
 34 38  1  0  0  0  0
 34 39  1  0  0  0  0
 11 14  1  0  0  0  0
 11 15  1  0  0  0  0
 11 16  1  0  0  0  0
 41 43  1  0  0  0  0
 41 44  1  0  0  0  0
 41 45  1  0  0  0  0
 21 27  1  0  0  0  0
 21 28  1  0  0  0  0
 31 36  1  0  0  0  0
  8 13  1  0  0  0  0
 18 26  1  0  0  0  0
 40 42  1  0  0  0  0
  7 12  1  0  0  0  0
 30 35  1  0  0  0  0
 17 25  1  0  0  0  0
 24 29  1  0  0  0  0
M  END
$$$$

  -OEChem-05262214473D

 45 44  0     1  0  0  0  0  0999 V2000
   -2.2987    4.1032   -0.3022 C   0  0  0  0  0  0  0  0  0  0  0  0
   -1.8049    3.7117   -1.3532 O   0  0  0  0  0  0  0  0  0  0  0  0
   -3.0791    5.3755   -0.2846 C   0  0  0  0  0  0  0  0  0  0  0  0
   -2.4478    6.2532   -0.0717 H   0  0  0  0  0  0  0  0  0  0  0  0
   -3.5571    5.5891   -1.2541 H   0  0  0  0  0  0  0  0  0  0  0  0
   -3.8940    5.4184    0.4556 H   0  0  0  0  0  0  0  0  0  0  0  0
   -2.2137    3.4712    0.9275 N   0  0  0  0  0  0  0  0  0  0  0  0
   -1.5102    2.2327    1.1338 C   0  0  2  0  0  0  0  0  0  0  0  0
   -1.3539    1.5497   -0.2184 C   0  0  0  0  0  0  0  0  0  0  0  0
   -2.0852    1.7861   -1.1778 O   0  0  0  0  0  0  0  0  0  0  0  0
   -2.2477    1.3342    2.1145 C   0  0  0  0  0  0  0  0  0  0  0  0
   -2.6724    3.9052    1.7265 H   0  0  0  0  0  0  0  0  0  0  0  0
   -0.5220    2.4922    1.5290 H   0  0  0  0  0  0  0  0  0  0  0  0
   -3.2400    1.0636    1.7358 H   0  0  0  0  0  0  0  0  0  0  0  0
   -1.6970    0.4046    2.2923 H   0  0  0  0  0  0  0  0  0  0  0  0
   -2.3854    1.8384    3.0772 H   0  0  0  0  0  0  0  0  0  0  0  0
   -0.3283    0.6116   -0.2182 N   0  0  0  0  0  0  0  0  0  0  0  0
    0.0090   -0.1762   -1.3759 C   0  0  2  0  0  0  0  0  0  0  0  0
    1.4562    0.1290   -1.7412 C   0  0  0  0  0  0  0  0  0  0  0  0
    2.1647    0.8925   -1.0882 O   0  0  0  0  0  0  0  0  0  0  0  0
   -0.9199    0.1119   -2.5523 C   0  0  0  0  0  0  0  0  0  0  0  0
   -2.3152   -0.3969   -2.2856 C   0  0  0  0  0  0  0  0  0  0  0  0
   -2.5681   -1.3572   -1.5697 O   0  0  0  0  0  0  0  0  0  0  0  0
   -3.2641    0.3162   -2.9411 O   0  0  0  0  0  0  0  0  0  0  0  0
    0.2381    0.4970    0.6194 H   0  0  0  0  0  0  0  0  0  0  0  0
   -0.0656   -1.2254   -1.0656 H   0  0  0  0  0  0  0  0  0  0  0  0
   -1.0085    1.1908   -2.7319 H   0  0  0  0  0  0  0  0  0  0  0  0
   -0.5484   -0.3146   -3.4920 H   0  0  0  0  0  0  0  0  0  0  0  0
   -4.1847    0.0067   -2.8019 H   0  0  0  0  0  0  0  0  0  0  0  0
    1.8771   -0.5874   -2.8528 N   0  0  0  0  0  0  0  0  0  0  0  0
    3.2147   -0.4818   -3.3874 C   0  0  2  0  0  0  0  0  0  0  0  0
    4.1768   -1.0780   -2.3685 C   0  0  0  0  0  0  0  0  0  0  0  0
    3.9086   -1.1818   -1.1733 O   0  0  0  0  0  0  0  0  0  0  0  0
    3.5752    0.9633   -3.6947 C   0  0  0  0  0  0  0  0  0  0  0  0
    1.2179   -1.2113   -3.3088 H   0  0  0  0  0  0  0  0  0  0  0  0
    3.2367   -1.0799   -4.3049 H   0  0  0  0  0  0  0  0  0  0  0  0
    3.5584    1.5781   -2.7874 H   0  0  0  0  0  0  0  0  0  0  0  0
    4.5786    1.0387   -4.1265 H   0  0  0  0  0  0  0  0  0  0  0  0
    2.8646    1.3997   -4.4050 H   0  0  0  0  0  0  0  0  0  0  0  0
    5.3868   -1.4408   -2.9433 N   0  0  0  0  0  0  0  0  0  0  0  0
    6.4697   -2.0182   -2.1818 C   0  0  0  0  0  0  0  0  0  0  0  0
    5.5151   -1.3366   -3.9455 H   0  0  0  0  0  0  0  0  0  0  0  0
    7.1440   -1.2197   -1.8387 H   0  0  0  0  0  0  0  0  0  0  0  0
    6.0615   -2.5524   -1.3111 H   0  0  0  0  0  0  0  0  0  0  0  0
    7.0285   -2.7228   -2.8153 H   0  0  0  0  0  0  0  0  0  0  0  0
  1  3  1  0  0  0  0
  1  7  1  0  0  0  0
  1  2  2  0  0  0  0
 31 32  1  0  0  0  0
 32 40  1  0  0  0  0
 32 33  2  0  0  0  0
  8  9  1  0  0  0  0
  9 17  1  0  0  0  0
  9 10  2  0  0  0  0
 18 19  1  0  0  0  0
 19 30  1  0  0  0  0
 19 20  2  0  0  0  0
 21 22  1  0  0  0  0
 22 23  2  0  0  0  0
 22 24  1  0  0  0  0
 31 34  1  0  0  0  0
  8 11  1  0  0  0  0
 40 41  1  0  0  0  0
 18 21  1  0  0  0  0
 30 31  1  0  0  0  0
  7  8  1  0  0  0  0
 17 18  1  0  0  0  0
  3  4  1  0  0  0  0
  3  5  1  0  0  0  0
  3  6  1  0  0  0  0
 34 37  1  0  0  0  0
 34 38  1  0  0  0  0
 34 39  1  0  0  0  0
 11 14  1  0  0  0  0
 11 15  1  0  0  0  0
 11 16  1  0  0  0  0
 41 43  1  0  0  0  0
 41 44  1  0  0  0  0
 41 45  1  0  0  0  0
 21 27  1  0  0  0  0
 21 28  1  0  0  0  0
 31 36  1  0  0  0  0
  8 13  1  0  0  0  0
 18 26  1  0  0  0  0
 40 42  1  0  0  0  0
  7 12  1  0  0  0  0
 30 35  1  0  0  0  0
 17 25  1  0  0  0  0
 24 29  1  0  0  0  0
M  END
$$$$

  -OEChem-05262214473D

 45 44  0     1  0  0  0  0  0999 V2000
   -2.2987    4.1032   -0.3022 C   0  0  0  0  0  0  0  0  0  0  0  0
   -1.8049    3.7117   -1.3532 O   0  0  0  0  0  0  0  0  0  0  0  0
   -3.0791    5.3755   -0.2846 C   0  0  0  0  0  0  0  0  0  0  0  0
   -2.4478    6.2532   -0.0717 H   0  0  0  0  0  0  0  0  0  0  0  0
   -3.5571    5.5891   -1.2541 H   0  0  0  0  0  0  0  0  0  0  0  0
   -3.8940    5.4184    0.4556 H   0  0  0  0  0  0  0  0  0  0  0  0
   -2.2137    3.4712    0.9275 N   0  0  0  0  0  0  0  0  0  0  0  0
   -1.5102    2.2327    1.1338 C   0  0  2  0  0  0  0  0  0  0  0  0
   -1.3539    1.5497   -0.2184 C   0  0  0  0  0  0  0  0  0  0  0  0
   -2.0852    1.7861   -1.1778 O   0  0  0  0  0  0  0  0  0  0  0  0
   -2.2477    1.3342    2.1145 C   0  0  0  0  0  0  0  0  0  0  0  0
   -2.6724    3.9052    1.7265 H   0  0  0  0  0  0  0  0  0  0  0  0
   -0.5220    2.4922    1.5290 H   0  0  0  0  0  0  0  0  0  0  0  0
   -3.2400    1.0636    1.7358 H   0  0  0  0  0  0  0  0  0  0  0  0
   -1.6970    0.4046    2.2923 H   0  0  0  0  0  0  0  0  0  0  0  0
   -2.3854    1.8384    3.0772 H   0  0  0  0  0  0  0  0  0  0  0  0
   -0.3283    0.6116   -0.2182 N   0  0  0  0  0  0  0  0  0  0  0  0
    0.0090   -0.1762   -1.3759 C   0  0  2  0  0  0  0  0  0  0  0  0
    1.4562    0.1290   -1.7412 C   0  0  0  0  0  0  0  0  0  0  0  0
    2.2434    0.6665   -0.9649 O   0  0  0  0  0  0  0  0  0  0  0  0
   -0.9199    0.1119   -2.5523 C   0  0  0  0  0  0  0  0  0  0  0  0
   -2.3152   -0.3969   -2.2856 C   0  0  0  0  0  0  0  0  0  0  0  0
   -2.5681   -1.3572   -1.5697 O   0  0  0  0  0  0  0  0  0  0  0  0
   -3.2641    0.3162   -2.9411 O   0  0  0  0  0  0  0  0  0  0  0  0
    0.2381    0.4970    0.6194 H   0  0  0  0  0  0  0  0  0  0  0  0
   -0.0656   -1.2254   -1.0656 H   0  0  0  0  0  0  0  0  0  0  0  0
   -1.0085    1.1908   -2.7319 H   0  0  0  0  0  0  0  0  0  0  0  0
   -0.5484   -0.3146   -3.4920 H   0  0  0  0  0  0  0  0  0  0  0  0
   -4.1847    0.0067   -2.8019 H   0  0  0  0  0  0  0  0  0  0  0  0
    1.7776   -0.3123   -3.0171 N   0  0  0  0  0  0  0  0  0  0  0  0
    3.0943   -0.1521   -3.5885 C   0  0  2  0  0  0  0  0  0  0  0  0
    4.0574   -1.0344   -2.8053 C   0  0  0  0  0  0  0  0  0  0  0  0
    3.8357   -1.4157   -1.6579 O   0  0  0  0  0  0  0  0  0  0  0  0
    3.5392    1.3018   -3.5546 C   0  0  0  0  0  0  0  0  0  0  0  0
    1.0577   -0.7662   -3.5716 H   0  0  0  0  0  0  0  0  0  0  0  0
    3.0348   -0.5048   -4.6239 H   0  0  0  0  0  0  0  0  0  0  0  0
    3.6046    1.6728   -2.5252 H   0  0  0  0  0  0  0  0  0  0  0  0
    4.5254    1.4258   -4.0139 H   0  0  0  0  0  0  0  0  0  0  0  0
    2.8296    1.9391   -4.0931 H   0  0  0  0  0  0  0  0  0  0  0  0
    5.2131   -1.3104   -3.5224 N   0  0  0  0  0  0  0  0  0  0  0  0
    6.2864   -2.1176   -2.9909 C   0  0  0  0  0  0  0  0  0  0  0  0
    5.3039   -0.9687   -4.4746 H   0  0  0  0  0  0  0  0  0  0  0  0
    7.0283   -1.4675   -2.5041 H   0  0  0  0  0  0  0  0  0  0  0  0
    5.8813   -2.8271   -2.2544 H   0  0  0  0  0  0  0  0  0  0  0  0
    6.7671   -2.6733   -3.8095 H   0  0  0  0  0  0  0  0  0  0  0  0
  1  3  1  0  0  0  0
  1  7  1  0  0  0  0
  1  2  2  0  0  0  0
 31 32  1  0  0  0  0
 32 40  1  0  0  0  0
 32 33  2  0  0  0  0
  8  9  1  0  0  0  0
  9 17  1  0  0  0  0
  9 10  2  0  0  0  0
 18 19  1  0  0  0  0
 19 30  1  0  0  0  0
 19 20  2  0  0  0  0
 21 22  1  0  0  0  0
 22 23  2  0  0  0  0
 22 24  1  0  0  0  0
 31 34  1  0  0  0  0
  8 11  1  0  0  0  0
 40 41  1  0  0  0  0
 18 21  1  0  0  0  0
 30 31  1  0  0  0  0
  7  8  1  0  0  0  0
 17 18  1  0  0  0  0
  3  4  1  0  0  0  0
  3  5  1  0  0  0  0
  3  6  1  0  0  0  0
 34 37  1  0  0  0  0
 34 38  1  0  0  0  0
 34 39  1  0  0  0  0
 11 14  1  0  0  0  0
 11 15  1  0  0  0  0
 11 16  1  0  0  0  0
 41 43  1  0  0  0  0
 41 44  1  0  0  0  0
 41 45  1  0  0  0  0
 21 27  1  0  0  0  0
 21 28  1  0  0  0  0
 31 36  1  0  0  0  0
  8 13  1  0  0  0  0
 18 26  1  0  0  0  0
 40 42  1  0  0  0  0
  7 12  1  0  0  0  0
 30 35  1  0  0  0  0
 17 25  1  0  0  0  0
 24 29  1  0  0  0  0
M  END
$$$$

  -OEChem-05262214473D

 45 44  0     1  0  0  0  0  0999 V2000
   -2.2987    4.1032   -0.3022 C   0  0  0  0  0  0  0  0  0  0  0  0
   -1.8049    3.7117   -1.3532 O   0  0  0  0  0  0  0  0  0  0  0  0
   -3.0791    5.3755   -0.2846 C   0  0  0  0  0  0  0  0  0  0  0  0
   -2.4478    6.2532   -0.0717 H   0  0  0  0  0  0  0  0  0  0  0  0
   -3.5571    5.5891   -1.2541 H   0  0  0  0  0  0  0  0  0  0  0  0
   -3.8940    5.4184    0.4556 H   0  0  0  0  0  0  0  0  0  0  0  0
   -2.2137    3.4712    0.9275 N   0  0  0  0  0  0  0  0  0  0  0  0
   -1.5102    2.2327    1.1338 C   0  0  2  0  0  0  0  0  0  0  0  0
   -1.3539    1.5497   -0.2184 C   0  0  0  0  0  0  0  0  0  0  0  0
   -2.0852    1.7861   -1.1778 O   0  0  0  0  0  0  0  0  0  0  0  0
   -2.2477    1.3342    2.1145 C   0  0  0  0  0  0  0  0  0  0  0  0
   -2.6724    3.9052    1.7265 H   0  0  0  0  0  0  0  0  0  0  0  0
   -0.5220    2.4922    1.5290 H   0  0  0  0  0  0  0  0  0  0  0  0
   -3.2400    1.0636    1.7358 H   0  0  0  0  0  0  0  0  0  0  0  0
   -1.6970    0.4046    2.2923 H   0  0  0  0  0  0  0  0  0  0  0  0
   -2.3854    1.8384    3.0772 H   0  0  0  0  0  0  0  0  0  0  0  0
   -0.3283    0.6116   -0.2182 N   0  0  0  0  0  0  0  0  0  0  0  0
    0.0090   -0.1762   -1.3759 C   0  0  2  0  0  0  0  0  0  0  0  0
    1.4562    0.1290   -1.7412 C   0  0  0  0  0  0  0  0  0  0  0  0
    2.3119    0.4131   -0.9055 O   0  0  0  0  0  0  0  0  0  0  0  0
   -0.9199    0.1119   -2.5523 C   0  0  0  0  0  0  0  0  0  0  0  0
   -2.3152   -0.3969   -2.2856 C   0  0  0  0  0  0  0  0  0  0  0  0
   -2.5681   -1.3572   -1.5697 O   0  0  0  0  0  0  0  0  0  0  0  0
   -3.2641    0.3162   -2.9411 O   0  0  0  0  0  0  0  0  0  0  0  0
    0.2381    0.4970    0.6194 H   0  0  0  0  0  0  0  0  0  0  0  0
   -0.0656   -1.2254   -1.0656 H   0  0  0  0  0  0  0  0  0  0  0  0
   -1.0085    1.1908   -2.7319 H   0  0  0  0  0  0  0  0  0  0  0  0
   -0.5484   -0.3146   -3.4920 H   0  0  0  0  0  0  0  0  0  0  0  0
   -4.1847    0.0067   -2.8019 H   0  0  0  0  0  0  0  0  0  0  0  0
    1.6900    0.0001   -3.1031 N   0  0  0  0  0  0  0  0  0  0  0  0
    2.9882    0.2233   -3.6955 C   0  0  2  0  0  0  0  0  0  0  0  0
    3.9221   -0.8776   -3.2103 C   0  0  0  0  0  0  0  0  0  0  0  0
    3.7255   -1.5181   -2.1797 O   0  0  0  0  0  0  0  0  0  0  0  0
    3.5327    1.5965   -3.3341 C   0  0  0  0  0  0  0  0  0  0  0  0
    0.9169   -0.2617   -3.7077 H   0  0  0  0  0  0  0  0  0  0  0  0
    2.8590    0.1417   -4.7803 H   0  0  0  0  0  0  0  0  0  0  0  0
    3.6687    1.6970   -2.2511 H   0  0  0  0  0  0  0  0  0  0  0  0
    4.5039    1.7753   -3.8072 H   0  0  0  0  0  0  0  0  0  0  0  0
    2.8454    2.3857   -3.6574 H   0  0  0  0  0  0  0  0  0  0  0  0
    5.0234   -1.0313   -4.0407 N   0  0  0  0  0  0  0  0  0  0  0  0
    6.0612   -2.0032   -3.7874 C   0  0  0  0  0  0  0  0  0  0  0  0
    5.0953   -0.4701   -4.8843 H   0  0  0  0  0  0  0  0  0  0  0  0
    6.8667   -1.5362   -3.2017 H   0  0  0  0  0  0  0  0  0  0  0  0
    5.6413   -2.8493   -3.2236 H   0  0  0  0  0  0  0  0  0  0  0  0
    6.4661   -2.3649   -4.7441 H   0  0  0  0  0  0  0  0  0  0  0  0
  1  3  1  0  0  0  0
  1  7  1  0  0  0  0
  1  2  2  0  0  0  0
 31 32  1  0  0  0  0
 32 40  1  0  0  0  0
 32 33  2  0  0  0  0
  8  9  1  0  0  0  0
  9 17  1  0  0  0  0
  9 10  2  0  0  0  0
 18 19  1  0  0  0  0
 19 30  1  0  0  0  0
 19 20  2  0  0  0  0
 21 22  1  0  0  0  0
 22 23  2  0  0  0  0
 22 24  1  0  0  0  0
 31 34  1  0  0  0  0
  8 11  1  0  0  0  0
 40 41  1  0  0  0  0
 18 21  1  0  0  0  0
 30 31  1  0  0  0  0
  7  8  1  0  0  0  0
 17 18  1  0  0  0  0
  3  4  1  0  0  0  0
  3  5  1  0  0  0  0
  3  6  1  0  0  0  0
 34 37  1  0  0  0  0
 34 38  1  0  0  0  0
 34 39  1  0  0  0  0
 11 14  1  0  0  0  0
 11 15  1  0  0  0  0
 11 16  1  0  0  0  0
 41 43  1  0  0  0  0
 41 44  1  0  0  0  0
 41 45  1  0  0  0  0
 21 27  1  0  0  0  0
 21 28  1  0  0  0  0
 31 36  1  0  0  0  0
  8 13  1  0  0  0  0
 18 26  1  0  0  0  0
 40 42  1  0  0  0  0
  7 12  1  0  0  0  0
 30 35  1  0  0  0  0
 17 25  1  0  0  0  0
 24 29  1  0  0  0  0
M  END
$$$$

  -OEChem-05262214473D

 45 44  0     1  0  0  0  0  0999 V2000
   -2.2987    4.1032   -0.3022 C   0  0  0  0  0  0  0  0  0  0  0  0
   -1.8049    3.7117   -1.3532 O   0  0  0  0  0  0  0  0  0  0  0  0
   -3.0791    5.3755   -0.2846 C   0  0  0  0  0  0  0  0  0  0  0  0
   -2.4478    6.2532   -0.0717 H   0  0  0  0  0  0  0  0  0  0  0  0
   -3.5571    5.5891   -1.2541 H   0  0  0  0  0  0  0  0  0  0  0  0
   -3.8940    5.4184    0.4556 H   0  0  0  0  0  0  0  0  0  0  0  0
   -2.2137    3.4712    0.9275 N   0  0  0  0  0  0  0  0  0  0  0  0
   -1.5102    2.2327    1.1338 C   0  0  2  0  0  0  0  0  0  0  0  0
   -1.3539    1.5497   -0.2184 C   0  0  0  0  0  0  0  0  0  0  0  0
   -2.0852    1.7861   -1.1778 O   0  0  0  0  0  0  0  0  0  0  0  0
   -2.2477    1.3342    2.1145 C   0  0  0  0  0  0  0  0  0  0  0  0
   -2.6724    3.9052    1.7265 H   0  0  0  0  0  0  0  0  0  0  0  0
   -0.5220    2.4922    1.5290 H   0  0  0  0  0  0  0  0  0  0  0  0
   -3.2400    1.0636    1.7358 H   0  0  0  0  0  0  0  0  0  0  0  0
   -1.6970    0.4046    2.2923 H   0  0  0  0  0  0  0  0  0  0  0  0
   -2.3854    1.8384    3.0772 H   0  0  0  0  0  0  0  0  0  0  0  0
   -0.3283    0.6116   -0.2182 N   0  0  0  0  0  0  0  0  0  0  0  0
    0.0090   -0.1762   -1.3759 C   0  0  2  0  0  0  0  0  0  0  0  0
    1.4562    0.1290   -1.7412 C   0  0  0  0  0  0  0  0  0  0  0  0
    2.3653    0.1494   -0.9140 O   0  0  0  0  0  0  0  0  0  0  0  0
   -0.9199    0.1119   -2.5523 C   0  0  0  0  0  0  0  0  0  0  0  0
   -2.3152   -0.3969   -2.2856 C   0  0  0  0  0  0  0  0  0  0  0  0
   -2.5681   -1.3572   -1.5697 O   0  0  0  0  0  0  0  0  0  0  0  0
   -3.2641    0.3162   -2.9411 O   0  0  0  0  0  0  0  0  0  0  0  0
    0.2381    0.4970    0.6194 H   0  0  0  0  0  0  0  0  0  0  0  0
   -0.0656   -1.2254   -1.0656 H   0  0  0  0  0  0  0  0  0  0  0  0
   -1.0085    1.1908   -2.7319 H   0  0  0  0  0  0  0  0  0  0  0  0
   -0.5484   -0.3146   -3.4920 H   0  0  0  0  0  0  0  0  0  0  0  0
   -4.1847    0.0067   -2.8019 H   0  0  0  0  0  0  0  0  0  0  0  0
    1.6204    0.3284   -3.1048 N   0  0  0  0  0  0  0  0  0  0  0  0
    2.9034    0.6187   -3.7011 C   0  0  2  0  0  0  0  0  0  0  0  0
    3.7801   -0.6181   -3.5560 C   0  0  0  0  0  0  0  0  0  0  0  0
    3.5857   -1.4818   -2.7031 O   0  0  0  0  0  0  0  0  0  0  0  0
    3.5561    1.8273   -3.0484 C   0  0  0  0  0  0  0  0  0  0  0  0
    0.8052    0.2677   -3.7078 H   0  0  0  0  0  0  0  0  0  0  0  0
    2.7212    0.8155   -4.7632 H   0  0  0  0  0  0  0  0  0  0  0  0
    3.7463    1.6489   -1.9837 H   0  0  0  0  0  0  0  0  0  0  0  0
    4.5155    2.0634   -3.5205 H   0  0  0  0  0  0  0  0  0  0  0  0
    2.9109    2.7089   -3.1275 H   0  0  0  0  0  0  0  0  0  0  0  0
    4.8306   -0.6224   -4.4629 N   0  0  0  0  0  0  0  0  0  0  0  0
    5.8095   -1.6830   -4.5170 C   0  0  0  0  0  0  0  0  0  0  0  0
    4.9036    0.1252   -5.1466 H   0  0  0  0  0  0  0  0  0  0  0  0
    6.6702   -1.4209   -3.8840 H   0  0  0  0  0  0  0  0  0  0  0  0
    5.3579   -2.6176   -4.1529 H   0  0  0  0  0  0  0  0  0  0  0  0
    6.1461   -1.8186   -5.5554 H   0  0  0  0  0  0  0  0  0  0  0  0
  1  3  1  0  0  0  0
  1  7  1  0  0  0  0
  1  2  2  0  0  0  0
 31 32  1  0  0  0  0
 32 40  1  0  0  0  0
 32 33  2  0  0  0  0
  8  9  1  0  0  0  0
  9 17  1  0  0  0  0
  9 10  2  0  0  0  0
 18 19  1  0  0  0  0
 19 30  1  0  0  0  0
 19 20  2  0  0  0  0
 21 22  1  0  0  0  0
 22 23  2  0  0  0  0
 22 24  1  0  0  0  0
 31 34  1  0  0  0  0
  8 11  1  0  0  0  0
 40 41  1  0  0  0  0
 18 21  1  0  0  0  0
 30 31  1  0  0  0  0
  7  8  1  0  0  0  0
 17 18  1  0  0  0  0
  3  4  1  0  0  0  0
  3  5  1  0  0  0  0
  3  6  1  0  0  0  0
 34 37  1  0  0  0  0
 34 38  1  0  0  0  0
 34 39  1  0  0  0  0
 11 14  1  0  0  0  0
 11 15  1  0  0  0  0
 11 16  1  0  0  0  0
 41 43  1  0  0  0  0
 41 44  1  0  0  0  0
 41 45  1  0  0  0  0
 21 27  1  0  0  0  0
 21 28  1  0  0  0  0
 31 36  1  0  0  0  0
  8 13  1  0  0  0  0
 18 26  1  0  0  0  0
 40 42  1  0  0  0  0
  7 12  1  0  0  0  0
 30 35  1  0  0  0  0
 17 25  1  0  0  0  0
 24 29  1  0  0  0  0
M  END
$$$$

  -OEChem-05262214473D

 45 44  0     1  0  0  0  0  0999 V2000
   -2.2987    4.1032   -0.3022 C   0  0  0  0  0  0  0  0  0  0  0  0
   -1.8049    3.7117   -1.3532 O   0  0  0  0  0  0  0  0  0  0  0  0
   -3.0791    5.3755   -0.2846 C   0  0  0  0  0  0  0  0  0  0  0  0
   -2.4478    6.2532   -0.0717 H   0  0  0  0  0  0  0  0  0  0  0  0
   -3.5571    5.5891   -1.2541 H   0  0  0  0  0  0  0  0  0  0  0  0
   -3.8940    5.4184    0.4556 H   0  0  0  0  0  0  0  0  0  0  0  0
   -2.2137    3.4712    0.9275 N   0  0  0  0  0  0  0  0  0  0  0  0
   -1.5102    2.2327    1.1338 C   0  0  2  0  0  0  0  0  0  0  0  0
   -1.3539    1.5497   -0.2184 C   0  0  0  0  0  0  0  0  0  0  0  0
   -2.0852    1.7861   -1.1778 O   0  0  0  0  0  0  0  0  0  0  0  0
   -2.2477    1.3342    2.1145 C   0  0  0  0  0  0  0  0  0  0  0  0
   -2.6724    3.9052    1.7265 H   0  0  0  0  0  0  0  0  0  0  0  0
   -0.5220    2.4922    1.5290 H   0  0  0  0  0  0  0  0  0  0  0  0
   -3.2400    1.0636    1.7358 H   0  0  0  0  0  0  0  0  0  0  0  0
   -1.6970    0.4046    2.2923 H   0  0  0  0  0  0  0  0  0  0  0  0
   -2.3854    1.8384    3.0772 H   0  0  0  0  0  0  0  0  0  0  0  0
   -0.3283    0.6116   -0.2182 N   0  0  0  0  0  0  0  0  0  0  0  0
    0.0090   -0.1762   -1.3759 C   0  0  2  0  0  0  0  0  0  0  0  0
    1.4562    0.1290   -1.7412 C   0  0  0  0  0  0  0  0  0  0  0  0
    2.4002   -0.1065   -0.9898 O   0  0  0  0  0  0  0  0  0  0  0  0
   -0.9199    0.1119   -2.5523 C   0  0  0  0  0  0  0  0  0  0  0  0
   -2.3152   -0.3969   -2.2856 C   0  0  0  0  0  0  0  0  0  0  0  0
   -2.5681   -1.3572   -1.5697 O   0  0  0  0  0  0  0  0  0  0  0  0
   -3.2641    0.3162   -2.9411 O   0  0  0  0  0  0  0  0  0  0  0  0
    0.2381    0.4970    0.6194 H   0  0  0  0  0  0  0  0  0  0  0  0
   -0.0656   -1.2254   -1.0656 H   0  0  0  0  0  0  0  0  0  0  0  0
   -1.0085    1.1908   -2.7319 H   0  0  0  0  0  0  0  0  0  0  0  0
   -0.5484   -0.3146   -3.4920 H   0  0  0  0  0  0  0  0  0  0  0  0
   -4.1847    0.0067   -2.8019 H   0  0  0  0  0  0  0  0  0  0  0  0
    1.5733    0.6503   -3.0221 N   0  0  0  0  0  0  0  0  0  0  0  0
    2.8457    1.0074   -3.6048 C   0  0  2  0  0  0  0  0  0  0  0  0
    3.6411   -0.2736   -3.8187 C   0  0  0  0  0  0  0  0  0  0  0  0
    3.4258   -1.3094   -3.1926 O   0  0  0  0  0  0  0  0  0  0  0  0
    3.6079    1.9786   -2.7168 C   0  0  0  0  0  0  0  0  0  0  0  0
    0.7302    0.7861   -3.5720 H   0  0  0  0  0  0  0  0  0  0  0  0
    2.6308    1.4707   -4.5739 H   0  0  0  0  0  0  0  0  0  0  0  0
    3.8322    1.5320   -1.7412 H   0  0  0  0  0  0  0  0  0  0  0  0
    4.5594    2.2705   -3.1733 H   0  0  0  0  0  0  0  0  0  0  0  0
    3.0218    2.8868   -2.5397 H   0  0  0  0  0  0  0  0  0  0  0  0
    4.6479   -0.1118   -4.7602 N   0  0  0  0  0  0  0  0  0  0  0  0
    5.5485   -1.1786   -5.1299 C   0  0  0  0  0  0  0  0  0  0  0  0
    4.7417    0.7766   -5.2437 H   0  0  0  0  0  0  0  0  0  0  0  0
    6.4521   -1.1296   -4.5046 H   0  0  0  0  0  0  0  0  0  0  0  0
    5.0503   -2.1477   -4.9789 H   0  0  0  0  0  0  0  0  0  0  0  0
    5.8288   -1.0715   -6.1882 H   0  0  0  0  0  0  0  0  0  0  0  0
  1  3  1  0  0  0  0
  1  7  1  0  0  0  0
  1  2  2  0  0  0  0
 31 32  1  0  0  0  0
 32 40  1  0  0  0  0
 32 33  2  0  0  0  0
  8  9  1  0  0  0  0
  9 17  1  0  0  0  0
  9 10  2  0  0  0  0
 18 19  1  0  0  0  0
 19 30  1  0  0  0  0
 19 20  2  0  0  0  0
 21 22  1  0  0  0  0
 22 23  2  0  0  0  0
 22 24  1  0  0  0  0
 31 34  1  0  0  0  0
  8 11  1  0  0  0  0
 40 41  1  0  0  0  0
 18 21  1  0  0  0  0
 30 31  1  0  0  0  0
  7  8  1  0  0  0  0
 17 18  1  0  0  0  0
  3  4  1  0  0  0  0
  3  5  1  0  0  0  0
  3  6  1  0  0  0  0
 34 37  1  0  0  0  0
 34 38  1  0  0  0  0
 34 39  1  0  0  0  0
 11 14  1  0  0  0  0
 11 15  1  0  0  0  0
 11 16  1  0  0  0  0
 41 43  1  0  0  0  0
 41 44  1  0  0  0  0
 41 45  1  0  0  0  0
 21 27  1  0  0  0  0
 21 28  1  0  0  0  0
 31 36  1  0  0  0  0
  8 13  1  0  0  0  0
 18 26  1  0  0  0  0
 40 42  1  0  0  0  0
  7 12  1  0  0  0  0
 30 35  1  0  0  0  0
 17 25  1  0  0  0  0
 24 29  1  0  0  0  0
M  END
$$$$

  -OEChem-05262214473D

 45 44  0     1  0  0  0  0  0999 V2000
   -2.2987    4.1032   -0.3022 C   0  0  0  0  0  0  0  0  0  0  0  0
   -1.8049    3.7117   -1.3532 O   0  0  0  0  0  0  0  0  0  0  0  0
   -3.0791    5.3755   -0.2846 C   0  0  0  0  0  0  0  0  0  0  0  0
   -2.4478    6.2532   -0.0717 H   0  0  0  0  0  0  0  0  0  0  0  0
   -3.5571    5.5891   -1.2541 H   0  0  0  0  0  0  0  0  0  0  0  0
   -3.8940    5.4184    0.4556 H   0  0  0  0  0  0  0  0  0  0  0  0
   -2.2137    3.4712    0.9275 N   0  0  0  0  0  0  0  0  0  0  0  0
   -1.5102    2.2327    1.1338 C   0  0  2  0  0  0  0  0  0  0  0  0
   -1.3539    1.5497   -0.2184 C   0  0  0  0  0  0  0  0  0  0  0  0
   -2.0852    1.7861   -1.1778 O   0  0  0  0  0  0  0  0  0  0  0  0
   -2.2477    1.3342    2.1145 C   0  0  0  0  0  0  0  0  0  0  0  0
   -2.6724    3.9052    1.7265 H   0  0  0  0  0  0  0  0  0  0  0  0
   -0.5220    2.4922    1.5290 H   0  0  0  0  0  0  0  0  0  0  0  0
   -3.2400    1.0636    1.7358 H   0  0  0  0  0  0  0  0  0  0  0  0
   -1.6970    0.4046    2.2923 H   0  0  0  0  0  0  0  0  0  0  0  0
   -2.3854    1.8384    3.0772 H   0  0  0  0  0  0  0  0  0  0  0  0
   -0.3283    0.6116   -0.2182 N   0  0  0  0  0  0  0  0  0  0  0  0
    0.0090   -0.1762   -1.3759 C   0  0  2  0  0  0  0  0  0  0  0  0
    1.4562    0.1290   -1.7412 C   0  0  0  0  0  0  0  0  0  0  0  0
    2.4140   -0.3372   -1.1277 O   0  0  0  0  0  0  0  0  0  0  0  0
   -0.9199    0.1119   -2.5523 C   0  0  0  0  0  0  0  0  0  0  0  0
   -2.3152   -0.3969   -2.2856 C   0  0  0  0  0  0  0  0  0  0  0  0
   -2.5681   -1.3572   -1.5697 O   0  0  0  0  0  0  0  0  0  0  0  0
   -3.2641    0.3162   -2.9411 O   0  0  0  0  0  0  0  0  0  0  0  0
    0.2381    0.4970    0.6194 H   0  0  0  0  0  0  0  0  0  0  0  0
   -0.0656   -1.2254   -1.0656 H   0  0  0  0  0  0  0  0  0  0  0  0
   -1.0085    1.1908   -2.7319 H   0  0  0  0  0  0  0  0  0  0  0  0
   -0.5484   -0.3146   -3.4920 H   0  0  0  0  0  0  0  0  0  0  0  0
   -4.1847    0.0067   -2.8019 H   0  0  0  0  0  0  0  0  0  0  0  0
    1.5522    0.9437   -2.8606 N   0  0  0  0  0  0  0  0  0  0  0  0
    2.8191    1.3627   -3.4133 C   0  0  2  0  0  0  0  0  0  0  0  0
    3.5146    0.1323   -3.9806 C   0  0  0  0  0  0  0  0  0  0  0  0
    3.2567   -1.0126   -3.6147 O   0  0  0  0  0  0  0  0  0  0  0  0
    3.6845    2.0400   -2.3620 C   0  0  0  0  0  0  0  0  0  0  0  0
    0.6969    1.2581   -3.3094 H   0  0  0  0  0  0  0  0  0  0  0  0
    2.5939    2.0626   -4.2253 H   0  0  0  0  0  0  0  0  0  0  0  0
    3.9205    1.3541   -1.5403 H   0  0  0  0  0  0  0  0  0  0  0  0
    4.6327    2.3824   -2.7893 H   0  0  0  0  0  0  0  0  0  0  0  0
    3.1704    2.9073   -1.9338 H   0  0  0  0  0  0  0  0  0  0  0  0
    4.4876    0.4659   -4.9123 N   0  0  0  0  0  0  0  0  0  0  0  0
    5.2958   -0.5246   -5.5844 C   0  0  0  0  0  0  0  0  0  0  0  0
    4.6207    1.4397   -5.1690 H   0  0  0  0  0  0  0  0  0  0  0  0
    6.2273   -0.6822   -5.0211 H   0  0  0  0  0  0  0  0  0  0  0  0
    4.7395   -1.4716   -5.6452 H   0  0  0  0  0  0  0  0  0  0  0  0
    5.5359   -0.1746   -6.5992 H   0  0  0  0  0  0  0  0  0  0  0  0
  1  3  1  0  0  0  0
  1  7  1  0  0  0  0
  1  2  2  0  0  0  0
 31 32  1  0  0  0  0
 32 40  1  0  0  0  0
 32 33  2  0  0  0  0
  8  9  1  0  0  0  0
  9 17  1  0  0  0  0
  9 10  2  0  0  0  0
 18 19  1  0  0  0  0
 19 30  1  0  0  0  0
 19 20  2  0  0  0  0
 21 22  1  0  0  0  0
 22 23  2  0  0  0  0
 22 24  1  0  0  0  0
 31 34  1  0  0  0  0
  8 11  1  0  0  0  0
 40 41  1  0  0  0  0
 18 21  1  0  0  0  0
 30 31  1  0  0  0  0
  7  8  1  0  0  0  0
 17 18  1  0  0  0  0
  3  4  1  0  0  0  0
  3  5  1  0  0  0  0
  3  6  1  0  0  0  0
 34 37  1  0  0  0  0
 34 38  1  0  0  0  0
 34 39  1  0  0  0  0
 11 14  1  0  0  0  0
 11 15  1  0  0  0  0
 11 16  1  0  0  0  0
 41 43  1  0  0  0  0
 41 44  1  0  0  0  0
 41 45  1  0  0  0  0
 21 27  1  0  0  0  0
 21 28  1  0  0  0  0
 31 36  1  0  0  0  0
  8 13  1  0  0  0  0
 18 26  1  0  0  0  0
 40 42  1  0  0  0  0
  7 12  1  0  0  0  0
 30 35  1  0  0  0  0
 17 25  1  0  0  0  0
 24 29  1  0  0  0  0
M  END
$$$$

  -OEChem-05262214473D

 45 44  0     1  0  0  0  0  0999 V2000
   -2.2987    4.1032   -0.3022 C   0  0  0  0  0  0  0  0  0  0  0  0
   -1.8049    3.7117   -1.3532 O   0  0  0  0  0  0  0  0  0  0  0  0
   -3.0791    5.3755   -0.2846 C   0  0  0  0  0  0  0  0  0  0  0  0
   -2.4478    6.2532   -0.0717 H   0  0  0  0  0  0  0  0  0  0  0  0
   -3.5571    5.5891   -1.2541 H   0  0  0  0  0  0  0  0  0  0  0  0
   -3.8940    5.4184    0.4556 H   0  0  0  0  0  0  0  0  0  0  0  0
   -2.2137    3.4712    0.9275 N   0  0  0  0  0  0  0  0  0  0  0  0
   -1.5102    2.2327    1.1338 C   0  0  2  0  0  0  0  0  0  0  0  0
   -1.3539    1.5497   -0.2184 C   0  0  0  0  0  0  0  0  0  0  0  0
   -2.0852    1.7861   -1.1778 O   0  0  0  0  0  0  0  0  0  0  0  0
   -2.2477    1.3342    2.1145 C   0  0  0  0  0  0  0  0  0  0  0  0
   -2.6724    3.9052    1.7265 H   0  0  0  0  0  0  0  0  0  0  0  0
   -0.5220    2.4922    1.5290 H   0  0  0  0  0  0  0  0  0  0  0  0
   -3.2400    1.0636    1.7358 H   0  0  0  0  0  0  0  0  0  0  0  0
   -1.6970    0.4046    2.2923 H   0  0  0  0  0  0  0  0  0  0  0  0
   -2.3854    1.8384    3.0772 H   0  0  0  0  0  0  0  0  0  0  0  0
   -0.3283    0.6116   -0.2182 N   0  0  0  0  0  0  0  0  0  0  0  0
    0.0090   -0.1762   -1.3759 C   0  0  2  0  0  0  0  0  0  0  0  0
    1.4562    0.1290   -1.7412 C   0  0  0  0  0  0  0  0  0  0  0  0
    2.4059   -0.5271   -1.3184 O   0  0  0  0  0  0  0  0  0  0  0  0
   -0.9199    0.1119   -2.5523 C   0  0  0  0  0  0  0  0  0  0  0  0
   -2.3152   -0.3969   -2.2856 C   0  0  0  0  0  0  0  0  0  0  0  0
   -2.5681   -1.3572   -1.5697 O   0  0  0  0  0  0  0  0  0  0  0  0
   -3.2641    0.3162   -2.9411 O   0  0  0  0  0  0  0  0  0  0  0  0
    0.2381    0.4970    0.6194 H   0  0  0  0  0  0  0  0  0  0  0  0
   -0.0656   -1.2254   -1.0656 H   0  0  0  0  0  0  0  0  0  0  0  0
   -1.0085    1.1908   -2.7319 H   0  0  0  0  0  0  0  0  0  0  0  0
   -0.5484   -0.3146   -3.4920 H   0  0  0  0  0  0  0  0  0  0  0  0
   -4.1847    0.0067   -2.8019 H   0  0  0  0  0  0  0  0  0  0  0  0
    1.5584    1.1888   -2.6314 N   0  0  0  0  0  0  0  0  0  0  0  0
    2.8254    1.6604   -3.1395 C   0  0  2  0  0  0  0  0  0  0  0  0
    3.4093    0.5720   -4.0306 C   0  0  0  0  0  0  0  0  0  0  0  0
    3.0898   -0.6116   -3.9407 O   0  0  0  0  0  0  0  0  0  0  0  0
    3.7807    2.0073   -2.0082 C   0  0  0  0  0  0  0  0  0  0  0  0
    0.7077    1.6515   -2.9380 H   0  0  0  0  0  0  0  0  0  0  0  0
    2.6131    2.5509   -3.7411 H   0  0  0  0  0  0  0  0  0  0  0  0
    4.0051    1.1273   -1.3944 H   0  0  0  0  0  0  0  0  0  0  0  0
    4.7304    2.3916   -2.3947 H   0  0  0  0  0  0  0  0  0  0  0  0
    3.3466    2.7688   -1.3513 H   0  0  0  0  0  0  0  0  0  0  0  0
    4.3608    1.0713   -4.9089 N   0  0  0  0  0  0  0  0  0  0  0  0
    5.0687    0.2346   -5.8495 C   0  0  0  0  0  0  0  0  0  0  0  0
    4.5488    2.0693   -4.9274 H   0  0  0  0  0  0  0  0  0  0  0  0
    6.0112   -0.1090   -5.3983 H   0  0  0  0  0  0  0  0  0  0  0  0
    4.4467   -0.6355   -6.1065 H   0  0  0  0  0  0  0  0  0  0  0  0
    5.2873    0.8109   -6.7606 H   0  0  0  0  0  0  0  0  0  0  0  0
  1  3  1  0  0  0  0
  1  7  1  0  0  0  0
  1  2  2  0  0  0  0
 31 32  1  0  0  0  0
 32 40  1  0  0  0  0
 32 33  2  0  0  0  0
  8  9  1  0  0  0  0
  9 17  1  0  0  0  0
  9 10  2  0  0  0  0
 18 19  1  0  0  0  0
 19 30  1  0  0  0  0
 19 20  2  0  0  0  0
 21 22  1  0  0  0  0
 22 23  2  0  0  0  0
 22 24  1  0  0  0  0
 31 34  1  0  0  0  0
  8 11  1  0  0  0  0
 40 41  1  0  0  0  0
 18 21  1  0  0  0  0
 30 31  1  0  0  0  0
  7  8  1  0  0  0  0
 17 18  1  0  0  0  0
  3  4  1  0  0  0  0
  3  5  1  0  0  0  0
  3  6  1  0  0  0  0
 34 37  1  0  0  0  0
 34 38  1  0  0  0  0
 34 39  1  0  0  0  0
 11 14  1  0  0  0  0
 11 15  1  0  0  0  0
 11 16  1  0  0  0  0
 41 43  1  0  0  0  0
 41 44  1  0  0  0  0
 41 45  1  0  0  0  0
 21 27  1  0  0  0  0
 21 28  1  0  0  0  0
 31 36  1  0  0  0  0
  8 13  1  0  0  0  0
 18 26  1  0  0  0  0
 40 42  1  0  0  0  0
  7 12  1  0  0  0  0
 30 35  1  0  0  0  0
 17 25  1  0  0  0  0
 24 29  1  0  0  0  0
M  END
$$$$

  -OEChem-05262214473D

 45 44  0     1  0  0  0  0  0999 V2000
   -2.2987    4.1032   -0.3022 C   0  0  0  0  0  0  0  0  0  0  0  0
   -1.8049    3.7117   -1.3532 O   0  0  0  0  0  0  0  0  0  0  0  0
   -3.0791    5.3755   -0.2846 C   0  0  0  0  0  0  0  0  0  0  0  0
   -2.4478    6.2532   -0.0717 H   0  0  0  0  0  0  0  0  0  0  0  0
   -3.5571    5.5891   -1.2541 H   0  0  0  0  0  0  0  0  0  0  0  0
   -3.8940    5.4184    0.4556 H   0  0  0  0  0  0  0  0  0  0  0  0
   -2.2137    3.4712    0.9275 N   0  0  0  0  0  0  0  0  0  0  0  0
   -1.5102    2.2327    1.1338 C   0  0  2  0  0  0  0  0  0  0  0  0
   -1.3539    1.5497   -0.2184 C   0  0  0  0  0  0  0  0  0  0  0  0
   -2.0852    1.7861   -1.1778 O   0  0  0  0  0  0  0  0  0  0  0  0
   -2.2477    1.3342    2.1145 C   0  0  0  0  0  0  0  0  0  0  0  0
   -2.6724    3.9052    1.7265 H   0  0  0  0  0  0  0  0  0  0  0  0
   -0.5220    2.4922    1.5290 H   0  0  0  0  0  0  0  0  0  0  0  0
   -3.2400    1.0636    1.7358 H   0  0  0  0  0  0  0  0  0  0  0  0
   -1.6970    0.4046    2.2923 H   0  0  0  0  0  0  0  0  0  0  0  0
   -2.3854    1.8384    3.0772 H   0  0  0  0  0  0  0  0  0  0  0  0
   -0.3283    0.6116   -0.2182 N   0  0  0  0  0  0  0  0  0  0  0  0
    0.0090   -0.1762   -1.3759 C   0  0  2  0  0  0  0  0  0  0  0  0
    1.4562    0.1290   -1.7412 C   0  0  0  0  0  0  0  0  0  0  0  0
    2.3765   -0.6630   -1.5488 O   0  0  0  0  0  0  0  0  0  0  0  0
   -0.9199    0.1119   -2.5523 C   0  0  0  0  0  0  0  0  0  0  0  0
   -2.3152   -0.3969   -2.2856 C   0  0  0  0  0  0  0  0  0  0  0  0
   -2.5681   -1.3572   -1.5697 O   0  0  0  0  0  0  0  0  0  0  0  0
   -3.2641    0.3162   -2.9411 O   0  0  0  0  0  0  0  0  0  0  0  0
    0.2381    0.4970    0.6194 H   0  0  0  0  0  0  0  0  0  0  0  0
   -0.0656   -1.2254   -1.0656 H   0  0  0  0  0  0  0  0  0  0  0  0
   -1.0085    1.1908   -2.7319 H   0  0  0  0  0  0  0  0  0  0  0  0
   -0.5484   -0.3146   -3.4920 H   0  0  0  0  0  0  0  0  0  0  0  0
   -4.1847    0.0067   -2.8019 H   0  0  0  0  0  0  0  0  0  0  0  0
    1.5914    1.3688   -2.3501 N   0  0  0  0  0  0  0  0  0  0  0  0
    2.8641    1.8803   -2.8022 C   0  0  2  0  0  0  0  0  0  0  0  0
    3.3322    1.0156   -3.9653 C   0  0  0  0  0  0  0  0  0  0  0  0
    2.9366   -0.1338   -4.1483 O   0  0  0  0  0  0  0  0  0  0  0  0
    3.8899    1.8828   -1.6795 C   0  0  0  0  0  0  0  0  0  0  0  0
    0.7617    1.9395   -2.4831 H   0  0  0  0  0  0  0  0  0  0  0  0
    2.6871    2.9024   -3.1544 H   0  0  0  0  0  0  0  0  0  0  0  0
    4.0803    0.8672   -1.3137 H   0  0  0  0  0  0  0  0  0  0  0  0
    4.8458    2.2974   -2.0163 H   0  0  0  0  0  0  0  0  0  0  0  0
    3.5385    2.4809   -0.8319 H   0  0  0  0  0  0  0  0  0  0  0  0
    4.2760    1.6631   -4.7502 N   0  0  0  0  0  0  0  0  0  0  0  0
    4.8828    1.0472   -5.9072 C   0  0  0  0  0  0  0  0  0  0  0  0
    4.5310    2.6226   -4.5356 H   0  0  0  0  0  0  0  0  0  0  0  0
    5.8185    0.5507   -5.6105 H   0  0  0  0  0  0  0  0  0  0  0  0
    4.1919    0.3037   -6.3313 H   0  0  0  0  0  0  0  0  0  0  0  0
    5.0999    1.8180   -6.6612 H   0  0  0  0  0  0  0  0  0  0  0  0
  1  3  1  0  0  0  0
  1  7  1  0  0  0  0
  1  2  2  0  0  0  0
 31 32  1  0  0  0  0
 32 40  1  0  0  0  0
 32 33  2  0  0  0  0
  8  9  1  0  0  0  0
  9 17  1  0  0  0  0
  9 10  2  0  0  0  0
 18 19  1  0  0  0  0
 19 30  1  0  0  0  0
 19 20  2  0  0  0  0
 21 22  1  0  0  0  0
 22 23  2  0  0  0  0
 22 24  1  0  0  0  0
 31 34  1  0  0  0  0
  8 11  1  0  0  0  0
 40 41  1  0  0  0  0
 18 21  1  0  0  0  0
 30 31  1  0  0  0  0
  7  8  1  0  0  0  0
 17 18  1  0  0  0  0
  3  4  1  0  0  0  0
  3  5  1  0  0  0  0
  3  6  1  0  0  0  0
 34 37  1  0  0  0  0
 34 38  1  0  0  0  0
 34 39  1  0  0  0  0
 11 14  1  0  0  0  0
 11 15  1  0  0  0  0
 11 16  1  0  0  0  0
 41 43  1  0  0  0  0
 41 44  1  0  0  0  0
 41 45  1  0  0  0  0
 21 27  1  0  0  0  0
 21 28  1  0  0  0  0
 31 36  1  0  0  0  0
  8 13  1  0  0  0  0
 18 26  1  0  0  0  0
 40 42  1  0  0  0  0
  7 12  1  0  0  0  0
 30 35  1  0  0  0  0
 17 25  1  0  0  0  0
 24 29  1  0  0  0  0
M  END
$$$$

  -OEChem-05262214473D

 45 44  0     1  0  0  0  0  0999 V2000
   -2.2987    4.1032   -0.3022 C   0  0  0  0  0  0  0  0  0  0  0  0
   -1.8049    3.7117   -1.3532 O   0  0  0  0  0  0  0  0  0  0  0  0
   -3.0791    5.3755   -0.2846 C   0  0  0  0  0  0  0  0  0  0  0  0
   -2.4478    6.2532   -0.0717 H   0  0  0  0  0  0  0  0  0  0  0  0
   -3.5571    5.5891   -1.2541 H   0  0  0  0  0  0  0  0  0  0  0  0
   -3.8940    5.4184    0.4556 H   0  0  0  0  0  0  0  0  0  0  0  0
   -2.2137    3.4712    0.9275 N   0  0  0  0  0  0  0  0  0  0  0  0
   -1.5102    2.2327    1.1338 C   0  0  2  0  0  0  0  0  0  0  0  0
   -1.3539    1.5497   -0.2184 C   0  0  0  0  0  0  0  0  0  0  0  0
   -2.0852    1.7861   -1.1778 O   0  0  0  0  0  0  0  0  0  0  0  0
   -2.2477    1.3342    2.1145 C   0  0  0  0  0  0  0  0  0  0  0  0
   -2.6724    3.9052    1.7265 H   0  0  0  0  0  0  0  0  0  0  0  0
   -0.5220    2.4922    1.5290 H   0  0  0  0  0  0  0  0  0  0  0  0
   -3.2400    1.0636    1.7358 H   0  0  0  0  0  0  0  0  0  0  0  0
   -1.6970    0.4046    2.2923 H   0  0  0  0  0  0  0  0  0  0  0  0
   -2.3854    1.8384    3.0772 H   0  0  0  0  0  0  0  0  0  0  0  0
   -0.3283    0.6116   -0.2182 N   0  0  0  0  0  0  0  0  0  0  0  0
    0.0090   -0.1762   -1.3759 C   0  0  2  0  0  0  0  0  0  0  0  0
    1.4562    0.1290   -1.7412 C   0  0  0  0  0  0  0  0  0  0  0  0
    2.3276   -0.7359   -1.8033 O   0  0  0  0  0  0  0  0  0  0  0  0
   -0.9199    0.1119   -2.5523 C   0  0  0  0  0  0  0  0  0  0  0  0
   -2.3152   -0.3969   -2.2856 C   0  0  0  0  0  0  0  0  0  0  0  0
   -2.5681   -1.3572   -1.5697 O   0  0  0  0  0  0  0  0  0  0  0  0
   -3.2641    0.3162   -2.9411 O   0  0  0  0  0  0  0  0  0  0  0  0
    0.2381    0.4970    0.6194 H   0  0  0  0  0  0  0  0  0  0  0  0
   -0.0656   -1.2254   -1.0656 H   0  0  0  0  0  0  0  0  0  0  0  0
   -1.0085    1.1908   -2.7319 H   0  0  0  0  0  0  0  0  0  0  0  0
   -0.5484   -0.3146   -3.4920 H   0  0  0  0  0  0  0  0  0  0  0  0
   -4.1847    0.0067   -2.8019 H   0  0  0  0  0  0  0  0  0  0  0  0
    1.6491    1.4714   -2.0358 N   0  0  0  0  0  0  0  0  0  0  0  0
    2.9327    2.0074   -2.4244 C   0  0  2  0  0  0  0  0  0  0  0  0
    3.2886    1.4328   -3.7892 C   0  0  0  0  0  0  0  0  0  0  0  0
    2.8076    0.3883   -4.2234 O   0  0  0  0  0  0  0  0  0  0  0  0
    4.0047    1.6749   -1.3983 C   0  0  0  0  0  0  0  0  0  0  0  0
    0.8554    2.1025   -1.9757 H   0  0  0  0  0  0  0  0  0  0  0  0
    2.8108    3.0931   -2.5051 H   0  0  0  0  0  0  0  0  0  0  0  0
    4.1411    0.5914   -1.3036 H   0  0  0  0  0  0  0  0  0  0  0  0
    4.9710    2.1062   -1.6800 H   0  0  0  0  0  0  0  0  0  0  0  0
    3.7329    2.0632   -0.4108 H   0  0  0  0  0  0  0  0  0  0  0  0
    4.2391    2.2009   -4.4471 N   0  0  0  0  0  0  0  0  0  0  0  0
    4.7506    1.8578   -5.7534 C   0  0  0  0  0  0  0  0  0  0  0  0
    4.5685    3.0618   -4.0202 H   0  0  0  0  0  0  0  0  0  0  0  0
    5.6623    1.2522   -5.6433 H   0  0  0  0  0  0  0  0  0  0  0  0
    3.9924    1.2820   -6.3043 H   0  0  0  0  0  0  0  0  0  0  0  0
    4.9866    2.7780   -6.3080 H   0  0  0  0  0  0  0  0  0  0  0  0
  1  3  1  0  0  0  0
  1  7  1  0  0  0  0
  1  2  2  0  0  0  0
 31 32  1  0  0  0  0
 32 40  1  0  0  0  0
 32 33  2  0  0  0  0
  8  9  1  0  0  0  0
  9 17  1  0  0  0  0
  9 10  2  0  0  0  0
 18 19  1  0  0  0  0
 19 30  1  0  0  0  0
 19 20  2  0  0  0  0
 21 22  1  0  0  0  0
 22 23  2  0  0  0  0
 22 24  1  0  0  0  0
 31 34  1  0  0  0  0
  8 11  1  0  0  0  0
 40 41  1  0  0  0  0
 18 21  1  0  0  0  0
 30 31  1  0  0  0  0
  7  8  1  0  0  0  0
 17 18  1  0  0  0  0
  3  4  1  0  0  0  0
  3  5  1  0  0  0  0
  3  6  1  0  0  0  0
 34 37  1  0  0  0  0
 34 38  1  0  0  0  0
 34 39  1  0  0  0  0
 11 14  1  0  0  0  0
 11 15  1  0  0  0  0
 11 16  1  0  0  0  0
 41 43  1  0  0  0  0
 41 44  1  0  0  0  0
 41 45  1  0  0  0  0
 21 27  1  0  0  0  0
 21 28  1  0  0  0  0
 31 36  1  0  0  0  0
  8 13  1  0  0  0  0
 18 26  1  0  0  0  0
 40 42  1  0  0  0  0
  7 12  1  0  0  0  0
 30 35  1  0  0  0  0
 17 25  1  0  0  0  0
 24 29  1  0  0  0  0
M  END
$$$$

  -OEChem-05262214473D

 45 44  0     1  0  0  0  0  0999 V2000
   -2.2987    4.1032   -0.3022 C   0  0  0  0  0  0  0  0  0  0  0  0
   -1.8049    3.7117   -1.3532 O   0  0  0  0  0  0  0  0  0  0  0  0
   -3.0791    5.3755   -0.2846 C   0  0  0  0  0  0  0  0  0  0  0  0
   -2.4478    6.2532   -0.0717 H   0  0  0  0  0  0  0  0  0  0  0  0
   -3.5571    5.5891   -1.2541 H   0  0  0  0  0  0  0  0  0  0  0  0
   -3.8940    5.4184    0.4556 H   0  0  0  0  0  0  0  0  0  0  0  0
   -2.2137    3.4712    0.9275 N   0  0  0  0  0  0  0  0  0  0  0  0
   -1.5102    2.2327    1.1338 C   0  0  2  0  0  0  0  0  0  0  0  0
   -1.3539    1.5497   -0.2184 C   0  0  0  0  0  0  0  0  0  0  0  0
   -2.0852    1.7861   -1.1778 O   0  0  0  0  0  0  0  0  0  0  0  0
   -2.2477    1.3342    2.1145 C   0  0  0  0  0  0  0  0  0  0  0  0
   -2.6724    3.9052    1.7265 H   0  0  0  0  0  0  0  0  0  0  0  0
   -0.5220    2.4922    1.5290 H   0  0  0  0  0  0  0  0  0  0  0  0
   -3.2400    1.0636    1.7358 H   0  0  0  0  0  0  0  0  0  0  0  0
   -1.6970    0.4046    2.2923 H   0  0  0  0  0  0  0  0  0  0  0  0
   -2.3854    1.8384    3.0772 H   0  0  0  0  0  0  0  0  0  0  0  0
   -0.3283    0.6116   -0.2182 N   0  0  0  0  0  0  0  0  0  0  0  0
    0.0090   -0.1762   -1.3759 C   0  0  2  0  0  0  0  0  0  0  0  0
    1.4562    0.1290   -1.7412 C   0  0  0  0  0  0  0  0  0  0  0  0
    2.2627   -0.7406   -2.0645 O   0  0  0  0  0  0  0  0  0  0  0  0
   -0.9199    0.1119   -2.5523 C   0  0  0  0  0  0  0  0  0  0  0  0
   -2.3152   -0.3969   -2.2856 C   0  0  0  0  0  0  0  0  0  0  0  0
   -2.5681   -1.3572   -1.5697 O   0  0  0  0  0  0  0  0  0  0  0  0
   -3.2641    0.3162   -2.9411 O   0  0  0  0  0  0  0  0  0  0  0  0
    0.2381    0.4970    0.6194 H   0  0  0  0  0  0  0  0  0  0  0  0
   -0.0656   -1.2254   -1.0656 H   0  0  0  0  0  0  0  0  0  0  0  0
   -1.0085    1.1908   -2.7319 H   0  0  0  0  0  0  0  0  0  0  0  0
   -0.5484   -0.3146   -3.4920 H   0  0  0  0  0  0  0  0  0  0  0  0
   -4.1847    0.0067   -2.8019 H   0  0  0  0  0  0  0  0  0  0  0  0
    1.7275    1.4897   -1.7100 N   0  0  0  0  0  0  0  0  0  0  0  0
    3.0264    2.0330   -2.0317 C   0  0  2  0  0  0  0  0  0  0  0  0
    3.2816    1.7952   -3.5142 C   0  0  0  0  0  0  0  0  0  0  0  0
    2.7114    0.9191   -4.1609 O   0  0  0  0  0  0  0  0  0  0  0  0
    4.1174    1.3979   -1.1837 C   0  0  0  0  0  0  0  0  0  0  0  0
    0.9823    2.1294   -1.4504 H   0  0  0  0  0  0  0  0  0  0  0  0
    2.9758    3.1099   -1.8374 H   0  0  0  0  0  0  0  0  0  0  0  0
    4.1831    0.3188   -1.3648 H   0  0  0  0  0  0  0  0  0  0  0  0
    5.0975    1.8311   -1.4086 H   0  0  0  0  0  0  0  0  0  0  0  0
    3.9165    1.5442   -0.1169 H   0  0  0  0  0  0  0  0  0  0  0  0
    4.2525    2.6482   -4.0201 N   0  0  0  0  0  0  0  0  0  0  0  0
    4.6812    2.6112   -5.3988 C   0  0  0  0  0  0  0  0  0  0  0  0
    4.6587    3.3569   -3.4163 H   0  0  0  0  0  0  0  0  0  0  0  0
    5.5532    1.9475   -5.4945 H   0  0  0  0  0  0  0  0  0  0  0  0
    3.8617    2.2327   -6.0274 H   0  0  0  0  0  0  0  0  0  0  0  0
    4.9551    3.6254   -5.7248 H   0  0  0  0  0  0  0  0  0  0  0  0
  1  3  1  0  0  0  0
  1  7  1  0  0  0  0
  1  2  2  0  0  0  0
 31 32  1  0  0  0  0
 32 40  1  0  0  0  0
 32 33  2  0  0  0  0
  8  9  1  0  0  0  0
  9 17  1  0  0  0  0
  9 10  2  0  0  0  0
 18 19  1  0  0  0  0
 19 30  1  0  0  0  0
 19 20  2  0  0  0  0
 21 22  1  0  0  0  0
 22 23  2  0  0  0  0
 22 24  1  0  0  0  0
 31 34  1  0  0  0  0
  8 11  1  0  0  0  0
 40 41  1  0  0  0  0
 18 21  1  0  0  0  0
 30 31  1  0  0  0  0
  7  8  1  0  0  0  0
 17 18  1  0  0  0  0
  3  4  1  0  0  0  0
  3  5  1  0  0  0  0
  3  6  1  0  0  0  0
 34 37  1  0  0  0  0
 34 38  1  0  0  0  0
 34 39  1  0  0  0  0
 11 14  1  0  0  0  0
 11 15  1  0  0  0  0
 11 16  1  0  0  0  0
 41 43  1  0  0  0  0
 41 44  1  0  0  0  0
 41 45  1  0  0  0  0
 21 27  1  0  0  0  0
 21 28  1  0  0  0  0
 31 36  1  0  0  0  0
  8 13  1  0  0  0  0
 18 26  1  0  0  0  0
 40 42  1  0  0  0  0
  7 12  1  0  0  0  0
 30 35  1  0  0  0  0
 17 25  1  0  0  0  0
 24 29  1  0  0  0  0
M  END
$$$$

  -OEChem-05262214473D

 45 44  0     1  0  0  0  0  0999 V2000
   -2.2987    4.1032   -0.3022 C   0  0  0  0  0  0  0  0  0  0  0  0
   -1.8049    3.7117   -1.3532 O   0  0  0  0  0  0  0  0  0  0  0  0
   -3.0791    5.3755   -0.2846 C   0  0  0  0  0  0  0  0  0  0  0  0
   -2.4478    6.2532   -0.0717 H   0  0  0  0  0  0  0  0  0  0  0  0
   -3.5571    5.5891   -1.2541 H   0  0  0  0  0  0  0  0  0  0  0  0
   -3.8940    5.4184    0.4556 H   0  0  0  0  0  0  0  0  0  0  0  0
   -2.2137    3.4712    0.9275 N   0  0  0  0  0  0  0  0  0  0  0  0
   -1.5102    2.2327    1.1338 C   0  0  2  0  0  0  0  0  0  0  0  0
   -1.3539    1.5497   -0.2184 C   0  0  0  0  0  0  0  0  0  0  0  0
   -2.0852    1.7861   -1.1778 O   0  0  0  0  0  0  0  0  0  0  0  0
   -2.2477    1.3342    2.1145 C   0  0  0  0  0  0  0  0  0  0  0  0
   -2.6724    3.9052    1.7265 H   0  0  0  0  0  0  0  0  0  0  0  0
   -0.5220    2.4922    1.5290 H   0  0  0  0  0  0  0  0  0  0  0  0
   -3.2400    1.0636    1.7358 H   0  0  0  0  0  0  0  0  0  0  0  0
   -1.6970    0.4046    2.2923 H   0  0  0  0  0  0  0  0  0  0  0  0
   -2.3854    1.8384    3.0772 H   0  0  0  0  0  0  0  0  0  0  0  0
   -0.3283    0.6116   -0.2182 N   0  0  0  0  0  0  0  0  0  0  0  0
    0.0090   -0.1762   -1.3759 C   0  0  2  0  0  0  0  0  0  0  0  0
    1.4562    0.1290   -1.7412 C   0  0  0  0  0  0  0  0  0  0  0  0
    2.1861   -0.6770   -2.3145 O   0  0  0  0  0  0  0  0  0  0  0  0
   -0.9199    0.1119   -2.5523 C   0  0  0  0  0  0  0  0  0  0  0  0
   -2.3152   -0.3969   -2.2856 C   0  0  0  0  0  0  0  0  0  0  0  0
   -2.5681   -1.3572   -1.5697 O   0  0  0  0  0  0  0  0  0  0  0  0
   -3.2641    0.3162   -2.9411 O   0  0  0  0  0  0  0  0  0  0  0  0
    0.2381    0.4970    0.6194 H   0  0  0  0  0  0  0  0  0  0  0  0
   -0.0656   -1.2254   -1.0656 H   0  0  0  0  0  0  0  0  0  0  0  0
   -1.0085    1.1908   -2.7319 H   0  0  0  0  0  0  0  0  0  0  0  0
   -0.5484   -0.3146   -3.4920 H   0  0  0  0  0  0  0  0  0  0  0  0
   -4.1847    0.0067   -2.8019 H   0  0  0  0  0  0  0  0  0  0  0  0
    1.8212    1.4224   -1.3949 N   0  0  0  0  0  0  0  0  0  0  0  0
    3.1389    1.9554   -1.6510 C   0  0  2  0  0  0  0  0  0  0  0  0
    3.3116    2.0781   -3.1592 C   0  0  0  0  0  0  0  0  0  0  0  0
    2.6547    1.4223   -3.9651 O   0  0  0  0  0  0  0  0  0  0  0  0
    4.2201    1.0705   -1.0504 C   0  0  0  0  0  0  0  0  0  0  0  0
    1.1339    2.0184   -0.9430 H   0  0  0  0  0  0  0  0  0  0  0  0
    3.1708    2.9518   -1.1969 H   0  0  0  0  0  0  0  0  0  0  0  0
    4.2037    0.0679   -1.4931 H   0  0  0  0  0  0  0  0  0  0  0  0
    5.2168    1.4907   -1.2207 H   0  0  0  0  0  0  0  0  0  0  0  0
    4.0770    0.9592    0.0299 H   0  0  0  0  0  0  0  0  0  0  0  0
    4.3154    2.9744   -3.4983 N   0  0  0  0  0  0  0  0  0  0  0  0
    4.6794    3.2560   -4.8674 C   0  0  0  0  0  0  0  0  0  0  0  0
    4.7954    3.4880   -2.7651 H   0  0  0  0  0  0  0  0  0  0  0  0
    5.4987    2.5892   -5.1741 H   0  0  0  0  0  0  0  0  0  0  0  0
    3.8089    3.0910   -5.5194 H   0  0  0  0  0  0  0  0  0  0  0  0
    5.0074    4.3026   -4.9516 H   0  0  0  0  0  0  0  0  0  0  0  0
  1  3  1  0  0  0  0
  1  7  1  0  0  0  0
  1  2  2  0  0  0  0
 31 32  1  0  0  0  0
 32 40  1  0  0  0  0
 32 33  2  0  0  0  0
  8  9  1  0  0  0  0
  9 17  1  0  0  0  0
  9 10  2  0  0  0  0
 18 19  1  0  0  0  0
 19 30  1  0  0  0  0
 19 20  2  0  0  0  0
 21 22  1  0  0  0  0
 22 23  2  0  0  0  0
 22 24  1  0  0  0  0
 31 34  1  0  0  0  0
  8 11  1  0  0  0  0
 40 41  1  0  0  0  0
 18 21  1  0  0  0  0
 30 31  1  0  0  0  0
  7  8  1  0  0  0  0
 17 18  1  0  0  0  0
  3  4  1  0  0  0  0
  3  5  1  0  0  0  0
  3  6  1  0  0  0  0
 34 37  1  0  0  0  0
 34 38  1  0  0  0  0
 34 39  1  0  0  0  0
 11 14  1  0  0  0  0
 11 15  1  0  0  0  0
 11 16  1  0  0  0  0
 41 43  1  0  0  0  0
 41 44  1  0  0  0  0
 41 45  1  0  0  0  0
 21 27  1  0  0  0  0
 21 28  1  0  0  0  0
 31 36  1  0  0  0  0
  8 13  1  0  0  0  0
 18 26  1  0  0  0  0
 40 42  1  0  0  0  0
  7 12  1  0  0  0  0
 30 35  1  0  0  0  0
 17 25  1  0  0  0  0
 24 29  1  0  0  0  0
M  END
$$$$

  -OEChem-05262214473D

 45 44  0     1  0  0  0  0  0999 V2000
   -2.2987    4.1032   -0.3022 C   0  0  0  0  0  0  0  0  0  0  0  0
   -1.8049    3.7117   -1.3532 O   0  0  0  0  0  0  0  0  0  0  0  0
   -3.0791    5.3755   -0.2846 C   0  0  0  0  0  0  0  0  0  0  0  0
   -2.4478    6.2532   -0.0717 H   0  0  0  0  0  0  0  0  0  0  0  0
   -3.5571    5.5891   -1.2541 H   0  0  0  0  0  0  0  0  0  0  0  0
   -3.8940    5.4184    0.4556 H   0  0  0  0  0  0  0  0  0  0  0  0
   -2.2137    3.4712    0.9275 N   0  0  0  0  0  0  0  0  0  0  0  0
   -1.5102    2.2327    1.1338 C   0  0  2  0  0  0  0  0  0  0  0  0
   -1.3539    1.5497   -0.2184 C   0  0  0  0  0  0  0  0  0  0  0  0
   -2.0852    1.7861   -1.1778 O   0  0  0  0  0  0  0  0  0  0  0  0
   -2.2477    1.3342    2.1145 C   0  0  0  0  0  0  0  0  0  0  0  0
   -2.6724    3.9052    1.7265 H   0  0  0  0  0  0  0  0  0  0  0  0
   -0.5220    2.4922    1.5290 H   0  0  0  0  0  0  0  0  0  0  0  0
   -3.2400    1.0636    1.7358 H   0  0  0  0  0  0  0  0  0  0  0  0
   -1.6970    0.4046    2.2923 H   0  0  0  0  0  0  0  0  0  0  0  0
   -2.3854    1.8384    3.0772 H   0  0  0  0  0  0  0  0  0  0  0  0
   -0.3283    0.6116   -0.2182 N   0  0  0  0  0  0  0  0  0  0  0  0
    0.0090   -0.1762   -1.3759 C   0  0  2  0  0  0  0  0  0  0  0  0
    1.4562    0.1290   -1.7412 C   0  0  0  0  0  0  0  0  0  0  0  0
    2.1032   -0.5493   -2.5365 O   0  0  0  0  0  0  0  0  0  0  0  0
   -0.9199    0.1119   -2.5523 C   0  0  0  0  0  0  0  0  0  0  0  0
   -2.3152   -0.3969   -2.2856 C   0  0  0  0  0  0  0  0  0  0  0  0
   -2.5681   -1.3572   -1.5697 O   0  0  0  0  0  0  0  0  0  0  0  0
   -3.2641    0.3162   -2.9411 O   0  0  0  0  0  0  0  0  0  0  0  0
    0.2381    0.4970    0.6194 H   0  0  0  0  0  0  0  0  0  0  0  0
   -0.0656   -1.2254   -1.0656 H   0  0  0  0  0  0  0  0  0  0  0  0
   -1.0085    1.1908   -2.7319 H   0  0  0  0  0  0  0  0  0  0  0  0
   -0.5484   -0.3146   -3.4920 H   0  0  0  0  0  0  0  0  0  0  0  0
   -4.1847    0.0067   -2.8019 H   0  0  0  0  0  0  0  0  0  0  0  0
    1.9239    1.2741   -1.1119 N   0  0  0  0  0  0  0  0  0  0  0  0
    3.2625    1.7798   -1.3082 C   0  0  2  0  0  0  0  0  0  0  0  0
    3.3765    2.2622   -2.7482 C   0  0  0  0  0  0  0  0  0  0  0  0
    2.6412    1.8639   -3.6493 O   0  0  0  0  0  0  0  0  0  0  0  0
    4.3059    0.7151   -1.0074 C   0  0  0  0  0  0  0  0  0  0  0  0
    1.2996    1.7769   -0.4880 H   0  0  0  0  0  0  0  0  0  0  0  0
    3.3826    2.6295   -0.6272 H   0  0  0  0  0  0  0  0  0  0  0  0
    4.2013   -0.1442   -1.6798 H   0  0  0  0  0  0  0  0  0  0  0  0
    5.3205    1.1084   -1.1291 H   0  0  0  0  0  0  0  0  0  0  0  0
    4.2033    0.3480    0.0195 H   0  0  0  0  0  0  0  0  0  0  0  0
    4.4235    3.1574   -2.9175 N   0  0  0  0  0  0  0  0  0  0  0  0
    4.7451    3.7483   -4.1955 C   0  0  0  0  0  0  0  0  0  0  0  0
    4.9694    3.4460   -2.1110 H   0  0  0  0  0  0  0  0  0  0  0  0
    5.5025    3.1337   -4.7040 H   0  0  0  0  0  0  0  0  0  0  0  0
    3.8375    3.7985   -4.8149 H   0  0  0  0  0  0  0  0  0  0  0  0
    5.1401    4.7633   -4.0409 H   0  0  0  0  0  0  0  0  0  0  0  0
  1  3  1  0  0  0  0
  1  7  1  0  0  0  0
  1  2  2  0  0  0  0
 31 32  1  0  0  0  0
 32 40  1  0  0  0  0
 32 33  2  0  0  0  0
  8  9  1  0  0  0  0
  9 17  1  0  0  0  0
  9 10  2  0  0  0  0
 18 19  1  0  0  0  0
 19 30  1  0  0  0  0
 19 20  2  0  0  0  0
 21 22  1  0  0  0  0
 22 23  2  0  0  0  0
 22 24  1  0  0  0  0
 31 34  1  0  0  0  0
  8 11  1  0  0  0  0
 40 41  1  0  0  0  0
 18 21  1  0  0  0  0
 30 31  1  0  0  0  0
  7  8  1  0  0  0  0
 17 18  1  0  0  0  0
  3  4  1  0  0  0  0
  3  5  1  0  0  0  0
  3  6  1  0  0  0  0
 34 37  1  0  0  0  0
 34 38  1  0  0  0  0
 34 39  1  0  0  0  0
 11 14  1  0  0  0  0
 11 15  1  0  0  0  0
 11 16  1  0  0  0  0
 41 43  1  0  0  0  0
 41 44  1  0  0  0  0
 41 45  1  0  0  0  0
 21 27  1  0  0  0  0
 21 28  1  0  0  0  0
 31 36  1  0  0  0  0
  8 13  1  0  0  0  0
 18 26  1  0  0  0  0
 40 42  1  0  0  0  0
  7 12  1  0  0  0  0
 30 35  1  0  0  0  0
 17 25  1  0  0  0  0
 24 29  1  0  0  0  0
M  END
$$$$

  -OEChem-05262214473D

 45 44  0     1  0  0  0  0  0999 V2000
   -2.2987    4.1032   -0.3022 C   0  0  0  0  0  0  0  0  0  0  0  0
   -1.8049    3.7117   -1.3532 O   0  0  0  0  0  0  0  0  0  0  0  0
   -3.0791    5.3755   -0.2846 C   0  0  0  0  0  0  0  0  0  0  0  0
   -2.4478    6.2532   -0.0717 H   0  0  0  0  0  0  0  0  0  0  0  0
   -3.5571    5.5891   -1.2541 H   0  0  0  0  0  0  0  0  0  0  0  0
   -3.8940    5.4184    0.4556 H   0  0  0  0  0  0  0  0  0  0  0  0
   -2.2137    3.4712    0.9275 N   0  0  0  0  0  0  0  0  0  0  0  0
   -1.5102    2.2327    1.1338 C   0  0  2  0  0  0  0  0  0  0  0  0
   -1.3539    1.5497   -0.2184 C   0  0  0  0  0  0  0  0  0  0  0  0
   -2.0852    1.7861   -1.1778 O   0  0  0  0  0  0  0  0  0  0  0  0
   -2.2477    1.3342    2.1145 C   0  0  0  0  0  0  0  0  0  0  0  0
   -2.6724    3.9052    1.7265 H   0  0  0  0  0  0  0  0  0  0  0  0
   -0.5220    2.4922    1.5290 H   0  0  0  0  0  0  0  0  0  0  0  0
   -3.2400    1.0636    1.7358 H   0  0  0  0  0  0  0  0  0  0  0  0
   -1.6970    0.4046    2.2923 H   0  0  0  0  0  0  0  0  0  0  0  0
   -2.3854    1.8384    3.0772 H   0  0  0  0  0  0  0  0  0  0  0  0
   -0.3283    0.6116   -0.2182 N   0  0  0  0  0  0  0  0  0  0  0  0
    0.0090   -0.1762   -1.3759 C   0  0  2  0  0  0  0  0  0  0  0  0
    1.4562    0.1290   -1.7412 C   0  0  0  0  0  0  0  0  0  0  0  0
    2.0195   -0.3662   -2.7152 O   0  0  0  0  0  0  0  0  0  0  0  0
   -0.9199    0.1119   -2.5523 C   0  0  0  0  0  0  0  0  0  0  0  0
   -2.3152   -0.3969   -2.2856 C   0  0  0  0  0  0  0  0  0  0  0  0
   -2.5681   -1.3572   -1.5697 O   0  0  0  0  0  0  0  0  0  0  0  0
   -3.2641    0.3162   -2.9411 O   0  0  0  0  0  0  0  0  0  0  0  0
    0.2381    0.4970    0.6194 H   0  0  0  0  0  0  0  0  0  0  0  0
   -0.0656   -1.2254   -1.0656 H   0  0  0  0  0  0  0  0  0  0  0  0
   -1.0085    1.1908   -2.7319 H   0  0  0  0  0  0  0  0  0  0  0  0
   -0.5484   -0.3146   -3.4920 H   0  0  0  0  0  0  0  0  0  0  0  0
   -4.1847    0.0067   -2.8019 H   0  0  0  0  0  0  0  0  0  0  0  0
    2.0286    1.0549   -0.8803 N   0  0  0  0  0  0  0  0  0  0  0  0
    3.3887    1.5183   -1.0266 C   0  0  2  0  0  0  0  0  0  0  0  0
    3.4719    2.3350   -2.3094 C   0  0  0  0  0  0  0  0  0  0  0  0
    2.6721    2.2135   -3.2350 O   0  0  0  0  0  0  0  0  0  0  0  0
    4.3689    0.3560   -1.0577 C   0  0  0  0  0  0  0  0  0  0  0  0
    1.4684    1.4216   -0.1164 H   0  0  0  0  0  0  0  0  0  0  0  0
    3.5967    2.1649   -0.1672 H   0  0  0  0  0  0  0  0  0  0  0  0
    4.1761   -0.3030   -1.9121 H   0  0  0  0  0  0  0  0  0  0  0  0
    5.4018    0.7101   -1.1399 H   0  0  0  0  0  0  0  0  0  0  0  0
    4.2868   -0.2475   -0.1473 H   0  0  0  0  0  0  0  0  0  0  0  0
    4.5693    3.1845   -2.3170 N   0  0  0  0  0  0  0  0  0  0  0  0
    4.8740    4.0546   -3.4288 C   0  0  0  0  0  0  0  0  0  0  0  0
    5.1688    3.2338   -1.4985 H   0  0  0  0  0  0  0  0  0  0  0  0
    5.5644    3.5439   -4.1163 H   0  0  0  0  0  0  0  0  0  0  0  0
    3.9456    4.3068   -3.9620 H   0  0  0  0  0  0  0  0  0  0  0  0
    5.3441    4.9762   -3.0549 H   0  0  0  0  0  0  0  0  0  0  0  0
  1  3  1  0  0  0  0
  1  7  1  0  0  0  0
  1  2  2  0  0  0  0
 31 32  1  0  0  0  0
 32 40  1  0  0  0  0
 32 33  2  0  0  0  0
  8  9  1  0  0  0  0
  9 17  1  0  0  0  0
  9 10  2  0  0  0  0
 18 19  1  0  0  0  0
 19 30  1  0  0  0  0
 19 20  2  0  0  0  0
 21 22  1  0  0  0  0
 22 23  2  0  0  0  0
 22 24  1  0  0  0  0
 31 34  1  0  0  0  0
  8 11  1  0  0  0  0
 40 41  1  0  0  0  0
 18 21  1  0  0  0  0
 30 31  1  0  0  0  0
  7  8  1  0  0  0  0
 17 18  1  0  0  0  0
  3  4  1  0  0  0  0
  3  5  1  0  0  0  0
  3  6  1  0  0  0  0
 34 37  1  0  0  0  0
 34 38  1  0  0  0  0
 34 39  1  0  0  0  0
 11 14  1  0  0  0  0
 11 15  1  0  0  0  0
 11 16  1  0  0  0  0
 41 43  1  0  0  0  0
 41 44  1  0  0  0  0
 41 45  1  0  0  0  0
 21 27  1  0  0  0  0
 21 28  1  0  0  0  0
 31 36  1  0  0  0  0
  8 13  1  0  0  0  0
 18 26  1  0  0  0  0
 40 42  1  0  0  0  0
  7 12  1  0  0  0  0
 30 35  1  0  0  0  0
 17 25  1  0  0  0  0
 24 29  1  0  0  0  0
M  END
$$$$

  -OEChem-05262214473D

 45 44  0     1  0  0  0  0  0999 V2000
   -2.2987    4.1032   -0.3022 C   0  0  0  0  0  0  0  0  0  0  0  0
   -1.8049    3.7117   -1.3532 O   0  0  0  0  0  0  0  0  0  0  0  0
   -3.0791    5.3755   -0.2846 C   0  0  0  0  0  0  0  0  0  0  0  0
   -2.4478    6.2532   -0.0717 H   0  0  0  0  0  0  0  0  0  0  0  0
   -3.5571    5.5891   -1.2541 H   0  0  0  0  0  0  0  0  0  0  0  0
   -3.8940    5.4184    0.4556 H   0  0  0  0  0  0  0  0  0  0  0  0
   -2.2137    3.4712    0.9275 N   0  0  0  0  0  0  0  0  0  0  0  0
   -1.5102    2.2327    1.1338 C   0  0  2  0  0  0  0  0  0  0  0  0
   -1.3539    1.5497   -0.2184 C   0  0  0  0  0  0  0  0  0  0  0  0
   -2.0852    1.7861   -1.1778 O   0  0  0  0  0  0  0  0  0  0  0  0
   -2.2477    1.3342    2.1145 C   0  0  0  0  0  0  0  0  0  0  0  0
   -2.6724    3.9052    1.7265 H   0  0  0  0  0  0  0  0  0  0  0  0
   -0.5220    2.4922    1.5290 H   0  0  0  0  0  0  0  0  0  0  0  0
   -3.2400    1.0636    1.7358 H   0  0  0  0  0  0  0  0  0  0  0  0
   -1.6970    0.4046    2.2923 H   0  0  0  0  0  0  0  0  0  0  0  0
   -2.3854    1.8384    3.0772 H   0  0  0  0  0  0  0  0  0  0  0  0
   -0.3283    0.6116   -0.2182 N   0  0  0  0  0  0  0  0  0  0  0  0
    0.0090   -0.1762   -1.3759 C   0  0  2  0  0  0  0  0  0  0  0  0
    1.4562    0.1290   -1.7412 C   0  0  0  0  0  0  0  0  0  0  0  0
    1.9407   -0.1403   -2.8384 O   0  0  0  0  0  0  0  0  0  0  0  0
   -0.9199    0.1119   -2.5523 C   0  0  0  0  0  0  0  0  0  0  0  0
   -2.3152   -0.3969   -2.2856 C   0  0  0  0  0  0  0  0  0  0  0  0
   -2.5681   -1.3572   -1.5697 O   0  0  0  0  0  0  0  0  0  0  0  0
   -3.2641    0.3162   -2.9411 O   0  0  0  0  0  0  0  0  0  0  0  0
    0.2381    0.4970    0.6194 H   0  0  0  0  0  0  0  0  0  0  0  0
   -0.0656   -1.2254   -1.0656 H   0  0  0  0  0  0  0  0  0  0  0  0
   -1.0085    1.1908   -2.7319 H   0  0  0  0  0  0  0  0  0  0  0  0
   -0.5484   -0.3146   -3.4920 H   0  0  0  0  0  0  0  0  0  0  0  0
   -4.1847    0.0067   -2.8019 H   0  0  0  0  0  0  0  0  0  0  0  0
    2.1281    0.7798   -0.7159 N   0  0  0  0  0  0  0  0  0  0  0  0
    3.5090    1.1886   -0.8255 C   0  0  2  0  0  0  0  0  0  0  0  0
    3.5913    2.2914   -1.8726 C   0  0  0  0  0  0  0  0  0  0  0  0
    2.7450    2.4475   -2.7504 O   0  0  0  0  0  0  0  0  0  0  0  0
    4.4049    0.0175   -1.1979 C   0  0  0  0  0  0  0  0  0  0  0  0
    1.6286    0.9765    0.1464 H   0  0  0  0  0  0  0  0  0  0  0  0
    3.7985    1.5898    0.1519 H   0  0  0  0  0  0  0  0  0  0  0  0
    4.1299   -0.3977   -2.1743 H   0  0  0  0  0  0  0  0  0  0  0  0
    5.4550    0.3230   -1.2525 H   0  0  0  0  0  0  0  0  0  0  0  0
    4.3218   -0.7870   -0.4592 H   0  0  0  0  0  0  0  0  0  0  0  0
    4.7430    3.0541   -1.7379 N   0  0  0  0  0  0  0  0  0  0  0  0
    5.0573    4.1539   -2.6196 C   0  0  0  0  0  0  0  0  0  0  0  0
    5.3799    2.8658   -0.9694 H   0  0  0  0  0  0  0  0  0  0  0  0
    5.6800    3.7917   -3.4509 H   0  0  0  0  0  0  0  0  0  0  0  0
    4.1257    4.5815   -3.0188 H   0  0  0  0  0  0  0  0  0  0  0  0
    5.6055    4.9267   -2.0607 H   0  0  0  0  0  0  0  0  0  0  0  0
  1  3  1  0  0  0  0
  1  7  1  0  0  0  0
  1  2  2  0  0  0  0
 31 32  1  0  0  0  0
 32 40  1  0  0  0  0
 32 33  2  0  0  0  0
  8  9  1  0  0  0  0
  9 17  1  0  0  0  0
  9 10  2  0  0  0  0
 18 19  1  0  0  0  0
 19 30  1  0  0  0  0
 19 20  2  0  0  0  0
 21 22  1  0  0  0  0
 22 23  2  0  0  0  0
 22 24  1  0  0  0  0
 31 34  1  0  0  0  0
  8 11  1  0  0  0  0
 40 41  1  0  0  0  0
 18 21  1  0  0  0  0
 30 31  1  0  0  0  0
  7  8  1  0  0  0  0
 17 18  1  0  0  0  0
  3  4  1  0  0  0  0
  3  5  1  0  0  0  0
  3  6  1  0  0  0  0
 34 37  1  0  0  0  0
 34 38  1  0  0  0  0
 34 39  1  0  0  0  0
 11 14  1  0  0  0  0
 11 15  1  0  0  0  0
 11 16  1  0  0  0  0
 41 43  1  0  0  0  0
 41 44  1  0  0  0  0
 41 45  1  0  0  0  0
 21 27  1  0  0  0  0
 21 28  1  0  0  0  0
 31 36  1  0  0  0  0
  8 13  1  0  0  0  0
 18 26  1  0  0  0  0
 40 42  1  0  0  0  0
  7 12  1  0  0  0  0
 30 35  1  0  0  0  0
 17 25  1  0  0  0  0
 24 29  1  0  0  0  0
M  END
$$$$

  -OEChem-05262214473D

 45 44  0     1  0  0  0  0  0999 V2000
   -2.2987    4.1032   -0.3022 C   0  0  0  0  0  0  0  0  0  0  0  0
   -1.8049    3.7117   -1.3532 O   0  0  0  0  0  0  0  0  0  0  0  0
   -3.0791    5.3755   -0.2846 C   0  0  0  0  0  0  0  0  0  0  0  0
   -2.4478    6.2532   -0.0717 H   0  0  0  0  0  0  0  0  0  0  0  0
   -3.5571    5.5891   -1.2541 H   0  0  0  0  0  0  0  0  0  0  0  0
   -3.8940    5.4184    0.4556 H   0  0  0  0  0  0  0  0  0  0  0  0
   -2.2137    3.4712    0.9275 N   0  0  0  0  0  0  0  0  0  0  0  0
   -1.5102    2.2327    1.1338 C   0  0  2  0  0  0  0  0  0  0  0  0
   -1.3539    1.5497   -0.2184 C   0  0  0  0  0  0  0  0  0  0  0  0
   -2.0852    1.7861   -1.1778 O   0  0  0  0  0  0  0  0  0  0  0  0
   -2.2477    1.3342    2.1145 C   0  0  0  0  0  0  0  0  0  0  0  0
   -2.6724    3.9052    1.7265 H   0  0  0  0  0  0  0  0  0  0  0  0
   -0.5220    2.4922    1.5290 H   0  0  0  0  0  0  0  0  0  0  0  0
   -3.2400    1.0636    1.7358 H   0  0  0  0  0  0  0  0  0  0  0  0
   -1.6970    0.4046    2.2923 H   0  0  0  0  0  0  0  0  0  0  0  0
   -2.3854    1.8384    3.0772 H   0  0  0  0  0  0  0  0  0  0  0  0
   -0.3283    0.6116   -0.2182 N   0  0  0  0  0  0  0  0  0  0  0  0
    0.0090   -0.1762   -1.3759 C   0  0  2  0  0  0  0  0  0  0  0  0
    1.4562    0.1290   -1.7412 C   0  0  0  0  0  0  0  0  0  0  0  0
    1.8722    0.1132   -2.8978 O   0  0  0  0  0  0  0  0  0  0  0  0
   -0.9199    0.1119   -2.5523 C   0  0  0  0  0  0  0  0  0  0  0  0
   -2.3152   -0.3969   -2.2856 C   0  0  0  0  0  0  0  0  0  0  0  0
   -2.5681   -1.3572   -1.5697 O   0  0  0  0  0  0  0  0  0  0  0  0
   -3.2641    0.3162   -2.9411 O   0  0  0  0  0  0  0  0  0  0  0  0
    0.2381    0.4970    0.6194 H   0  0  0  0  0  0  0  0  0  0  0  0
   -0.0656   -1.2254   -1.0656 H   0  0  0  0  0  0  0  0  0  0  0  0
   -1.0085    1.1908   -2.7319 H   0  0  0  0  0  0  0  0  0  0  0  0
   -0.5484   -0.3146   -3.4920 H   0  0  0  0  0  0  0  0  0  0  0  0
   -4.1847    0.0067   -2.8019 H   0  0  0  0  0  0  0  0  0  0  0  0
    2.2157    0.4674   -0.6300 N   0  0  0  0  0  0  0  0  0  0  0  0
    3.6152    0.8132   -0.7185 C   0  0  2  0  0  0  0  0  0  0  0  0
    3.7266    2.1346   -1.4675 C   0  0  0  0  0  0  0  0  0  0  0  0
    2.8552    2.5498   -2.2286 O   0  0  0  0  0  0  0  0  0  0  0  0
    4.4114   -0.2772   -1.4183 C   0  0  0  0  0  0  0  0  0  0  0  0
    1.7693    0.4720    0.2824 H   0  0  0  0  0  0  0  0  0  0  0  0
    3.9744    0.9434    0.3082 H   0  0  0  0  0  0  0  0  0  0  0  0
    4.0658   -0.4219   -2.4484 H   0  0  0  0  0  0  0  0  0  0  0  0
    5.4766   -0.0265   -1.4592 H   0  0  0  0  0  0  0  0  0  0  0  0
    4.3060   -1.2336   -0.8949 H   0  0  0  0  0  0  0  0  0  0  0  0
    4.9327    2.7750   -1.2196 N   0  0  0  0  0  0  0  0  0  0  0  0
    5.2825    4.0396   -1.8231 C   0  0  0  0  0  0  0  0  0  0  0  0
    5.5885    2.3672   -0.5597 H   0  0  0  0  0  0  0  0  0  0  0  0
    5.8416    3.8603   -2.7533 H   0  0  0  0  0  0  0  0  0  0  0  0
    4.3657    4.6037   -2.0495 H   0  0  0  0  0  0  0  0  0  0  0  0
    5.9064    4.6183   -1.1261 H   0  0  0  0  0  0  0  0  0  0  0  0
  1  3  1  0  0  0  0
  1  7  1  0  0  0  0
  1  2  2  0  0  0  0
 31 32  1  0  0  0  0
 32 40  1  0  0  0  0
 32 33  2  0  0  0  0
  8  9  1  0  0  0  0
  9 17  1  0  0  0  0
  9 10  2  0  0  0  0
 18 19  1  0  0  0  0
 19 30  1  0  0  0  0
 19 20  2  0  0  0  0
 21 22  1  0  0  0  0
 22 23  2  0  0  0  0
 22 24  1  0  0  0  0
 31 34  1  0  0  0  0
  8 11  1  0  0  0  0
 40 41  1  0  0  0  0
 18 21  1  0  0  0  0
 30 31  1  0  0  0  0
  7  8  1  0  0  0  0
 17 18  1  0  0  0  0
  3  4  1  0  0  0  0
  3  5  1  0  0  0  0
  3  6  1  0  0  0  0
 34 37  1  0  0  0  0
 34 38  1  0  0  0  0
 34 39  1  0  0  0  0
 11 14  1  0  0  0  0
 11 15  1  0  0  0  0
 11 16  1  0  0  0  0
 41 43  1  0  0  0  0
 41 44  1  0  0  0  0
 41 45  1  0  0  0  0
 21 27  1  0  0  0  0
 21 28  1  0  0  0  0
 31 36  1  0  0  0  0
  8 13  1  0  0  0  0
 18 26  1  0  0  0  0
 40 42  1  0  0  0  0
  7 12  1  0  0  0  0
 30 35  1  0  0  0  0
 17 25  1  0  0  0  0
 24 29  1  0  0  0  0
M  END
$$$$

  -OEChem-05262214473D

 45 44  0     1  0  0  0  0  0999 V2000
   -2.2987    4.1032   -0.3022 C   0  0  0  0  0  0  0  0  0  0  0  0
   -1.8049    3.7117   -1.3532 O   0  0  0  0  0  0  0  0  0  0  0  0
   -3.0791    5.3755   -0.2846 C   0  0  0  0  0  0  0  0  0  0  0  0
   -2.4478    6.2532   -0.0717 H   0  0  0  0  0  0  0  0  0  0  0  0
   -3.5571    5.5891   -1.2541 H   0  0  0  0  0  0  0  0  0  0  0  0
   -3.8940    5.4184    0.4556 H   0  0  0  0  0  0  0  0  0  0  0  0
   -2.2137    3.4712    0.9275 N   0  0  0  0  0  0  0  0  0  0  0  0
   -1.5102    2.2327    1.1338 C   0  0  2  0  0  0  0  0  0  0  0  0
   -1.3539    1.5497   -0.2184 C   0  0  0  0  0  0  0  0  0  0  0  0
   -2.0852    1.7861   -1.1778 O   0  0  0  0  0  0  0  0  0  0  0  0
   -2.2477    1.3342    2.1145 C   0  0  0  0  0  0  0  0  0  0  0  0
   -2.6724    3.9052    1.7265 H   0  0  0  0  0  0  0  0  0  0  0  0
   -0.5220    2.4922    1.5290 H   0  0  0  0  0  0  0  0  0  0  0  0
   -3.2400    1.0636    1.7358 H   0  0  0  0  0  0  0  0  0  0  0  0
   -1.6970    0.4046    2.2923 H   0  0  0  0  0  0  0  0  0  0  0  0
   -2.3854    1.8384    3.0772 H   0  0  0  0  0  0  0  0  0  0  0  0
   -0.3283    0.6116   -0.2182 N   0  0  0  0  0  0  0  0  0  0  0  0
    0.0090   -0.1762   -1.3759 C   0  0  2  0  0  0  0  0  0  0  0  0
    1.4562    0.1290   -1.7412 C   0  0  0  0  0  0  0  0  0  0  0  0
    1.8188    0.3768   -2.8893 O   0  0  0  0  0  0  0  0  0  0  0  0
   -0.9199    0.1119   -2.5523 C   0  0  0  0  0  0  0  0  0  0  0  0
   -2.3152   -0.3969   -2.2856 C   0  0  0  0  0  0  0  0  0  0  0  0
   -2.5681   -1.3572   -1.5697 O   0  0  0  0  0  0  0  0  0  0  0  0
   -3.2641    0.3162   -2.9411 O   0  0  0  0  0  0  0  0  0  0  0  0
    0.2381    0.4970    0.6194 H   0  0  0  0  0  0  0  0  0  0  0  0
   -0.0656   -1.2254   -1.0656 H   0  0  0  0  0  0  0  0  0  0  0  0
   -1.0085    1.1908   -2.7319 H   0  0  0  0  0  0  0  0  0  0  0  0
   -0.5484   -0.3146   -3.4920 H   0  0  0  0  0  0  0  0  0  0  0  0
   -4.1847    0.0067   -2.8019 H   0  0  0  0  0  0  0  0  0  0  0  0
    2.2854    0.1391   -0.6283 N   0  0  0  0  0  0  0  0  0  0  0  0
    3.7000    0.4178   -0.7129 C   0  0  2  0  0  0  0  0  0  0  0  0
    3.8686    1.8751   -1.1219 C   0  0  0  0  0  0  0  0  0  0  0  0
    2.9950    2.5135   -1.7051 O   0  0  0  0  0  0  0  0  0  0  0  0
    4.3880   -0.5080   -1.7041 C   0  0  0  0  0  0  0  0  0  0  0  0
    1.8810   -0.0574    0.2826 H   0  0  0  0  0  0  0  0  0  0  0  0
    4.1122    0.2696    0.2912 H   0  0  0  0  0  0  0  0  0  0  0  0
    3.9882   -0.3738   -2.7158 H   0  0  0  0  0  0  0  0  0  0  0  0
    5.4650   -0.3146   -1.7460 H   0  0  0  0  0  0  0  0  0  0  0  0
    4.2405   -1.5568   -1.4248 H   0  0  0  0  0  0  0  0  0  0  0  0
    5.1255    2.3661   -0.7974 N   0  0  0  0  0  0  0  0  0  0  0  0
    5.5342    3.7193   -1.0936 C   0  0  0  0  0  0  0  0  0  0  0  0
    5.7803    1.7720   -0.2974 H   0  0  0  0  0  0  0  0  0  0  0  0
    6.0382    3.7451   -2.0710 H   0  0  0  0  0  0  0  0  0  0  0  0
    4.6491    4.3720   -1.1202 H   0  0  0  0  0  0  0  0  0  0  0  0
    6.2265    4.0719   -0.3148 H   0  0  0  0  0  0  0  0  0  0  0  0
  1  3  1  0  0  0  0
  1  7  1  0  0  0  0
  1  2  2  0  0  0  0
 31 32  1  0  0  0  0
 32 40  1  0  0  0  0
 32 33  2  0  0  0  0
  8  9  1  0  0  0  0
  9 17  1  0  0  0  0
  9 10  2  0  0  0  0
 18 19  1  0  0  0  0
 19 30  1  0  0  0  0
 19 20  2  0  0  0  0
 21 22  1  0  0  0  0
 22 23  2  0  0  0  0
 22 24  1  0  0  0  0
 31 34  1  0  0  0  0
  8 11  1  0  0  0  0
 40 41  1  0  0  0  0
 18 21  1  0  0  0  0
 30 31  1  0  0  0  0
  7  8  1  0  0  0  0
 17 18  1  0  0  0  0
  3  4  1  0  0  0  0
  3  5  1  0  0  0  0
  3  6  1  0  0  0  0
 34 37  1  0  0  0  0
 34 38  1  0  0  0  0
 34 39  1  0  0  0  0
 11 14  1  0  0  0  0
 11 15  1  0  0  0  0
 11 16  1  0  0  0  0
 41 43  1  0  0  0  0
 41 44  1  0  0  0  0
 41 45  1  0  0  0  0
 21 27  1  0  0  0  0
 21 28  1  0  0  0  0
 31 36  1  0  0  0  0
  8 13  1  0  0  0  0
 18 26  1  0  0  0  0
 40 42  1  0  0  0  0
  7 12  1  0  0  0  0
 30 35  1  0  0  0  0
 17 25  1  0  0  0  0
 24 29  1  0  0  0  0
M  END
$$$$

  -OEChem-05262214473D

 45 44  0     1  0  0  0  0  0999 V2000
   -2.2987    4.1032   -0.3022 C   0  0  0  0  0  0  0  0  0  0  0  0
   -1.8049    3.7117   -1.3532 O   0  0  0  0  0  0  0  0  0  0  0  0
   -3.0791    5.3755   -0.2846 C   0  0  0  0  0  0  0  0  0  0  0  0
   -2.4478    6.2532   -0.0717 H   0  0  0  0  0  0  0  0  0  0  0  0
   -3.5571    5.5891   -1.2541 H   0  0  0  0  0  0  0  0  0  0  0  0
   -3.8940    5.4184    0.4556 H   0  0  0  0  0  0  0  0  0  0  0  0
   -2.2137    3.4712    0.9275 N   0  0  0  0  0  0  0  0  0  0  0  0
   -1.5102    2.2327    1.1338 C   0  0  2  0  0  0  0  0  0  0  0  0
   -1.3539    1.5497   -0.2184 C   0  0  0  0  0  0  0  0  0  0  0  0
   -2.0852    1.7861   -1.1778 O   0  0  0  0  0  0  0  0  0  0  0  0
   -2.2477    1.3342    2.1145 C   0  0  0  0  0  0  0  0  0  0  0  0
   -2.6724    3.9052    1.7265 H   0  0  0  0  0  0  0  0  0  0  0  0
   -0.5220    2.4922    1.5290 H   0  0  0  0  0  0  0  0  0  0  0  0
   -3.2400    1.0636    1.7358 H   0  0  0  0  0  0  0  0  0  0  0  0
   -1.6970    0.4046    2.2923 H   0  0  0  0  0  0  0  0  0  0  0  0
   -2.3854    1.8384    3.0772 H   0  0  0  0  0  0  0  0  0  0  0  0
   -0.3283    0.6116   -0.2182 N   0  0  0  0  0  0  0  0  0  0  0  0
    0.0090   -0.1762   -1.3759 C   0  0  2  0  0  0  0  0  0  0  0  0
    1.4562    0.1290   -1.7412 C   0  0  0  0  0  0  0  0  0  0  0  0
    1.7839    0.6328   -2.8135 O   0  0  0  0  0  0  0  0  0  0  0  0
   -0.9199    0.1119   -2.5523 C   0  0  0  0  0  0  0  0  0  0  0  0
   -2.3152   -0.3969   -2.2856 C   0  0  0  0  0  0  0  0  0  0  0  0
   -2.5681   -1.3572   -1.5697 O   0  0  0  0  0  0  0  0  0  0  0  0
   -3.2641    0.3162   -2.9411 O   0  0  0  0  0  0  0  0  0  0  0  0
    0.2381    0.4970    0.6194 H   0  0  0  0  0  0  0  0  0  0  0  0
   -0.0656   -1.2254   -1.0656 H   0  0  0  0  0  0  0  0  0  0  0  0
   -1.0085    1.1908   -2.7319 H   0  0  0  0  0  0  0  0  0  0  0  0
   -0.5484   -0.3146   -3.4920 H   0  0  0  0  0  0  0  0  0  0  0  0
   -4.1847    0.0067   -2.8019 H   0  0  0  0  0  0  0  0  0  0  0  0
    2.3324   -0.1827   -0.7110 N   0  0  0  0  0  0  0  0  0  0  0  0
    3.7577    0.0291   -0.8092 C   0  0  2  0  0  0  0  0  0  0  0  0
    4.0076    1.5306   -0.8592 C   0  0  0  0  0  0  0  0  0  0  0  0
    3.1549    2.3411   -1.2157 O   0  0  0  0  0  0  0  0  0  0  0  0
    4.3362   -0.6593   -2.0356 C   0  0  0  0  0  0  0  0  0  0  0  0
    1.9561   -0.5758    0.1467 H   0  0  0  0  0  0  0  0  0  0  0  0
    4.2026   -0.3856    0.1019 H   0  0  0  0  0  0  0  0  0  0  0  0
    3.9023   -0.2569   -2.9583 H   0  0  0  0  0  0  0  0  0  0  0  0
    5.4210   -0.5217   -2.0931 H   0  0  0  0  0  0  0  0  0  0  0  0
    4.1296   -1.7347   -2.0127 H   0  0  0  0  0  0  0  0  0  0  0  0
    5.3083    1.8554   -0.5001 N   0  0  0  0  0  0  0  0  0  0  0  0
    5.7953    3.2150   -0.4807 C   0  0  0  0  0  0  0  0  0  0  0  0
    5.9422    1.1206   -0.2003 H   0  0  0  0  0  0  0  0  0  0  0  0
    6.2563    3.4538   -1.4504 H   0  0  0  0  0  0  0  0  0  0  0  0
    4.9567    3.9021   -0.2943 H   0  0  0  0  0  0  0  0  0  0  0  0
    6.5438    3.3249    0.3179 H   0  0  0  0  0  0  0  0  0  0  0  0
  1  3  1  0  0  0  0
  1  7  1  0  0  0  0
  1  2  2  0  0  0  0
 31 32  1  0  0  0  0
 32 40  1  0  0  0  0
 32 33  2  0  0  0  0
  8  9  1  0  0  0  0
  9 17  1  0  0  0  0
  9 10  2  0  0  0  0
 18 19  1  0  0  0  0
 19 30  1  0  0  0  0
 19 20  2  0  0  0  0
 21 22  1  0  0  0  0
 22 23  2  0  0  0  0
 22 24  1  0  0  0  0
 31 34  1  0  0  0  0
  8 11  1  0  0  0  0
 40 41  1  0  0  0  0
 18 21  1  0  0  0  0
 30 31  1  0  0  0  0
  7  8  1  0  0  0  0
 17 18  1  0  0  0  0
  3  4  1  0  0  0  0
  3  5  1  0  0  0  0
  3  6  1  0  0  0  0
 34 37  1  0  0  0  0
 34 38  1  0  0  0  0
 34 39  1  0  0  0  0
 11 14  1  0  0  0  0
 11 15  1  0  0  0  0
 11 16  1  0  0  0  0
 41 43  1  0  0  0  0
 41 44  1  0  0  0  0
 41 45  1  0  0  0  0
 21 27  1  0  0  0  0
 21 28  1  0  0  0  0
 31 36  1  0  0  0  0
  8 13  1  0  0  0  0
 18 26  1  0  0  0  0
 40 42  1  0  0  0  0
  7 12  1  0  0  0  0
 30 35  1  0  0  0  0
 17 25  1  0  0  0  0
 24 29  1  0  0  0  0
M  END
$$$$

  -OEChem-05262214473D

 45 44  0     1  0  0  0  0  0999 V2000
   -2.2987    4.1032   -0.3022 C   0  0  0  0  0  0  0  0  0  0  0  0
   -1.8049    3.7117   -1.3532 O   0  0  0  0  0  0  0  0  0  0  0  0
   -3.0791    5.3755   -0.2846 C   0  0  0  0  0  0  0  0  0  0  0  0
   -2.4478    6.2532   -0.0717 H   0  0  0  0  0  0  0  0  0  0  0  0
   -3.5571    5.5891   -1.2541 H   0  0  0  0  0  0  0  0  0  0  0  0
   -3.8940    5.4184    0.4556 H   0  0  0  0  0  0  0  0  0  0  0  0
   -2.2137    3.4712    0.9275 N   0  0  0  0  0  0  0  0  0  0  0  0
   -1.5102    2.2327    1.1338 C   0  0  2  0  0  0  0  0  0  0  0  0
   -1.3539    1.5497   -0.2184 C   0  0  0  0  0  0  0  0  0  0  0  0
   -2.0852    1.7861   -1.1778 O   0  0  0  0  0  0  0  0  0  0  0  0
   -2.2477    1.3342    2.1145 C   0  0  0  0  0  0  0  0  0  0  0  0
   -2.6724    3.9052    1.7265 H   0  0  0  0  0  0  0  0  0  0  0  0
   -0.5220    2.4922    1.5290 H   0  0  0  0  0  0  0  0  0  0  0  0
   -3.2400    1.0636    1.7358 H   0  0  0  0  0  0  0  0  0  0  0  0
   -1.6970    0.4046    2.2923 H   0  0  0  0  0  0  0  0  0  0  0  0
   -2.3854    1.8384    3.0772 H   0  0  0  0  0  0  0  0  0  0  0  0
   -0.3283    0.6116   -0.2182 N   0  0  0  0  0  0  0  0  0  0  0  0
    0.0090   -0.1762   -1.3759 C   0  0  2  0  0  0  0  0  0  0  0  0
    1.4562    0.1290   -1.7412 C   0  0  0  0  0  0  0  0  0  0  0  0
    1.7701    0.8635   -2.6756 O   0  0  0  0  0  0  0  0  0  0  0  0
   -0.9199    0.1119   -2.5523 C   0  0  0  0  0  0  0  0  0  0  0  0
   -2.3152   -0.3969   -2.2856 C   0  0  0  0  0  0  0  0  0  0  0  0
   -2.5681   -1.3572   -1.5697 O   0  0  0  0  0  0  0  0  0  0  0  0
   -3.2641    0.3162   -2.9411 O   0  0  0  0  0  0  0  0  0  0  0  0
    0.2381    0.4970    0.6194 H   0  0  0  0  0  0  0  0  0  0  0  0
   -0.0656   -1.2254   -1.0656 H   0  0  0  0  0  0  0  0  0  0  0  0
   -1.0085    1.1908   -2.7319 H   0  0  0  0  0  0  0  0  0  0  0  0
   -0.5484   -0.3146   -3.4920 H   0  0  0  0  0  0  0  0  0  0  0  0
   -4.1847    0.0067   -2.8019 H   0  0  0  0  0  0  0  0  0  0  0  0
    2.3535   -0.4762   -0.8725 N   0  0  0  0  0  0  0  0  0  0  0  0
    3.7843   -0.3262   -1.0007 C   0  0  2  0  0  0  0  0  0  0  0  0
    4.1341    1.1247   -0.6973 C   0  0  0  0  0  0  0  0  0  0  0  0
    3.3240    2.0443   -0.7936 O   0  0  0  0  0  0  0  0  0  0  0  0
    4.2596   -0.7207   -2.3904 C   0  0  0  0  0  0  0  0  0  0  0  0
    1.9894   -1.0478   -0.1158 H   0  0  0  0  0  0  0  0  0  0  0  0
    4.2394   -0.9776   -0.2467 H   0  0  0  0  0  0  0  0  0  0  0  0
    3.8141   -0.0790   -3.1593 H   0  0  0  0  0  0  0  0  0  0  0  0
    5.3477   -0.6336   -2.4771 H   0  0  0  0  0  0  0  0  0  0  0  0
    3.9810   -1.7552   -2.6185 H   0  0  0  0  0  0  0  0  0  0  0  0
    5.4685    1.2777   -0.3480 N   0  0  0  0  0  0  0  0  0  0  0  0
    6.0480    2.5610   -0.0262 C   0  0  0  0  0  0  0  0  0  0  0  0
    6.0632    0.4575   -0.2750 H   0  0  0  0  0  0  0  0  0  0  0  0
    6.4810    3.0064   -0.9340 H   0  0  0  0  0  0  0  0  0  0  0  0
    5.2675    3.2261    0.3720 H   0  0  0  0  0  0  0  0  0  0  0  0
    6.8367    2.4280    0.7290 H   0  0  0  0  0  0  0  0  0  0  0  0
  1  3  1  0  0  0  0
  1  7  1  0  0  0  0
  1  2  2  0  0  0  0
 31 32  1  0  0  0  0
 32 40  1  0  0  0  0
 32 33  2  0  0  0  0
  8  9  1  0  0  0  0
  9 17  1  0  0  0  0
  9 10  2  0  0  0  0
 18 19  1  0  0  0  0
 19 30  1  0  0  0  0
 19 20  2  0  0  0  0
 21 22  1  0  0  0  0
 22 23  2  0  0  0  0
 22 24  1  0  0  0  0
 31 34  1  0  0  0  0
  8 11  1  0  0  0  0
 40 41  1  0  0  0  0
 18 21  1  0  0  0  0
 30 31  1  0  0  0  0
  7  8  1  0  0  0  0
 17 18  1  0  0  0  0
  3  4  1  0  0  0  0
  3  5  1  0  0  0  0
  3  6  1  0  0  0  0
 34 37  1  0  0  0  0
 34 38  1  0  0  0  0
 34 39  1  0  0  0  0
 11 14  1  0  0  0  0
 11 15  1  0  0  0  0
 11 16  1  0  0  0  0
 41 43  1  0  0  0  0
 41 44  1  0  0  0  0
 41 45  1  0  0  0  0
 21 27  1  0  0  0  0
 21 28  1  0  0  0  0
 31 36  1  0  0  0  0
  8 13  1  0  0  0  0
 18 26  1  0  0  0  0
 40 42  1  0  0  0  0
  7 12  1  0  0  0  0
 30 35  1  0  0  0  0
 17 25  1  0  0  0  0
 24 29  1  0  0  0  0
M  END
$$$$

  -OEChem-05262214473D

 45 44  0     1  0  0  0  0  0999 V2000
   -2.2987    4.1032   -0.3022 C   0  0  0  0  0  0  0  0  0  0  0  0
   -1.8049    3.7117   -1.3532 O   0  0  0  0  0  0  0  0  0  0  0  0
   -3.0791    5.3755   -0.2846 C   0  0  0  0  0  0  0  0  0  0  0  0
   -2.4478    6.2532   -0.0717 H   0  0  0  0  0  0  0  0  0  0  0  0
   -3.5571    5.5891   -1.2541 H   0  0  0  0  0  0  0  0  0  0  0  0
   -3.8940    5.4184    0.4556 H   0  0  0  0  0  0  0  0  0  0  0  0
   -2.2137    3.4712    0.9275 N   0  0  0  0  0  0  0  0  0  0  0  0
   -1.5102    2.2327    1.1338 C   0  0  2  0  0  0  0  0  0  0  0  0
   -1.3539    1.5497   -0.2184 C   0  0  0  0  0  0  0  0  0  0  0  0
   -2.0852    1.7861   -1.1778 O   0  0  0  0  0  0  0  0  0  0  0  0
   -2.2477    1.3342    2.1145 C   0  0  0  0  0  0  0  0  0  0  0  0
   -2.6724    3.9052    1.7265 H   0  0  0  0  0  0  0  0  0  0  0  0
   -0.5220    2.4922    1.5290 H   0  0  0  0  0  0  0  0  0  0  0  0
   -3.2400    1.0636    1.7358 H   0  0  0  0  0  0  0  0  0  0  0  0
   -1.6970    0.4046    2.2923 H   0  0  0  0  0  0  0  0  0  0  0  0
   -2.3854    1.8384    3.0772 H   0  0  0  0  0  0  0  0  0  0  0  0
   -0.3283    0.6116   -0.2182 N   0  0  0  0  0  0  0  0  0  0  0  0
    0.0090   -0.1762   -1.3759 C   0  0  2  0  0  0  0  0  0  0  0  0
    1.4562    0.1290   -1.7412 C   0  0  0  0  0  0  0  0  0  0  0  0
    1.7782    1.0533   -2.4849 O   0  0  0  0  0  0  0  0  0  0  0  0
   -0.9199    0.1119   -2.5523 C   0  0  0  0  0  0  0  0  0  0  0  0
   -2.3152   -0.3969   -2.2856 C   0  0  0  0  0  0  0  0  0  0  0  0
   -2.5681   -1.3572   -1.5697 O   0  0  0  0  0  0  0  0  0  0  0  0
   -3.2641    0.3162   -2.9411 O   0  0  0  0  0  0  0  0  0  0  0  0
    0.2381    0.4970    0.6194 H   0  0  0  0  0  0  0  0  0  0  0  0
   -0.0656   -1.2254   -1.0656 H   0  0  0  0  0  0  0  0  0  0  0  0
   -1.0085    1.1908   -2.7319 H   0  0  0  0  0  0  0  0  0  0  0  0
   -0.5484   -0.3146   -3.4920 H   0  0  0  0  0  0  0  0  0  0  0  0
   -4.1847    0.0067   -2.8019 H   0  0  0  0  0  0  0  0  0  0  0  0
    2.3474   -0.7213   -1.1017 N   0  0  0  0  0  0  0  0  0  0  0  0
    3.7780   -0.6239   -1.2745 C   0  0  2  0  0  0  0  0  0  0  0  0
    4.2395    0.6850   -0.6473 C   0  0  0  0  0  0  0  0  0  0  0  0
    3.4909    1.6433   -0.4676 O   0  0  0  0  0  0  0  0  0  0  0  0
    4.1634   -0.6880   -2.7442 C   0  0  0  0  0  0  0  0  0  0  0  0
    1.9786   -1.4412   -0.4872 H   0  0  0  0  0  0  0  0  0  0  0  0
    4.2202   -1.4659   -0.7309 H   0  0  0  0  0  0  0  0  0  0  0  0
    3.7294    0.1478   -3.3051 H   0  0  0  0  0  0  0  0  0  0  0  0
    5.2500   -0.6428   -2.8717 H   0  0  0  0  0  0  0  0  0  0  0  0
    3.8048   -1.6167   -3.2010 H   0  0  0  0  0  0  0  0  0  0  0  0
    5.5953    0.6724   -0.3514 N   0  0  0  0  0  0  0  0  0  0  0  0
    6.2750    1.8018    0.2390 C   0  0  0  0  0  0  0  0  0  0  0  0
    6.1350   -0.1721   -0.5166 H   0  0  0  0  0  0  0  0  0  0  0  0
    6.6971    2.4332   -0.5567 H   0  0  0  0  0  0  0  0  0  0  0  0
    5.5603    2.3900    0.8333 H   0  0  0  0  0  0  0  0  0  0  0  0
    7.0853    1.4424    0.8903 H   0  0  0  0  0  0  0  0  0  0  0  0
  1  3  1  0  0  0  0
  1  7  1  0  0  0  0
  1  2  2  0  0  0  0
 31 32  1  0  0  0  0
 32 40  1  0  0  0  0
 32 33  2  0  0  0  0
  8  9  1  0  0  0  0
  9 17  1  0  0  0  0
  9 10  2  0  0  0  0
 18 19  1  0  0  0  0
 19 30  1  0  0  0  0
 19 20  2  0  0  0  0
 21 22  1  0  0  0  0
 22 23  2  0  0  0  0
 22 24  1  0  0  0  0
 31 34  1  0  0  0  0
  8 11  1  0  0  0  0
 40 41  1  0  0  0  0
 18 21  1  0  0  0  0
 30 31  1  0  0  0  0
  7  8  1  0  0  0  0
 17 18  1  0  0  0  0
  3  4  1  0  0  0  0
  3  5  1  0  0  0  0
  3  6  1  0  0  0  0
 34 37  1  0  0  0  0
 34 38  1  0  0  0  0
 34 39  1  0  0  0  0
 11 14  1  0  0  0  0
 11 15  1  0  0  0  0
 11 16  1  0  0  0  0
 41 43  1  0  0  0  0
 41 44  1  0  0  0  0
 41 45  1  0  0  0  0
 21 27  1  0  0  0  0
 21 28  1  0  0  0  0
 31 36  1  0  0  0  0
  8 13  1  0  0  0  0
 18 26  1  0  0  0  0
 40 42  1  0  0  0  0
  7 12  1  0  0  0  0
 30 35  1  0  0  0  0
 17 25  1  0  0  0  0
 24 29  1  0  0  0  0
M  END
$$$$

  -OEChem-05262214473D

 45 44  0     1  0  0  0  0  0999 V2000
   -2.2987    4.1032   -0.3022 C   0  0  0  0  0  0  0  0  0  0  0  0
   -1.8049    3.7117   -1.3532 O   0  0  0  0  0  0  0  0  0  0  0  0
   -3.0791    5.3755   -0.2846 C   0  0  0  0  0  0  0  0  0  0  0  0
   -2.4478    6.2532   -0.0717 H   0  0  0  0  0  0  0  0  0  0  0  0
   -3.5571    5.5891   -1.2541 H   0  0  0  0  0  0  0  0  0  0  0  0
   -3.8940    5.4184    0.4556 H   0  0  0  0  0  0  0  0  0  0  0  0
   -2.2137    3.4712    0.9275 N   0  0  0  0  0  0  0  0  0  0  0  0
   -1.5102    2.2327    1.1338 C   0  0  2  0  0  0  0  0  0  0  0  0
   -1.3539    1.5497   -0.2184 C   0  0  0  0  0  0  0  0  0  0  0  0
   -2.0852    1.7861   -1.1778 O   0  0  0  0  0  0  0  0  0  0  0  0
   -2.2477    1.3342    2.1145 C   0  0  0  0  0  0  0  0  0  0  0  0
   -2.6724    3.9052    1.7265 H   0  0  0  0  0  0  0  0  0  0  0  0
   -0.5220    2.4922    1.5290 H   0  0  0  0  0  0  0  0  0  0  0  0
   -3.2400    1.0636    1.7358 H   0  0  0  0  0  0  0  0  0  0  0  0
   -1.6970    0.4046    2.2923 H   0  0  0  0  0  0  0  0  0  0  0  0
   -2.3854    1.8384    3.0772 H   0  0  0  0  0  0  0  0  0  0  0  0
   -0.3283    0.6116   -0.2182 N   0  0  0  0  0  0  0  0  0  0  0  0
    0.0090   -0.1762   -1.3759 C   0  0  2  0  0  0  0  0  0  0  0  0
    1.4562    0.1290   -1.7412 C   0  0  0  0  0  0  0  0  0  0  0  0
    1.8076    1.1892   -2.2545 O   0  0  0  0  0  0  0  0  0  0  0  0
   -0.9199    0.1119   -2.5523 C   0  0  0  0  0  0  0  0  0  0  0  0
   -2.3152   -0.3969   -2.2856 C   0  0  0  0  0  0  0  0  0  0  0  0
   -2.5681   -1.3572   -1.5697 O   0  0  0  0  0  0  0  0  0  0  0  0
   -3.2641    0.3162   -2.9411 O   0  0  0  0  0  0  0  0  0  0  0  0
    0.2381    0.4970    0.6194 H   0  0  0  0  0  0  0  0  0  0  0  0
   -0.0656   -1.2254   -1.0656 H   0  0  0  0  0  0  0  0  0  0  0  0
   -1.0085    1.1908   -2.7319 H   0  0  0  0  0  0  0  0  0  0  0  0
   -0.5484   -0.3146   -3.4920 H   0  0  0  0  0  0  0  0  0  0  0  0
   -4.1847    0.0067   -2.8019 H   0  0  0  0  0  0  0  0  0  0  0  0
    2.3143   -0.9013   -1.3830 N   0  0  0  0  0  0  0  0  0  0  0  0
    3.7392   -0.8438   -1.6118 C   0  0  2  0  0  0  0  0  0  0  0  0
    4.3165    0.2414   -0.7126 C   0  0  0  0  0  0  0  0  0  0  0  0
    3.6441    1.1655   -0.2600 O   0  0  0  0  0  0  0  0  0  0  0  0
    4.0542   -0.5635   -3.0729 C   0  0  0  0  0  0  0  0  0  0  0  0
    1.9245   -1.7292   -0.9421 H   0  0  0  0  0  0  0  0  0  0  0  0
    4.1463   -1.8174   -1.3177 H   0  0  0  0  0  0  0  0  0  0  0  0
    3.6542    0.4079   -3.3858 H   0  0  0  0  0  0  0  0  0  0  0  0
    5.1346   -0.5486   -3.2501 H   0  0  0  0  0  0  0  0  0  0  0  0
    3.6129   -1.3288   -3.7205 H   0  0  0  0  0  0  0  0  0  0  0  0
    5.6801    0.0806   -0.5101 N   0  0  0  0  0  0  0  0  0  0  0  0
    6.4610    0.9892    0.2966 C   0  0  0  0  0  0  0  0  0  0  0  0
    6.1528   -0.7254   -0.9084 H   0  0  0  0  0  0  0  0  0  0  0  0
    6.8899    1.7735   -0.3445 H   0  0  0  0  0  0  0  0  0  0  0  0
    5.8152    1.4508    1.0581 H   0  0  0  0  0  0  0  0  0  0  0  0
    7.2726    0.4353    0.7910 H   0  0  0  0  0  0  0  0  0  0  0  0
  1  3  1  0  0  0  0
  1  7  1  0  0  0  0
  1  2  2  0  0  0  0
 31 32  1  0  0  0  0
 32 40  1  0  0  0  0
 32 33  2  0  0  0  0
  8  9  1  0  0  0  0
  9 17  1  0  0  0  0
  9 10  2  0  0  0  0
 18 19  1  0  0  0  0
 19 30  1  0  0  0  0
 19 20  2  0  0  0  0
 21 22  1  0  0  0  0
 22 23  2  0  0  0  0
 22 24  1  0  0  0  0
 31 34  1  0  0  0  0
  8 11  1  0  0  0  0
 40 41  1  0  0  0  0
 18 21  1  0  0  0  0
 30 31  1  0  0  0  0
  7  8  1  0  0  0  0
 17 18  1  0  0  0  0
  3  4  1  0  0  0  0
  3  5  1  0  0  0  0
  3  6  1  0  0  0  0
 34 37  1  0  0  0  0
 34 38  1  0  0  0  0
 34 39  1  0  0  0  0
 11 14  1  0  0  0  0
 11 15  1  0  0  0  0
 11 16  1  0  0  0  0
 41 43  1  0  0  0  0
 41 44  1  0  0  0  0
 41 45  1  0  0  0  0
 21 27  1  0  0  0  0
 21 28  1  0  0  0  0
 31 36  1  0  0  0  0
  8 13  1  0  0  0  0
 18 26  1  0  0  0  0
 40 42  1  0  0  0  0
  7 12  1  0  0  0  0
 30 35  1  0  0  0  0
 17 25  1  0  0  0  0
 24 29  1  0  0  0  0
M  END
$$$$

  -OEChem-05262214473D

 45 44  0     1  0  0  0  0  0999 V2000
   -2.2987    4.1032   -0.3022 C   0  0  0  0  0  0  0  0  0  0  0  0
   -1.8049    3.7117   -1.3532 O   0  0  0  0  0  0  0  0  0  0  0  0
   -3.0791    5.3755   -0.2846 C   0  0  0  0  0  0  0  0  0  0  0  0
   -2.4478    6.2532   -0.0717 H   0  0  0  0  0  0  0  0  0  0  0  0
   -3.5571    5.5891   -1.2541 H   0  0  0  0  0  0  0  0  0  0  0  0
   -3.8940    5.4184    0.4556 H   0  0  0  0  0  0  0  0  0  0  0  0
   -2.2137    3.4712    0.9275 N   0  0  0  0  0  0  0  0  0  0  0  0
   -1.5102    2.2327    1.1338 C   0  0  2  0  0  0  0  0  0  0  0  0
   -1.3539    1.5497   -0.2184 C   0  0  0  0  0  0  0  0  0  0  0  0
   -2.0852    1.7861   -1.1778 O   0  0  0  0  0  0  0  0  0  0  0  0
   -2.2477    1.3342    2.1145 C   0  0  0  0  0  0  0  0  0  0  0  0
   -2.6724    3.9052    1.7265 H   0  0  0  0  0  0  0  0  0  0  0  0
   -0.5220    2.4922    1.5290 H   0  0  0  0  0  0  0  0  0  0  0  0
   -3.2400    1.0636    1.7358 H   0  0  0  0  0  0  0  0  0  0  0  0
   -1.6970    0.4046    2.2923 H   0  0  0  0  0  0  0  0  0  0  0  0
   -2.3854    1.8384    3.0772 H   0  0  0  0  0  0  0  0  0  0  0  0
   -0.3283    0.6116   -0.2182 N   0  0  0  0  0  0  0  0  0  0  0  0
    0.0090   -0.1762   -1.3759 C   0  0  2  0  0  0  0  0  0  0  0  0
    1.4562    0.1290   -1.7412 C   0  0  0  0  0  0  0  0  0  0  0  0
    1.8565    1.2621   -2.0001 O   0  0  0  0  0  0  0  0  0  0  0  0
   -0.9199    0.1119   -2.5523 C   0  0  0  0  0  0  0  0  0  0  0  0
   -2.3152   -0.3969   -2.2856 C   0  0  0  0  0  0  0  0  0  0  0  0
   -2.5681   -1.3572   -1.5697 O   0  0  0  0  0  0  0  0  0  0  0  0
   -3.2641    0.3162   -2.9411 O   0  0  0  0  0  0  0  0  0  0  0  0
    0.2381    0.4970    0.6194 H   0  0  0  0  0  0  0  0  0  0  0  0
   -0.0656   -1.2254   -1.0656 H   0  0  0  0  0  0  0  0  0  0  0  0
   -1.0085    1.1908   -2.7319 H   0  0  0  0  0  0  0  0  0  0  0  0
   -0.5484   -0.3146   -3.4920 H   0  0  0  0  0  0  0  0  0  0  0  0
   -4.1847    0.0067   -2.8019 H   0  0  0  0  0  0  0  0  0  0  0  0
    2.2566   -1.0039   -1.6973 N   0  0  0  0  0  0  0  0  0  0  0  0
    3.6707   -0.9709   -1.9896 C   0  0  2  0  0  0  0  0  0  0  0  0
    4.3601   -0.1758   -0.8887 C   0  0  0  0  0  0  0  0  0  0  0  0
    3.7731    0.6434   -0.1849 O   0  0  0  0  0  0  0  0  0  0  0  0
    3.9393   -0.3556   -3.3541 C   0  0  0  0  0  0  0  0  0  0  0  0
    1.8308   -1.8922   -1.4495 H   0  0  0  0  0  0  0  0  0  0  0  0
    4.0226   -2.0080   -1.9670 H   0  0  0  0  0  0  0  0  0  0  0  0
    3.5935    0.6836   -3.3959 H   0  0  0  0  0  0  0  0  0  0  0  0
    5.0094   -0.3574   -3.5864 H   0  0  0  0  0  0  0  0  0  0  0  0
    3.4185   -0.9111   -4.1415 H   0  0  0  0  0  0  0  0  0  0  0  0
    5.7170   -0.4572   -0.8132 N   0  0  0  0  0  0  0  0  0  0  0  0
    6.5931    0.1786    0.1429 C   0  0  0  0  0  0  0  0  0  0  0  0
    6.1153   -1.1646   -1.4238 H   0  0  0  0  0  0  0  0  0  0  0  0
    7.0461    1.0720   -0.3117 H   0  0  0  0  0  0  0  0  0  0  0  0
    6.0147    0.4725    1.0311 H   0  0  0  0  0  0  0  0  0  0  0  0
    7.3859   -0.5246    0.4377 H   0  0  0  0  0  0  0  0  0  0  0  0
  1  3  1  0  0  0  0
  1  7  1  0  0  0  0
  1  2  2  0  0  0  0
 31 32  1  0  0  0  0
 32 40  1  0  0  0  0
 32 33  2  0  0  0  0
  8  9  1  0  0  0  0
  9 17  1  0  0  0  0
  9 10  2  0  0  0  0
 18 19  1  0  0  0  0
 19 30  1  0  0  0  0
 19 20  2  0  0  0  0
 21 22  1  0  0  0  0
 22 23  2  0  0  0  0
 22 24  1  0  0  0  0
 31 34  1  0  0  0  0
  8 11  1  0  0  0  0
 40 41  1  0  0  0  0
 18 21  1  0  0  0  0
 30 31  1  0  0  0  0
  7  8  1  0  0  0  0
 17 18  1  0  0  0  0
  3  4  1  0  0  0  0
  3  5  1  0  0  0  0
  3  6  1  0  0  0  0
 34 37  1  0  0  0  0
 34 38  1  0  0  0  0
 34 39  1  0  0  0  0
 11 14  1  0  0  0  0
 11 15  1  0  0  0  0
 11 16  1  0  0  0  0
 41 43  1  0  0  0  0
 41 44  1  0  0  0  0
 41 45  1  0  0  0  0
 21 27  1  0  0  0  0
 21 28  1  0  0  0  0
 31 36  1  0  0  0  0
  8 13  1  0  0  0  0
 18 26  1  0  0  0  0
 40 42  1  0  0  0  0
  7 12  1  0  0  0  0
 30 35  1  0  0  0  0
 17 25  1  0  0  0  0
 24 29  1  0  0  0  0
M  END
$$$$

  -OEChem-05262214473D

 45 44  0     1  0  0  0  0  0999 V2000
   -2.2987    4.1032   -0.3022 C   0  0  0  0  0  0  0  0  0  0  0  0
   -1.8049    3.7117   -1.3532 O   0  0  0  0  0  0  0  0  0  0  0  0
   -3.0791    5.3755   -0.2846 C   0  0  0  0  0  0  0  0  0  0  0  0
   -2.4478    6.2532   -0.0717 H   0  0  0  0  0  0  0  0  0  0  0  0
   -3.5571    5.5891   -1.2541 H   0  0  0  0  0  0  0  0  0  0  0  0
   -3.8940    5.4184    0.4556 H   0  0  0  0  0  0  0  0  0  0  0  0
   -2.2137    3.4712    0.9275 N   0  0  0  0  0  0  0  0  0  0  0  0
   -1.5102    2.2327    1.1338 C   0  0  2  0  0  0  0  0  0  0  0  0
   -1.3539    1.5497   -0.2184 C   0  0  0  0  0  0  0  0  0  0  0  0
   -2.0852    1.7861   -1.1778 O   0  0  0  0  0  0  0  0  0  0  0  0
   -2.2477    1.3342    2.1145 C   0  0  0  0  0  0  0  0  0  0  0  0
   -2.6724    3.9052    1.7265 H   0  0  0  0  0  0  0  0  0  0  0  0
   -0.5220    2.4922    1.5290 H   0  0  0  0  0  0  0  0  0  0  0  0
   -3.2400    1.0636    1.7358 H   0  0  0  0  0  0  0  0  0  0  0  0
   -1.6970    0.4046    2.2923 H   0  0  0  0  0  0  0  0  0  0  0  0
   -2.3854    1.8384    3.0772 H   0  0  0  0  0  0  0  0  0  0  0  0
   -0.3283    0.6116   -0.2182 N   0  0  0  0  0  0  0  0  0  0  0  0
    0.0090   -0.1762   -1.3759 C   0  0  2  0  0  0  0  0  0  0  0  0
    1.4562    0.1290   -1.7412 C   0  0  0  0  0  0  0  0  0  0  0  0
    1.9214    1.2669   -1.7389 O   0  0  0  0  0  0  0  0  0  0  0  0
   -0.9199    0.1119   -2.5523 C   0  0  0  0  0  0  0  0  0  0  0  0
   -2.3152   -0.3969   -2.2856 C   0  0  0  0  0  0  0  0  0  0  0  0
   -2.5681   -1.3572   -1.5697 O   0  0  0  0  0  0  0  0  0  0  0  0
   -3.2641    0.3162   -2.9411 O   0  0  0  0  0  0  0  0  0  0  0  0
    0.2381    0.4970    0.6194 H   0  0  0  0  0  0  0  0  0  0  0  0
   -0.0656   -1.2254   -1.0656 H   0  0  0  0  0  0  0  0  0  0  0  0
   -1.0085    1.1908   -2.7319 H   0  0  0  0  0  0  0  0  0  0  0  0
   -0.5484   -0.3146   -3.4920 H   0  0  0  0  0  0  0  0  0  0  0  0
   -4.1847    0.0067   -2.8019 H   0  0  0  0  0  0  0  0  0  0  0  0
    2.1783   -1.0222   -2.0231 N   0  0  0  0  0  0  0  0  0  0  0  0
    3.5769   -0.9965   -2.3823 C   0  0  2  0  0  0  0  0  0  0  0  0
    4.3671   -0.5382   -1.1636 C   0  0  0  0  0  0  0  0  0  0  0  0
    3.8693    0.1127   -0.2473 O   0  0  0  0  0  0  0  0  0  0  0  0
    3.8267   -0.0786   -3.5687 C   0  0  0  0  0  0  0  0  0  0  0  0
    1.7039   -1.9191   -1.9748 H   0  0  0  0  0  0  0  0  0  0  0  0
    3.8576   -2.0249   -2.6347 H   0  0  0  0  0  0  0  0  0  0  0  0
    3.5514    0.9563   -3.3347 H   0  0  0  0  0  0  0  0  0  0  0  0
    4.8829   -0.0823   -3.8578 H   0  0  0  0  0  0  0  0  0  0  0  0
    3.2349   -0.3921   -4.4354 H   0  0  0  0  0  0  0  0  0  0  0  0
    5.7036   -0.9045   -1.2402 N   0  0  0  0  0  0  0  0  0  0  0  0
    6.6625   -0.5748   -0.2118 C   0  0  0  0  0  0  0  0  0  0  0  0
    6.0252   -1.4597   -2.0277 H   0  0  0  0  0  0  0  0  0  0  0  0
    7.1552    0.3767   -0.4605 H   0  0  0  0  0  0  0  0  0  0  0  0
    6.1453   -0.4782    0.7542 H   0  0  0  0  0  0  0  0  0  0  0  0
    7.4175   -1.3720   -0.1454 H   0  0  0  0  0  0  0  0  0  0  0  0
  1  3  1  0  0  0  0
  1  7  1  0  0  0  0
  1  2  2  0  0  0  0
 31 32  1  0  0  0  0
 32 40  1  0  0  0  0
 32 33  2  0  0  0  0
  8  9  1  0  0  0  0
  9 17  1  0  0  0  0
  9 10  2  0  0  0  0
 18 19  1  0  0  0  0
 19 30  1  0  0  0  0
 19 20  2  0  0  0  0
 21 22  1  0  0  0  0
 22 23  2  0  0  0  0
 22 24  1  0  0  0  0
 31 34  1  0  0  0  0
  8 11  1  0  0  0  0
 40 41  1  0  0  0  0
 18 21  1  0  0  0  0
 30 31  1  0  0  0  0
  7  8  1  0  0  0  0
 17 18  1  0  0  0  0
  3  4  1  0  0  0  0
  3  5  1  0  0  0  0
  3  6  1  0  0  0  0
 34 37  1  0  0  0  0
 34 38  1  0  0  0  0
 34 39  1  0  0  0  0
 11 14  1  0  0  0  0
 11 15  1  0  0  0  0
 11 16  1  0  0  0  0
 41 43  1  0  0  0  0
 41 44  1  0  0  0  0
 41 45  1  0  0  0  0
 21 27  1  0  0  0  0
 21 28  1  0  0  0  0
 31 36  1  0  0  0  0
  8 13  1  0  0  0  0
 18 26  1  0  0  0  0
 40 42  1  0  0  0  0
  7 12  1  0  0  0  0
 30 35  1  0  0  0  0
 17 25  1  0  0  0  0
 24 29  1  0  0  0  0
M  END
$$$$

  -OEChem-05262214473D

 45 44  0     1  0  0  0  0  0999 V2000
   -2.2987    4.1032   -0.3022 C   0  0  0  0  0  0  0  0  0  0  0  0
   -1.8049    3.7117   -1.3532 O   0  0  0  0  0  0  0  0  0  0  0  0
   -3.0791    5.3755   -0.2846 C   0  0  0  0  0  0  0  0  0  0  0  0
   -2.4478    6.2532   -0.0717 H   0  0  0  0  0  0  0  0  0  0  0  0
   -3.5571    5.5891   -1.2541 H   0  0  0  0  0  0  0  0  0  0  0  0
   -3.8940    5.4184    0.4556 H   0  0  0  0  0  0  0  0  0  0  0  0
   -2.2137    3.4712    0.9275 N   0  0  0  0  0  0  0  0  0  0  0  0
   -1.5102    2.2327    1.1338 C   0  0  2  0  0  0  0  0  0  0  0  0
   -1.3539    1.5497   -0.2184 C   0  0  0  0  0  0  0  0  0  0  0  0
   -2.0852    1.7861   -1.1778 O   0  0  0  0  0  0  0  0  0  0  0  0
   -2.2477    1.3342    2.1145 C   0  0  0  0  0  0  0  0  0  0  0  0
   -2.6724    3.9052    1.7265 H   0  0  0  0  0  0  0  0  0  0  0  0
   -0.5220    2.4922    1.5290 H   0  0  0  0  0  0  0  0  0  0  0  0
   -3.2400    1.0636    1.7358 H   0  0  0  0  0  0  0  0  0  0  0  0
   -1.6970    0.4046    2.2923 H   0  0  0  0  0  0  0  0  0  0  0  0
   -2.3854    1.8384    3.0772 H   0  0  0  0  0  0  0  0  0  0  0  0
   -0.3283    0.6116   -0.2182 N   0  0  0  0  0  0  0  0  0  0  0  0
    0.0090   -0.1762   -1.3759 C   0  0  2  0  0  0  0  0  0  0  0  0
    1.4562    0.1290   -1.7412 C   0  0  0  0  0  0  0  0  0  0  0  0
    1.9980    1.2032   -1.4888 O   0  0  0  0  0  0  0  0  0  0  0  0
   -0.9199    0.1119   -2.5523 C   0  0  0  0  0  0  0  0  0  0  0  0
   -2.3152   -0.3969   -2.2856 C   0  0  0  0  0  0  0  0  0  0  0  0
   -2.5681   -1.3572   -1.5697 O   0  0  0  0  0  0  0  0  0  0  0  0
   -3.2641    0.3162   -2.9411 O   0  0  0  0  0  0  0  0  0  0  0  0
    0.2381    0.4970    0.6194 H   0  0  0  0  0  0  0  0  0  0  0  0
   -0.0656   -1.2254   -1.0656 H   0  0  0  0  0  0  0  0  0  0  0  0
   -1.0085    1.1908   -2.7319 H   0  0  0  0  0  0  0  0  0  0  0  0
   -0.5484   -0.3146   -3.4920 H   0  0  0  0  0  0  0  0  0  0  0  0
   -4.1847    0.0067   -2.8019 H   0  0  0  0  0  0  0  0  0  0  0  0
    2.0845   -0.9549   -2.3382 N   0  0  0  0  0  0  0  0  0  0  0  0
    3.4645   -0.9189   -2.7630 C   0  0  2  0  0  0  0  0  0  0  0  0
    4.3372   -0.8211   -1.5187 C   0  0  0  0  0  0  0  0  0  0  0  0
    3.9261   -0.3906   -0.4432 O   0  0  0  0  0  0  0  0  0  0  0  0
    3.7240    0.2488   -3.7021 C   0  0  0  0  0  0  0  0  0  0  0  0
    1.5524   -1.8081   -2.4823 H   0  0  0  0  0  0  0  0  0  0  0  0
    3.6626   -1.8668   -3.2752 H   0  0  0  0  0  0  0  0  0  0  0  0
    3.5309    1.2072   -3.2064 H   0  0  0  0  0  0  0  0  0  0  0  0
    4.7637    0.2581   -4.0457 H   0  0  0  0  0  0  0  0  0  0  0  0
    3.0744    0.1929   -4.5822 H   0  0  0  0  0  0  0  0  0  0  0  0
    5.6407   -1.2307   -1.7620 N   0  0  0  0  0  0  0  0  0  0  0  0
    6.6644   -1.2196   -0.7432 C   0  0  0  0  0  0  0  0  0  0  0  0
    5.8884   -1.5908   -2.6789 H   0  0  0  0  0  0  0  0  0  0  0  0
    7.2097   -0.2650   -0.7809 H   0  0  0  0  0  0  0  0  0  0  0  0
    6.1981   -1.3366    0.2462 H   0  0  0  0  0  0  0  0  0  0  0  0
    7.3651   -2.0492   -0.9186 H   0  0  0  0  0  0  0  0  0  0  0  0
  1  3  1  0  0  0  0
  1  7  1  0  0  0  0
  1  2  2  0  0  0  0
 31 32  1  0  0  0  0
 32 40  1  0  0  0  0
 32 33  2  0  0  0  0
  8  9  1  0  0  0  0
  9 17  1  0  0  0  0
  9 10  2  0  0  0  0
 18 19  1  0  0  0  0
 19 30  1  0  0  0  0
 19 20  2  0  0  0  0
 21 22  1  0  0  0  0
 22 23  2  0  0  0  0
 22 24  1  0  0  0  0
 31 34  1  0  0  0  0
  8 11  1  0  0  0  0
 40 41  1  0  0  0  0
 18 21  1  0  0  0  0
 30 31  1  0  0  0  0
  7  8  1  0  0  0  0
 17 18  1  0  0  0  0
  3  4  1  0  0  0  0
  3  5  1  0  0  0  0
  3  6  1  0  0  0  0
 34 37  1  0  0  0  0
 34 38  1  0  0  0  0
 34 39  1  0  0  0  0
 11 14  1  0  0  0  0
 11 15  1  0  0  0  0
 11 16  1  0  0  0  0
 41 43  1  0  0  0  0
 41 44  1  0  0  0  0
 41 45  1  0  0  0  0
 21 27  1  0  0  0  0
 21 28  1  0  0  0  0
 31 36  1  0  0  0  0
  8 13  1  0  0  0  0
 18 26  1  0  0  0  0
 40 42  1  0  0  0  0
  7 12  1  0  0  0  0
 30 35  1  0  0  0  0
 17 25  1  0  0  0  0
 24 29  1  0  0  0  0
M  END
$$$$

  -OEChem-05262214473D

 45 44  0     1  0  0  0  0  0999 V2000
   -2.2987    4.1032   -0.3022 C   0  0  0  0  0  0  0  0  0  0  0  0
   -1.8049    3.7117   -1.3532 O   0  0  0  0  0  0  0  0  0  0  0  0
   -3.0791    5.3755   -0.2846 C   0  0  0  0  0  0  0  0  0  0  0  0
   -2.4478    6.2532   -0.0717 H   0  0  0  0  0  0  0  0  0  0  0  0
   -3.5571    5.5891   -1.2541 H   0  0  0  0  0  0  0  0  0  0  0  0
   -3.8940    5.4184    0.4556 H   0  0  0  0  0  0  0  0  0  0  0  0
   -2.2137    3.4712    0.9275 N   0  0  0  0  0  0  0  0  0  0  0  0
   -1.5102    2.2327    1.1338 C   0  0  2  0  0  0  0  0  0  0  0  0
   -1.3539    1.5497   -0.2184 C   0  0  0  0  0  0  0  0  0  0  0  0
   -2.0852    1.7861   -1.1778 O   0  0  0  0  0  0  0  0  0  0  0  0
   -2.2477    1.3342    2.1145 C   0  0  0  0  0  0  0  0  0  0  0  0
   -2.6724    3.9052    1.7265 H   0  0  0  0  0  0  0  0  0  0  0  0
   -0.5220    2.4922    1.5290 H   0  0  0  0  0  0  0  0  0  0  0  0
   -3.2400    1.0636    1.7358 H   0  0  0  0  0  0  0  0  0  0  0  0
   -1.6970    0.4046    2.2923 H   0  0  0  0  0  0  0  0  0  0  0  0
   -2.3854    1.8384    3.0772 H   0  0  0  0  0  0  0  0  0  0  0  0
   -0.3283    0.6116   -0.2182 N   0  0  0  0  0  0  0  0  0  0  0  0
    0.0090   -0.1762   -1.3759 C   0  0  2  0  0  0  0  0  0  0  0  0
    1.4562    0.1290   -1.7412 C   0  0  0  0  0  0  0  0  0  0  0  0
    2.0809    1.0755   -1.2668 O   0  0  0  0  0  0  0  0  0  0  0  0
   -0.9199    0.1119   -2.5523 C   0  0  0  0  0  0  0  0  0  0  0  0
   -2.3152   -0.3969   -2.2856 C   0  0  0  0  0  0  0  0  0  0  0  0
   -2.5681   -1.3572   -1.5697 O   0  0  0  0  0  0  0  0  0  0  0  0
   -3.2641    0.3162   -2.9411 O   0  0  0  0  0  0  0  0  0  0  0  0
    0.2381    0.4970    0.6194 H   0  0  0  0  0  0  0  0  0  0  0  0
   -0.0656   -1.2254   -1.0656 H   0  0  0  0  0  0  0  0  0  0  0  0
   -1.0085    1.1908   -2.7319 H   0  0  0  0  0  0  0  0  0  0  0  0
   -0.5484   -0.3146   -3.4920 H   0  0  0  0  0  0  0  0  0  0  0  0
   -4.1847    0.0067   -2.8019 H   0  0  0  0  0  0  0  0  0  0  0  0
    1.9818   -0.8066   -2.6212 N   0  0  0  0  0  0  0  0  0  0  0  0
    3.3409   -0.7433   -3.1058 C   0  0  2  0  0  0  0  0  0  0  0  0
    4.2723   -1.0052   -1.9296 C   0  0  0  0  0  0  0  0  0  0  0  0
    3.9395   -0.8321   -0.7590 O   0  0  0  0  0  0  0  0  0  0  0  0
    3.6382    0.6042   -3.7450 C   0  0  0  0  0  0  0  0  0  0  0  0
    1.3866   -1.5666   -2.9373 H   0  0  0  0  0  0  0  0  0  0  0  0
    3.4508   -1.5444   -3.8448 H   0  0  0  0  0  0  0  0  0  0  0  0
    3.5333    1.4193   -3.0198 H   0  0  0  0  0  0  0  0  0  0  0  0
    4.6599    0.6404   -4.1374 H   0  0  0  0  0  0  0  0  0  0  0  0
    2.9481    0.8041   -4.5718 H   0  0  0  0  0  0  0  0  0  0  0  0
    5.5326   -1.4137   -2.3428 N   0  0  0  0  0  0  0  0  0  0  0  0
    6.5986   -1.7120   -1.4151 C   0  0  0  0  0  0  0  0  0  0  0  0
    5.7144   -1.5488   -3.3330 H   0  0  0  0  0  0  0  0  0  0  0  0
    7.2058   -0.8095   -1.2510 H   0  0  0  0  0  0  0  0  0  0  0  0
    6.1695   -2.0440   -0.4582 H   0  0  0  0  0  0  0  0  0  0  0  0
    7.2324   -2.5099   -1.8293 H   0  0  0  0  0  0  0  0  0  0  0  0
  1  3  1  0  0  0  0
  1  7  1  0  0  0  0
  1  2  2  0  0  0  0
 31 32  1  0  0  0  0
 32 40  1  0  0  0  0
 32 33  2  0  0  0  0
  8  9  1  0  0  0  0
  9 17  1  0  0  0  0
  9 10  2  0  0  0  0
 18 19  1  0  0  0  0
 19 30  1  0  0  0  0
 19 20  2  0  0  0  0
 21 22  1  0  0  0  0
 22 23  2  0  0  0  0
 22 24  1  0  0  0  0
 31 34  1  0  0  0  0
  8 11  1  0  0  0  0
 40 41  1  0  0  0  0
 18 21  1  0  0  0  0
 30 31  1  0  0  0  0
  7  8  1  0  0  0  0
 17 18  1  0  0  0  0
  3  4  1  0  0  0  0
  3  5  1  0  0  0  0
  3  6  1  0  0  0  0
 34 37  1  0  0  0  0
 34 38  1  0  0  0  0
 34 39  1  0  0  0  0
 11 14  1  0  0  0  0
 11 15  1  0  0  0  0
 11 16  1  0  0  0  0
 41 43  1  0  0  0  0
 41 44  1  0  0  0  0
 41 45  1  0  0  0  0
 21 27  1  0  0  0  0
 21 28  1  0  0  0  0
 31 36  1  0  0  0  0
  8 13  1  0  0  0  0
 18 26  1  0  0  0  0
 40 42  1  0  0  0  0
  7 12  1  0  0  0  0
 30 35  1  0  0  0  0
 17 25  1  0  0  0  0
 24 29  1  0  0  0  0
M  END
$$$$

  -OEChem-05262214473D

 45 44  0     1  0  0  0  0  0999 V2000
   -2.2987    4.1032   -0.3022 C   0  0  0  0  0  0  0  0  0  0  0  0
   -1.8049    3.7117   -1.3532 O   0  0  0  0  0  0  0  0  0  0  0  0
   -3.0791    5.3755   -0.2846 C   0  0  0  0  0  0  0  0  0  0  0  0
   -2.4478    6.2532   -0.0717 H   0  0  0  0  0  0  0  0  0  0  0  0
   -3.5571    5.5891   -1.2541 H   0  0  0  0  0  0  0  0  0  0  0  0
   -3.8940    5.4184    0.4556 H   0  0  0  0  0  0  0  0  0  0  0  0
   -2.2137    3.4712    0.9275 N   0  0  0  0  0  0  0  0  0  0  0  0
   -1.5102    2.2327    1.1338 C   0  0  2  0  0  0  0  0  0  0  0  0
   -1.3539    1.5497   -0.2184 C   0  0  0  0  0  0  0  0  0  0  0  0
   -2.0852    1.7861   -1.1778 O   0  0  0  0  0  0  0  0  0  0  0  0
   -2.2477    1.3342    2.1145 C   0  0  0  0  0  0  0  0  0  0  0  0
   -2.6724    3.9052    1.7265 H   0  0  0  0  0  0  0  0  0  0  0  0
   -0.5220    2.4922    1.5290 H   0  0  0  0  0  0  0  0  0  0  0  0
   -3.2400    1.0636    1.7358 H   0  0  0  0  0  0  0  0  0  0  0  0
   -1.6970    0.4046    2.2923 H   0  0  0  0  0  0  0  0  0  0  0  0
   -2.3854    1.8384    3.0772 H   0  0  0  0  0  0  0  0  0  0  0  0
   -0.3283    0.6116   -0.2182 N   0  0  0  0  0  0  0  0  0  0  0  0
    0.0090   -0.1762   -1.3759 C   0  0  2  0  0  0  0  0  0  0  0  0
    1.5258   -0.1690   -1.5181 C   0  0  0  0  0  0  0  0  0  0  0  0
    2.2703    0.3960   -0.7195 O   0  0  0  0  0  0  0  0  0  0  0  0
   -0.6572    0.3560   -2.6419 C   0  0  0  0  0  0  0  0  0  0  0  0
   -2.1507    0.1435   -2.6054 C   0  0  0  0  0  0  0  0  0  0  0  0
   -2.6969   -0.7728   -2.0050 O   0  0  0  0  0  0  0  0  0  0  0  0
   -2.8267    1.0710   -3.3274 O   0  0  0  0  0  0  0  0  0  0  0  0
    0.2381    0.4970    0.6194 H   0  0  0  0  0  0  0  0  0  0  0  0
   -0.3228   -1.1987   -1.1588 H   0  0  0  0  0  0  0  0  0  0  0  0
   -0.4967    1.4361   -2.7497 H   0  0  0  0  0  0  0  0  0  0  0  0
   -0.2455   -0.0964   -3.5523 H   0  0  0  0  0  0  0  0  0  0  0  0
   -3.8013    0.9581   -3.3377 H   0  0  0  0  0  0  0  0  0  0  0  0
    1.9518   -0.9070   -2.6136 N   0  0  0  0  0  0  0  0  0  0  0  0
    3.3469   -1.0636   -2.9530 C   0  0  2  0  0  0  0  0  0  0  0  0
    4.0059   -1.8963   -1.8613 C   0  0  0  0  0  0  0  0  0  0  0  0
    3.5483   -1.9952   -0.7247 O   0  0  0  0  0  0  0  0  0  0  0  0
    4.0356    0.2845   -3.0986 C   0  0  0  0  0  0  0  0  0  0  0  0
    1.2542   -1.3551   -3.2003 H   0  0  0  0  0  0  0  0  0  0  0  0
    3.3821   -1.6102   -3.9016 H   0  0  0  0  0  0  0  0  0  0  0  0
    4.0103    0.8468   -2.1581 H   0  0  0  0  0  0  0  0  0  0  0  0
    5.0859    0.1646   -3.3839 H   0  0  0  0  0  0  0  0  0  0  0  0
    3.5419    0.8937   -3.8634 H   0  0  0  0  0  0  0  0  0  0  0  0
    5.1880   -2.4813   -2.2931 N   0  0  0  0  0  0  0  0  0  0  0  0
    6.0058   -3.3096   -1.4381 C   0  0  0  0  0  0  0  0  0  0  0  0
    5.4817   -2.3611   -3.2580 H   0  0  0  0  0  0  0  0  0  0  0  0
    6.7702   -2.6890   -0.9477 H   0  0  0  0  0  0  0  0  0  0  0  0
    5.3731   -3.7841   -0.6735 H   0  0  0  0  0  0  0  0  0  0  0  0
    6.4968   -4.0871   -2.0417 H   0  0  0  0  0  0  0  0  0  0  0  0
  1  3  1  0  0  0  0
  1  7  1  0  0  0  0
  1  2  2  0  0  0  0
 31 32  1  0  0  0  0
 32 40  1  0  0  0  0
 32 33  2  0  0  0  0
  8  9  1  0  0  0  0
  9 17  1  0  0  0  0
  9 10  2  0  0  0  0
 18 19  1  0  0  0  0
 19 30  1  0  0  0  0
 19 20  2  0  0  0  0
 21 22  1  0  0  0  0
 22 23  2  0  0  0  0
 22 24  1  0  0  0  0
 31 34  1  0  0  0  0
  8 11  1  0  0  0  0
 40 41  1  0  0  0  0
 18 21  1  0  0  0  0
 30 31  1  0  0  0  0
  7  8  1  0  0  0  0
 17 18  1  0  0  0  0
  3  4  1  0  0  0  0
  3  5  1  0  0  0  0
  3  6  1  0  0  0  0
 34 37  1  0  0  0  0
 34 38  1  0  0  0  0
 34 39  1  0  0  0  0
 11 14  1  0  0  0  0
 11 15  1  0  0  0  0
 11 16  1  0  0  0  0
 41 43  1  0  0  0  0
 41 44  1  0  0  0  0
 41 45  1  0  0  0  0
 21 27  1  0  0  0  0
 21 28  1  0  0  0  0
 31 36  1  0  0  0  0
  8 13  1  0  0  0  0
 18 26  1  0  0  0  0
 40 42  1  0  0  0  0
  7 12  1  0  0  0  0
 30 35  1  0  0  0  0
 17 25  1  0  0  0  0
 24 29  1  0  0  0  0
M  END
$$$$

  -OEChem-05262214473D

 45 44  0     1  0  0  0  0  0999 V2000
   -2.2987    4.1032   -0.3022 C   0  0  0  0  0  0  0  0  0  0  0  0
   -1.8049    3.7117   -1.3532 O   0  0  0  0  0  0  0  0  0  0  0  0
   -3.0791    5.3755   -0.2846 C   0  0  0  0  0  0  0  0  0  0  0  0
   -2.4478    6.2532   -0.0717 H   0  0  0  0  0  0  0  0  0  0  0  0
   -3.5571    5.5891   -1.2541 H   0  0  0  0  0  0  0  0  0  0  0  0
   -3.8940    5.4184    0.4556 H   0  0  0  0  0  0  0  0  0  0  0  0
   -2.2137    3.4712    0.9275 N   0  0  0  0  0  0  0  0  0  0  0  0
   -1.5102    2.2327    1.1338 C   0  0  2  0  0  0  0  0  0  0  0  0
   -1.3539    1.5497   -0.2184 C   0  0  0  0  0  0  0  0  0  0  0  0
   -2.0852    1.7861   -1.1778 O   0  0  0  0  0  0  0  0  0  0  0  0
   -2.2477    1.3342    2.1145 C   0  0  0  0  0  0  0  0  0  0  0  0
   -2.6724    3.9052    1.7265 H   0  0  0  0  0  0  0  0  0  0  0  0
   -0.5220    2.4922    1.5290 H   0  0  0  0  0  0  0  0  0  0  0  0
   -3.2400    1.0636    1.7358 H   0  0  0  0  0  0  0  0  0  0  0  0
   -1.6970    0.4046    2.2923 H   0  0  0  0  0  0  0  0  0  0  0  0
   -2.3854    1.8384    3.0772 H   0  0  0  0  0  0  0  0  0  0  0  0
   -0.3283    0.6116   -0.2182 N   0  0  0  0  0  0  0  0  0  0  0  0
    0.0090   -0.1762   -1.3759 C   0  0  2  0  0  0  0  0  0  0  0  0
    1.5258   -0.1690   -1.5181 C   0  0  0  0  0  0  0  0  0  0  0  0
    2.2823    0.1531   -0.6042 O   0  0  0  0  0  0  0  0  0  0  0  0
   -0.6572    0.3560   -2.6419 C   0  0  0  0  0  0  0  0  0  0  0  0
   -2.1507    0.1435   -2.6054 C   0  0  0  0  0  0  0  0  0  0  0  0
   -2.6969   -0.7728   -2.0050 O   0  0  0  0  0  0  0  0  0  0  0  0
   -2.8267    1.0710   -3.3274 O   0  0  0  0  0  0  0  0  0  0  0  0
    0.2381    0.4970    0.6194 H   0  0  0  0  0  0  0  0  0  0  0  0
   -0.3228   -1.1987   -1.1588 H   0  0  0  0  0  0  0  0  0  0  0  0
   -0.4967    1.4361   -2.7497 H   0  0  0  0  0  0  0  0  0  0  0  0
   -0.2455   -0.0964   -3.5523 H   0  0  0  0  0  0  0  0  0  0  0  0
   -3.8013    0.9581   -3.3377 H   0  0  0  0  0  0  0  0  0  0  0  0
    1.9358   -0.6098   -2.7686 N   0  0  0  0  0  0  0  0  0  0  0  0
    3.3273   -0.7070   -3.1430 C   0  0  2  0  0  0  0  0  0  0  0  0
    3.9638   -1.8086   -2.3057 C   0  0  0  0  0  0  0  0  0  0  0  0
    3.5017   -2.1860   -1.2310 O   0  0  0  0  0  0  0  0  0  0  0  0
    4.0489    0.6161   -2.9394 C   0  0  0  0  0  0  0  0  0  0  0  0
    1.2287   -0.8747   -3.4480 H   0  0  0  0  0  0  0  0  0  0  0  0
    3.3511   -0.9914   -4.2006 H   0  0  0  0  0  0  0  0  0  0  0  0
    4.0355    0.9174   -1.8856 H   0  0  0  0  0  0  0  0  0  0  0  0
    5.0966    0.5486   -3.2506 H   0  0  0  0  0  0  0  0  0  0  0  0
    3.5716    1.4135   -3.5192 H   0  0  0  0  0  0  0  0  0  0  0  0
    5.1322   -2.2907   -2.8789 N   0  0  0  0  0  0  0  0  0  0  0  0
    5.9279   -3.3308   -2.2697 C   0  0  0  0  0  0  0  0  0  0  0  0
    5.4306   -1.9329   -3.7815 H   0  0  0  0  0  0  0  0  0  0  0  0
    6.7062   -2.8760   -1.6394 H   0  0  0  0  0  0  0  0  0  0  0  0
    5.2823   -3.9709   -1.6504 H   0  0  0  0  0  0  0  0  0  0  0  0
    6.4010   -3.9380   -3.0555 H   0  0  0  0  0  0  0  0  0  0  0  0
  1  3  1  0  0  0  0
  1  7  1  0  0  0  0
  1  2  2  0  0  0  0
 31 32  1  0  0  0  0
 32 40  1  0  0  0  0
 32 33  2  0  0  0  0
  8  9  1  0  0  0  0
  9 17  1  0  0  0  0
  9 10  2  0  0  0  0
 18 19  1  0  0  0  0
 19 30  1  0  0  0  0
 19 20  2  0  0  0  0
 21 22  1  0  0  0  0
 22 23  2  0  0  0  0
 22 24  1  0  0  0  0
 31 34  1  0  0  0  0
  8 11  1  0  0  0  0
 40 41  1  0  0  0  0
 18 21  1  0  0  0  0
 30 31  1  0  0  0  0
  7  8  1  0  0  0  0
 17 18  1  0  0  0  0
  3  4  1  0  0  0  0
  3  5  1  0  0  0  0
  3  6  1  0  0  0  0
 34 37  1  0  0  0  0
 34 38  1  0  0  0  0
 34 39  1  0  0  0  0
 11 14  1  0  0  0  0
 11 15  1  0  0  0  0
 11 16  1  0  0  0  0
 41 43  1  0  0  0  0
 41 44  1  0  0  0  0
 41 45  1  0  0  0  0
 21 27  1  0  0  0  0
 21 28  1  0  0  0  0
 31 36  1  0  0  0  0
  8 13  1  0  0  0  0
 18 26  1  0  0  0  0
 40 42  1  0  0  0  0
  7 12  1  0  0  0  0
 30 35  1  0  0  0  0
 17 25  1  0  0  0  0
 24 29  1  0  0  0  0
M  END
$$$$

  -OEChem-05262214473D

 45 44  0     1  0  0  0  0  0999 V2000
   -2.2987    4.1032   -0.3022 C   0  0  0  0  0  0  0  0  0  0  0  0
   -1.8049    3.7117   -1.3532 O   0  0  0  0  0  0  0  0  0  0  0  0
   -3.0791    5.3755   -0.2846 C   0  0  0  0  0  0  0  0  0  0  0  0
   -2.4478    6.2532   -0.0717 H   0  0  0  0  0  0  0  0  0  0  0  0
   -3.5571    5.5891   -1.2541 H   0  0  0  0  0  0  0  0  0  0  0  0
   -3.8940    5.4184    0.4556 H   0  0  0  0  0  0  0  0  0  0  0  0
   -2.2137    3.4712    0.9275 N   0  0  0  0  0  0  0  0  0  0  0  0
   -1.5102    2.2327    1.1338 C   0  0  2  0  0  0  0  0  0  0  0  0
   -1.3539    1.5497   -0.2184 C   0  0  0  0  0  0  0  0  0  0  0  0
   -2.0852    1.7861   -1.1778 O   0  0  0  0  0  0  0  0  0  0  0  0
   -2.2477    1.3342    2.1145 C   0  0  0  0  0  0  0  0  0  0  0  0
   -2.6724    3.9052    1.7265 H   0  0  0  0  0  0  0  0  0  0  0  0
   -0.5220    2.4922    1.5290 H   0  0  0  0  0  0  0  0  0  0  0  0
   -3.2400    1.0636    1.7358 H   0  0  0  0  0  0  0  0  0  0  0  0
   -1.6970    0.4046    2.2923 H   0  0  0  0  0  0  0  0  0  0  0  0
   -2.3854    1.8384    3.0772 H   0  0  0  0  0  0  0  0  0  0  0  0
   -0.3283    0.6116   -0.2182 N   0  0  0  0  0  0  0  0  0  0  0  0
    0.0090   -0.1762   -1.3759 C   0  0  2  0  0  0  0  0  0  0  0  0
    1.5258   -0.1690   -1.5181 C   0  0  0  0  0  0  0  0  0  0  0  0
    2.2881   -0.1116   -0.5554 O   0  0  0  0  0  0  0  0  0  0  0  0
   -0.6572    0.3560   -2.6419 C   0  0  0  0  0  0  0  0  0  0  0  0
   -2.1507    0.1435   -2.6054 C   0  0  0  0  0  0  0  0  0  0  0  0
   -2.6969   -0.7728   -2.0050 O   0  0  0  0  0  0  0  0  0  0  0  0
   -2.8267    1.0710   -3.3274 O   0  0  0  0  0  0  0  0  0  0  0  0
    0.2381    0.4970    0.6194 H   0  0  0  0  0  0  0  0  0  0  0  0
   -0.3228   -1.1987   -1.1588 H   0  0  0  0  0  0  0  0  0  0  0  0
   -0.4967    1.4361   -2.7497 H   0  0  0  0  0  0  0  0  0  0  0  0
   -0.2455   -0.0964   -3.5523 H   0  0  0  0  0  0  0  0  0  0  0  0
   -3.8013    0.9581   -3.3377 H   0  0  0  0  0  0  0  0  0  0  0  0
    1.9274   -0.2823   -2.8417 N   0  0  0  0  0  0  0  0  0  0  0  0
    3.3169   -0.3132   -3.2347 C   0  0  2  0  0  0  0  0  0  0  0  0
    3.9247   -1.6082   -2.7123 C   0  0  0  0  0  0  0  0  0  0  0  0
    3.4515   -2.2387   -1.7691 O   0  0  0  0  0  0  0  0  0  0  0  0
    4.0700    0.8951   -2.7002 C   0  0  0  0  0  0  0  0  0  0  0  0
    1.2153   -0.3462   -3.5633 H   0  0  0  0  0  0  0  0  0  0  0  0
    3.3358   -0.3159   -4.3300 H   0  0  0  0  0  0  0  0  0  0  0  0
    4.0619    0.9149   -1.6043 H   0  0  0  0  0  0  0  0  0  0  0  0
    5.1163    0.8850   -3.0228 H   0  0  0  0  0  0  0  0  0  0  0  0
    3.6134    1.8262   -3.0529 H   0  0  0  0  0  0  0  0  0  0  0  0
    5.0821   -1.9543   -3.3955 N   0  0  0  0  0  0  0  0  0  0  0  0
    5.8511   -3.1350   -3.0784 C   0  0  0  0  0  0  0  0  0  0  0  0
    5.3909   -1.3832   -4.1767 H   0  0  0  0  0  0  0  0  0  0  0  0
    6.6391   -2.8769   -2.3556 H   0  0  0  0  0  0  0  0  0  0  0  0
    5.1890   -3.8974   -2.6421 H   0  0  0  0  0  0  0  0  0  0  0  0
    6.3109   -3.5304   -3.9962 H   0  0  0  0  0  0  0  0  0  0  0  0
  1  3  1  0  0  0  0
  1  7  1  0  0  0  0
  1  2  2  0  0  0  0
 31 32  1  0  0  0  0
 32 40  1  0  0  0  0
 32 33  2  0  0  0  0
  8  9  1  0  0  0  0
  9 17  1  0  0  0  0
  9 10  2  0  0  0  0
 18 19  1  0  0  0  0
 19 30  1  0  0  0  0
 19 20  2  0  0  0  0
 21 22  1  0  0  0  0
 22 23  2  0  0  0  0
 22 24  1  0  0  0  0
 31 34  1  0  0  0  0
  8 11  1  0  0  0  0
 40 41  1  0  0  0  0
 18 21  1  0  0  0  0
 30 31  1  0  0  0  0
  7  8  1  0  0  0  0
 17 18  1  0  0  0  0
  3  4  1  0  0  0  0
  3  5  1  0  0  0  0
  3  6  1  0  0  0  0
 34 37  1  0  0  0  0
 34 38  1  0  0  0  0
 34 39  1  0  0  0  0
 11 14  1  0  0  0  0
 11 15  1  0  0  0  0
 11 16  1  0  0  0  0
 41 43  1  0  0  0  0
 41 44  1  0  0  0  0
 41 45  1  0  0  0  0
 21 27  1  0  0  0  0
 21 28  1  0  0  0  0
 31 36  1  0  0  0  0
  8 13  1  0  0  0  0
 18 26  1  0  0  0  0
 40 42  1  0  0  0  0
  7 12  1  0  0  0  0
 30 35  1  0  0  0  0
 17 25  1  0  0  0  0
 24 29  1  0  0  0  0
M  END
$$$$

  -OEChem-05262214473D

 45 44  0     1  0  0  0  0  0999 V2000
   -2.2987    4.1032   -0.3022 C   0  0  0  0  0  0  0  0  0  0  0  0
   -1.8049    3.7117   -1.3532 O   0  0  0  0  0  0  0  0  0  0  0  0
   -3.0791    5.3755   -0.2846 C   0  0  0  0  0  0  0  0  0  0  0  0
   -2.4478    6.2532   -0.0717 H   0  0  0  0  0  0  0  0  0  0  0  0
   -3.5571    5.5891   -1.2541 H   0  0  0  0  0  0  0  0  0  0  0  0
   -3.8940    5.4184    0.4556 H   0  0  0  0  0  0  0  0  0  0  0  0
   -2.2137    3.4712    0.9275 N   0  0  0  0  0  0  0  0  0  0  0  0
   -1.5102    2.2327    1.1338 C   0  0  2  0  0  0  0  0  0  0  0  0
   -1.3539    1.5497   -0.2184 C   0  0  0  0  0  0  0  0  0  0  0  0
   -2.0852    1.7861   -1.1778 O   0  0  0  0  0  0  0  0  0  0  0  0
   -2.2477    1.3342    2.1145 C   0  0  0  0  0  0  0  0  0  0  0  0
   -2.6724    3.9052    1.7265 H   0  0  0  0  0  0  0  0  0  0  0  0
   -0.5220    2.4922    1.5290 H   0  0  0  0  0  0  0  0  0  0  0  0
   -3.2400    1.0636    1.7358 H   0  0  0  0  0  0  0  0  0  0  0  0
   -1.6970    0.4046    2.2923 H   0  0  0  0  0  0  0  0  0  0  0  0
   -2.3854    1.8384    3.0772 H   0  0  0  0  0  0  0  0  0  0  0  0
   -0.3283    0.6116   -0.2182 N   0  0  0  0  0  0  0  0  0  0  0  0
    0.0090   -0.1762   -1.3759 C   0  0  2  0  0  0  0  0  0  0  0  0
    1.5258   -0.1690   -1.5181 C   0  0  0  0  0  0  0  0  0  0  0  0
    2.2874   -0.3799   -0.5765 O   0  0  0  0  0  0  0  0  0  0  0  0
   -0.6572    0.3560   -2.6419 C   0  0  0  0  0  0  0  0  0  0  0  0
   -2.1507    0.1435   -2.6054 C   0  0  0  0  0  0  0  0  0  0  0  0
   -2.6969   -0.7728   -2.0050 O   0  0  0  0  0  0  0  0  0  0  0  0
   -2.8267    1.0710   -3.3274 O   0  0  0  0  0  0  0  0  0  0  0  0
    0.2381    0.4970    0.6194 H   0  0  0  0  0  0  0  0  0  0  0  0
   -0.3228   -1.1987   -1.1588 H   0  0  0  0  0  0  0  0  0  0  0  0
   -0.4967    1.4361   -2.7497 H   0  0  0  0  0  0  0  0  0  0  0  0
   -0.2455   -0.0964   -3.5523 H   0  0  0  0  0  0  0  0  0  0  0  0
   -3.8013    0.9581   -3.3377 H   0  0  0  0  0  0  0  0  0  0  0  0
    1.9271    0.0530   -2.8280 N   0  0  0  0  0  0  0  0  0  0  0  0
    3.3161    0.0911   -3.2217 C   0  0  2  0  0  0  0  0  0  0  0  0
    3.8913   -1.3090   -3.0534 C   0  0  0  0  0  0  0  0  0  0  0  0
    3.4011   -2.1497   -2.3024 O   0  0  0  0  0  0  0  0  0  0  0  0
    4.0974    1.1024   -2.3973 C   0  0  0  0  0  0  0  0  0  0  0  0
    1.2151    0.1944   -3.5385 H   0  0  0  0  0  0  0  0  0  0  0  0
    3.3371    0.3703   -4.2808 H   0  0  0  0  0  0  0  0  0  0  0  0
    4.0876    0.8393   -1.3333 H   0  0  0  0  0  0  0  0  0  0  0  0
    5.1438    1.1506   -2.7163 H   0  0  0  0  0  0  0  0  0  0  0  0
    3.6643    2.1036   -2.4961 H   0  0  0  0  0  0  0  0  0  0  0  0
    5.0413   -1.4950   -3.8077 N   0  0  0  0  0  0  0  0  0  0  0  0
    5.7807   -2.7356   -3.8090 C   0  0  0  0  0  0  0  0  0  0  0  0
    5.3653   -0.7495   -4.4168 H   0  0  0  0  0  0  0  0  0  0  0  0
    6.5733   -2.6915   -3.0475 H   0  0  0  0  0  0  0  0  0  0  0  0
    5.0994   -3.5686   -3.5810 H   0  0  0  0  0  0  0  0  0  0  0  0
    6.2325   -2.8921   -4.7997 H   0  0  0  0  0  0  0  0  0  0  0  0
  1  3  1  0  0  0  0
  1  7  1  0  0  0  0
  1  2  2  0  0  0  0
 31 32  1  0  0  0  0
 32 40  1  0  0  0  0
 32 33  2  0  0  0  0
  8  9  1  0  0  0  0
  9 17  1  0  0  0  0
  9 10  2  0  0  0  0
 18 19  1  0  0  0  0
 19 30  1  0  0  0  0
 19 20  2  0  0  0  0
 21 22  1  0  0  0  0
 22 23  2  0  0  0  0
 22 24  1  0  0  0  0
 31 34  1  0  0  0  0
  8 11  1  0  0  0  0
 40 41  1  0  0  0  0
 18 21  1  0  0  0  0
 30 31  1  0  0  0  0
  7  8  1  0  0  0  0
 17 18  1  0  0  0  0
  3  4  1  0  0  0  0
  3  5  1  0  0  0  0
  3  6  1  0  0  0  0
 34 37  1  0  0  0  0
 34 38  1  0  0  0  0
 34 39  1  0  0  0  0
 11 14  1  0  0  0  0
 11 15  1  0  0  0  0
 11 16  1  0  0  0  0
 41 43  1  0  0  0  0
 41 44  1  0  0  0  0
 41 45  1  0  0  0  0
 21 27  1  0  0  0  0
 21 28  1  0  0  0  0
 31 36  1  0  0  0  0
  8 13  1  0  0  0  0
 18 26  1  0  0  0  0
 40 42  1  0  0  0  0
  7 12  1  0  0  0  0
 30 35  1  0  0  0  0
 17 25  1  0  0  0  0
 24 29  1  0  0  0  0
M  END
$$$$

  -OEChem-05262214473D

 45 44  0     1  0  0  0  0  0999 V2000
   -2.2987    4.1032   -0.3022 C   0  0  0  0  0  0  0  0  0  0  0  0
   -1.8049    3.7117   -1.3532 O   0  0  0  0  0  0  0  0  0  0  0  0
   -3.0791    5.3755   -0.2846 C   0  0  0  0  0  0  0  0  0  0  0  0
   -2.4478    6.2532   -0.0717 H   0  0  0  0  0  0  0  0  0  0  0  0
   -3.5571    5.5891   -1.2541 H   0  0  0  0  0  0  0  0  0  0  0  0
   -3.8940    5.4184    0.4556 H   0  0  0  0  0  0  0  0  0  0  0  0
   -2.2137    3.4712    0.9275 N   0  0  0  0  0  0  0  0  0  0  0  0
   -1.5102    2.2327    1.1338 C   0  0  2  0  0  0  0  0  0  0  0  0
   -1.3539    1.5497   -0.2184 C   0  0  0  0  0  0  0  0  0  0  0  0
   -2.0852    1.7861   -1.1778 O   0  0  0  0  0  0  0  0  0  0  0  0
   -2.2477    1.3342    2.1145 C   0  0  0  0  0  0  0  0  0  0  0  0
   -2.6724    3.9052    1.7265 H   0  0  0  0  0  0  0  0  0  0  0  0
   -0.5220    2.4922    1.5290 H   0  0  0  0  0  0  0  0  0  0  0  0
   -3.2400    1.0636    1.7358 H   0  0  0  0  0  0  0  0  0  0  0  0
   -1.6970    0.4046    2.2923 H   0  0  0  0  0  0  0  0  0  0  0  0
   -2.3854    1.8384    3.0772 H   0  0  0  0  0  0  0  0  0  0  0  0
   -0.3283    0.6116   -0.2182 N   0  0  0  0  0  0  0  0  0  0  0  0
    0.0090   -0.1762   -1.3759 C   0  0  2  0  0  0  0  0  0  0  0  0
    1.5258   -0.1690   -1.5181 C   0  0  0  0  0  0  0  0  0  0  0  0
    2.2802   -0.6337   -0.6660 O   0  0  0  0  0  0  0  0  0  0  0  0
   -0.6572    0.3560   -2.6419 C   0  0  0  0  0  0  0  0  0  0  0  0
   -2.1507    0.1435   -2.6054 C   0  0  0  0  0  0  0  0  0  0  0  0
   -2.6969   -0.7728   -2.0050 O   0  0  0  0  0  0  0  0  0  0  0  0
   -2.8267    1.0710   -3.3274 O   0  0  0  0  0  0  0  0  0  0  0  0
    0.2381    0.4970    0.6194 H   0  0  0  0  0  0  0  0  0  0  0  0
   -0.3228   -1.1987   -1.1588 H   0  0  0  0  0  0  0  0  0  0  0  0
   -0.4967    1.4361   -2.7497 H   0  0  0  0  0  0  0  0  0  0  0  0
   -0.2455   -0.0964   -3.5523 H   0  0  0  0  0  0  0  0  0  0  0  0
   -3.8013    0.9581   -3.3377 H   0  0  0  0  0  0  0  0  0  0  0  0
    1.9349    0.3734   -2.7283 N   0  0  0  0  0  0  0  0  0  0  0  0
    3.3252    0.4783   -3.1050 C   0  0  2  0  0  0  0  0  0  0  0  0
    3.8658   -0.9313   -3.3057 C   0  0  0  0  0  0  0  0  0  0  0  0
    3.3539   -1.9251   -2.7945 O   0  0  0  0  0  0  0  0  0  0  0  0
    4.1293    1.2240   -2.0513 C   0  0  0  0  0  0  0  0  0  0  0  0
    1.2279    0.7101   -3.3753 H   0  0  0  0  0  0  0  0  0  0  0  0
    3.3550    1.0204   -4.0565 H   0  0  0  0  0  0  0  0  0  0  0  0
    4.1110    0.6959   -1.0910 H   0  0  0  0  0  0  0  0  0  0  0  0
    5.1772    1.3276   -2.3517 H   0  0  0  0  0  0  0  0  0  0  0  0
    3.7208    2.2269   -1.8869 H   0  0  0  0  0  0  0  0  0  0  0  0
    5.0124   -0.9441   -4.0875 N   0  0  0  0  0  0  0  0  0  0  0  0
    5.7214   -2.1599   -4.4117 C   0  0  0  0  0  0  0  0  0  0  0  0
    5.3557   -0.0749   -4.4854 H   0  0  0  0  0  0  0  0  0  0  0  0
    6.5134   -2.3325   -3.6681 H   0  0  0  0  0  0  0  0  0  0  0  0
    5.0196   -3.0069   -4.4030 H   0  0  0  0  0  0  0  0  0  0  0  0
    6.1712   -2.0666   -5.4112 H   0  0  0  0  0  0  0  0  0  0  0  0
  1  3  1  0  0  0  0
  1  7  1  0  0  0  0
  1  2  2  0  0  0  0
 31 32  1  0  0  0  0
 32 40  1  0  0  0  0
 32 33  2  0  0  0  0
  8  9  1  0  0  0  0
  9 17  1  0  0  0  0
  9 10  2  0  0  0  0
 18 19  1  0  0  0  0
 19 30  1  0  0  0  0
 19 20  2  0  0  0  0
 21 22  1  0  0  0  0
 22 23  2  0  0  0  0
 22 24  1  0  0  0  0
 31 34  1  0  0  0  0
  8 11  1  0  0  0  0
 40 41  1  0  0  0  0
 18 21  1  0  0  0  0
 30 31  1  0  0  0  0
  7  8  1  0  0  0  0
 17 18  1  0  0  0  0
  3  4  1  0  0  0  0
  3  5  1  0  0  0  0
  3  6  1  0  0  0  0
 34 37  1  0  0  0  0
 34 38  1  0  0  0  0
 34 39  1  0  0  0  0
 11 14  1  0  0  0  0
 11 15  1  0  0  0  0
 11 16  1  0  0  0  0
 41 43  1  0  0  0  0
 41 44  1  0  0  0  0
 41 45  1  0  0  0  0
 21 27  1  0  0  0  0
 21 28  1  0  0  0  0
 31 36  1  0  0  0  0
  8 13  1  0  0  0  0
 18 26  1  0  0  0  0
 40 42  1  0  0  0  0
  7 12  1  0  0  0  0
 30 35  1  0  0  0  0
 17 25  1  0  0  0  0
 24 29  1  0  0  0  0
M  END
$$$$

  -OEChem-05262214473D

 45 44  0     1  0  0  0  0  0999 V2000
   -2.2987    4.1032   -0.3022 C   0  0  0  0  0  0  0  0  0  0  0  0
   -1.8049    3.7117   -1.3532 O   0  0  0  0  0  0  0  0  0  0  0  0
   -3.0791    5.3755   -0.2846 C   0  0  0  0  0  0  0  0  0  0  0  0
   -2.4478    6.2532   -0.0717 H   0  0  0  0  0  0  0  0  0  0  0  0
   -3.5571    5.5891   -1.2541 H   0  0  0  0  0  0  0  0  0  0  0  0
   -3.8940    5.4184    0.4556 H   0  0  0  0  0  0  0  0  0  0  0  0
   -2.2137    3.4712    0.9275 N   0  0  0  0  0  0  0  0  0  0  0  0
   -1.5102    2.2327    1.1338 C   0  0  2  0  0  0  0  0  0  0  0  0
   -1.3539    1.5497   -0.2184 C   0  0  0  0  0  0  0  0  0  0  0  0
   -2.0852    1.7861   -1.1778 O   0  0  0  0  0  0  0  0  0  0  0  0
   -2.2477    1.3342    2.1145 C   0  0  0  0  0  0  0  0  0  0  0  0
   -2.6724    3.9052    1.7265 H   0  0  0  0  0  0  0  0  0  0  0  0
   -0.5220    2.4922    1.5290 H   0  0  0  0  0  0  0  0  0  0  0  0
   -3.2400    1.0636    1.7358 H   0  0  0  0  0  0  0  0  0  0  0  0
   -1.6970    0.4046    2.2923 H   0  0  0  0  0  0  0  0  0  0  0  0
   -2.3854    1.8384    3.0772 H   0  0  0  0  0  0  0  0  0  0  0  0
   -0.3283    0.6116   -0.2182 N   0  0  0  0  0  0  0  0  0  0  0  0
    0.0090   -0.1762   -1.3759 C   0  0  2  0  0  0  0  0  0  0  0  0
    1.5258   -0.1690   -1.5181 C   0  0  0  0  0  0  0  0  0  0  0  0
    2.2671   -0.8555   -0.8178 O   0  0  0  0  0  0  0  0  0  0  0  0
   -0.6572    0.3560   -2.6419 C   0  0  0  0  0  0  0  0  0  0  0  0
   -2.1507    0.1435   -2.6054 C   0  0  0  0  0  0  0  0  0  0  0  0
   -2.6969   -0.7728   -2.0050 O   0  0  0  0  0  0  0  0  0  0  0  0
   -2.8267    1.0710   -3.3274 O   0  0  0  0  0  0  0  0  0  0  0  0
    0.2381    0.4970    0.6194 H   0  0  0  0  0  0  0  0  0  0  0  0
   -0.3228   -1.1987   -1.1588 H   0  0  0  0  0  0  0  0  0  0  0  0
   -0.4967    1.4361   -2.7497 H   0  0  0  0  0  0  0  0  0  0  0  0
   -0.2455   -0.0964   -3.5523 H   0  0  0  0  0  0  0  0  0  0  0  0
   -3.8013    0.9581   -3.3377 H   0  0  0  0  0  0  0  0  0  0  0  0
    1.9503    0.6569   -2.5495 N   0  0  0  0  0  0  0  0  0  0  0  0
    3.3435    0.8220   -2.8926 C   0  0  2  0  0  0  0  0  0  0  0  0
    3.8500   -0.5008   -3.4520 C   0  0  0  0  0  0  0  0  0  0  0  0
    3.3131   -1.5802   -3.2119 O   0  0  0  0  0  0  0  0  0  0  0  0
    4.1634    1.2514   -1.6859 C   0  0  0  0  0  0  0  0  0  0  0  0
    1.2530    1.1659   -3.0847 H   0  0  0  0  0  0  0  0  0  0  0  0
    3.3883    1.5901   -3.6724 H   0  0  0  0  0  0  0  0  0  0  0  0
    4.1305    0.4943   -0.8939 H   0  0  0  0  0  0  0  0  0  0  0  0
    5.2141    1.4038   -1.9540 H   0  0  0  0  0  0  0  0  0  0  0  0
    3.7791    2.1876   -1.2668 H   0  0  0  0  0  0  0  0  0  0  0  0
    4.9975   -0.3392   -4.2158 N   0  0  0  0  0  0  0  0  0  0  0  0
    5.6774   -1.4471   -4.8454 C   0  0  0  0  0  0  0  0  0  0  0  0
    5.3626    0.5947   -4.3778 H   0  0  0  0  0  0  0  0  0  0  0  0
    6.4635   -1.8245   -4.1749 H   0  0  0  0  0  0  0  0  0  0  0  0
    4.9551   -2.2506   -5.0522 H   0  0  0  0  0  0  0  0  0  0  0  0
    6.1312   -1.1102   -5.7891 H   0  0  0  0  0  0  0  0  0  0  0  0
  1  3  1  0  0  0  0
  1  7  1  0  0  0  0
  1  2  2  0  0  0  0
 31 32  1  0  0  0  0
 32 40  1  0  0  0  0
 32 33  2  0  0  0  0
  8  9  1  0  0  0  0
  9 17  1  0  0  0  0
  9 10  2  0  0  0  0
 18 19  1  0  0  0  0
 19 30  1  0  0  0  0
 19 20  2  0  0  0  0
 21 22  1  0  0  0  0
 22 23  2  0  0  0  0
 22 24  1  0  0  0  0
 31 34  1  0  0  0  0
  8 11  1  0  0  0  0
 40 41  1  0  0  0  0
 18 21  1  0  0  0  0
 30 31  1  0  0  0  0
  7  8  1  0  0  0  0
 17 18  1  0  0  0  0
  3  4  1  0  0  0  0
  3  5  1  0  0  0  0
  3  6  1  0  0  0  0
 34 37  1  0  0  0  0
 34 38  1  0  0  0  0
 34 39  1  0  0  0  0
 11 14  1  0  0  0  0
 11 15  1  0  0  0  0
 11 16  1  0  0  0  0
 41 43  1  0  0  0  0
 41 44  1  0  0  0  0
 41 45  1  0  0  0  0
 21 27  1  0  0  0  0
 21 28  1  0  0  0  0
 31 36  1  0  0  0  0
  8 13  1  0  0  0  0
 18 26  1  0  0  0  0
 40 42  1  0  0  0  0
  7 12  1  0  0  0  0
 30 35  1  0  0  0  0
 17 25  1  0  0  0  0
 24 29  1  0  0  0  0
M  END
$$$$

  -OEChem-05262214473D

 45 44  0     1  0  0  0  0  0999 V2000
   -2.2987    4.1032   -0.3022 C   0  0  0  0  0  0  0  0  0  0  0  0
   -1.8049    3.7117   -1.3532 O   0  0  0  0  0  0  0  0  0  0  0  0
   -3.0791    5.3755   -0.2846 C   0  0  0  0  0  0  0  0  0  0  0  0
   -2.4478    6.2532   -0.0717 H   0  0  0  0  0  0  0  0  0  0  0  0
   -3.5571    5.5891   -1.2541 H   0  0  0  0  0  0  0  0  0  0  0  0
   -3.8940    5.4184    0.4556 H   0  0  0  0  0  0  0  0  0  0  0  0
   -2.2137    3.4712    0.9275 N   0  0  0  0  0  0  0  0  0  0  0  0
   -1.5102    2.2327    1.1338 C   0  0  2  0  0  0  0  0  0  0  0  0
   -1.3539    1.5497   -0.2184 C   0  0  0  0  0  0  0  0  0  0  0  0
   -2.0852    1.7861   -1.1778 O   0  0  0  0  0  0  0  0  0  0  0  0
   -2.2477    1.3342    2.1145 C   0  0  0  0  0  0  0  0  0  0  0  0
   -2.6724    3.9052    1.7265 H   0  0  0  0  0  0  0  0  0  0  0  0
   -0.5220    2.4922    1.5290 H   0  0  0  0  0  0  0  0  0  0  0  0
   -3.2400    1.0636    1.7358 H   0  0  0  0  0  0  0  0  0  0  0  0
   -1.6970    0.4046    2.2923 H   0  0  0  0  0  0  0  0  0  0  0  0
   -2.3854    1.8384    3.0772 H   0  0  0  0  0  0  0  0  0  0  0  0
   -0.3283    0.6116   -0.2182 N   0  0  0  0  0  0  0  0  0  0  0  0
    0.0090   -0.1762   -1.3759 C   0  0  2  0  0  0  0  0  0  0  0  0
    1.5258   -0.1690   -1.5181 C   0  0  0  0  0  0  0  0  0  0  0  0
    2.2488   -1.0304   -1.0216 O   0  0  0  0  0  0  0  0  0  0  0  0
   -0.6572    0.3560   -2.6419 C   0  0  0  0  0  0  0  0  0  0  0  0
   -2.1507    0.1435   -2.6054 C   0  0  0  0  0  0  0  0  0  0  0  0
   -2.6969   -0.7728   -2.0050 O   0  0  0  0  0  0  0  0  0  0  0  0
   -2.8267    1.0710   -3.3274 O   0  0  0  0  0  0  0  0  0  0  0  0
    0.2381    0.4970    0.6194 H   0  0  0  0  0  0  0  0  0  0  0  0
   -0.3228   -1.1987   -1.1588 H   0  0  0  0  0  0  0  0  0  0  0  0
   -0.4967    1.4361   -2.7497 H   0  0  0  0  0  0  0  0  0  0  0  0
   -0.2455   -0.0964   -3.5523 H   0  0  0  0  0  0  0  0  0  0  0  0
   -3.8013    0.9581   -3.3377 H   0  0  0  0  0  0  0  0  0  0  0  0
    1.9723    0.8844   -2.3037 N   0  0  0  0  0  0  0  0  0  0  0  0
    3.3697    1.0989   -2.5988 C   0  0  2  0  0  0  0  0  0  0  0  0
    3.8450   -0.0469   -3.4824 C   0  0  0  0  0  0  0  0  0  0  0  0
    3.2815   -1.1385   -3.5262 O   0  0  0  0  0  0  0  0  0  0  0  0
    4.1975    1.1830   -1.3258 C   0  0  0  0  0  0  0  0  0  0  0  0
    1.2885    1.5307   -2.6866 H   0  0  0  0  0  0  0  0  0  0  0  0
    3.4347    2.0406   -3.1545 H   0  0  0  0  0  0  0  0  0  0  0  0
    4.1446    0.2483   -0.7556 H   0  0  0  0  0  0  0  0  0  0  0  0
    5.2521    1.3740   -1.5502 H   0  0  0  0  0  0  0  0  0  0  0  0
    3.8353    1.9885   -0.6779 H   0  0  0  0  0  0  0  0  0  0  0  0
    4.9975    0.2784   -4.1838 N   0  0  0  0  0  0  0  0  0  0  0  0
    5.6515   -0.6457   -5.0806 C   0  0  0  0  0  0  0  0  0  0  0  0
    5.3855    1.2135   -4.1013 H   0  0  0  0  0  0  0  0  0  0  0  0
    6.4269   -1.2019   -4.5334 H   0  0  0  0  0  0  0  0  0  0  0  0
    4.9103   -1.3513   -5.4843 H   0  0  0  0  0  0  0  0  0  0  0  0
    6.1152   -0.0880   -5.9076 H   0  0  0  0  0  0  0  0  0  0  0  0
  1  3  1  0  0  0  0
  1  7  1  0  0  0  0
  1  2  2  0  0  0  0
 31 32  1  0  0  0  0
 32 40  1  0  0  0  0
 32 33  2  0  0  0  0
  8  9  1  0  0  0  0
  9 17  1  0  0  0  0
  9 10  2  0  0  0  0
 18 19  1  0  0  0  0
 19 30  1  0  0  0  0
 19 20  2  0  0  0  0
 21 22  1  0  0  0  0
 22 23  2  0  0  0  0
 22 24  1  0  0  0  0
 31 34  1  0  0  0  0
  8 11  1  0  0  0  0
 40 41  1  0  0  0  0
 18 21  1  0  0  0  0
 30 31  1  0  0  0  0
  7  8  1  0  0  0  0
 17 18  1  0  0  0  0
  3  4  1  0  0  0  0
  3  5  1  0  0  0  0
  3  6  1  0  0  0  0
 34 37  1  0  0  0  0
 34 38  1  0  0  0  0
 34 39  1  0  0  0  0
 11 14  1  0  0  0  0
 11 15  1  0  0  0  0
 11 16  1  0  0  0  0
 41 43  1  0  0  0  0
 41 44  1  0  0  0  0
 41 45  1  0  0  0  0
 21 27  1  0  0  0  0
 21 28  1  0  0  0  0
 31 36  1  0  0  0  0
  8 13  1  0  0  0  0
 18 26  1  0  0  0  0
 40 42  1  0  0  0  0
  7 12  1  0  0  0  0
 30 35  1  0  0  0  0
 17 25  1  0  0  0  0
 24 29  1  0  0  0  0
M  END
$$$$

  -OEChem-05262214473D

 45 44  0     1  0  0  0  0  0999 V2000
   -2.2987    4.1032   -0.3022 C   0  0  0  0  0  0  0  0  0  0  0  0
   -1.8049    3.7117   -1.3532 O   0  0  0  0  0  0  0  0  0  0  0  0
   -3.0791    5.3755   -0.2846 C   0  0  0  0  0  0  0  0  0  0  0  0
   -2.4478    6.2532   -0.0717 H   0  0  0  0  0  0  0  0  0  0  0  0
   -3.5571    5.5891   -1.2541 H   0  0  0  0  0  0  0  0  0  0  0  0
   -3.8940    5.4184    0.4556 H   0  0  0  0  0  0  0  0  0  0  0  0
   -2.2137    3.4712    0.9275 N   0  0  0  0  0  0  0  0  0  0  0  0
   -1.5102    2.2327    1.1338 C   0  0  2  0  0  0  0  0  0  0  0  0
   -1.3539    1.5497   -0.2184 C   0  0  0  0  0  0  0  0  0  0  0  0
   -2.0852    1.7861   -1.1778 O   0  0  0  0  0  0  0  0  0  0  0  0
   -2.2477    1.3342    2.1145 C   0  0  0  0  0  0  0  0  0  0  0  0
   -2.6724    3.9052    1.7265 H   0  0  0  0  0  0  0  0  0  0  0  0
   -0.5220    2.4922    1.5290 H   0  0  0  0  0  0  0  0  0  0  0  0
   -3.2400    1.0636    1.7358 H   0  0  0  0  0  0  0  0  0  0  0  0
   -1.6970    0.4046    2.2923 H   0  0  0  0  0  0  0  0  0  0  0  0
   -2.3854    1.8384    3.0772 H   0  0  0  0  0  0  0  0  0  0  0  0
   -0.3283    0.6116   -0.2182 N   0  0  0  0  0  0  0  0  0  0  0  0
    0.0090   -0.1762   -1.3759 C   0  0  2  0  0  0  0  0  0  0  0  0
    1.5258   -0.1690   -1.5181 C   0  0  0  0  0  0  0  0  0  0  0  0
    2.2267   -1.1463   -1.2635 O   0  0  0  0  0  0  0  0  0  0  0  0
   -0.6572    0.3560   -2.6419 C   0  0  0  0  0  0  0  0  0  0  0  0
   -2.1507    0.1435   -2.6054 C   0  0  0  0  0  0  0  0  0  0  0  0
   -2.6969   -0.7728   -2.0050 O   0  0  0  0  0  0  0  0  0  0  0  0
   -2.8267    1.0710   -3.3274 O   0  0  0  0  0  0  0  0  0  0  0  0
    0.2381    0.4970    0.6194 H   0  0  0  0  0  0  0  0  0  0  0  0
   -0.3228   -1.1987   -1.1588 H   0  0  0  0  0  0  0  0  0  0  0  0
   -0.4967    1.4361   -2.7497 H   0  0  0  0  0  0  0  0  0  0  0  0
   -0.2455   -0.0964   -3.5523 H   0  0  0  0  0  0  0  0  0  0  0  0
   -3.8013    0.9581   -3.3377 H   0  0  0  0  0  0  0  0  0  0  0  0
    1.9993    1.0403   -2.0077 N   0  0  0  0  0  0  0  0  0  0  0  0
    3.4021    1.2899   -2.2437 C   0  0  2  0  0  0  0  0  0  0  0  0
    3.8511    0.3995   -3.3948 C   0  0  0  0  0  0  0  0  0  0  0  0
    3.2613   -0.6301   -3.7159 O   0  0  0  0  0  0  0  0  0  0  0  0
    4.2292    1.0232   -0.9957 C   0  0  0  0  0  0  0  0  0  0  0  0
    1.3322    1.7796   -2.2081 H   0  0  0  0  0  0  0  0  0  0  0  0
    3.4911    2.3413   -2.5383 H   0  0  0  0  0  0  0  0  0  0  0  0
    4.1525   -0.0252   -0.6853 H   0  0  0  0  0  0  0  0  0  0  0  0
    5.2886    1.2403   -1.1679 H   0  0  0  0  0  0  0  0  0  0  0  0
    3.8855    1.6431   -0.1606 H   0  0  0  0  0  0  0  0  0  0  0  0
    5.0125    0.8668   -3.9938 N   0  0  0  0  0  0  0  0  0  0  0  0
    5.6455    0.1896   -5.1013 C   0  0  0  0  0  0  0  0  0  0  0  0
    5.4230    1.7395   -3.6748 H   0  0  0  0  0  0  0  0  0  0  0  0
    6.4061   -0.5073   -4.7193 H   0  0  0  0  0  0  0  0  0  0  0  0
    4.8882   -0.3701   -5.6699 H   0  0  0  0  0  0  0  0  0  0  0  0
    6.1242    0.9303   -5.7587 H   0  0  0  0  0  0  0  0  0  0  0  0
  1  3  1  0  0  0  0
  1  7  1  0  0  0  0
  1  2  2  0  0  0  0
 31 32  1  0  0  0  0
 32 40  1  0  0  0  0
 32 33  2  0  0  0  0
  8  9  1  0  0  0  0
  9 17  1  0  0  0  0
  9 10  2  0  0  0  0
 18 19  1  0  0  0  0
 19 30  1  0  0  0  0
 19 20  2  0  0  0  0
 21 22  1  0  0  0  0
 22 23  2  0  0  0  0
 22 24  1  0  0  0  0
 31 34  1  0  0  0  0
  8 11  1  0  0  0  0
 40 41  1  0  0  0  0
 18 21  1  0  0  0  0
 30 31  1  0  0  0  0
  7  8  1  0  0  0  0
 17 18  1  0  0  0  0
  3  4  1  0  0  0  0
  3  5  1  0  0  0  0
  3  6  1  0  0  0  0
 34 37  1  0  0  0  0
 34 38  1  0  0  0  0
 34 39  1  0  0  0  0
 11 14  1  0  0  0  0
 11 15  1  0  0  0  0
 11 16  1  0  0  0  0
 41 43  1  0  0  0  0
 41 44  1  0  0  0  0
 41 45  1  0  0  0  0
 21 27  1  0  0  0  0
 21 28  1  0  0  0  0
 31 36  1  0  0  0  0
  8 13  1  0  0  0  0
 18 26  1  0  0  0  0
 40 42  1  0  0  0  0
  7 12  1  0  0  0  0
 30 35  1  0  0  0  0
 17 25  1  0  0  0  0
 24 29  1  0  0  0  0
M  END
$$$$

  -OEChem-05262214473D

 45 44  0     1  0  0  0  0  0999 V2000
   -2.2987    4.1032   -0.3022 C   0  0  0  0  0  0  0  0  0  0  0  0
   -1.8049    3.7117   -1.3532 O   0  0  0  0  0  0  0  0  0  0  0  0
   -3.0791    5.3755   -0.2846 C   0  0  0  0  0  0  0  0  0  0  0  0
   -2.4478    6.2532   -0.0717 H   0  0  0  0  0  0  0  0  0  0  0  0
   -3.5571    5.5891   -1.2541 H   0  0  0  0  0  0  0  0  0  0  0  0
   -3.8940    5.4184    0.4556 H   0  0  0  0  0  0  0  0  0  0  0  0
   -2.2137    3.4712    0.9275 N   0  0  0  0  0  0  0  0  0  0  0  0
   -1.5102    2.2327    1.1338 C   0  0  2  0  0  0  0  0  0  0  0  0
   -1.3539    1.5497   -0.2184 C   0  0  0  0  0  0  0  0  0  0  0  0
   -2.0852    1.7861   -1.1778 O   0  0  0  0  0  0  0  0  0  0  0  0
   -2.2477    1.3342    2.1145 C   0  0  0  0  0  0  0  0  0  0  0  0
   -2.6724    3.9052    1.7265 H   0  0  0  0  0  0  0  0  0  0  0  0
   -0.5220    2.4922    1.5290 H   0  0  0  0  0  0  0  0  0  0  0  0
   -3.2400    1.0636    1.7358 H   0  0  0  0  0  0  0  0  0  0  0  0
   -1.6970    0.4046    2.2923 H   0  0  0  0  0  0  0  0  0  0  0  0
   -2.3854    1.8384    3.0772 H   0  0  0  0  0  0  0  0  0  0  0  0
   -0.3283    0.6116   -0.2182 N   0  0  0  0  0  0  0  0  0  0  0  0
    0.0090   -0.1762   -1.3759 C   0  0  2  0  0  0  0  0  0  0  0  0
    1.5258   -0.1690   -1.5181 C   0  0  0  0  0  0  0  0  0  0  0  0
    2.2022   -1.1954   -1.5270 O   0  0  0  0  0  0  0  0  0  0  0  0
   -0.6572    0.3560   -2.6419 C   0  0  0  0  0  0  0  0  0  0  0  0
   -2.1507    0.1435   -2.6054 C   0  0  0  0  0  0  0  0  0  0  0  0
   -2.6969   -0.7728   -2.0050 O   0  0  0  0  0  0  0  0  0  0  0  0
   -2.8267    1.0710   -3.3274 O   0  0  0  0  0  0  0  0  0  0  0  0
    0.2381    0.4970    0.6194 H   0  0  0  0  0  0  0  0  0  0  0  0
   -0.3228   -1.1987   -1.1588 H   0  0  0  0  0  0  0  0  0  0  0  0
   -0.4967    1.4361   -2.7497 H   0  0  0  0  0  0  0  0  0  0  0  0
   -0.2455   -0.0964   -3.5523 H   0  0  0  0  0  0  0  0  0  0  0  0
   -3.8013    0.9581   -3.3377 H   0  0  0  0  0  0  0  0  0  0  0  0
    2.0295    1.1139   -1.6816 N   0  0  0  0  0  0  0  0  0  0  0  0
    3.4384    1.3822   -1.8515 C   0  0  2  0  0  0  0  0  0  0  0  0
    3.8678    0.8080   -3.1952 C   0  0  0  0  0  0  0  0  0  0  0  0
    3.2538   -0.0897   -3.7682 O   0  0  0  0  0  0  0  0  0  0  0  0
    4.2564    0.7831   -0.7180 C   0  0  0  0  0  0  0  0  0  0  0  0
    1.3810    1.8957   -1.6819 H   0  0  0  0  0  0  0  0  0  0  0  0
    3.5535    2.4715   -1.8657 H   0  0  0  0  0  0  0  0  0  0  0  0
    4.1536   -0.3078   -0.6880 H   0  0  0  0  0  0  0  0  0  0  0  0
    5.3210    1.0117   -0.8332 H   0  0  0  0  0  0  0  0  0  0  0  0
    3.9262    1.1748    0.2501 H   0  0  0  0  0  0  0  0  0  0  0  0
    5.0415    1.3859   -3.6586 N   0  0  0  0  0  0  0  0  0  0  0  0
    5.6600    1.0019   -4.9060 C   0  0  0  0  0  0  0  0  0  0  0  0
    5.4724    2.1367   -3.1273 H   0  0  0  0  0  0  0  0  0  0  0  0
    6.4026    0.2121   -4.7198 H   0  0  0  0  0  0  0  0  0  0  0  0
    4.8904    0.6260   -5.5963 H   0  0  0  0  0  0  0  0  0  0  0  0
    6.1578    1.8753   -5.3524 H   0  0  0  0  0  0  0  0  0  0  0  0
  1  3  1  0  0  0  0
  1  7  1  0  0  0  0
  1  2  2  0  0  0  0
 31 32  1  0  0  0  0
 32 40  1  0  0  0  0
 32 33  2  0  0  0  0
  8  9  1  0  0  0  0
  9 17  1  0  0  0  0
  9 10  2  0  0  0  0
 18 19  1  0  0  0  0
 19 30  1  0  0  0  0
 19 20  2  0  0  0  0
 21 22  1  0  0  0  0
 22 23  2  0  0  0  0
 22 24  1  0  0  0  0
 31 34  1  0  0  0  0
  8 11  1  0  0  0  0
 40 41  1  0  0  0  0
 18 21  1  0  0  0  0
 30 31  1  0  0  0  0
  7  8  1  0  0  0  0
 17 18  1  0  0  0  0
  3  4  1  0  0  0  0
  3  5  1  0  0  0  0
  3  6  1  0  0  0  0
 34 37  1  0  0  0  0
 34 38  1  0  0  0  0
 34 39  1  0  0  0  0
 11 14  1  0  0  0  0
 11 15  1  0  0  0  0
 11 16  1  0  0  0  0
 41 43  1  0  0  0  0
 41 44  1  0  0  0  0
 41 45  1  0  0  0  0
 21 27  1  0  0  0  0
 21 28  1  0  0  0  0
 31 36  1  0  0  0  0
  8 13  1  0  0  0  0
 18 26  1  0  0  0  0
 40 42  1  0  0  0  0
  7 12  1  0  0  0  0
 30 35  1  0  0  0  0
 17 25  1  0  0  0  0
 24 29  1  0  0  0  0
M  END
$$$$

  -OEChem-05262214473D

 45 44  0     1  0  0  0  0  0999 V2000
   -2.2987    4.1032   -0.3022 C   0  0  0  0  0  0  0  0  0  0  0  0
   -1.8049    3.7117   -1.3532 O   0  0  0  0  0  0  0  0  0  0  0  0
   -3.0791    5.3755   -0.2846 C   0  0  0  0  0  0  0  0  0  0  0  0
   -2.4478    6.2532   -0.0717 H   0  0  0  0  0  0  0  0  0  0  0  0
   -3.5571    5.5891   -1.2541 H   0  0  0  0  0  0  0  0  0  0  0  0
   -3.8940    5.4184    0.4556 H   0  0  0  0  0  0  0  0  0  0  0  0
   -2.2137    3.4712    0.9275 N   0  0  0  0  0  0  0  0  0  0  0  0
   -1.5102    2.2327    1.1338 C   0  0  2  0  0  0  0  0  0  0  0  0
   -1.3539    1.5497   -0.2184 C   0  0  0  0  0  0  0  0  0  0  0  0
   -2.0852    1.7861   -1.1778 O   0  0  0  0  0  0  0  0  0  0  0  0
   -2.2477    1.3342    2.1145 C   0  0  0  0  0  0  0  0  0  0  0  0
   -2.6724    3.9052    1.7265 H   0  0  0  0  0  0  0  0  0  0  0  0
   -0.5220    2.4922    1.5290 H   0  0  0  0  0  0  0  0  0  0  0  0
   -3.2400    1.0636    1.7358 H   0  0  0  0  0  0  0  0  0  0  0  0
   -1.6970    0.4046    2.2923 H   0  0  0  0  0  0  0  0  0  0  0  0
   -2.3854    1.8384    3.0772 H   0  0  0  0  0  0  0  0  0  0  0  0
   -0.3283    0.6116   -0.2182 N   0  0  0  0  0  0  0  0  0  0  0  0
    0.0090   -0.1762   -1.3759 C   0  0  2  0  0  0  0  0  0  0  0  0
    1.5258   -0.1690   -1.5181 C   0  0  0  0  0  0  0  0  0  0  0  0
    2.1770   -1.1744   -1.7942 O   0  0  0  0  0  0  0  0  0  0  0  0
   -0.6572    0.3560   -2.6419 C   0  0  0  0  0  0  0  0  0  0  0  0
   -2.1507    0.1435   -2.6054 C   0  0  0  0  0  0  0  0  0  0  0  0
   -2.6969   -0.7728   -2.0050 O   0  0  0  0  0  0  0  0  0  0  0  0
   -2.8267    1.0710   -3.3274 O   0  0  0  0  0  0  0  0  0  0  0  0
    0.2381    0.4970    0.6194 H   0  0  0  0  0  0  0  0  0  0  0  0
   -0.3228   -1.1987   -1.1588 H   0  0  0  0  0  0  0  0  0  0  0  0
   -0.4967    1.4361   -2.7497 H   0  0  0  0  0  0  0  0  0  0  0  0
   -0.2455   -0.0964   -3.5523 H   0  0  0  0  0  0  0  0  0  0  0  0
   -3.8013    0.9581   -3.3377 H   0  0  0  0  0  0  0  0  0  0  0  0
    2.0609    1.1002   -1.3478 N   0  0  0  0  0  0  0  0  0  0  0  0
    3.4762    1.3693   -1.4490 C   0  0  2  0  0  0  0  0  0  0  0  0
    3.8941    1.1507   -2.8971 C   0  0  0  0  0  0  0  0  0  0  0  0
    3.2596    0.4460   -3.6793 O   0  0  0  0  0  0  0  0  0  0  0  0
    4.2772    0.4790   -0.5118 C   0  0  0  0  0  0  0  0  0  0  0  0
    1.4316    1.8710   -1.1437 H   0  0  0  0  0  0  0  0  0  0  0  0
    3.6178    2.4224   -1.1825 H   0  0  0  0  0  0  0  0  0  0  0  0
    4.1479   -0.5800   -0.7633 H   0  0  0  0  0  0  0  0  0  0  0  0
    5.3473    0.7039   -0.5688 H   0  0  0  0  0  0  0  0  0  0  0  0
    3.9548    0.6158    0.5261 H   0  0  0  0  0  0  0  0  0  0  0  0
    5.0824    1.8001   -3.2011 N   0  0  0  0  0  0  0  0  0  0  0  0
    5.6937    1.7358   -4.5081 C   0  0  0  0  0  0  0  0  0  0  0  0
    5.5304    2.3781   -2.4962 H   0  0  0  0  0  0  0  0  0  0  0  0
    6.4166    0.9071   -4.5349 H   0  0  0  0  0  0  0  0  0  0  0  0
    4.9166    1.5691   -5.2685 H   0  0  0  0  0  0  0  0  0  0  0  0
    6.2136    2.6826   -4.7166 H   0  0  0  0  0  0  0  0  0  0  0  0
  1  3  1  0  0  0  0
  1  7  1  0  0  0  0
  1  2  2  0  0  0  0
 31 32  1  0  0  0  0
 32 40  1  0  0  0  0
 32 33  2  0  0  0  0
  8  9  1  0  0  0  0
  9 17  1  0  0  0  0
  9 10  2  0  0  0  0
 18 19  1  0  0  0  0
 19 30  1  0  0  0  0
 19 20  2  0  0  0  0
 21 22  1  0  0  0  0
 22 23  2  0  0  0  0
 22 24  1  0  0  0  0
 31 34  1  0  0  0  0
  8 11  1  0  0  0  0
 40 41  1  0  0  0  0
 18 21  1  0  0  0  0
 30 31  1  0  0  0  0
  7  8  1  0  0  0  0
 17 18  1  0  0  0  0
  3  4  1  0  0  0  0
  3  5  1  0  0  0  0
  3  6  1  0  0  0  0
 34 37  1  0  0  0  0
 34 38  1  0  0  0  0
 34 39  1  0  0  0  0
 11 14  1  0  0  0  0
 11 15  1  0  0  0  0
 11 16  1  0  0  0  0
 41 43  1  0  0  0  0
 41 44  1  0  0  0  0
 41 45  1  0  0  0  0
 21 27  1  0  0  0  0
 21 28  1  0  0  0  0
 31 36  1  0  0  0  0
  8 13  1  0  0  0  0
 18 26  1  0  0  0  0
 40 42  1  0  0  0  0
  7 12  1  0  0  0  0
 30 35  1  0  0  0  0
 17 25  1  0  0  0  0
 24 29  1  0  0  0  0
M  END
$$$$

  -OEChem-05262214473D

 45 44  0     1  0  0  0  0  0999 V2000
   -2.2987    4.1032   -0.3022 C   0  0  0  0  0  0  0  0  0  0  0  0
   -1.8049    3.7117   -1.3532 O   0  0  0  0  0  0  0  0  0  0  0  0
   -3.0791    5.3755   -0.2846 C   0  0  0  0  0  0  0  0  0  0  0  0
   -2.4478    6.2532   -0.0717 H   0  0  0  0  0  0  0  0  0  0  0  0
   -3.5571    5.5891   -1.2541 H   0  0  0  0  0  0  0  0  0  0  0  0
   -3.8940    5.4184    0.4556 H   0  0  0  0  0  0  0  0  0  0  0  0
   -2.2137    3.4712    0.9275 N   0  0  0  0  0  0  0  0  0  0  0  0
   -1.5102    2.2327    1.1338 C   0  0  2  0  0  0  0  0  0  0  0  0
   -1.3539    1.5497   -0.2184 C   0  0  0  0  0  0  0  0  0  0  0  0
   -2.0852    1.7861   -1.1778 O   0  0  0  0  0  0  0  0  0  0  0  0
   -2.2477    1.3342    2.1145 C   0  0  0  0  0  0  0  0  0  0  0  0
   -2.6724    3.9052    1.7265 H   0  0  0  0  0  0  0  0  0  0  0  0
   -0.5220    2.4922    1.5290 H   0  0  0  0  0  0  0  0  0  0  0  0
   -3.2400    1.0636    1.7358 H   0  0  0  0  0  0  0  0  0  0  0  0
   -1.6970    0.4046    2.2923 H   0  0  0  0  0  0  0  0  0  0  0  0
   -2.3854    1.8384    3.0772 H   0  0  0  0  0  0  0  0  0  0  0  0
   -0.3283    0.6116   -0.2182 N   0  0  0  0  0  0  0  0  0  0  0  0
    0.0090   -0.1762   -1.3759 C   0  0  2  0  0  0  0  0  0  0  0  0
    1.5258   -0.1690   -1.5181 C   0  0  0  0  0  0  0  0  0  0  0  0
    2.1529   -1.0846   -2.0468 O   0  0  0  0  0  0  0  0  0  0  0  0
   -0.6572    0.3560   -2.6419 C   0  0  0  0  0  0  0  0  0  0  0  0
   -2.1507    0.1435   -2.6054 C   0  0  0  0  0  0  0  0  0  0  0  0
   -2.6969   -0.7728   -2.0050 O   0  0  0  0  0  0  0  0  0  0  0  0
   -2.8267    1.0710   -3.3274 O   0  0  0  0  0  0  0  0  0  0  0  0
    0.2381    0.4970    0.6194 H   0  0  0  0  0  0  0  0  0  0  0  0
   -0.3228   -1.1987   -1.1588 H   0  0  0  0  0  0  0  0  0  0  0  0
   -0.4967    1.4361   -2.7497 H   0  0  0  0  0  0  0  0  0  0  0  0
   -0.2455   -0.0964   -3.5523 H   0  0  0  0  0  0  0  0  0  0  0  0
   -3.8013    0.9581   -3.3377 H   0  0  0  0  0  0  0  0  0  0  0  0
    2.0912    1.0002   -1.0289 N   0  0  0  0  0  0  0  0  0  0  0  0
    3.5129    1.2523   -1.0635 C   0  0  2  0  0  0  0  0  0  0  0  0
    3.9282    1.4042   -2.5209 C   0  0  0  0  0  0  0  0  0  0  0  0
    3.2782    0.9404   -3.4555 O   0  0  0  0  0  0  0  0  0  0  0  0
    4.2902    0.1315   -0.3909 C   0  0  0  0  0  0  0  0  0  0  0  0
    1.4805    1.7073   -0.6303 H   0  0  0  0  0  0  0  0  0  0  0  0
    3.6795    2.1974   -0.5353 H   0  0  0  0  0  0  0  0  0  0  0  0
    4.1356   -0.8235   -0.9063 H   0  0  0  0  0  0  0  0  0  0  0  0
    5.3656    0.3378   -0.3927 H   0  0  0  0  0  0  0  0  0  0  0  0
    3.9692    0.0040    0.6486 H   0  0  0  0  0  0  0  0  0  0  0  0
    5.1325    2.0814   -2.6526 N   0  0  0  0  0  0  0  0  0  0  0  0
    5.7446    2.3414   -3.9346 C   0  0  0  0  0  0  0  0  0  0  0  0
    5.5931    2.4473   -1.8245 H   0  0  0  0  0  0  0  0  0  0  0  0
    6.4472    1.5305   -4.1773 H   0  0  0  0  0  0  0  0  0  0  0  0
    4.9651    2.3950   -4.7089 H   0  0  0  0  0  0  0  0  0  0  0  0
    6.2877    3.2971   -3.8944 H   0  0  0  0  0  0  0  0  0  0  0  0
  1  3  1  0  0  0  0
  1  7  1  0  0  0  0
  1  2  2  0  0  0  0
 31 32  1  0  0  0  0
 32 40  1  0  0  0  0
 32 33  2  0  0  0  0
  8  9  1  0  0  0  0
  9 17  1  0  0  0  0
  9 10  2  0  0  0  0
 18 19  1  0  0  0  0
 19 30  1  0  0  0  0
 19 20  2  0  0  0  0
 21 22  1  0  0  0  0
 22 23  2  0  0  0  0
 22 24  1  0  0  0  0
 31 34  1  0  0  0  0
  8 11  1  0  0  0  0
 40 41  1  0  0  0  0
 18 21  1  0  0  0  0
 30 31  1  0  0  0  0
  7  8  1  0  0  0  0
 17 18  1  0  0  0  0
  3  4  1  0  0  0  0
  3  5  1  0  0  0  0
  3  6  1  0  0  0  0
 34 37  1  0  0  0  0
 34 38  1  0  0  0  0
 34 39  1  0  0  0  0
 11 14  1  0  0  0  0
 11 15  1  0  0  0  0
 11 16  1  0  0  0  0
 41 43  1  0  0  0  0
 41 44  1  0  0  0  0
 41 45  1  0  0  0  0
 21 27  1  0  0  0  0
 21 28  1  0  0  0  0
 31 36  1  0  0  0  0
  8 13  1  0  0  0  0
 18 26  1  0  0  0  0
 40 42  1  0  0  0  0
  7 12  1  0  0  0  0
 30 35  1  0  0  0  0
 17 25  1  0  0  0  0
 24 29  1  0  0  0  0
M  END
$$$$

  -OEChem-05262214473D

 45 44  0     1  0  0  0  0  0999 V2000
   -2.2987    4.1032   -0.3022 C   0  0  0  0  0  0  0  0  0  0  0  0
   -1.8049    3.7117   -1.3532 O   0  0  0  0  0  0  0  0  0  0  0  0
   -3.0791    5.3755   -0.2846 C   0  0  0  0  0  0  0  0  0  0  0  0
   -2.4478    6.2532   -0.0717 H   0  0  0  0  0  0  0  0  0  0  0  0
   -3.5571    5.5891   -1.2541 H   0  0  0  0  0  0  0  0  0  0  0  0
   -3.8940    5.4184    0.4556 H   0  0  0  0  0  0  0  0  0  0  0  0
   -2.2137    3.4712    0.9275 N   0  0  0  0  0  0  0  0  0  0  0  0
   -1.5102    2.2327    1.1338 C   0  0  2  0  0  0  0  0  0  0  0  0
   -1.3539    1.5497   -0.2184 C   0  0  0  0  0  0  0  0  0  0  0  0
   -2.0852    1.7861   -1.1778 O   0  0  0  0  0  0  0  0  0  0  0  0
   -2.2477    1.3342    2.1145 C   0  0  0  0  0  0  0  0  0  0  0  0
   -2.6724    3.9052    1.7265 H   0  0  0  0  0  0  0  0  0  0  0  0
   -0.5220    2.4922    1.5290 H   0  0  0  0  0  0  0  0  0  0  0  0
   -3.2400    1.0636    1.7358 H   0  0  0  0  0  0  0  0  0  0  0  0
   -1.6970    0.4046    2.2923 H   0  0  0  0  0  0  0  0  0  0  0  0
   -2.3854    1.8384    3.0772 H   0  0  0  0  0  0  0  0  0  0  0  0
   -0.3283    0.6116   -0.2182 N   0  0  0  0  0  0  0  0  0  0  0  0
    0.0090   -0.1762   -1.3759 C   0  0  2  0  0  0  0  0  0  0  0  0
    1.5258   -0.1690   -1.5181 C   0  0  0  0  0  0  0  0  0  0  0  0
    2.1315   -0.9322   -2.2676 O   0  0  0  0  0  0  0  0  0  0  0  0
   -0.6572    0.3560   -2.6419 C   0  0  0  0  0  0  0  0  0  0  0  0
   -2.1507    0.1435   -2.6054 C   0  0  0  0  0  0  0  0  0  0  0  0
   -2.6969   -0.7728   -2.0050 O   0  0  0  0  0  0  0  0  0  0  0  0
   -2.8267    1.0710   -3.3274 O   0  0  0  0  0  0  0  0  0  0  0  0
    0.2381    0.4970    0.6194 H   0  0  0  0  0  0  0  0  0  0  0  0
   -0.3228   -1.1987   -1.1588 H   0  0  0  0  0  0  0  0  0  0  0  0
   -0.4967    1.4361   -2.7497 H   0  0  0  0  0  0  0  0  0  0  0  0
   -0.2455   -0.0964   -3.5523 H   0  0  0  0  0  0  0  0  0  0  0  0
   -3.8013    0.9581   -3.3377 H   0  0  0  0  0  0  0  0  0  0  0  0
    2.1186    0.8207   -0.7466 N   0  0  0  0  0  0  0  0  0  0  0  0
    3.5460    1.0390   -0.7214 C   0  0  2  0  0  0  0  0  0  0  0  0
    3.9677    1.5514   -2.0923 C   0  0  0  0  0  0  0  0  0  0  0  0
    3.3084    1.3598   -3.1119 O   0  0  0  0  0  0  0  0  0  0  0  0
    4.2945   -0.2355   -0.3637 C   0  0  0  0  0  0  0  0  0  0  0  0
    1.5244    1.4157   -0.1766 H   0  0  0  0  0  0  0  0  0  0  0  0
    3.7346    1.8118    0.0318 H   0  0  0  0  0  0  0  0  0  0  0  0
    4.1178   -1.0215   -1.1071 H   0  0  0  0  0  0  0  0  0  0  0  0
    5.3746   -0.0616   -0.3171 H   0  0  0  0  0  0  0  0  0  0  0  0
    3.9685   -0.6189    0.6092 H   0  0  0  0  0  0  0  0  0  0  0  0
    5.1883    2.2105   -2.0503 N   0  0  0  0  0  0  0  0  0  0  0  0
    5.8091    2.7774   -3.2247 C   0  0  0  0  0  0  0  0  0  0  0  0
    5.6561    2.3395   -1.1579 H   0  0  0  0  0  0  0  0  0  0  0  0
    6.4922    2.0398   -3.6712 H   0  0  0  0  0  0  0  0  0  0  0  0
    5.0326    3.0473   -3.9556 H   0  0  0  0  0  0  0  0  0  0  0  0
    6.3752    3.6771   -2.9420 H   0  0  0  0  0  0  0  0  0  0  0  0
  1  3  1  0  0  0  0
  1  7  1  0  0  0  0
  1  2  2  0  0  0  0
 31 32  1  0  0  0  0
 32 40  1  0  0  0  0
 32 33  2  0  0  0  0
  8  9  1  0  0  0  0
  9 17  1  0  0  0  0
  9 10  2  0  0  0  0
 18 19  1  0  0  0  0
 19 30  1  0  0  0  0
 19 20  2  0  0  0  0
 21 22  1  0  0  0  0
 22 23  2  0  0  0  0
 22 24  1  0  0  0  0
 31 34  1  0  0  0  0
  8 11  1  0  0  0  0
 40 41  1  0  0  0  0
 18 21  1  0  0  0  0
 30 31  1  0  0  0  0
  7  8  1  0  0  0  0
 17 18  1  0  0  0  0
  3  4  1  0  0  0  0
  3  5  1  0  0  0  0
  3  6  1  0  0  0  0
 34 37  1  0  0  0  0
 34 38  1  0  0  0  0
 34 39  1  0  0  0  0
 11 14  1  0  0  0  0
 11 15  1  0  0  0  0
 11 16  1  0  0  0  0
 41 43  1  0  0  0  0
 41 44  1  0  0  0  0
 41 45  1  0  0  0  0
 21 27  1  0  0  0  0
 21 28  1  0  0  0  0
 31 36  1  0  0  0  0
  8 13  1  0  0  0  0
 18 26  1  0  0  0  0
 40 42  1  0  0  0  0
  7 12  1  0  0  0  0
 30 35  1  0  0  0  0
 17 25  1  0  0  0  0
 24 29  1  0  0  0  0
M  END
$$$$

  -OEChem-05262214473D

 45 44  0     1  0  0  0  0  0999 V2000
   -2.2987    4.1032   -0.3022 C   0  0  0  0  0  0  0  0  0  0  0  0
   -1.8049    3.7117   -1.3532 O   0  0  0  0  0  0  0  0  0  0  0  0
   -3.0791    5.3755   -0.2846 C   0  0  0  0  0  0  0  0  0  0  0  0
   -2.4478    6.2532   -0.0717 H   0  0  0  0  0  0  0  0  0  0  0  0
   -3.5571    5.5891   -1.2541 H   0  0  0  0  0  0  0  0  0  0  0  0
   -3.8940    5.4184    0.4556 H   0  0  0  0  0  0  0  0  0  0  0  0
   -2.2137    3.4712    0.9275 N   0  0  0  0  0  0  0  0  0  0  0  0
   -1.5102    2.2327    1.1338 C   0  0  2  0  0  0  0  0  0  0  0  0
   -1.3539    1.5497   -0.2184 C   0  0  0  0  0  0  0  0  0  0  0  0
   -2.0852    1.7861   -1.1778 O   0  0  0  0  0  0  0  0  0  0  0  0
   -2.2477    1.3342    2.1145 C   0  0  0  0  0  0  0  0  0  0  0  0
   -2.6724    3.9052    1.7265 H   0  0  0  0  0  0  0  0  0  0  0  0
   -0.5220    2.4922    1.5290 H   0  0  0  0  0  0  0  0  0  0  0  0
   -3.2400    1.0636    1.7358 H   0  0  0  0  0  0  0  0  0  0  0  0
   -1.6970    0.4046    2.2923 H   0  0  0  0  0  0  0  0  0  0  0  0
   -2.3854    1.8384    3.0772 H   0  0  0  0  0  0  0  0  0  0  0  0
   -0.3283    0.6116   -0.2182 N   0  0  0  0  0  0  0  0  0  0  0  0
    0.0090   -0.1762   -1.3759 C   0  0  2  0  0  0  0  0  0  0  0  0
    1.5258   -0.1690   -1.5181 C   0  0  0  0  0  0  0  0  0  0  0  0
    2.1142   -0.7276   -2.4416 O   0  0  0  0  0  0  0  0  0  0  0  0
   -0.6572    0.3560   -2.6419 C   0  0  0  0  0  0  0  0  0  0  0  0
   -2.1507    0.1435   -2.6054 C   0  0  0  0  0  0  0  0  0  0  0  0
   -2.6969   -0.7728   -2.0050 O   0  0  0  0  0  0  0  0  0  0  0  0
   -2.8267    1.0710   -3.3274 O   0  0  0  0  0  0  0  0  0  0  0  0
    0.2381    0.4970    0.6194 H   0  0  0  0  0  0  0  0  0  0  0  0
   -0.3228   -1.1987   -1.1588 H   0  0  0  0  0  0  0  0  0  0  0  0
   -0.4967    1.4361   -2.7497 H   0  0  0  0  0  0  0  0  0  0  0  0
   -0.2455   -0.0964   -3.5523 H   0  0  0  0  0  0  0  0  0  0  0  0
   -3.8013    0.9581   -3.3377 H   0  0  0  0  0  0  0  0  0  0  0  0
    2.1410    0.5740   -0.5202 N   0  0  0  0  0  0  0  0  0  0  0  0
    3.5733    0.7441   -0.4459 C   0  0  2  0  0  0  0  0  0  0  0  0
    4.0099    1.5821   -1.6403 C   0  0  0  0  0  0  0  0  0  0  0  0
    3.3481    1.6757   -2.6720 O   0  0  0  0  0  0  0  0  0  0  0  0
    4.2898   -0.5972   -0.4320 C   0  0  0  0  0  0  0  0  0  0  0  0
    1.5604    1.0160    0.1864 H   0  0  0  0  0  0  0  0  0  0  0  0
    3.7791    1.2919    0.4801 H   0  0  0  0  0  0  0  0  0  0  0  0
    4.0954   -1.1605   -1.3520 H   0  0  0  0  0  0  0  0  0  0  0  0
    5.3737   -0.4671   -0.3469 H   0  0  0  0  0  0  0  0  0  0  0  0
    3.9527   -1.2104    0.4107 H   0  0  0  0  0  0  0  0  0  0  0  0
    5.2462    2.1787   -1.4353 N   0  0  0  0  0  0  0  0  0  0  0  0
    5.8828    3.0140   -2.4267 C   0  0  0  0  0  0  0  0  0  0  0  0
    5.7152    2.0621   -0.5419 H   0  0  0  0  0  0  0  0  0  0  0  0
    6.5486    2.4002   -3.0512 H   0  0  0  0  0  0  0  0  0  0  0  0
    5.1145    3.4817   -3.0599 H   0  0  0  0  0  0  0  0  0  0  0  0
    6.4701    3.7966   -1.9242 H   0  0  0  0  0  0  0  0  0  0  0  0
  1  3  1  0  0  0  0
  1  7  1  0  0  0  0
  1  2  2  0  0  0  0
 31 32  1  0  0  0  0
 32 40  1  0  0  0  0
 32 33  2  0  0  0  0
  8  9  1  0  0  0  0
  9 17  1  0  0  0  0
  9 10  2  0  0  0  0
 18 19  1  0  0  0  0
 19 30  1  0  0  0  0
 19 20  2  0  0  0  0
 21 22  1  0  0  0  0
 22 23  2  0  0  0  0
 22 24  1  0  0  0  0
 31 34  1  0  0  0  0
  8 11  1  0  0  0  0
 40 41  1  0  0  0  0
 18 21  1  0  0  0  0
 30 31  1  0  0  0  0
  7  8  1  0  0  0  0
 17 18  1  0  0  0  0
  3  4  1  0  0  0  0
  3  5  1  0  0  0  0
  3  6  1  0  0  0  0
 34 37  1  0  0  0  0
 34 38  1  0  0  0  0
 34 39  1  0  0  0  0
 11 14  1  0  0  0  0
 11 15  1  0  0  0  0
 11 16  1  0  0  0  0
 41 43  1  0  0  0  0
 41 44  1  0  0  0  0
 41 45  1  0  0  0  0
 21 27  1  0  0  0  0
 21 28  1  0  0  0  0
 31 36  1  0  0  0  0
  8 13  1  0  0  0  0
 18 26  1  0  0  0  0
 40 42  1  0  0  0  0
  7 12  1  0  0  0  0
 30 35  1  0  0  0  0
 17 25  1  0  0  0  0
 24 29  1  0  0  0  0
M  END
$$$$

  -OEChem-05262214473D

 45 44  0     1  0  0  0  0  0999 V2000
   -2.2987    4.1032   -0.3022 C   0  0  0  0  0  0  0  0  0  0  0  0
   -1.8049    3.7117   -1.3532 O   0  0  0  0  0  0  0  0  0  0  0  0
   -3.0791    5.3755   -0.2846 C   0  0  0  0  0  0  0  0  0  0  0  0
   -2.4478    6.2532   -0.0717 H   0  0  0  0  0  0  0  0  0  0  0  0
   -3.5571    5.5891   -1.2541 H   0  0  0  0  0  0  0  0  0  0  0  0
   -3.8940    5.4184    0.4556 H   0  0  0  0  0  0  0  0  0  0  0  0
   -2.2137    3.4712    0.9275 N   0  0  0  0  0  0  0  0  0  0  0  0
   -1.5102    2.2327    1.1338 C   0  0  2  0  0  0  0  0  0  0  0  0
   -1.3539    1.5497   -0.2184 C   0  0  0  0  0  0  0  0  0  0  0  0
   -2.0852    1.7861   -1.1778 O   0  0  0  0  0  0  0  0  0  0  0  0
   -2.2477    1.3342    2.1145 C   0  0  0  0  0  0  0  0  0  0  0  0
   -2.6724    3.9052    1.7265 H   0  0  0  0  0  0  0  0  0  0  0  0
   -0.5220    2.4922    1.5290 H   0  0  0  0  0  0  0  0  0  0  0  0
   -3.2400    1.0636    1.7358 H   0  0  0  0  0  0  0  0  0  0  0  0
   -1.6970    0.4046    2.2923 H   0  0  0  0  0  0  0  0  0  0  0  0
   -2.3854    1.8384    3.0772 H   0  0  0  0  0  0  0  0  0  0  0  0
   -0.3283    0.6116   -0.2182 N   0  0  0  0  0  0  0  0  0  0  0  0
    0.0090   -0.1762   -1.3759 C   0  0  2  0  0  0  0  0  0  0  0  0
    1.5258   -0.1690   -1.5181 C   0  0  0  0  0  0  0  0  0  0  0  0
    2.1022   -0.4847   -2.5570 O   0  0  0  0  0  0  0  0  0  0  0  0
   -0.6572    0.3560   -2.6419 C   0  0  0  0  0  0  0  0  0  0  0  0
   -2.1507    0.1435   -2.6054 C   0  0  0  0  0  0  0  0  0  0  0  0
   -2.6969   -0.7728   -2.0050 O   0  0  0  0  0  0  0  0  0  0  0  0
   -2.8267    1.0710   -3.3274 O   0  0  0  0  0  0  0  0  0  0  0  0
    0.2381    0.4970    0.6194 H   0  0  0  0  0  0  0  0  0  0  0  0
   -0.3228   -1.1987   -1.1588 H   0  0  0  0  0  0  0  0  0  0  0  0
   -0.4967    1.4361   -2.7497 H   0  0  0  0  0  0  0  0  0  0  0  0
   -0.2455   -0.0964   -3.5523 H   0  0  0  0  0  0  0  0  0  0  0  0
   -3.8013    0.9581   -3.3377 H   0  0  0  0  0  0  0  0  0  0  0  0
    2.1569    0.2768   -0.3652 N   0  0  0  0  0  0  0  0  0  0  0  0
    3.5928    0.3876   -0.2559 C   0  0  2  0  0  0  0  0  0  0  0  0
    4.0520    1.4944   -1.1959 C   0  0  0  0  0  0  0  0  0  0  0  0
    3.3947    1.8664   -2.1657 O   0  0  0  0  0  0  0  0  0  0  0  0
    4.2765   -0.9288   -0.5912 C   0  0  0  0  0  0  0  0  0  0  0  0
    1.5859    0.5355    0.4340 H   0  0  0  0  0  0  0  0  0  0  0  0
    3.8101    0.6731    0.7791 H   0  0  0  0  0  0  0  0  0  0  0  0
    4.0702   -1.2312   -1.6244 H   0  0  0  0  0  0  0  0  0  0  0  0
    5.3631   -0.8512   -0.4802 H   0  0  0  0  0  0  0  0  0  0  0  0
    3.9229   -1.7302    0.0665 H   0  0  0  0  0  0  0  0  0  0  0  0
    5.3020    1.9880   -0.8495 N   0  0  0  0  0  0  0  0  0  0  0  0
    5.9607    3.0351   -1.5950 C   0  0  0  0  0  0  0  0  0  0  0  0
    5.7663    1.6339   -0.0184 H   0  0  0  0  0  0  0  0  0  0  0  0
    6.6126    2.5872   -2.3595 H   0  0  0  0  0  0  0  0  0  0  0  0
    5.2052    3.6685   -2.0830 H   0  0  0  0  0  0  0  0  0  0  0  0
    6.5658    3.6475   -0.9104 H   0  0  0  0  0  0  0  0  0  0  0  0
  1  3  1  0  0  0  0
  1  7  1  0  0  0  0
  1  2  2  0  0  0  0
 31 32  1  0  0  0  0
 32 40  1  0  0  0  0
 32 33  2  0  0  0  0
  8  9  1  0  0  0  0
  9 17  1  0  0  0  0
  9 10  2  0  0  0  0
 18 19  1  0  0  0  0
 19 30  1  0  0  0  0
 19 20  2  0  0  0  0
 21 22  1  0  0  0  0
 22 23  2  0  0  0  0
 22 24  1  0  0  0  0
 31 34  1  0  0  0  0
  8 11  1  0  0  0  0
 40 41  1  0  0  0  0
 18 21  1  0  0  0  0
 30 31  1  0  0  0  0
  7  8  1  0  0  0  0
 17 18  1  0  0  0  0
  3  4  1  0  0  0  0
  3  5  1  0  0  0  0
  3  6  1  0  0  0  0
 34 37  1  0  0  0  0
 34 38  1  0  0  0  0
 34 39  1  0  0  0  0
 11 14  1  0  0  0  0
 11 15  1  0  0  0  0
 11 16  1  0  0  0  0
 41 43  1  0  0  0  0
 41 44  1  0  0  0  0
 41 45  1  0  0  0  0
 21 27  1  0  0  0  0
 21 28  1  0  0  0  0
 31 36  1  0  0  0  0
  8 13  1  0  0  0  0
 18 26  1  0  0  0  0
 40 42  1  0  0  0  0
  7 12  1  0  0  0  0
 30 35  1  0  0  0  0
 17 25  1  0  0  0  0
 24 29  1  0  0  0  0
M  END
$$$$

  -OEChem-05262214473D

 45 44  0     1  0  0  0  0  0999 V2000
   -2.2987    4.1032   -0.3022 C   0  0  0  0  0  0  0  0  0  0  0  0
   -1.8049    3.7117   -1.3532 O   0  0  0  0  0  0  0  0  0  0  0  0
   -3.0791    5.3755   -0.2846 C   0  0  0  0  0  0  0  0  0  0  0  0
   -2.4478    6.2532   -0.0717 H   0  0  0  0  0  0  0  0  0  0  0  0
   -3.5571    5.5891   -1.2541 H   0  0  0  0  0  0  0  0  0  0  0  0
   -3.8940    5.4184    0.4556 H   0  0  0  0  0  0  0  0  0  0  0  0
   -2.2137    3.4712    0.9275 N   0  0  0  0  0  0  0  0  0  0  0  0
   -1.5102    2.2327    1.1338 C   0  0  2  0  0  0  0  0  0  0  0  0
   -1.3539    1.5497   -0.2184 C   0  0  0  0  0  0  0  0  0  0  0  0
   -2.0852    1.7861   -1.1778 O   0  0  0  0  0  0  0  0  0  0  0  0
   -2.2477    1.3342    2.1145 C   0  0  0  0  0  0  0  0  0  0  0  0
   -2.6724    3.9052    1.7265 H   0  0  0  0  0  0  0  0  0  0  0  0
   -0.5220    2.4922    1.5290 H   0  0  0  0  0  0  0  0  0  0  0  0
   -3.2400    1.0636    1.7358 H   0  0  0  0  0  0  0  0  0  0  0  0
   -1.6970    0.4046    2.2923 H   0  0  0  0  0  0  0  0  0  0  0  0
   -2.3854    1.8384    3.0772 H   0  0  0  0  0  0  0  0  0  0  0  0
   -0.3283    0.6116   -0.2182 N   0  0  0  0  0  0  0  0  0  0  0  0
    0.0090   -0.1762   -1.3759 C   0  0  2  0  0  0  0  0  0  0  0  0
    1.5258   -0.1690   -1.5181 C   0  0  0  0  0  0  0  0  0  0  0  0
    2.0964   -0.2200   -2.6058 O   0  0  0  0  0  0  0  0  0  0  0  0
   -0.6572    0.3560   -2.6419 C   0  0  0  0  0  0  0  0  0  0  0  0
   -2.1507    0.1435   -2.6054 C   0  0  0  0  0  0  0  0  0  0  0  0
   -2.6969   -0.7728   -2.0050 O   0  0  0  0  0  0  0  0  0  0  0  0
   -2.8267    1.0710   -3.3274 O   0  0  0  0  0  0  0  0  0  0  0  0
    0.2381    0.4970    0.6194 H   0  0  0  0  0  0  0  0  0  0  0  0
   -0.3228   -1.1987   -1.1588 H   0  0  0  0  0  0  0  0  0  0  0  0
   -0.4967    1.4361   -2.7497 H   0  0  0  0  0  0  0  0  0  0  0  0
   -0.2455   -0.0964   -3.5523 H   0  0  0  0  0  0  0  0  0  0  0  0
   -3.8013    0.9581   -3.3377 H   0  0  0  0  0  0  0  0  0  0  0  0
    2.1654   -0.0507   -0.2921 N   0  0  0  0  0  0  0  0  0  0  0  0
    3.6033   -0.0063   -0.1642 C   0  0  2  0  0  0  0  0  0  0  0  0
    4.0911    1.2940   -0.7893 C   0  0  0  0  0  0  0  0  0  0  0  0
    3.4449    1.9191   -1.6276 O   0  0  0  0  0  0  0  0  0  0  0  0
    4.2554   -1.2078   -0.8304 C   0  0  0  0  0  0  0  0  0  0  0  0
    1.5993    0.0070    0.5494 H   0  0  0  0  0  0  0  0  0  0  0  0
    3.8255   -0.0024    0.9085 H   0  0  0  0  0  0  0  0  0  0  0  0
    4.0439   -1.2287   -1.9057 H   0  0  0  0  0  0  0  0  0  0  0  0
    5.3433   -1.1875   -0.7079 H   0  0  0  0  0  0  0  0  0  0  0  0
    3.8812   -2.1429   -0.3999 H   0  0  0  0  0  0  0  0  0  0  0  0
    5.3520    1.6516   -0.3329 N   0  0  0  0  0  0  0  0  0  0  0  0
    6.0374    2.8393   -0.7864 C   0  0  0  0  0  0  0  0  0  0  0  0
    5.8060    1.0843    0.3768 H   0  0  0  0  0  0  0  0  0  0  0  0
    6.6797    2.5880   -1.6433 H   0  0  0  0  0  0  0  0  0  0  0  0
    5.2986    3.5950   -1.0913 H   0  0  0  0  0  0  0  0  0  0  0  0
    6.6560    3.2399    0.0303 H   0  0  0  0  0  0  0  0  0  0  0  0
  1  3  1  0  0  0  0
  1  7  1  0  0  0  0
  1  2  2  0  0  0  0
 31 32  1  0  0  0  0
 32 40  1  0  0  0  0
 32 33  2  0  0  0  0
  8  9  1  0  0  0  0
  9 17  1  0  0  0  0
  9 10  2  0  0  0  0
 18 19  1  0  0  0  0
 19 30  1  0  0  0  0
 19 20  2  0  0  0  0
 21 22  1  0  0  0  0
 22 23  2  0  0  0  0
 22 24  1  0  0  0  0
 31 34  1  0  0  0  0
  8 11  1  0  0  0  0
 40 41  1  0  0  0  0
 18 21  1  0  0  0  0
 30 31  1  0  0  0  0
  7  8  1  0  0  0  0
 17 18  1  0  0  0  0
  3  4  1  0  0  0  0
  3  5  1  0  0  0  0
  3  6  1  0  0  0  0
 34 37  1  0  0  0  0
 34 38  1  0  0  0  0
 34 39  1  0  0  0  0
 11 14  1  0  0  0  0
 11 15  1  0  0  0  0
 11 16  1  0  0  0  0
 41 43  1  0  0  0  0
 41 44  1  0  0  0  0
 41 45  1  0  0  0  0
 21 27  1  0  0  0  0
 21 28  1  0  0  0  0
 31 36  1  0  0  0  0
  8 13  1  0  0  0  0
 18 26  1  0  0  0  0
 40 42  1  0  0  0  0
  7 12  1  0  0  0  0
 30 35  1  0  0  0  0
 17 25  1  0  0  0  0
 24 29  1  0  0  0  0
M  END
$$$$

  -OEChem-05262214473D

 45 44  0     1  0  0  0  0  0999 V2000
   -2.2987    4.1032   -0.3022 C   0  0  0  0  0  0  0  0  0  0  0  0
   -1.8049    3.7117   -1.3532 O   0  0  0  0  0  0  0  0  0  0  0  0
   -3.0791    5.3755   -0.2846 C   0  0  0  0  0  0  0  0  0  0  0  0
   -2.4478    6.2532   -0.0717 H   0  0  0  0  0  0  0  0  0  0  0  0
   -3.5571    5.5891   -1.2541 H   0  0  0  0  0  0  0  0  0  0  0  0
   -3.8940    5.4184    0.4556 H   0  0  0  0  0  0  0  0  0  0  0  0
   -2.2137    3.4712    0.9275 N   0  0  0  0  0  0  0  0  0  0  0  0
   -1.5102    2.2327    1.1338 C   0  0  2  0  0  0  0  0  0  0  0  0
   -1.3539    1.5497   -0.2184 C   0  0  0  0  0  0  0  0  0  0  0  0
   -2.0852    1.7861   -1.1778 O   0  0  0  0  0  0  0  0  0  0  0  0
   -2.2477    1.3342    2.1145 C   0  0  0  0  0  0  0  0  0  0  0  0
   -2.6724    3.9052    1.7265 H   0  0  0  0  0  0  0  0  0  0  0  0
   -0.5220    2.4922    1.5290 H   0  0  0  0  0  0  0  0  0  0  0  0
   -3.2400    1.0636    1.7358 H   0  0  0  0  0  0  0  0  0  0  0  0
   -1.6970    0.4046    2.2923 H   0  0  0  0  0  0  0  0  0  0  0  0
   -2.3854    1.8384    3.0772 H   0  0  0  0  0  0  0  0  0  0  0  0
   -0.3283    0.6116   -0.2182 N   0  0  0  0  0  0  0  0  0  0  0  0
    0.0090   -0.1762   -1.3759 C   0  0  2  0  0  0  0  0  0  0  0  0
    1.5258   -0.1690   -1.5181 C   0  0  0  0  0  0  0  0  0  0  0  0
    2.0971    0.0483   -2.5847 O   0  0  0  0  0  0  0  0  0  0  0  0
   -0.6572    0.3560   -2.6419 C   0  0  0  0  0  0  0  0  0  0  0  0
   -2.1507    0.1435   -2.6054 C   0  0  0  0  0  0  0  0  0  0  0  0
   -2.6969   -0.7728   -2.0050 O   0  0  0  0  0  0  0  0  0  0  0  0
   -2.8267    1.0710   -3.3274 O   0  0  0  0  0  0  0  0  0  0  0  0
    0.2381    0.4970    0.6194 H   0  0  0  0  0  0  0  0  0  0  0  0
   -0.3228   -1.1987   -1.1588 H   0  0  0  0  0  0  0  0  0  0  0  0
   -0.4967    1.4361   -2.7497 H   0  0  0  0  0  0  0  0  0  0  0  0
   -0.2455   -0.0964   -3.5523 H   0  0  0  0  0  0  0  0  0  0  0  0
   -3.8013    0.9581   -3.3377 H   0  0  0  0  0  0  0  0  0  0  0  0
    2.1657   -0.3860   -0.3058 N   0  0  0  0  0  0  0  0  0  0  0  0
    3.6040   -0.4106   -0.1772 C   0  0  2  0  0  0  0  0  0  0  0  0
    4.1245    0.9948   -0.4482 C   0  0  0  0  0  0  0  0  0  0  0  0
    3.4953    1.8301   -1.0943 O   0  0  0  0  0  0  0  0  0  0  0  0
    4.2280   -1.4151   -1.1333 C   0  0  0  0  0  0  0  0  0  0  0  0
    1.5995   -0.5335    0.5246 H   0  0  0  0  0  0  0  0  0  0  0  0
    3.8241   -0.6886    0.8593 H   0  0  0  0  0  0  0  0  0  0  0  0
    4.0181   -1.1531   -2.1768 H   0  0  0  0  0  0  0  0  0  0  0  0
    5.3158   -1.4532   -1.0145 H   0  0  0  0  0  0  0  0  0  0  0  0
    3.8303   -2.4203   -0.9566 H   0  0  0  0  0  0  0  0  0  0  0  0
    5.3929    1.1923    0.0793 N   0  0  0  0  0  0  0  0  0  0  0  0
    6.1078    2.4400   -0.0558 C   0  0  0  0  0  0  0  0  0  0  0  0
    5.8316    0.4505    0.6169 H   0  0  0  0  0  0  0  0  0  0  0  0
    6.7455    2.4027   -0.9513 H   0  0  0  0  0  0  0  0  0  0  0  0
    5.3882    3.2662   -0.1524 H   0  0  0  0  0  0  0  0  0  0  0  0
    6.7344    2.6016    0.8338 H   0  0  0  0  0  0  0  0  0  0  0  0
  1  3  1  0  0  0  0
  1  7  1  0  0  0  0
  1  2  2  0  0  0  0
 31 32  1  0  0  0  0
 32 40  1  0  0  0  0
 32 33  2  0  0  0  0
  8  9  1  0  0  0  0
  9 17  1  0  0  0  0
  9 10  2  0  0  0  0
 18 19  1  0  0  0  0
 19 30  1  0  0  0  0
 19 20  2  0  0  0  0
 21 22  1  0  0  0  0
 22 23  2  0  0  0  0
 22 24  1  0  0  0  0
 31 34  1  0  0  0  0
  8 11  1  0  0  0  0
 40 41  1  0  0  0  0
 18 21  1  0  0  0  0
 30 31  1  0  0  0  0
  7  8  1  0  0  0  0
 17 18  1  0  0  0  0
  3  4  1  0  0  0  0
  3  5  1  0  0  0  0
  3  6  1  0  0  0  0
 34 37  1  0  0  0  0
 34 38  1  0  0  0  0
 34 39  1  0  0  0  0
 11 14  1  0  0  0  0
 11 15  1  0  0  0  0
 11 16  1  0  0  0  0
 41 43  1  0  0  0  0
 41 44  1  0  0  0  0
 41 45  1  0  0  0  0
 21 27  1  0  0  0  0
 21 28  1  0  0  0  0
 31 36  1  0  0  0  0
  8 13  1  0  0  0  0
 18 26  1  0  0  0  0
 40 42  1  0  0  0  0
  7 12  1  0  0  0  0
 30 35  1  0  0  0  0
 17 25  1  0  0  0  0
 24 29  1  0  0  0  0
M  END
$$$$

  -OEChem-05262214473D

 45 44  0     1  0  0  0  0  0999 V2000
   -2.2987    4.1032   -0.3022 C   0  0  0  0  0  0  0  0  0  0  0  0
   -1.8049    3.7117   -1.3532 O   0  0  0  0  0  0  0  0  0  0  0  0
   -3.0791    5.3755   -0.2846 C   0  0  0  0  0  0  0  0  0  0  0  0
   -2.4478    6.2532   -0.0717 H   0  0  0  0  0  0  0  0  0  0  0  0
   -3.5571    5.5891   -1.2541 H   0  0  0  0  0  0  0  0  0  0  0  0
   -3.8940    5.4184    0.4556 H   0  0  0  0  0  0  0  0  0  0  0  0
   -2.2137    3.4712    0.9275 N   0  0  0  0  0  0  0  0  0  0  0  0
   -1.5102    2.2327    1.1338 C   0  0  2  0  0  0  0  0  0  0  0  0
   -1.3539    1.5497   -0.2184 C   0  0  0  0  0  0  0  0  0  0  0  0
   -2.0852    1.7861   -1.1778 O   0  0  0  0  0  0  0  0  0  0  0  0
   -2.2477    1.3342    2.1145 C   0  0  0  0  0  0  0  0  0  0  0  0
   -2.6724    3.9052    1.7265 H   0  0  0  0  0  0  0  0  0  0  0  0
   -0.5220    2.4922    1.5290 H   0  0  0  0  0  0  0  0  0  0  0  0
   -3.2400    1.0636    1.7358 H   0  0  0  0  0  0  0  0  0  0  0  0
   -1.6970    0.4046    2.2923 H   0  0  0  0  0  0  0  0  0  0  0  0
   -2.3854    1.8384    3.0772 H   0  0  0  0  0  0  0  0  0  0  0  0
   -0.3283    0.6116   -0.2182 N   0  0  0  0  0  0  0  0  0  0  0  0
    0.0090   -0.1762   -1.3759 C   0  0  2  0  0  0  0  0  0  0  0  0
    1.5258   -0.1690   -1.5181 C   0  0  0  0  0  0  0  0  0  0  0  0
    2.1043    0.3021   -2.4952 O   0  0  0  0  0  0  0  0  0  0  0  0
   -0.6572    0.3560   -2.6419 C   0  0  0  0  0  0  0  0  0  0  0  0
   -2.1507    0.1435   -2.6054 C   0  0  0  0  0  0  0  0  0  0  0  0
   -2.6969   -0.7728   -2.0050 O   0  0  0  0  0  0  0  0  0  0  0  0
   -2.8267    1.0710   -3.3274 O   0  0  0  0  0  0  0  0  0  0  0  0
    0.2381    0.4970    0.6194 H   0  0  0  0  0  0  0  0  0  0  0  0
   -0.3228   -1.1987   -1.1588 H   0  0  0  0  0  0  0  0  0  0  0  0
   -0.4967    1.4361   -2.7497 H   0  0  0  0  0  0  0  0  0  0  0  0
   -0.2455   -0.0964   -3.5523 H   0  0  0  0  0  0  0  0  0  0  0  0
   -3.8013    0.9581   -3.3377 H   0  0  0  0  0  0  0  0  0  0  0  0
    2.1579   -0.7064   -0.4055 N   0  0  0  0  0  0  0  0  0  0  0  0
    3.5949   -0.7978   -0.2939 C   0  0  2  0  0  0  0  0  0  0  0  0
    4.1500    0.6171   -0.1959 C   0  0  0  0  0  0  0  0  0  0  0  0
    3.5425    1.6055   -0.6022 O   0  0  0  0  0  0  0  0  0  0  0  0
    4.1961   -1.5367   -1.4793 C   0  0  0  0  0  0  0  0  0  0  0  0
    1.5867   -1.0492    0.3613 H   0  0  0  0  0  0  0  0  0  0  0  0
    3.8062   -1.3387    0.6350 H   0  0  0  0  0  0  0  0  0  0  0  0
    3.9947   -1.0097   -2.4191 H   0  0  0  0  0  0  0  0  0  0  0  0
    5.2825   -1.6301   -1.3791 H   0  0  0  0  0  0  0  0  0  0  0  0
    3.7737   -2.5436   -1.5658 H   0  0  0  0  0  0  0  0  0  0  0  0
    5.4218    0.6415    0.3591 N   0  0  0  0  0  0  0  0  0  0  0  0
    6.1671    1.8643    0.5469 C   0  0  0  0  0  0  0  0  0  0  0  0
    5.8412   -0.2241    0.6855 H   0  0  0  0  0  0  0  0  0  0  0  0
    6.8054    2.0437   -0.3308 H   0  0  0  0  0  0  0  0  0  0  0  0
    5.4679    2.7046    0.6696 H   0  0  0  0  0  0  0  0  0  0  0  0
    6.7957    1.7761    1.4453 H   0  0  0  0  0  0  0  0  0  0  0  0
  1  3  1  0  0  0  0
  1  7  1  0  0  0  0
  1  2  2  0  0  0  0
 31 32  1  0  0  0  0
 32 40  1  0  0  0  0
 32 33  2  0  0  0  0
  8  9  1  0  0  0  0
  9 17  1  0  0  0  0
  9 10  2  0  0  0  0
 18 19  1  0  0  0  0
 19 30  1  0  0  0  0
 19 20  2  0  0  0  0
 21 22  1  0  0  0  0
 22 23  2  0  0  0  0
 22 24  1  0  0  0  0
 31 34  1  0  0  0  0
  8 11  1  0  0  0  0
 40 41  1  0  0  0  0
 18 21  1  0  0  0  0
 30 31  1  0  0  0  0
  7  8  1  0  0  0  0
 17 18  1  0  0  0  0
  3  4  1  0  0  0  0
  3  5  1  0  0  0  0
  3  6  1  0  0  0  0
 34 37  1  0  0  0  0
 34 38  1  0  0  0  0
 34 39  1  0  0  0  0
 11 14  1  0  0  0  0
 11 15  1  0  0  0  0
 11 16  1  0  0  0  0
 41 43  1  0  0  0  0
 41 44  1  0  0  0  0
 41 45  1  0  0  0  0
 21 27  1  0  0  0  0
 21 28  1  0  0  0  0
 31 36  1  0  0  0  0
  8 13  1  0  0  0  0
 18 26  1  0  0  0  0
 40 42  1  0  0  0  0
  7 12  1  0  0  0  0
 30 35  1  0  0  0  0
 17 25  1  0  0  0  0
 24 29  1  0  0  0  0
M  END
$$$$

  -OEChem-05262214473D

 45 44  0     1  0  0  0  0  0999 V2000
   -2.2987    4.1032   -0.3022 C   0  0  0  0  0  0  0  0  0  0  0  0
   -1.8049    3.7117   -1.3532 O   0  0  0  0  0  0  0  0  0  0  0  0
   -3.0791    5.3755   -0.2846 C   0  0  0  0  0  0  0  0  0  0  0  0
   -2.4478    6.2532   -0.0717 H   0  0  0  0  0  0  0  0  0  0  0  0
   -3.5571    5.5891   -1.2541 H   0  0  0  0  0  0  0  0  0  0  0  0
   -3.8940    5.4184    0.4556 H   0  0  0  0  0  0  0  0  0  0  0  0
   -2.2137    3.4712    0.9275 N   0  0  0  0  0  0  0  0  0  0  0  0
   -1.5102    2.2327    1.1338 C   0  0  2  0  0  0  0  0  0  0  0  0
   -1.3539    1.5497   -0.2184 C   0  0  0  0  0  0  0  0  0  0  0  0
   -2.0852    1.7861   -1.1778 O   0  0  0  0  0  0  0  0  0  0  0  0
   -2.2477    1.3342    2.1145 C   0  0  0  0  0  0  0  0  0  0  0  0
   -2.6724    3.9052    1.7265 H   0  0  0  0  0  0  0  0  0  0  0  0
   -0.5220    2.4922    1.5290 H   0  0  0  0  0  0  0  0  0  0  0  0
   -3.2400    1.0636    1.7358 H   0  0  0  0  0  0  0  0  0  0  0  0
   -1.6970    0.4046    2.2923 H   0  0  0  0  0  0  0  0  0  0  0  0
   -2.3854    1.8384    3.0772 H   0  0  0  0  0  0  0  0  0  0  0  0
   -0.3283    0.6116   -0.2182 N   0  0  0  0  0  0  0  0  0  0  0  0
    0.0090   -0.1762   -1.3759 C   0  0  2  0  0  0  0  0  0  0  0  0
    1.5258   -0.1690   -1.5181 C   0  0  0  0  0  0  0  0  0  0  0  0
    2.1174    0.5239   -2.3433 O   0  0  0  0  0  0  0  0  0  0  0  0
   -0.6572    0.3560   -2.6419 C   0  0  0  0  0  0  0  0  0  0  0  0
   -2.1507    0.1435   -2.6054 C   0  0  0  0  0  0  0  0  0  0  0  0
   -2.6969   -0.7728   -2.0050 O   0  0  0  0  0  0  0  0  0  0  0  0
   -2.8267    1.0710   -3.3274 O   0  0  0  0  0  0  0  0  0  0  0  0
    0.2381    0.4970    0.6194 H   0  0  0  0  0  0  0  0  0  0  0  0
   -0.3228   -1.1987   -1.1588 H   0  0  0  0  0  0  0  0  0  0  0  0
   -0.4967    1.4361   -2.7497 H   0  0  0  0  0  0  0  0  0  0  0  0
   -0.2455   -0.0964   -3.5523 H   0  0  0  0  0  0  0  0  0  0  0  0
   -3.8013    0.9581   -3.3377 H   0  0  0  0  0  0  0  0  0  0  0  0
    2.1424   -0.9899   -0.5843 N   0  0  0  0  0  0  0  0  0  0  0  0
    3.5766   -1.1415   -0.5063 C   0  0  2  0  0  0  0  0  0  0  0  0
    4.1658    0.1866   -0.0496 C   0  0  0  0  0  0  0  0  0  0  0  0
    3.5833    1.2606   -0.1847 O   0  0  0  0  0  0  0  0  0  0  0  0
    4.1620   -1.5642   -1.8448 C   0  0  0  0  0  0  0  0  0  0  0  0
    1.5616   -1.5050    0.0707 H   0  0  0  0  0  0  0  0  0  0  0  0
    3.7729   -1.9084    0.2508 H   0  0  0  0  0  0  0  0  0  0  0  0
    3.9752   -0.8081   -2.6161 H   0  0  0  0  0  0  0  0  0  0  0  0
    5.2456   -1.7063   -1.7768 H   0  0  0  0  0  0  0  0  0  0  0  0
    3.7154   -2.5044   -2.1860 H   0  0  0  0  0  0  0  0  0  0  0  0
    5.4367    0.0366    0.4874 N   0  0  0  0  0  0  0  0  0  0  0  0
    6.2112    1.1514    0.9807 C   0  0  0  0  0  0  0  0  0  0  0  0
    5.8344   -0.8937    0.5779 H   0  0  0  0  0  0  0  0  0  0  0  0
    6.8553    1.5356    0.1760 H   0  0  0  0  0  0  0  0  0  0  0  0
    5.5324    1.9483    1.3188 H   0  0  0  0  0  0  0  0  0  0  0  0
    6.8357    0.8197    1.8232 H   0  0  0  0  0  0  0  0  0  0  0  0
  1  3  1  0  0  0  0
  1  7  1  0  0  0  0
  1  2  2  0  0  0  0
 31 32  1  0  0  0  0
 32 40  1  0  0  0  0
 32 33  2  0  0  0  0
  8  9  1  0  0  0  0
  9 17  1  0  0  0  0
  9 10  2  0  0  0  0
 18 19  1  0  0  0  0
 19 30  1  0  0  0  0
 19 20  2  0  0  0  0
 21 22  1  0  0  0  0
 22 23  2  0  0  0  0
 22 24  1  0  0  0  0
 31 34  1  0  0  0  0
  8 11  1  0  0  0  0
 40 41  1  0  0  0  0
 18 21  1  0  0  0  0
 30 31  1  0  0  0  0
  7  8  1  0  0  0  0
 17 18  1  0  0  0  0
  3  4  1  0  0  0  0
  3  5  1  0  0  0  0
  3  6  1  0  0  0  0
 34 37  1  0  0  0  0
 34 38  1  0  0  0  0
 34 39  1  0  0  0  0
 11 14  1  0  0  0  0
 11 15  1  0  0  0  0
 11 16  1  0  0  0  0
 41 43  1  0  0  0  0
 41 44  1  0  0  0  0
 41 45  1  0  0  0  0
 21 27  1  0  0  0  0
 21 28  1  0  0  0  0
 31 36  1  0  0  0  0
  8 13  1  0  0  0  0
 18 26  1  0  0  0  0
 40 42  1  0  0  0  0
  7 12  1  0  0  0  0
 30 35  1  0  0  0  0
 17 25  1  0  0  0  0
 24 29  1  0  0  0  0
M  END
$$$$

  -OEChem-05262214473D

 45 44  0     1  0  0  0  0  0999 V2000
   -2.2987    4.1032   -0.3022 C   0  0  0  0  0  0  0  0  0  0  0  0
   -1.8049    3.7117   -1.3532 O   0  0  0  0  0  0  0  0  0  0  0  0
   -3.0791    5.3755   -0.2846 C   0  0  0  0  0  0  0  0  0  0  0  0
   -2.4478    6.2532   -0.0717 H   0  0  0  0  0  0  0  0  0  0  0  0
   -3.5571    5.5891   -1.2541 H   0  0  0  0  0  0  0  0  0  0  0  0
   -3.8940    5.4184    0.4556 H   0  0  0  0  0  0  0  0  0  0  0  0
   -2.2137    3.4712    0.9275 N   0  0  0  0  0  0  0  0  0  0  0  0
   -1.5102    2.2327    1.1338 C   0  0  2  0  0  0  0  0  0  0  0  0
   -1.3539    1.5497   -0.2184 C   0  0  0  0  0  0  0  0  0  0  0  0
   -2.0852    1.7861   -1.1778 O   0  0  0  0  0  0  0  0  0  0  0  0
   -2.2477    1.3342    2.1145 C   0  0  0  0  0  0  0  0  0  0  0  0
   -2.6724    3.9052    1.7265 H   0  0  0  0  0  0  0  0  0  0  0  0
   -0.5220    2.4922    1.5290 H   0  0  0  0  0  0  0  0  0  0  0  0
   -3.2400    1.0636    1.7358 H   0  0  0  0  0  0  0  0  0  0  0  0
   -1.6970    0.4046    2.2923 H   0  0  0  0  0  0  0  0  0  0  0  0
   -2.3854    1.8384    3.0772 H   0  0  0  0  0  0  0  0  0  0  0  0
   -0.3283    0.6116   -0.2182 N   0  0  0  0  0  0  0  0  0  0  0  0
    0.0090   -0.1762   -1.3759 C   0  0  2  0  0  0  0  0  0  0  0  0
    1.5258   -0.1690   -1.5181 C   0  0  0  0  0  0  0  0  0  0  0  0
    2.1357    0.6988   -2.1395 O   0  0  0  0  0  0  0  0  0  0  0  0
   -0.6572    0.3560   -2.6419 C   0  0  0  0  0  0  0  0  0  0  0  0
   -2.1507    0.1435   -2.6054 C   0  0  0  0  0  0  0  0  0  0  0  0
   -2.6969   -0.7728   -2.0050 O   0  0  0  0  0  0  0  0  0  0  0  0
   -2.8267    1.0710   -3.3274 O   0  0  0  0  0  0  0  0  0  0  0  0
    0.2381    0.4970    0.6194 H   0  0  0  0  0  0  0  0  0  0  0  0
   -0.3228   -1.1987   -1.1588 H   0  0  0  0  0  0  0  0  0  0  0  0
   -0.4967    1.4361   -2.7497 H   0  0  0  0  0  0  0  0  0  0  0  0
   -0.2455   -0.0964   -3.5523 H   0  0  0  0  0  0  0  0  0  0  0  0
   -3.8013    0.9581   -3.3377 H   0  0  0  0  0  0  0  0  0  0  0  0
    2.1205   -1.2174   -0.8301 N   0  0  0  0  0  0  0  0  0  0  0  0
    3.5504   -1.4183   -0.8001 C   0  0  2  0  0  0  0  0  0  0  0  0
    4.1708   -0.2673   -0.0192 C   0  0  0  0  0  0  0  0  0  0  0  0
    3.6149    0.8189    0.1296 O   0  0  0  0  0  0  0  0  0  0  0  0
    4.1279   -1.4957   -2.2049 C   0  0  0  0  0  0  0  0  0  0  0  0
    1.5260   -1.8698   -0.3273 H   0  0  0  0  0  0  0  0  0  0  0  0
    3.7265   -2.3589   -0.2670 H   0  0  0  0  0  0  0  0  0  0  0  0
    3.9611   -0.5621   -2.7545 H   0  0  0  0  0  0  0  0  0  0  0  0
    5.2076   -1.6765   -2.1806 H   0  0  0  0  0  0  0  0  0  0  0  0
    3.6592   -2.3052   -2.7748 H   0  0  0  0  0  0  0  0  0  0  0  0
    5.4366   -0.5811    0.4555 N   0  0  0  0  0  0  0  0  0  0  0  0
    6.2371    0.3501    1.2159 C   0  0  0  0  0  0  0  0  0  0  0  0
    5.8114   -1.5125    0.3014 H   0  0  0  0  0  0  0  0  0  0  0  0
    6.8919    0.9131    0.5346 H   0  0  0  0  0  0  0  0  0  0  0  0
    5.5772    1.0489    1.7509 H   0  0  0  0  0  0  0  0  0  0  0  0
    6.8517   -0.2025    1.9418 H   0  0  0  0  0  0  0  0  0  0  0  0
  1  3  1  0  0  0  0
  1  7  1  0  0  0  0
  1  2  2  0  0  0  0
 31 32  1  0  0  0  0
 32 40  1  0  0  0  0
 32 33  2  0  0  0  0
  8  9  1  0  0  0  0
  9 17  1  0  0  0  0
  9 10  2  0  0  0  0
 18 19  1  0  0  0  0
 19 30  1  0  0  0  0
 19 20  2  0  0  0  0
 21 22  1  0  0  0  0
 22 23  2  0  0  0  0
 22 24  1  0  0  0  0
 31 34  1  0  0  0  0
  8 11  1  0  0  0  0
 40 41  1  0  0  0  0
 18 21  1  0  0  0  0
 30 31  1  0  0  0  0
  7  8  1  0  0  0  0
 17 18  1  0  0  0  0
  3  4  1  0  0  0  0
  3  5  1  0  0  0  0
  3  6  1  0  0  0  0
 34 37  1  0  0  0  0
 34 38  1  0  0  0  0
 34 39  1  0  0  0  0
 11 14  1  0  0  0  0
 11 15  1  0  0  0  0
 11 16  1  0  0  0  0
 41 43  1  0  0  0  0
 41 44  1  0  0  0  0
 41 45  1  0  0  0  0
 21 27  1  0  0  0  0
 21 28  1  0  0  0  0
 31 36  1  0  0  0  0
  8 13  1  0  0  0  0
 18 26  1  0  0  0  0
 40 42  1  0  0  0  0
  7 12  1  0  0  0  0
 30 35  1  0  0  0  0
 17 25  1  0  0  0  0
 24 29  1  0  0  0  0
M  END
$$$$

  -OEChem-05262214473D

 45 44  0     1  0  0  0  0  0999 V2000
   -2.2987    4.1032   -0.3022 C   0  0  0  0  0  0  0  0  0  0  0  0
   -1.8049    3.7117   -1.3532 O   0  0  0  0  0  0  0  0  0  0  0  0
   -3.0791    5.3755   -0.2846 C   0  0  0  0  0  0  0  0  0  0  0  0
   -2.4478    6.2532   -0.0717 H   0  0  0  0  0  0  0  0  0  0  0  0
   -3.5571    5.5891   -1.2541 H   0  0  0  0  0  0  0  0  0  0  0  0
   -3.8940    5.4184    0.4556 H   0  0  0  0  0  0  0  0  0  0  0  0
   -2.2137    3.4712    0.9275 N   0  0  0  0  0  0  0  0  0  0  0  0
   -1.5102    2.2327    1.1338 C   0  0  2  0  0  0  0  0  0  0  0  0
   -1.3539    1.5497   -0.2184 C   0  0  0  0  0  0  0  0  0  0  0  0
   -2.0852    1.7861   -1.1778 O   0  0  0  0  0  0  0  0  0  0  0  0
   -2.2477    1.3342    2.1145 C   0  0  0  0  0  0  0  0  0  0  0  0
   -2.6724    3.9052    1.7265 H   0  0  0  0  0  0  0  0  0  0  0  0
   -0.5220    2.4922    1.5290 H   0  0  0  0  0  0  0  0  0  0  0  0
   -3.2400    1.0636    1.7358 H   0  0  0  0  0  0  0  0  0  0  0  0
   -1.6970    0.4046    2.2923 H   0  0  0  0  0  0  0  0  0  0  0  0
   -2.3854    1.8384    3.0772 H   0  0  0  0  0  0  0  0  0  0  0  0
   -0.3283    0.6116   -0.2182 N   0  0  0  0  0  0  0  0  0  0  0  0
    0.0090   -0.1762   -1.3759 C   0  0  2  0  0  0  0  0  0  0  0  0
    1.5258   -0.1690   -1.5181 C   0  0  0  0  0  0  0  0  0  0  0  0
    2.1578    0.8147   -1.8976 O   0  0  0  0  0  0  0  0  0  0  0  0
   -0.6572    0.3560   -2.6419 C   0  0  0  0  0  0  0  0  0  0  0  0
   -2.1507    0.1435   -2.6054 C   0  0  0  0  0  0  0  0  0  0  0  0
   -2.6969   -0.7728   -2.0050 O   0  0  0  0  0  0  0  0  0  0  0  0
   -2.8267    1.0710   -3.3274 O   0  0  0  0  0  0  0  0  0  0  0  0
    0.2381    0.4970    0.6194 H   0  0  0  0  0  0  0  0  0  0  0  0
   -0.3228   -1.1987   -1.1588 H   0  0  0  0  0  0  0  0  0  0  0  0
   -0.4967    1.4361   -2.7497 H   0  0  0  0  0  0  0  0  0  0  0  0
   -0.2455   -0.0964   -3.5523 H   0  0  0  0  0  0  0  0  0  0  0  0
   -3.8013    0.9581   -3.3377 H   0  0  0  0  0  0  0  0  0  0  0  0
    2.0935   -1.3732   -1.1261 N   0  0  0  0  0  0  0  0  0  0  0  0
    3.5180   -1.6094   -1.1552 C   0  0  2  0  0  0  0  0  0  0  0  0
    4.1647   -0.7137   -0.1068 C   0  0  0  0  0  0  0  0  0  0  0  0
    3.6351    0.3105    0.3193 O   0  0  0  0  0  0  0  0  0  0  0  0
    4.0962   -1.3360   -2.5350 C   0  0  0  0  0  0  0  0  0  0  0  0
    1.4824   -2.1187   -0.8058 H   0  0  0  0  0  0  0  0  0  0  0  0
    3.6702   -2.6596   -0.8832 H   0  0  0  0  0  0  0  0  0  0  0  0
    3.9532   -0.2886   -2.8247 H   0  0  0  0  0  0  0  0  0  0  0  0
    5.1711   -1.5428   -2.5629 H   0  0  0  0  0  0  0  0  0  0  0  0
    3.6091   -1.9598   -3.2922 H   0  0  0  0  0  0  0  0  0  0  0  0
    5.4216   -1.1695    0.2654 N   0  0  0  0  0  0  0  0  0  0  0  0
    6.2430   -0.4852    1.2365 C   0  0  0  0  0  0  0  0  0  0  0  0
    5.7739   -2.0385   -0.1251 H   0  0  0  0  0  0  0  0  0  0  0  0
    6.9127    0.2185    0.7204 H   0  0  0  0  0  0  0  0  0  0  0  0
    5.5993    0.0677    1.9365 H   0  0  0  0  0  0  0  0  0  0  0  0
    6.8426   -1.2208    1.7928 H   0  0  0  0  0  0  0  0  0  0  0  0
  1  3  1  0  0  0  0
  1  7  1  0  0  0  0
  1  2  2  0  0  0  0
 31 32  1  0  0  0  0
 32 40  1  0  0  0  0
 32 33  2  0  0  0  0
  8  9  1  0  0  0  0
  9 17  1  0  0  0  0
  9 10  2  0  0  0  0
 18 19  1  0  0  0  0
 19 30  1  0  0  0  0
 19 20  2  0  0  0  0
 21 22  1  0  0  0  0
 22 23  2  0  0  0  0
 22 24  1  0  0  0  0
 31 34  1  0  0  0  0
  8 11  1  0  0  0  0
 40 41  1  0  0  0  0
 18 21  1  0  0  0  0
 30 31  1  0  0  0  0
  7  8  1  0  0  0  0
 17 18  1  0  0  0  0
  3  4  1  0  0  0  0
  3  5  1  0  0  0  0
  3  6  1  0  0  0  0
 34 37  1  0  0  0  0
 34 38  1  0  0  0  0
 34 39  1  0  0  0  0
 11 14  1  0  0  0  0
 11 15  1  0  0  0  0
 11 16  1  0  0  0  0
 41 43  1  0  0  0  0
 41 44  1  0  0  0  0
 41 45  1  0  0  0  0
 21 27  1  0  0  0  0
 21 28  1  0  0  0  0
 31 36  1  0  0  0  0
  8 13  1  0  0  0  0
 18 26  1  0  0  0  0
 40 42  1  0  0  0  0
  7 12  1  0  0  0  0
 30 35  1  0  0  0  0
 17 25  1  0  0  0  0
 24 29  1  0  0  0  0
M  END
$$$$

  -OEChem-05262214473D

 45 44  0     1  0  0  0  0  0999 V2000
   -2.2987    4.1032   -0.3022 C   0  0  0  0  0  0  0  0  0  0  0  0
   -1.8049    3.7117   -1.3532 O   0  0  0  0  0  0  0  0  0  0  0  0
   -3.0791    5.3755   -0.2846 C   0  0  0  0  0  0  0  0  0  0  0  0
   -2.4478    6.2532   -0.0717 H   0  0  0  0  0  0  0  0  0  0  0  0
   -3.5571    5.5891   -1.2541 H   0  0  0  0  0  0  0  0  0  0  0  0
   -3.8940    5.4184    0.4556 H   0  0  0  0  0  0  0  0  0  0  0  0
   -2.2137    3.4712    0.9275 N   0  0  0  0  0  0  0  0  0  0  0  0
   -1.5102    2.2327    1.1338 C   0  0  2  0  0  0  0  0  0  0  0  0
   -1.3539    1.5497   -0.2184 C   0  0  0  0  0  0  0  0  0  0  0  0
   -2.0852    1.7861   -1.1778 O   0  0  0  0  0  0  0  0  0  0  0  0
   -2.2477    1.3342    2.1145 C   0  0  0  0  0  0  0  0  0  0  0  0
   -2.6724    3.9052    1.7265 H   0  0  0  0  0  0  0  0  0  0  0  0
   -0.5220    2.4922    1.5290 H   0  0  0  0  0  0  0  0  0  0  0  0
   -3.2400    1.0636    1.7358 H   0  0  0  0  0  0  0  0  0  0  0  0
   -1.6970    0.4046    2.2923 H   0  0  0  0  0  0  0  0  0  0  0  0
   -2.3854    1.8384    3.0772 H   0  0  0  0  0  0  0  0  0  0  0  0
   -0.3283    0.6116   -0.2182 N   0  0  0  0  0  0  0  0  0  0  0  0
    0.0090   -0.1762   -1.3759 C   0  0  2  0  0  0  0  0  0  0  0  0
    1.5258   -0.1690   -1.5181 C   0  0  0  0  0  0  0  0  0  0  0  0
    2.1823    0.8638   -1.6341 O   0  0  0  0  0  0  0  0  0  0  0  0
   -0.6572    0.3560   -2.6419 C   0  0  0  0  0  0  0  0  0  0  0  0
   -2.1507    0.1435   -2.6054 C   0  0  0  0  0  0  0  0  0  0  0  0
   -2.6969   -0.7728   -2.0050 O   0  0  0  0  0  0  0  0  0  0  0  0
   -2.8267    1.0710   -3.3274 O   0  0  0  0  0  0  0  0  0  0  0  0
    0.2381    0.4970    0.6194 H   0  0  0  0  0  0  0  0  0  0  0  0
   -0.3228   -1.1987   -1.1588 H   0  0  0  0  0  0  0  0  0  0  0  0
   -0.4967    1.4361   -2.7497 H   0  0  0  0  0  0  0  0  0  0  0  0
   -0.2455   -0.0964   -3.5523 H   0  0  0  0  0  0  0  0  0  0  0  0
   -3.8013    0.9581   -3.3377 H   0  0  0  0  0  0  0  0  0  0  0  0
    2.0633   -1.4468   -1.4521 N   0  0  0  0  0  0  0  0  0  0  0  0
    3.4817   -1.7016   -1.5474 C   0  0  2  0  0  0  0  0  0  0  0  0
    4.1479   -1.1222   -0.3064 C   0  0  0  0  0  0  0  0  0  0  0  0
    3.6426   -0.2299    0.3715 O   0  0  0  0  0  0  0  0  0  0  0  0
    4.0690   -1.0958   -2.8126 C   0  0  0  0  0  0  0  0  0  0  0  0
    1.4336   -2.2348   -1.3321 H   0  0  0  0  0  0  0  0  0  0  0  0
    3.6077   -2.7898   -1.5559 H   0  0  0  0  0  0  0  0  0  0  0  0
    3.9521   -0.0060   -2.8221 H   0  0  0  0  0  0  0  0  0  0  0  0
    5.1386   -1.3142   -2.8976 H   0  0  0  0  0  0  0  0  0  0  0  0
    3.5683   -1.4915   -3.7029 H   0  0  0  0  0  0  0  0  0  0  0  0
    5.3927   -1.6885   -0.0698 N   0  0  0  0  0  0  0  0  0  0  0  0
    6.2286   -1.2975    1.0413 C   0  0  0  0  0  0  0  0  0  0  0  0
    5.7245   -2.4357   -0.6726 H   0  0  0  0  0  0  0  0  0  0  0  0
    6.9162   -0.5009    0.7209 H   0  0  0  0  0  0  0  0  0  0  0  0
    5.5972   -0.9283    1.8629 H   0  0  0  0  0  0  0  0  0  0  0  0
    6.8090   -2.1658    1.3866 H   0  0  0  0  0  0  0  0  0  0  0  0
  1  3  1  0  0  0  0
  1  7  1  0  0  0  0
  1  2  2  0  0  0  0
 31 32  1  0  0  0  0
 32 40  1  0  0  0  0
 32 33  2  0  0  0  0
  8  9  1  0  0  0  0
  9 17  1  0  0  0  0
  9 10  2  0  0  0  0
 18 19  1  0  0  0  0
 19 30  1  0  0  0  0
 19 20  2  0  0  0  0
 21 22  1  0  0  0  0
 22 23  2  0  0  0  0
 22 24  1  0  0  0  0
 31 34  1  0  0  0  0
  8 11  1  0  0  0  0
 40 41  1  0  0  0  0
 18 21  1  0  0  0  0
 30 31  1  0  0  0  0
  7  8  1  0  0  0  0
 17 18  1  0  0  0  0
  3  4  1  0  0  0  0
  3  5  1  0  0  0  0
  3  6  1  0  0  0  0
 34 37  1  0  0  0  0
 34 38  1  0  0  0  0
 34 39  1  0  0  0  0
 11 14  1  0  0  0  0
 11 15  1  0  0  0  0
 11 16  1  0  0  0  0
 41 43  1  0  0  0  0
 41 44  1  0  0  0  0
 41 45  1  0  0  0  0
 21 27  1  0  0  0  0
 21 28  1  0  0  0  0
 31 36  1  0  0  0  0
  8 13  1  0  0  0  0
 18 26  1  0  0  0  0
 40 42  1  0  0  0  0
  7 12  1  0  0  0  0
 30 35  1  0  0  0  0
 17 25  1  0  0  0  0
 24 29  1  0  0  0  0
M  END
$$$$

  -OEChem-05262214473D

 45 44  0     1  0  0  0  0  0999 V2000
   -2.2987    4.1032   -0.3022 C   0  0  0  0  0  0  0  0  0  0  0  0
   -1.8049    3.7117   -1.3532 O   0  0  0  0  0  0  0  0  0  0  0  0
   -3.0791    5.3755   -0.2846 C   0  0  0  0  0  0  0  0  0  0  0  0
   -2.4478    6.2532   -0.0717 H   0  0  0  0  0  0  0  0  0  0  0  0
   -3.5571    5.5891   -1.2541 H   0  0  0  0  0  0  0  0  0  0  0  0
   -3.8940    5.4184    0.4556 H   0  0  0  0  0  0  0  0  0  0  0  0
   -2.2137    3.4712    0.9275 N   0  0  0  0  0  0  0  0  0  0  0  0
   -1.5102    2.2327    1.1338 C   0  0  2  0  0  0  0  0  0  0  0  0
   -1.3539    1.5497   -0.2184 C   0  0  0  0  0  0  0  0  0  0  0  0
   -2.0852    1.7861   -1.1778 O   0  0  0  0  0  0  0  0  0  0  0  0
   -2.2477    1.3342    2.1145 C   0  0  0  0  0  0  0  0  0  0  0  0
   -2.6724    3.9052    1.7265 H   0  0  0  0  0  0  0  0  0  0  0  0
   -0.5220    2.4922    1.5290 H   0  0  0  0  0  0  0  0  0  0  0  0
   -3.2400    1.0636    1.7358 H   0  0  0  0  0  0  0  0  0  0  0  0
   -1.6970    0.4046    2.2923 H   0  0  0  0  0  0  0  0  0  0  0  0
   -2.3854    1.8384    3.0772 H   0  0  0  0  0  0  0  0  0  0  0  0
   -0.3283    0.6116   -0.2182 N   0  0  0  0  0  0  0  0  0  0  0  0
    0.0090   -0.1762   -1.3759 C   0  0  2  0  0  0  0  0  0  0  0  0
    1.5258   -0.1690   -1.5181 C   0  0  0  0  0  0  0  0  0  0  0  0
    2.2075    0.8428   -1.3669 O   0  0  0  0  0  0  0  0  0  0  0  0
   -0.6572    0.3560   -2.6419 C   0  0  0  0  0  0  0  0  0  0  0  0
   -2.1507    0.1435   -2.6054 C   0  0  0  0  0  0  0  0  0  0  0  0
   -2.6969   -0.7728   -2.0050 O   0  0  0  0  0  0  0  0  0  0  0  0
   -2.8267    1.0710   -3.3274 O   0  0  0  0  0  0  0  0  0  0  0  0
    0.2381    0.4970    0.6194 H   0  0  0  0  0  0  0  0  0  0  0  0
   -0.3228   -1.1987   -1.1588 H   0  0  0  0  0  0  0  0  0  0  0  0
   -0.4967    1.4361   -2.7497 H   0  0  0  0  0  0  0  0  0  0  0  0
   -0.2455   -0.0964   -3.5523 H   0  0  0  0  0  0  0  0  0  0  0  0
   -3.8013    0.9581   -3.3377 H   0  0  0  0  0  0  0  0  0  0  0  0
    2.0319   -1.4332   -1.7860 N   0  0  0  0  0  0  0  0  0  0  0  0
    3.4439   -1.6888   -1.9499 C   0  0  2  0  0  0  0  0  0  0  0  0
    4.1216   -1.4649   -0.6045 C   0  0  0  0  0  0  0  0  0  0  0  0
    3.6368   -0.7656    0.2826 O   0  0  0  0  0  0  0  0  0  0  0  0
    4.0482   -0.7917   -3.0189 C   0  0  0  0  0  0  0  0  0  0  0  0
    1.3830   -2.2101   -1.8702 H   0  0  0  0  0  0  0  0  0  0  0  0
    3.5434   -2.7407   -2.2390 H   0  0  0  0  0  0  0  0  0  0  0  0
    3.9578    0.2662   -2.7467 H   0  0  0  0  0  0  0  0  0  0  0  0
    5.1123   -1.0064   -3.1620 H   0  0  0  0  0  0  0  0  0  0  0  0
    3.5398   -0.9325   -3.9789 H   0  0  0  0  0  0  0  0  0  0  0  0
    5.3518   -2.1028   -0.5273 N   0  0  0  0  0  0  0  0  0  0  0  0
    6.1948   -2.0315    0.6433 C   0  0  0  0  0  0  0  0  0  0  0  0
    5.6665   -2.6771   -1.3037 H   0  0  0  0  0  0  0  0  0  0  0  0
    6.9022   -1.1960    0.5361 H   0  0  0  0  0  0  0  0  0  0  0  0
    5.5710   -1.8715    1.5351 H   0  0  0  0  0  0  0  0  0  0  0  0
    6.7533   -2.9731    0.7507 H   0  0  0  0  0  0  0  0  0  0  0  0
  1  3  1  0  0  0  0
  1  7  1  0  0  0  0
  1  2  2  0  0  0  0
 31 32  1  0  0  0  0
 32 40  1  0  0  0  0
 32 33  2  0  0  0  0
  8  9  1  0  0  0  0
  9 17  1  0  0  0  0
  9 10  2  0  0  0  0
 18 19  1  0  0  0  0
 19 30  1  0  0  0  0
 19 20  2  0  0  0  0
 21 22  1  0  0  0  0
 22 23  2  0  0  0  0
 22 24  1  0  0  0  0
 31 34  1  0  0  0  0
  8 11  1  0  0  0  0
 40 41  1  0  0  0  0
 18 21  1  0  0  0  0
 30 31  1  0  0  0  0
  7  8  1  0  0  0  0
 17 18  1  0  0  0  0
  3  4  1  0  0  0  0
  3  5  1  0  0  0  0
  3  6  1  0  0  0  0
 34 37  1  0  0  0  0
 34 38  1  0  0  0  0
 34 39  1  0  0  0  0
 11 14  1  0  0  0  0
 11 15  1  0  0  0  0
 11 16  1  0  0  0  0
 41 43  1  0  0  0  0
 41 44  1  0  0  0  0
 41 45  1  0  0  0  0
 21 27  1  0  0  0  0
 21 28  1  0  0  0  0
 31 36  1  0  0  0  0
  8 13  1  0  0  0  0
 18 26  1  0  0  0  0
 40 42  1  0  0  0  0
  7 12  1  0  0  0  0
 30 35  1  0  0  0  0
 17 25  1  0  0  0  0
 24 29  1  0  0  0  0
M  END
$$$$

  -OEChem-05262214473D

 45 44  0     1  0  0  0  0  0999 V2000
   -2.2987    4.1032   -0.3022 C   0  0  0  0  0  0  0  0  0  0  0  0
   -1.8049    3.7117   -1.3532 O   0  0  0  0  0  0  0  0  0  0  0  0
   -3.0791    5.3755   -0.2846 C   0  0  0  0  0  0  0  0  0  0  0  0
   -2.4478    6.2532   -0.0717 H   0  0  0  0  0  0  0  0  0  0  0  0
   -3.5571    5.5891   -1.2541 H   0  0  0  0  0  0  0  0  0  0  0  0
   -3.8940    5.4184    0.4556 H   0  0  0  0  0  0  0  0  0  0  0  0
   -2.2137    3.4712    0.9275 N   0  0  0  0  0  0  0  0  0  0  0  0
   -1.5102    2.2327    1.1338 C   0  0  2  0  0  0  0  0  0  0  0  0
   -1.3539    1.5497   -0.2184 C   0  0  0  0  0  0  0  0  0  0  0  0
   -2.0852    1.7861   -1.1778 O   0  0  0  0  0  0  0  0  0  0  0  0
   -2.2477    1.3342    2.1145 C   0  0  0  0  0  0  0  0  0  0  0  0
   -2.6724    3.9052    1.7265 H   0  0  0  0  0  0  0  0  0  0  0  0
   -0.5220    2.4922    1.5290 H   0  0  0  0  0  0  0  0  0  0  0  0
   -3.2400    1.0636    1.7358 H   0  0  0  0  0  0  0  0  0  0  0  0
   -1.6970    0.4046    2.2923 H   0  0  0  0  0  0  0  0  0  0  0  0
   -2.3854    1.8384    3.0772 H   0  0  0  0  0  0  0  0  0  0  0  0
   -0.3283    0.6116   -0.2182 N   0  0  0  0  0  0  0  0  0  0  0  0
    0.0090   -0.1762   -1.3759 C   0  0  2  0  0  0  0  0  0  0  0  0
    1.5258   -0.1690   -1.5181 C   0  0  0  0  0  0  0  0  0  0  0  0
    2.2316    0.7530   -1.1143 O   0  0  0  0  0  0  0  0  0  0  0  0
   -0.6572    0.3560   -2.6419 C   0  0  0  0  0  0  0  0  0  0  0  0
   -2.1507    0.1435   -2.6054 C   0  0  0  0  0  0  0  0  0  0  0  0
   -2.6969   -0.7728   -2.0050 O   0  0  0  0  0  0  0  0  0  0  0  0
   -2.8267    1.0710   -3.3274 O   0  0  0  0  0  0  0  0  0  0  0  0
    0.2381    0.4970    0.6194 H   0  0  0  0  0  0  0  0  0  0  0  0
   -0.3228   -1.1987   -1.1588 H   0  0  0  0  0  0  0  0  0  0  0  0
   -0.4967    1.4361   -2.7497 H   0  0  0  0  0  0  0  0  0  0  0  0
   -0.2455   -0.0964   -3.5523 H   0  0  0  0  0  0  0  0  0  0  0  0
   -3.8013    0.9581   -3.3377 H   0  0  0  0  0  0  0  0  0  0  0  0
    2.0015   -1.3332   -2.1049 N   0  0  0  0  0  0  0  0  0  0  0  0
    3.4072   -1.5718   -2.3354 C   0  0  2  0  0  0  0  0  0  0  0  0
    4.0876   -1.7184   -0.9807 C   0  0  0  0  0  0  0  0  0  0  0  0
    3.6182   -1.2600    0.0588 O   0  0  0  0  0  0  0  0  0  0  0  0
    4.0352   -0.4442   -3.1398 C   0  0  0  0  0  0  0  0  0  0  0  0
    1.3341   -2.0464   -2.3837 H   0  0  0  0  0  0  0  0  0  0  0  0
    3.4817   -2.5157   -2.8862 H   0  0  0  0  0  0  0  0  0  0  0  0
    3.9701    0.5097   -2.6038 H   0  0  0  0  0  0  0  0  0  0  0  0
    5.0941   -0.6403   -3.3380 H   0  0  0  0  0  0  0  0  0  0  0  0
    3.5254   -0.3207   -4.1013 H   0  0  0  0  0  0  0  0  0  0  0  0
    5.3017   -2.3840   -1.0758 N   0  0  0  0  0  0  0  0  0  0  0  0
    6.1439   -2.6371    0.0698 C   0  0  0  0  0  0  0  0  0  0  0  0
    5.6038   -2.7463   -1.9754 H   0  0  0  0  0  0  0  0  0  0  0  0
    6.8716   -1.8194    0.1784 H   0  0  0  0  0  0  0  0  0  0  0  0
    5.5225   -2.6973    0.9755 H   0  0  0  0  0  0  0  0  0  0  0  0
    6.6791   -3.5877   -0.0715 H   0  0  0  0  0  0  0  0  0  0  0  0
  1  3  1  0  0  0  0
  1  7  1  0  0  0  0
  1  2  2  0  0  0  0
 31 32  1  0  0  0  0
 32 40  1  0  0  0  0
 32 33  2  0  0  0  0
  8  9  1  0  0  0  0
  9 17  1  0  0  0  0
  9 10  2  0  0  0  0
 18 19  1  0  0  0  0
 19 30  1  0  0  0  0
 19 20  2  0  0  0  0
 21 22  1  0  0  0  0
 22 23  2  0  0  0  0
 22 24  1  0  0  0  0
 31 34  1  0  0  0  0
  8 11  1  0  0  0  0
 40 41  1  0  0  0  0
 18 21  1  0  0  0  0
 30 31  1  0  0  0  0
  7  8  1  0  0  0  0
 17 18  1  0  0  0  0
  3  4  1  0  0  0  0
  3  5  1  0  0  0  0
  3  6  1  0  0  0  0
 34 37  1  0  0  0  0
 34 38  1  0  0  0  0
 34 39  1  0  0  0  0
 11 14  1  0  0  0  0
 11 15  1  0  0  0  0
 11 16  1  0  0  0  0
 41 43  1  0  0  0  0
 41 44  1  0  0  0  0
 41 45  1  0  0  0  0
 21 27  1  0  0  0  0
 21 28  1  0  0  0  0
 31 36  1  0  0  0  0
  8 13  1  0  0  0  0
 18 26  1  0  0  0  0
 40 42  1  0  0  0  0
  7 12  1  0  0  0  0
 30 35  1  0  0  0  0
 17 25  1  0  0  0  0
 24 29  1  0  0  0  0
M  END
$$$$

  -OEChem-05262214473D

 45 44  0     1  0  0  0  0  0999 V2000
   -2.2987    4.1032   -0.3022 C   0  0  0  0  0  0  0  0  0  0  0  0
   -1.8049    3.7117   -1.3532 O   0  0  0  0  0  0  0  0  0  0  0  0
   -3.0791    5.3755   -0.2846 C   0  0  0  0  0  0  0  0  0  0  0  0
   -2.4478    6.2532   -0.0717 H   0  0  0  0  0  0  0  0  0  0  0  0
   -3.5571    5.5891   -1.2541 H   0  0  0  0  0  0  0  0  0  0  0  0
   -3.8940    5.4184    0.4556 H   0  0  0  0  0  0  0  0  0  0  0  0
   -2.2137    3.4712    0.9275 N   0  0  0  0  0  0  0  0  0  0  0  0
   -1.5102    2.2327    1.1338 C   0  0  2  0  0  0  0  0  0  0  0  0
   -1.3539    1.5497   -0.2184 C   0  0  0  0  0  0  0  0  0  0  0  0
   -2.0852    1.7861   -1.1778 O   0  0  0  0  0  0  0  0  0  0  0  0
   -2.2477    1.3342    2.1145 C   0  0  0  0  0  0  0  0  0  0  0  0
   -2.6724    3.9052    1.7265 H   0  0  0  0  0  0  0  0  0  0  0  0
   -0.5220    2.4922    1.5290 H   0  0  0  0  0  0  0  0  0  0  0  0
   -3.2400    1.0636    1.7358 H   0  0  0  0  0  0  0  0  0  0  0  0
   -1.6970    0.4046    2.2923 H   0  0  0  0  0  0  0  0  0  0  0  0
   -2.3854    1.8384    3.0772 H   0  0  0  0  0  0  0  0  0  0  0  0
   -0.3283    0.6116   -0.2182 N   0  0  0  0  0  0  0  0  0  0  0  0
    0.0090   -0.1762   -1.3759 C   0  0  2  0  0  0  0  0  0  0  0  0
    1.5258   -0.1690   -1.5181 C   0  0  0  0  0  0  0  0  0  0  0  0
    2.2530    0.6006   -0.8935 O   0  0  0  0  0  0  0  0  0  0  0  0
   -0.6572    0.3560   -2.6419 C   0  0  0  0  0  0  0  0  0  0  0  0
   -2.1507    0.1435   -2.6054 C   0  0  0  0  0  0  0  0  0  0  0  0
   -2.6969   -0.7728   -2.0050 O   0  0  0  0  0  0  0  0  0  0  0  0
   -2.8267    1.0710   -3.3274 O   0  0  0  0  0  0  0  0  0  0  0  0
    0.2381    0.4970    0.6194 H   0  0  0  0  0  0  0  0  0  0  0  0
   -0.3228   -1.1987   -1.1588 H   0  0  0  0  0  0  0  0  0  0  0  0
   -0.4967    1.4361   -2.7497 H   0  0  0  0  0  0  0  0  0  0  0  0
   -0.2455   -0.0964   -3.5523 H   0  0  0  0  0  0  0  0  0  0  0  0
   -3.8013    0.9581   -3.3377 H   0  0  0  0  0  0  0  0  0  0  0  0
    1.9742   -1.1537   -2.3872 N   0  0  0  0  0  0  0  0  0  0  0  0
    3.3741   -1.3585   -2.6775 C   0  0  2  0  0  0  0  0  0  0  0  0
    4.0481   -1.8656   -1.4094 C   0  0  0  0  0  0  0  0  0  0  0  0
    3.5880   -1.6794   -0.2848 O   0  0  0  0  0  0  0  0  0  0  0  0
    4.0309   -0.0772   -3.1670 C   0  0  0  0  0  0  0  0  0  0  0  0
    1.2901   -1.7548   -2.8373 H   0  0  0  0  0  0  0  0  0  0  0  0
    3.4267   -2.1301   -3.4533 H   0  0  0  0  0  0  0  0  0  0  0  0
    3.9880    0.7077   -2.4030 H   0  0  0  0  0  0  0  0  0  0  0  0
    5.0851   -0.2409   -3.4137 H   0  0  0  0  0  0  0  0  0  0  0  0
    3.5261    0.3022   -4.0620 H   0  0  0  0  0  0  0  0  0  0  0  0
    5.2458   -2.5131   -1.6781 N   0  0  0  0  0  0  0  0  0  0  0  0
    6.0795   -3.0730   -0.6401 C   0  0  0  0  0  0  0  0  0  0  0  0
    5.5408   -2.6385   -2.6420 H   0  0  0  0  0  0  0  0  0  0  0  0
    6.8266   -2.3286   -0.3277 H   0  0  0  0  0  0  0  0  0  0  0  0
    5.4550   -3.3497    0.2222 H   0  0  0  0  0  0  0  0  0  0  0  0
    6.5916   -3.9676   -1.0239 H   0  0  0  0  0  0  0  0  0  0  0  0
  1  3  1  0  0  0  0
  1  7  1  0  0  0  0
  1  2  2  0  0  0  0
 31 32  1  0  0  0  0
 32 40  1  0  0  0  0
 32 33  2  0  0  0  0
  8  9  1  0  0  0  0
  9 17  1  0  0  0  0
  9 10  2  0  0  0  0
 18 19  1  0  0  0  0
 19 30  1  0  0  0  0
 19 20  2  0  0  0  0
 21 22  1  0  0  0  0
 22 23  2  0  0  0  0
 22 24  1  0  0  0  0
 31 34  1  0  0  0  0
  8 11  1  0  0  0  0
 40 41  1  0  0  0  0
 18 21  1  0  0  0  0
 30 31  1  0  0  0  0
  7  8  1  0  0  0  0
 17 18  1  0  0  0  0
  3  4  1  0  0  0  0
  3  5  1  0  0  0  0
  3  6  1  0  0  0  0
 34 37  1  0  0  0  0
 34 38  1  0  0  0  0
 34 39  1  0  0  0  0
 11 14  1  0  0  0  0
 11 15  1  0  0  0  0
 11 16  1  0  0  0  0
 41 43  1  0  0  0  0
 41 44  1  0  0  0  0
 41 45  1  0  0  0  0
 21 27  1  0  0  0  0
 21 28  1  0  0  0  0
 31 36  1  0  0  0  0
  8 13  1  0  0  0  0
 18 26  1  0  0  0  0
 40 42  1  0  0  0  0
  7 12  1  0  0  0  0
 30 35  1  0  0  0  0
 17 25  1  0  0  0  0
 24 29  1  0  0  0  0
M  END
$$$$

  -OEChem-05262214473D

 45 44  0     1  0  0  0  0  0999 V2000
   -2.2987    4.1032   -0.3022 C   0  0  0  0  0  0  0  0  0  0  0  0
   -1.8049    3.7117   -1.3532 O   0  0  0  0  0  0  0  0  0  0  0  0
   -3.0791    5.3755   -0.2846 C   0  0  0  0  0  0  0  0  0  0  0  0
   -2.4478    6.2532   -0.0717 H   0  0  0  0  0  0  0  0  0  0  0  0
   -3.5571    5.5891   -1.2541 H   0  0  0  0  0  0  0  0  0  0  0  0
   -3.8940    5.4184    0.4556 H   0  0  0  0  0  0  0  0  0  0  0  0
   -2.2137    3.4712    0.9275 N   0  0  0  0  0  0  0  0  0  0  0  0
   -1.5102    2.2327    1.1338 C   0  0  2  0  0  0  0  0  0  0  0  0
   -1.3539    1.5497   -0.2184 C   0  0  0  0  0  0  0  0  0  0  0  0
   -2.0852    1.7861   -1.1778 O   0  0  0  0  0  0  0  0  0  0  0  0
   -2.2477    1.3342    2.1145 C   0  0  0  0  0  0  0  0  0  0  0  0
   -2.6724    3.9052    1.7265 H   0  0  0  0  0  0  0  0  0  0  0  0
   -0.5220    2.4922    1.5290 H   0  0  0  0  0  0  0  0  0  0  0  0
   -3.2400    1.0636    1.7358 H   0  0  0  0  0  0  0  0  0  0  0  0
   -1.6970    0.4046    2.2923 H   0  0  0  0  0  0  0  0  0  0  0  0
   -2.3854    1.8384    3.0772 H   0  0  0  0  0  0  0  0  0  0  0  0
   -0.3283    0.6116   -0.2182 N   0  0  0  0  0  0  0  0  0  0  0  0
    0.0090   -0.1762   -1.3759 C   0  0  2  0  0  0  0  0  0  0  0  0
    1.4995   -0.4848   -1.3108 C   0  0  0  0  0  0  0  0  0  0  0  0
    2.2169   -0.1279   -0.3785 O   0  0  0  0  0  0  0  0  0  0  0  0
   -0.3400    0.5425   -2.6765 C   0  0  0  0  0  0  0  0  0  0  0  0
   -1.8340    0.6506   -2.8583 C   0  0  0  0  0  0  0  0  0  0  0  0
   -2.6381   -0.1552   -2.4082 O   0  0  0  0  0  0  0  0  0  0  0  0
   -2.1926    1.7326   -3.5929 O   0  0  0  0  0  0  0  0  0  0  0  0
    0.2381    0.4970    0.6194 H   0  0  0  0  0  0  0  0  0  0  0  0
   -0.5525   -1.1137   -1.2835 H   0  0  0  0  0  0  0  0  0  0  0  0
    0.0513    1.5677   -2.6796 H   0  0  0  0  0  0  0  0  0  0  0  0
    0.1010    0.0551   -3.5544 H   0  0  0  0  0  0  0  0  0  0  0  0
   -3.1573    1.8298   -3.7433 H   0  0  0  0  0  0  0  0  0  0  0  0
    1.9235   -1.2457   -2.3913 N   0  0  0  0  0  0  0  0  0  0  0  0
    3.2920   -1.6793   -2.5499 C   0  0  2  0  0  0  0  0  0  0  0  0
    3.5987   -2.6820   -1.4453 C   0  0  0  0  0  0  0  0  0  0  0  0
    2.9675   -2.7332   -0.3917 O   0  0  0  0  0  0  0  0  0  0  0  0
    4.2546   -0.5031   -2.4988 C   0  0  0  0  0  0  0  0  0  0  0  0
    1.2440   -1.5082   -3.0991 H   0  0  0  0  0  0  0  0  0  0  0  0
    3.3552   -2.1771   -3.5236 H   0  0  0  0  0  0  0  0  0  0  0  0
    4.2055    0.0082   -1.5305 H   0  0  0  0  0  0  0  0  0  0  0  0
    5.2890   -0.8302   -2.6477 H   0  0  0  0  0  0  0  0  0  0  0  0
    4.0141    0.2313   -3.2750 H   0  0  0  0  0  0  0  0  0  0  0  0
    4.6875   -3.4844   -1.7563 N   0  0  0  0  0  0  0  0  0  0  0  0
    5.1837   -4.5056   -0.8636 C   0  0  0  0  0  0  0  0  0  0  0  0
    5.1390   -3.3853   -2.6608 H   0  0  0  0  0  0  0  0  0  0  0  0
    5.9773   -4.0845   -0.2289 H   0  0  0  0  0  0  0  0  0  0  0  0
    4.3616   -4.8692   -0.2296 H   0  0  0  0  0  0  0  0  0  0  0  0
    5.5899   -5.3413   -1.4524 H   0  0  0  0  0  0  0  0  0  0  0  0
  1  3  1  0  0  0  0
  1  7  1  0  0  0  0
  1  2  2  0  0  0  0
 31 32  1  0  0  0  0
 32 40  1  0  0  0  0
 32 33  2  0  0  0  0
  8  9  1  0  0  0  0
  9 17  1  0  0  0  0
  9 10  2  0  0  0  0
 18 19  1  0  0  0  0
 19 30  1  0  0  0  0
 19 20  2  0  0  0  0
 21 22  1  0  0  0  0
 22 23  2  0  0  0  0
 22 24  1  0  0  0  0
 31 34  1  0  0  0  0
  8 11  1  0  0  0  0
 40 41  1  0  0  0  0
 18 21  1  0  0  0  0
 30 31  1  0  0  0  0
  7  8  1  0  0  0  0
 17 18  1  0  0  0  0
  3  4  1  0  0  0  0
  3  5  1  0  0  0  0
  3  6  1  0  0  0  0
 34 37  1  0  0  0  0
 34 38  1  0  0  0  0
 34 39  1  0  0  0  0
 11 14  1  0  0  0  0
 11 15  1  0  0  0  0
 11 16  1  0  0  0  0
 41 43  1  0  0  0  0
 41 44  1  0  0  0  0
 41 45  1  0  0  0  0
 21 27  1  0  0  0  0
 21 28  1  0  0  0  0
 31 36  1  0  0  0  0
  8 13  1  0  0  0  0
 18 26  1  0  0  0  0
 40 42  1  0  0  0  0
  7 12  1  0  0  0  0
 30 35  1  0  0  0  0
 17 25  1  0  0  0  0
 24 29  1  0  0  0  0
M  END
$$$$

  -OEChem-05262214473D

 45 44  0     1  0  0  0  0  0999 V2000
   -2.2987    4.1032   -0.3022 C   0  0  0  0  0  0  0  0  0  0  0  0
   -1.8049    3.7117   -1.3532 O   0  0  0  0  0  0  0  0  0  0  0  0
   -3.0791    5.3755   -0.2846 C   0  0  0  0  0  0  0  0  0  0  0  0
   -2.4478    6.2532   -0.0717 H   0  0  0  0  0  0  0  0  0  0  0  0
   -3.5571    5.5891   -1.2541 H   0  0  0  0  0  0  0  0  0  0  0  0
   -3.8940    5.4184    0.4556 H   0  0  0  0  0  0  0  0  0  0  0  0
   -2.2137    3.4712    0.9275 N   0  0  0  0  0  0  0  0  0  0  0  0
   -1.5102    2.2327    1.1338 C   0  0  2  0  0  0  0  0  0  0  0  0
   -1.3539    1.5497   -0.2184 C   0  0  0  0  0  0  0  0  0  0  0  0
   -2.0852    1.7861   -1.1778 O   0  0  0  0  0  0  0  0  0  0  0  0
   -2.2477    1.3342    2.1145 C   0  0  0  0  0  0  0  0  0  0  0  0
   -2.6724    3.9052    1.7265 H   0  0  0  0  0  0  0  0  0  0  0  0
   -0.5220    2.4922    1.5290 H   0  0  0  0  0  0  0  0  0  0  0  0
   -3.2400    1.0636    1.7358 H   0  0  0  0  0  0  0  0  0  0  0  0
   -1.6970    0.4046    2.2923 H   0  0  0  0  0  0  0  0  0  0  0  0
   -2.3854    1.8384    3.0772 H   0  0  0  0  0  0  0  0  0  0  0  0
   -0.3283    0.6116   -0.2182 N   0  0  0  0  0  0  0  0  0  0  0  0
    0.0090   -0.1762   -1.3759 C   0  0  2  0  0  0  0  0  0  0  0  0
    1.4995   -0.4848   -1.3108 C   0  0  0  0  0  0  0  0  0  0  0  0
    2.1619   -0.3728   -0.2814 O   0  0  0  0  0  0  0  0  0  0  0  0
   -0.3400    0.5425   -2.6765 C   0  0  0  0  0  0  0  0  0  0  0  0
   -1.8340    0.6506   -2.8583 C   0  0  0  0  0  0  0  0  0  0  0  0
   -2.6381   -0.1552   -2.4082 O   0  0  0  0  0  0  0  0  0  0  0  0
   -2.1926    1.7326   -3.5929 O   0  0  0  0  0  0  0  0  0  0  0  0
    0.2381    0.4970    0.6194 H   0  0  0  0  0  0  0  0  0  0  0  0
   -0.5525   -1.1137   -1.2835 H   0  0  0  0  0  0  0  0  0  0  0  0
    0.0513    1.5677   -2.6796 H   0  0  0  0  0  0  0  0  0  0  0  0
    0.1010    0.0551   -3.5544 H   0  0  0  0  0  0  0  0  0  0  0  0
   -3.1573    1.8298   -3.7433 H   0  0  0  0  0  0  0  0  0  0  0  0
    1.9916   -0.9451   -2.5241 N   0  0  0  0  0  0  0  0  0  0  0  0
    3.3739   -1.3185   -2.7133 C   0  0  2  0  0  0  0  0  0  0  0  0
    3.6416   -2.5671   -1.8834 C   0  0  0  0  0  0  0  0  0  0  0  0
    2.9585   -2.8864   -0.9125 O   0  0  0  0  0  0  0  0  0  0  0  0
    4.3115   -0.1895   -2.3147 C   0  0  0  0  0  0  0  0  0  0  0  0
    1.3538   -1.0225   -3.3109 H   0  0  0  0  0  0  0  0  0  0  0  0
    3.4955   -1.5529   -3.7765 H   0  0  0  0  0  0  0  0  0  0  0  0
    4.2040    0.0594   -1.2526 H   0  0  0  0  0  0  0  0  0  0  0  0
    5.3578   -0.4637   -2.4855 H   0  0  0  0  0  0  0  0  0  0  0  0
    4.0979    0.7167   -2.8917 H   0  0  0  0  0  0  0  0  0  0  0  0
    4.7590   -3.2597   -2.3281 N   0  0  0  0  0  0  0  0  0  0  0  0
    5.2271   -4.4717   -1.6974 C   0  0  0  0  0  0  0  0  0  0  0  0
    5.2542   -2.9327   -3.1525 H   0  0  0  0  0  0  0  0  0  0  0  0
    5.9797   -4.2219   -0.9351 H   0  0  0  0  0  0  0  0  0  0  0  0
    4.3803   -4.9877   -1.2212 H   0  0  0  0  0  0  0  0  0  0  0  0
    5.6776   -5.1291   -2.4556 H   0  0  0  0  0  0  0  0  0  0  0  0
  1  3  1  0  0  0  0
  1  7  1  0  0  0  0
  1  2  2  0  0  0  0
 31 32  1  0  0  0  0
 32 40  1  0  0  0  0
 32 33  2  0  0  0  0
  8  9  1  0  0  0  0
  9 17  1  0  0  0  0
  9 10  2  0  0  0  0
 18 19  1  0  0  0  0
 19 30  1  0  0  0  0
 19 20  2  0  0  0  0
 21 22  1  0  0  0  0
 22 23  2  0  0  0  0
 22 24  1  0  0  0  0
 31 34  1  0  0  0  0
  8 11  1  0  0  0  0
 40 41  1  0  0  0  0
 18 21  1  0  0  0  0
 30 31  1  0  0  0  0
  7  8  1  0  0  0  0
 17 18  1  0  0  0  0
  3  4  1  0  0  0  0
  3  5  1  0  0  0  0
  3  6  1  0  0  0  0
 34 37  1  0  0  0  0
 34 38  1  0  0  0  0
 34 39  1  0  0  0  0
 11 14  1  0  0  0  0
 11 15  1  0  0  0  0
 11 16  1  0  0  0  0
 41 43  1  0  0  0  0
 41 44  1  0  0  0  0
 41 45  1  0  0  0  0
 21 27  1  0  0  0  0
 21 28  1  0  0  0  0
 31 36  1  0  0  0  0
  8 13  1  0  0  0  0
 18 26  1  0  0  0  0
 40 42  1  0  0  0  0
  7 12  1  0  0  0  0
 30 35  1  0  0  0  0
 17 25  1  0  0  0  0
 24 29  1  0  0  0  0
M  END
$$$$

  -OEChem-05262214473D

 45 44  0     1  0  0  0  0  0999 V2000
   -2.2987    4.1032   -0.3022 C   0  0  0  0  0  0  0  0  0  0  0  0
   -1.8049    3.7117   -1.3532 O   0  0  0  0  0  0  0  0  0  0  0  0
   -3.0791    5.3755   -0.2846 C   0  0  0  0  0  0  0  0  0  0  0  0
   -2.4478    6.2532   -0.0717 H   0  0  0  0  0  0  0  0  0  0  0  0
   -3.5571    5.5891   -1.2541 H   0  0  0  0  0  0  0  0  0  0  0  0
   -3.8940    5.4184    0.4556 H   0  0  0  0  0  0  0  0  0  0  0  0
   -2.2137    3.4712    0.9275 N   0  0  0  0  0  0  0  0  0  0  0  0
   -1.5102    2.2327    1.1338 C   0  0  2  0  0  0  0  0  0  0  0  0
   -1.3539    1.5497   -0.2184 C   0  0  0  0  0  0  0  0  0  0  0  0
   -2.0852    1.7861   -1.1778 O   0  0  0  0  0  0  0  0  0  0  0  0
   -2.2477    1.3342    2.1145 C   0  0  0  0  0  0  0  0  0  0  0  0
   -2.6724    3.9052    1.7265 H   0  0  0  0  0  0  0  0  0  0  0  0
   -0.5220    2.4922    1.5290 H   0  0  0  0  0  0  0  0  0  0  0  0
   -3.2400    1.0636    1.7358 H   0  0  0  0  0  0  0  0  0  0  0  0
   -1.6970    0.4046    2.2923 H   0  0  0  0  0  0  0  0  0  0  0  0
   -2.3854    1.8384    3.0772 H   0  0  0  0  0  0  0  0  0  0  0  0
   -0.3283    0.6116   -0.2182 N   0  0  0  0  0  0  0  0  0  0  0  0
    0.0090   -0.1762   -1.3759 C   0  0  2  0  0  0  0  0  0  0  0  0
    1.4995   -0.4848   -1.3108 C   0  0  0  0  0  0  0  0  0  0  0  0
    2.1065   -0.6346   -0.2524 O   0  0  0  0  0  0  0  0  0  0  0  0
   -0.3400    0.5425   -2.6765 C   0  0  0  0  0  0  0  0  0  0  0  0
   -1.8340    0.6506   -2.8583 C   0  0  0  0  0  0  0  0  0  0  0  0
   -2.6381   -0.1552   -2.4082 O   0  0  0  0  0  0  0  0  0  0  0  0
   -2.1926    1.7326   -3.5929 O   0  0  0  0  0  0  0  0  0  0  0  0
    0.2381    0.4970    0.6194 H   0  0  0  0  0  0  0  0  0  0  0  0
   -0.5525   -1.1137   -1.2835 H   0  0  0  0  0  0  0  0  0  0  0  0
    0.0513    1.5677   -2.6796 H   0  0  0  0  0  0  0  0  0  0  0  0
    0.1010    0.0551   -3.5544 H   0  0  0  0  0  0  0  0  0  0  0  0
   -3.1573    1.8298   -3.7433 H   0  0  0  0  0  0  0  0  0  0  0  0
    2.0609   -0.6203   -2.5728 N   0  0  0  0  0  0  0  0  0  0  0  0
    3.4575   -0.9276   -2.7755 C   0  0  2  0  0  0  0  0  0  0  0  0
    3.7047   -2.3447   -2.2752 C   0  0  0  0  0  0  0  0  0  0  0  0
    2.9788   -2.9026   -1.4549 O   0  0  0  0  0  0  0  0  0  0  0  0
    4.3534    0.0674   -2.0544 C   0  0  0  0  0  0  0  0  0  0  0  0
    1.4656   -0.4985   -3.3867 H   0  0  0  0  0  0  0  0  0  0  0  0
    3.6373   -0.8844   -3.8553 H   0  0  0  0  0  0  0  0  0  0  0  0
    4.1874    0.0385   -0.9713 H   0  0  0  0  0  0  0  0  0  0  0  0
    5.4117   -0.1500   -2.2325 H   0  0  0  0  0  0  0  0  0  0  0  0
    4.1533    1.0894   -2.3941 H   0  0  0  0  0  0  0  0  0  0  0  0
    4.8555   -2.8971   -2.8198 N   0  0  0  0  0  0  0  0  0  0  0  0
    5.3123   -4.2274   -2.4919 C   0  0  0  0  0  0  0  0  0  0  0  0
    5.3862   -2.3697   -3.5068 H   0  0  0  0  0  0  0  0  0  0  0  0
    6.0205   -4.1758   -1.6518 H   0  0  0  0  0  0  0  0  0  0  0  0
    4.4517   -4.8509   -2.2080 H   0  0  0  0  0  0  0  0  0  0  0  0
    5.8126   -4.6692   -3.3663 H   0  0  0  0  0  0  0  0  0  0  0  0
  1  3  1  0  0  0  0
  1  7  1  0  0  0  0
  1  2  2  0  0  0  0
 31 32  1  0  0  0  0
 32 40  1  0  0  0  0
 32 33  2  0  0  0  0
  8  9  1  0  0  0  0
  9 17  1  0  0  0  0
  9 10  2  0  0  0  0
 18 19  1  0  0  0  0
 19 30  1  0  0  0  0
 19 20  2  0  0  0  0
 21 22  1  0  0  0  0
 22 23  2  0  0  0  0
 22 24  1  0  0  0  0
 31 34  1  0  0  0  0
  8 11  1  0  0  0  0
 40 41  1  0  0  0  0
 18 21  1  0  0  0  0
 30 31  1  0  0  0  0
  7  8  1  0  0  0  0
 17 18  1  0  0  0  0
  3  4  1  0  0  0  0
  3  5  1  0  0  0  0
  3  6  1  0  0  0  0
 34 37  1  0  0  0  0
 34 38  1  0  0  0  0
 34 39  1  0  0  0  0
 11 14  1  0  0  0  0
 11 15  1  0  0  0  0
 11 16  1  0  0  0  0
 41 43  1  0  0  0  0
 41 44  1  0  0  0  0
 41 45  1  0  0  0  0
 21 27  1  0  0  0  0
 21 28  1  0  0  0  0
 31 36  1  0  0  0  0
  8 13  1  0  0  0  0
 18 26  1  0  0  0  0
 40 42  1  0  0  0  0
  7 12  1  0  0  0  0
 30 35  1  0  0  0  0
 17 25  1  0  0  0  0
 24 29  1  0  0  0  0
M  END
$$$$

  -OEChem-05262214473D

 45 44  0     1  0  0  0  0  0999 V2000
   -2.2987    4.1032   -0.3022 C   0  0  0  0  0  0  0  0  0  0  0  0
   -1.8049    3.7117   -1.3532 O   0  0  0  0  0  0  0  0  0  0  0  0
   -3.0791    5.3755   -0.2846 C   0  0  0  0  0  0  0  0  0  0  0  0
   -2.4478    6.2532   -0.0717 H   0  0  0  0  0  0  0  0  0  0  0  0
   -3.5571    5.5891   -1.2541 H   0  0  0  0  0  0  0  0  0  0  0  0
   -3.8940    5.4184    0.4556 H   0  0  0  0  0  0  0  0  0  0  0  0
   -2.2137    3.4712    0.9275 N   0  0  0  0  0  0  0  0  0  0  0  0
   -1.5102    2.2327    1.1338 C   0  0  2  0  0  0  0  0  0  0  0  0
   -1.3539    1.5497   -0.2184 C   0  0  0  0  0  0  0  0  0  0  0  0
   -2.0852    1.7861   -1.1778 O   0  0  0  0  0  0  0  0  0  0  0  0
   -2.2477    1.3342    2.1145 C   0  0  0  0  0  0  0  0  0  0  0  0
   -2.6724    3.9052    1.7265 H   0  0  0  0  0  0  0  0  0  0  0  0
   -0.5220    2.4922    1.5290 H   0  0  0  0  0  0  0  0  0  0  0  0
   -3.2400    1.0636    1.7358 H   0  0  0  0  0  0  0  0  0  0  0  0
   -1.6970    0.4046    2.2923 H   0  0  0  0  0  0  0  0  0  0  0  0
   -2.3854    1.8384    3.0772 H   0  0  0  0  0  0  0  0  0  0  0  0
   -0.3283    0.6116   -0.2182 N   0  0  0  0  0  0  0  0  0  0  0  0
    0.0090   -0.1762   -1.3759 C   0  0  2  0  0  0  0  0  0  0  0  0
    1.4995   -0.4848   -1.3108 C   0  0  0  0  0  0  0  0  0  0  0  0
    2.0543   -0.8954   -0.2936 O   0  0  0  0  0  0  0  0  0  0  0  0
   -0.3400    0.5425   -2.6765 C   0  0  0  0  0  0  0  0  0  0  0  0
   -1.8340    0.6506   -2.8583 C   0  0  0  0  0  0  0  0  0  0  0  0
   -2.6381   -0.1552   -2.4082 O   0  0  0  0  0  0  0  0  0  0  0  0
   -2.1926    1.7326   -3.5929 O   0  0  0  0  0  0  0  0  0  0  0  0
    0.2381    0.4970    0.6194 H   0  0  0  0  0  0  0  0  0  0  0  0
   -0.5525   -1.1137   -1.2835 H   0  0  0  0  0  0  0  0  0  0  0  0
    0.0513    1.5677   -2.6796 H   0  0  0  0  0  0  0  0  0  0  0  0
    0.1010    0.0551   -3.5544 H   0  0  0  0  0  0  0  0  0  0  0  0
   -3.1573    1.8298   -3.7433 H   0  0  0  0  0  0  0  0  0  0  0  0
    2.1269   -0.2936   -2.5339 N   0  0  0  0  0  0  0  0  0  0  0  0
    3.5372   -0.5334   -2.7323 C   0  0  2  0  0  0  0  0  0  0  0  0
    3.7838   -2.0300   -2.5941 C   0  0  0  0  0  0  0  0  0  0  0  0
    3.0270   -2.7807   -1.9819 O   0  0  0  0  0  0  0  0  0  0  0  0
    4.3773    0.2502   -1.7358 C   0  0  0  0  0  0  0  0  0  0  0  0
    1.5717    0.0281   -3.3214 H   0  0  0  0  0  0  0  0  0  0  0  0
    3.7711   -0.2171   -3.7547 H   0  0  0  0  0  0  0  0  0  0  0  0
    4.1568   -0.0531   -0.7058 H   0  0  0  0  0  0  0  0  0  0  0  0
    5.4470    0.0896   -1.9058 H   0  0  0  0  0  0  0  0  0  0  0  0
    4.1766    1.3240   -1.8163 H   0  0  0  0  0  0  0  0  0  0  0  0
    4.9705   -2.4213   -3.1979 N   0  0  0  0  0  0  0  0  0  0  0  0
    5.4336   -3.7893   -3.1930 C   0  0  0  0  0  0  0  0  0  0  0  0
    5.5261   -1.7347   -3.6995 H   0  0  0  0  0  0  0  0  0  0  0  0
    6.0970   -3.9493   -2.3303 H   0  0  0  0  0  0  0  0  0  0  0  0
    4.5709   -4.4681   -3.1228 H   0  0  0  0  0  0  0  0  0  0  0  0
    5.9856   -3.9928   -4.1225 H   0  0  0  0  0  0  0  0  0  0  0  0
  1  3  1  0  0  0  0
  1  7  1  0  0  0  0
  1  2  2  0  0  0  0
 31 32  1  0  0  0  0
 32 40  1  0  0  0  0
 32 33  2  0  0  0  0
  8  9  1  0  0  0  0
  9 17  1  0  0  0  0
  9 10  2  0  0  0  0
 18 19  1  0  0  0  0
 19 30  1  0  0  0  0
 19 20  2  0  0  0  0
 21 22  1  0  0  0  0
 22 23  2  0  0  0  0
 22 24  1  0  0  0  0
 31 34  1  0  0  0  0
  8 11  1  0  0  0  0
 40 41  1  0  0  0  0
 18 21  1  0  0  0  0
 30 31  1  0  0  0  0
  7  8  1  0  0  0  0
 17 18  1  0  0  0  0
  3  4  1  0  0  0  0
  3  5  1  0  0  0  0
  3  6  1  0  0  0  0
 34 37  1  0  0  0  0
 34 38  1  0  0  0  0
 34 39  1  0  0  0  0
 11 14  1  0  0  0  0
 11 15  1  0  0  0  0
 11 16  1  0  0  0  0
 41 43  1  0  0  0  0
 41 44  1  0  0  0  0
 41 45  1  0  0  0  0
 21 27  1  0  0  0  0
 21 28  1  0  0  0  0
 31 36  1  0  0  0  0
  8 13  1  0  0  0  0
 18 26  1  0  0  0  0
 40 42  1  0  0  0  0
  7 12  1  0  0  0  0
 30 35  1  0  0  0  0
 17 25  1  0  0  0  0
 24 29  1  0  0  0  0
M  END
$$$$

  -OEChem-05262214473D

 45 44  0     1  0  0  0  0  0999 V2000
   -2.2987    4.1032   -0.3022 C   0  0  0  0  0  0  0  0  0  0  0  0
   -1.8049    3.7117   -1.3532 O   0  0  0  0  0  0  0  0  0  0  0  0
   -3.0791    5.3755   -0.2846 C   0  0  0  0  0  0  0  0  0  0  0  0
   -2.4478    6.2532   -0.0717 H   0  0  0  0  0  0  0  0  0  0  0  0
   -3.5571    5.5891   -1.2541 H   0  0  0  0  0  0  0  0  0  0  0  0
   -3.8940    5.4184    0.4556 H   0  0  0  0  0  0  0  0  0  0  0  0
   -2.2137    3.4712    0.9275 N   0  0  0  0  0  0  0  0  0  0  0  0
   -1.5102    2.2327    1.1338 C   0  0  2  0  0  0  0  0  0  0  0  0
   -1.3539    1.5497   -0.2184 C   0  0  0  0  0  0  0  0  0  0  0  0
   -2.0852    1.7861   -1.1778 O   0  0  0  0  0  0  0  0  0  0  0  0
   -2.2477    1.3342    2.1145 C   0  0  0  0  0  0  0  0  0  0  0  0
   -2.6724    3.9052    1.7265 H   0  0  0  0  0  0  0  0  0  0  0  0
   -0.5220    2.4922    1.5290 H   0  0  0  0  0  0  0  0  0  0  0  0
   -3.2400    1.0636    1.7358 H   0  0  0  0  0  0  0  0  0  0  0  0
   -1.6970    0.4046    2.2923 H   0  0  0  0  0  0  0  0  0  0  0  0
   -2.3854    1.8384    3.0772 H   0  0  0  0  0  0  0  0  0  0  0  0
   -0.3283    0.6116   -0.2182 N   0  0  0  0  0  0  0  0  0  0  0  0
    0.0090   -0.1762   -1.3759 C   0  0  2  0  0  0  0  0  0  0  0  0
    1.4995   -0.4848   -1.3108 C   0  0  0  0  0  0  0  0  0  0  0  0
    2.0089   -1.1375   -0.4021 O   0  0  0  0  0  0  0  0  0  0  0  0
   -0.3400    0.5425   -2.6765 C   0  0  0  0  0  0  0  0  0  0  0  0
   -1.8340    0.6506   -2.8583 C   0  0  0  0  0  0  0  0  0  0  0  0
   -2.6381   -0.1552   -2.4082 O   0  0  0  0  0  0  0  0  0  0  0  0
   -2.1926    1.7326   -3.5929 O   0  0  0  0  0  0  0  0  0  0  0  0
    0.2381    0.4970    0.6194 H   0  0  0  0  0  0  0  0  0  0  0  0
   -0.5525   -1.1137   -1.2835 H   0  0  0  0  0  0  0  0  0  0  0  0
    0.0513    1.5677   -2.6796 H   0  0  0  0  0  0  0  0  0  0  0  0
    0.1010    0.0551   -3.5544 H   0  0  0  0  0  0  0  0  0  0  0  0
   -3.1573    1.8298   -3.7433 H   0  0  0  0  0  0  0  0  0  0  0  0
    2.1849    0.0129   -2.4101 N   0  0  0  0  0  0  0  0  0  0  0  0
    3.6076   -0.1627   -2.5865 C   0  0  2  0  0  0  0  0  0  0  0  0
    3.8734   -1.6443   -2.8182 C   0  0  0  0  0  0  0  0  0  0  0  0
    3.0999   -2.5290   -2.4575 O   0  0  0  0  0  0  0  0  0  0  0  0
    4.3817    0.3463   -1.3805 C   0  0  0  0  0  0  0  0  0  0  0  0
    1.6650    0.5213   -3.1194 H   0  0  0  0  0  0  0  0  0  0  0  0
    3.8876    0.4035   -3.4815 H   0  0  0  0  0  0  0  0  0  0  0  0
    4.1144   -0.2092   -0.4741 H   0  0  0  0  0  0  0  0  0  0  0  0
    5.4614    0.2386   -1.5277 H   0  0  0  0  0  0  0  0  0  0  0  0
    4.1663    1.4045   -1.1974 H   0  0  0  0  0  0  0  0  0  0  0  0
    5.0962   -1.8647   -3.4366 N   0  0  0  0  0  0  0  0  0  0  0  0
    5.5827   -3.1873   -3.7529 C   0  0  0  0  0  0  0  0  0  0  0  0
    5.6643   -1.0710   -3.7176 H   0  0  0  0  0  0  0  0  0  0  0  0
    6.2040   -3.5579   -2.9243 H   0  0  0  0  0  0  0  0  0  0  0  0
    4.7297   -3.8654   -3.9032 H   0  0  0  0  0  0  0  0  0  0  0  0
    6.1849   -3.1461   -4.6725 H   0  0  0  0  0  0  0  0  0  0  0  0
  1  3  1  0  0  0  0
  1  7  1  0  0  0  0
  1  2  2  0  0  0  0
 31 32  1  0  0  0  0
 32 40  1  0  0  0  0
 32 33  2  0  0  0  0
  8  9  1  0  0  0  0
  9 17  1  0  0  0  0
  9 10  2  0  0  0  0
 18 19  1  0  0  0  0
 19 30  1  0  0  0  0
 19 20  2  0  0  0  0
 21 22  1  0  0  0  0
 22 23  2  0  0  0  0
 22 24  1  0  0  0  0
 31 34  1  0  0  0  0
  8 11  1  0  0  0  0
 40 41  1  0  0  0  0
 18 21  1  0  0  0  0
 30 31  1  0  0  0  0
  7  8  1  0  0  0  0
 17 18  1  0  0  0  0
  3  4  1  0  0  0  0
  3  5  1  0  0  0  0
  3  6  1  0  0  0  0
 34 37  1  0  0  0  0
 34 38  1  0  0  0  0
 34 39  1  0  0  0  0
 11 14  1  0  0  0  0
 11 15  1  0  0  0  0
 11 16  1  0  0  0  0
 41 43  1  0  0  0  0
 41 44  1  0  0  0  0
 41 45  1  0  0  0  0
 21 27  1  0  0  0  0
 21 28  1  0  0  0  0
 31 36  1  0  0  0  0
  8 13  1  0  0  0  0
 18 26  1  0  0  0  0
 40 42  1  0  0  0  0
  7 12  1  0  0  0  0
 30 35  1  0  0  0  0
 17 25  1  0  0  0  0
 24 29  1  0  0  0  0
M  END
$$$$

  -OEChem-05262214473D

 45 44  0     1  0  0  0  0  0999 V2000
   -2.2987    4.1032   -0.3022 C   0  0  0  0  0  0  0  0  0  0  0  0
   -1.8049    3.7117   -1.3532 O   0  0  0  0  0  0  0  0  0  0  0  0
   -3.0791    5.3755   -0.2846 C   0  0  0  0  0  0  0  0  0  0  0  0
   -2.4478    6.2532   -0.0717 H   0  0  0  0  0  0  0  0  0  0  0  0
   -3.5571    5.5891   -1.2541 H   0  0  0  0  0  0  0  0  0  0  0  0
   -3.8940    5.4184    0.4556 H   0  0  0  0  0  0  0  0  0  0  0  0
   -2.2137    3.4712    0.9275 N   0  0  0  0  0  0  0  0  0  0  0  0
   -1.5102    2.2327    1.1338 C   0  0  2  0  0  0  0  0  0  0  0  0
   -1.3539    1.5497   -0.2184 C   0  0  0  0  0  0  0  0  0  0  0  0
   -2.0852    1.7861   -1.1778 O   0  0  0  0  0  0  0  0  0  0  0  0
   -2.2477    1.3342    2.1145 C   0  0  0  0  0  0  0  0  0  0  0  0
   -2.6724    3.9052    1.7265 H   0  0  0  0  0  0  0  0  0  0  0  0
   -0.5220    2.4922    1.5290 H   0  0  0  0  0  0  0  0  0  0  0  0
   -3.2400    1.0636    1.7358 H   0  0  0  0  0  0  0  0  0  0  0  0
   -1.6970    0.4046    2.2923 H   0  0  0  0  0  0  0  0  0  0  0  0
   -2.3854    1.8384    3.0772 H   0  0  0  0  0  0  0  0  0  0  0  0
   -0.3283    0.6116   -0.2182 N   0  0  0  0  0  0  0  0  0  0  0  0
    0.0090   -0.1762   -1.3759 C   0  0  2  0  0  0  0  0  0  0  0  0
    1.4995   -0.4848   -1.3108 C   0  0  0  0  0  0  0  0  0  0  0  0
    1.9734   -1.3443   -0.5707 O   0  0  0  0  0  0  0  0  0  0  0  0
   -0.3400    0.5425   -2.6765 C   0  0  0  0  0  0  0  0  0  0  0  0
   -1.8340    0.6506   -2.8583 C   0  0  0  0  0  0  0  0  0  0  0  0
   -2.6381   -0.1552   -2.4082 O   0  0  0  0  0  0  0  0  0  0  0  0
   -2.1926    1.7326   -3.5929 O   0  0  0  0  0  0  0  0  0  0  0  0
    0.2381    0.4970    0.6194 H   0  0  0  0  0  0  0  0  0  0  0  0
   -0.5525   -1.1137   -1.2835 H   0  0  0  0  0  0  0  0  0  0  0  0
    0.0513    1.5677   -2.6796 H   0  0  0  0  0  0  0  0  0  0  0  0
    0.1010    0.0551   -3.5544 H   0  0  0  0  0  0  0  0  0  0  0  0
   -3.1573    1.8298   -3.7433 H   0  0  0  0  0  0  0  0  0  0  0  0
    2.2311    0.2783   -2.2100 N   0  0  0  0  0  0  0  0  0  0  0  0
    3.6639    0.1592   -2.3481 C   0  0  2  0  0  0  0  0  0  0  0  0
    3.9675   -1.2141   -2.9324 C   0  0  0  0  0  0  0  0  0  0  0  0
    3.1924   -2.1647   -2.8493 O   0  0  0  0  0  0  0  0  0  0  0  0
    4.3662    0.3492   -1.0127 C   0  0  0  0  0  0  0  0  0  0  0  0
    1.7391    0.9476   -2.7945 H   0  0  0  0  0  0  0  0  0  0  0  0
    3.9791    0.9350   -3.0544 H   0  0  0  0  0  0  0  0  0  0  0  0
    4.0630   -0.4190   -0.2920 H   0  0  0  0  0  0  0  0  0  0  0  0
    5.4538    0.2870   -1.1241 H   0  0  0  0  0  0  0  0  0  0  0  0
    4.1230    1.3255   -0.5799 H   0  0  0  0  0  0  0  0  0  0  0  0
    5.2239   -1.2653   -3.5197 N   0  0  0  0  0  0  0  0  0  0  0  0
    5.7494   -2.4624   -4.1335 C   0  0  0  0  0  0  0  0  0  0  0  0
    5.7914   -0.4238   -3.5597 H   0  0  0  0  0  0  0  0  0  0  0  0
    6.3341   -3.0282   -3.3933 H   0  0  0  0  0  0  0  0  0  0  0  0
    4.9174   -3.0839   -4.4961 H   0  0  0  0  0  0  0  0  0  0  0  0
    6.3969   -2.1868   -4.9790 H   0  0  0  0  0  0  0  0  0  0  0  0
  1  3  1  0  0  0  0
  1  7  1  0  0  0  0
  1  2  2  0  0  0  0
 31 32  1  0  0  0  0
 32 40  1  0  0  0  0
 32 33  2  0  0  0  0
  8  9  1  0  0  0  0
  9 17  1  0  0  0  0
  9 10  2  0  0  0  0
 18 19  1  0  0  0  0
 19 30  1  0  0  0  0
 19 20  2  0  0  0  0
 21 22  1  0  0  0  0
 22 23  2  0  0  0  0
 22 24  1  0  0  0  0
 31 34  1  0  0  0  0
  8 11  1  0  0  0  0
 40 41  1  0  0  0  0
 18 21  1  0  0  0  0
 30 31  1  0  0  0  0
  7  8  1  0  0  0  0
 17 18  1  0  0  0  0
  3  4  1  0  0  0  0
  3  5  1  0  0  0  0
  3  6  1  0  0  0  0
 34 37  1  0  0  0  0
 34 38  1  0  0  0  0
 34 39  1  0  0  0  0
 11 14  1  0  0  0  0
 11 15  1  0  0  0  0
 11 16  1  0  0  0  0
 41 43  1  0  0  0  0
 41 44  1  0  0  0  0
 41 45  1  0  0  0  0
 21 27  1  0  0  0  0
 21 28  1  0  0  0  0
 31 36  1  0  0  0  0
  8 13  1  0  0  0  0
 18 26  1  0  0  0  0
 40 42  1  0  0  0  0
  7 12  1  0  0  0  0
 30 35  1  0  0  0  0
 17 25  1  0  0  0  0
 24 29  1  0  0  0  0
M  END
$$$$

  -OEChem-05262214473D

 45 44  0     1  0  0  0  0  0999 V2000
   -2.2987    4.1032   -0.3022 C   0  0  0  0  0  0  0  0  0  0  0  0
   -1.8049    3.7117   -1.3532 O   0  0  0  0  0  0  0  0  0  0  0  0
   -3.0791    5.3755   -0.2846 C   0  0  0  0  0  0  0  0  0  0  0  0
   -2.4478    6.2532   -0.0717 H   0  0  0  0  0  0  0  0  0  0  0  0
   -3.5571    5.5891   -1.2541 H   0  0  0  0  0  0  0  0  0  0  0  0
   -3.8940    5.4184    0.4556 H   0  0  0  0  0  0  0  0  0  0  0  0
   -2.2137    3.4712    0.9275 N   0  0  0  0  0  0  0  0  0  0  0  0
   -1.5102    2.2327    1.1338 C   0  0  2  0  0  0  0  0  0  0  0  0
   -1.3539    1.5497   -0.2184 C   0  0  0  0  0  0  0  0  0  0  0  0
   -2.0852    1.7861   -1.1778 O   0  0  0  0  0  0  0  0  0  0  0  0
   -2.2477    1.3342    2.1145 C   0  0  0  0  0  0  0  0  0  0  0  0
   -2.6724    3.9052    1.7265 H   0  0  0  0  0  0  0  0  0  0  0  0
   -0.5220    2.4922    1.5290 H   0  0  0  0  0  0  0  0  0  0  0  0
   -3.2400    1.0636    1.7358 H   0  0  0  0  0  0  0  0  0  0  0  0
   -1.6970    0.4046    2.2923 H   0  0  0  0  0  0  0  0  0  0  0  0
   -2.3854    1.8384    3.0772 H   0  0  0  0  0  0  0  0  0  0  0  0
   -0.3283    0.6116   -0.2182 N   0  0  0  0  0  0  0  0  0  0  0  0
    0.0090   -0.1762   -1.3759 C   0  0  2  0  0  0  0  0  0  0  0  0
    1.4995   -0.4848   -1.3108 C   0  0  0  0  0  0  0  0  0  0  0  0
    1.9503   -1.5018   -0.7877 O   0  0  0  0  0  0  0  0  0  0  0  0
   -0.3400    0.5425   -2.6765 C   0  0  0  0  0  0  0  0  0  0  0  0
   -1.8340    0.6506   -2.8583 C   0  0  0  0  0  0  0  0  0  0  0  0
   -2.6381   -0.1552   -2.4082 O   0  0  0  0  0  0  0  0  0  0  0  0
   -2.1926    1.7326   -3.5929 O   0  0  0  0  0  0  0  0  0  0  0  0
    0.2381    0.4970    0.6194 H   0  0  0  0  0  0  0  0  0  0  0  0
   -0.5525   -1.1137   -1.2835 H   0  0  0  0  0  0  0  0  0  0  0  0
    0.0513    1.5677   -2.6796 H   0  0  0  0  0  0  0  0  0  0  0  0
    0.1010    0.0551   -3.5544 H   0  0  0  0  0  0  0  0  0  0  0  0
   -3.1573    1.8298   -3.7433 H   0  0  0  0  0  0  0  0  0  0  0  0
    2.2623    0.4844   -1.9470 N   0  0  0  0  0  0  0  0  0  0  0  0
    3.7021    0.4104   -2.0334 C   0  0  2  0  0  0  0  0  0  0  0  0
    4.0595   -0.7686   -2.9288 C   0  0  0  0  0  0  0  0  0  0  0  0
    3.2983   -1.7125   -3.1307 O   0  0  0  0  0  0  0  0  0  0  0  0
    4.3320    0.2587   -0.6576 C   0  0  0  0  0  0  0  0  0  0  0  0
    1.7889    1.2780   -2.3688 H   0  0  0  0  0  0  0  0  0  0  0  0
    4.0391    1.3413   -2.5025 H   0  0  0  0  0  0  0  0  0  0  0  0
    4.0061   -0.6684   -0.1720 H   0  0  0  0  0  0  0  0  0  0  0  0
    5.4247    0.2314   -0.7223 H   0  0  0  0  0  0  0  0  0  0  0  0
    4.0497    1.0923   -0.0056 H   0  0  0  0  0  0  0  0  0  0  0  0
    5.3450   -0.6638   -3.4414 N   0  0  0  0  0  0  0  0  0  0  0  0
    5.9224   -1.6639   -4.3088 C   0  0  0  0  0  0  0  0  0  0  0  0
    5.8987    0.1628   -3.2367 H   0  0  0  0  0  0  0  0  0  0  0  0
    6.4786   -2.3964   -3.7054 H   0  0  0  0  0  0  0  0  0  0  0  0
    5.1211   -2.1767   -4.8611 H   0  0  0  0  0  0  0  0  0  0  0  0
    6.6071   -1.1802   -5.0210 H   0  0  0  0  0  0  0  0  0  0  0  0
  1  3  1  0  0  0  0
  1  7  1  0  0  0  0
  1  2  2  0  0  0  0
 31 32  1  0  0  0  0
 32 40  1  0  0  0  0
 32 33  2  0  0  0  0
  8  9  1  0  0  0  0
  9 17  1  0  0  0  0
  9 10  2  0  0  0  0
 18 19  1  0  0  0  0
 19 30  1  0  0  0  0
 19 20  2  0  0  0  0
 21 22  1  0  0  0  0
 22 23  2  0  0  0  0
 22 24  1  0  0  0  0
 31 34  1  0  0  0  0
  8 11  1  0  0  0  0
 40 41  1  0  0  0  0
 18 21  1  0  0  0  0
 30 31  1  0  0  0  0
  7  8  1  0  0  0  0
 17 18  1  0  0  0  0
  3  4  1  0  0  0  0
  3  5  1  0  0  0  0
  3  6  1  0  0  0  0
 34 37  1  0  0  0  0
 34 38  1  0  0  0  0
 34 39  1  0  0  0  0
 11 14  1  0  0  0  0
 11 15  1  0  0  0  0
 11 16  1  0  0  0  0
 41 43  1  0  0  0  0
 41 44  1  0  0  0  0
 41 45  1  0  0  0  0
 21 27  1  0  0  0  0
 21 28  1  0  0  0  0
 31 36  1  0  0  0  0
  8 13  1  0  0  0  0
 18 26  1  0  0  0  0
 40 42  1  0  0  0  0
  7 12  1  0  0  0  0
 30 35  1  0  0  0  0
 17 25  1  0  0  0  0
 24 29  1  0  0  0  0
M  END
$$$$

  -OEChem-05262214473D

 45 44  0     1  0  0  0  0  0999 V2000
   -2.2987    4.1032   -0.3022 C   0  0  0  0  0  0  0  0  0  0  0  0
   -1.8049    3.7117   -1.3532 O   0  0  0  0  0  0  0  0  0  0  0  0
   -3.0791    5.3755   -0.2846 C   0  0  0  0  0  0  0  0  0  0  0  0
   -2.4478    6.2532   -0.0717 H   0  0  0  0  0  0  0  0  0  0  0  0
   -3.5571    5.5891   -1.2541 H   0  0  0  0  0  0  0  0  0  0  0  0
   -3.8940    5.4184    0.4556 H   0  0  0  0  0  0  0  0  0  0  0  0
   -2.2137    3.4712    0.9275 N   0  0  0  0  0  0  0  0  0  0  0  0
   -1.5102    2.2327    1.1338 C   0  0  2  0  0  0  0  0  0  0  0  0
   -1.3539    1.5497   -0.2184 C   0  0  0  0  0  0  0  0  0  0  0  0
   -2.0852    1.7861   -1.1778 O   0  0  0  0  0  0  0  0  0  0  0  0
   -2.2477    1.3342    2.1145 C   0  0  0  0  0  0  0  0  0  0  0  0
   -2.6724    3.9052    1.7265 H   0  0  0  0  0  0  0  0  0  0  0  0
   -0.5220    2.4922    1.5290 H   0  0  0  0  0  0  0  0  0  0  0  0
   -3.2400    1.0636    1.7358 H   0  0  0  0  0  0  0  0  0  0  0  0
   -1.6970    0.4046    2.2923 H   0  0  0  0  0  0  0  0  0  0  0  0
   -2.3854    1.8384    3.0772 H   0  0  0  0  0  0  0  0  0  0  0  0
   -0.3283    0.6116   -0.2182 N   0  0  0  0  0  0  0  0  0  0  0  0
    0.0090   -0.1762   -1.3759 C   0  0  2  0  0  0  0  0  0  0  0  0
    1.4995   -0.4848   -1.3108 C   0  0  0  0  0  0  0  0  0  0  0  0
    1.9411   -1.5993   -1.0385 O   0  0  0  0  0  0  0  0  0  0  0  0
   -0.3400    0.5425   -2.6765 C   0  0  0  0  0  0  0  0  0  0  0  0
   -1.8340    0.6506   -2.8583 C   0  0  0  0  0  0  0  0  0  0  0  0
   -2.6381   -0.1552   -2.4082 O   0  0  0  0  0  0  0  0  0  0  0  0
   -2.1926    1.7326   -3.5929 O   0  0  0  0  0  0  0  0  0  0  0  0
    0.2381    0.4970    0.6194 H   0  0  0  0  0  0  0  0  0  0  0  0
   -0.5525   -1.1137   -1.2835 H   0  0  0  0  0  0  0  0  0  0  0  0
    0.0513    1.5677   -2.6796 H   0  0  0  0  0  0  0  0  0  0  0  0
    0.1010    0.0551   -3.5544 H   0  0  0  0  0  0  0  0  0  0  0  0
   -3.1573    1.8298   -3.7433 H   0  0  0  0  0  0  0  0  0  0  0  0
    2.2764    0.6173   -1.6391 N   0  0  0  0  0  0  0  0  0  0  0  0
    3.7198    0.5738   -1.6638 C   0  0  2  0  0  0  0  0  0  0  0  0
    4.1434   -0.3381   -2.8077 C   0  0  0  0  0  0  0  0  0  0  0  0
    3.4104   -1.2032   -3.2824 O   0  0  0  0  0  0  0  0  0  0  0  0
    4.2813    0.0809   -0.3392 C   0  0  0  0  0  0  0  0  0  0  0  0
    1.8111    1.4898   -1.8714 H   0  0  0  0  0  0  0  0  0  0  0  0
    4.0636    1.5946   -1.8634 H   0  0  0  0  0  0  0  0  0  0  0  0
    3.9476   -0.9404   -0.1222 H   0  0  0  0  0  0  0  0  0  0  0  0
    5.3762    0.0757   -0.3498 H   0  0  0  0  0  0  0  0  0  0  0  0
    3.9513    0.7209    0.4862 H   0  0  0  0  0  0  0  0  0  0  0  0
    5.4512   -0.1013   -3.2071 N   0  0  0  0  0  0  0  0  0  0  0  0
    6.0898   -0.8463   -4.2669 C   0  0  0  0  0  0  0  0  0  0  0  0
    5.9790    0.6488   -2.7705 H   0  0  0  0  0  0  0  0  0  0  0  0
    6.6274   -1.7055   -3.8394 H   0  0  0  0  0  0  0  0  0  0  0  0
    5.3270   -1.2059   -4.9733 H   0  0  0  0  0  0  0  0  0  0  0  0
    6.8012   -0.1950   -4.7957 H   0  0  0  0  0  0  0  0  0  0  0  0
  1  3  1  0  0  0  0
  1  7  1  0  0  0  0
  1  2  2  0  0  0  0
 31 32  1  0  0  0  0
 32 40  1  0  0  0  0
 32 33  2  0  0  0  0
  8  9  1  0  0  0  0
  9 17  1  0  0  0  0
  9 10  2  0  0  0  0
 18 19  1  0  0  0  0
 19 30  1  0  0  0  0
 19 20  2  0  0  0  0
 21 22  1  0  0  0  0
 22 23  2  0  0  0  0
 22 24  1  0  0  0  0
 31 34  1  0  0  0  0
  8 11  1  0  0  0  0
 40 41  1  0  0  0  0
 18 21  1  0  0  0  0
 30 31  1  0  0  0  0
  7  8  1  0  0  0  0
 17 18  1  0  0  0  0
  3  4  1  0  0  0  0
  3  5  1  0  0  0  0
  3  6  1  0  0  0  0
 34 37  1  0  0  0  0
 34 38  1  0  0  0  0
 34 39  1  0  0  0  0
 11 14  1  0  0  0  0
 11 15  1  0  0  0  0
 11 16  1  0  0  0  0
 41 43  1  0  0  0  0
 41 44  1  0  0  0  0
 41 45  1  0  0  0  0
 21 27  1  0  0  0  0
 21 28  1  0  0  0  0
 31 36  1  0  0  0  0
  8 13  1  0  0  0  0
 18 26  1  0  0  0  0
 40 42  1  0  0  0  0
  7 12  1  0  0  0  0
 30 35  1  0  0  0  0
 17 25  1  0  0  0  0
 24 29  1  0  0  0  0
M  END
$$$$

  -OEChem-05262214473D

 45 44  0     1  0  0  0  0  0999 V2000
   -2.2987    4.1032   -0.3022 C   0  0  0  0  0  0  0  0  0  0  0  0
   -1.8049    3.7117   -1.3532 O   0  0  0  0  0  0  0  0  0  0  0  0
   -3.0791    5.3755   -0.2846 C   0  0  0  0  0  0  0  0  0  0  0  0
   -2.4478    6.2532   -0.0717 H   0  0  0  0  0  0  0  0  0  0  0  0
   -3.5571    5.5891   -1.2541 H   0  0  0  0  0  0  0  0  0  0  0  0
   -3.8940    5.4184    0.4556 H   0  0  0  0  0  0  0  0  0  0  0  0
   -2.2137    3.4712    0.9275 N   0  0  0  0  0  0  0  0  0  0  0  0
   -1.5102    2.2327    1.1338 C   0  0  2  0  0  0  0  0  0  0  0  0
   -1.3539    1.5497   -0.2184 C   0  0  0  0  0  0  0  0  0  0  0  0
   -2.0852    1.7861   -1.1778 O   0  0  0  0  0  0  0  0  0  0  0  0
   -2.2477    1.3342    2.1145 C   0  0  0  0  0  0  0  0  0  0  0  0
   -2.6724    3.9052    1.7265 H   0  0  0  0  0  0  0  0  0  0  0  0
   -0.5220    2.4922    1.5290 H   0  0  0  0  0  0  0  0  0  0  0  0
   -3.2400    1.0636    1.7358 H   0  0  0  0  0  0  0  0  0  0  0  0
   -1.6970    0.4046    2.2923 H   0  0  0  0  0  0  0  0  0  0  0  0
   -2.3854    1.8384    3.0772 H   0  0  0  0  0  0  0  0  0  0  0  0
   -0.3283    0.6116   -0.2182 N   0  0  0  0  0  0  0  0  0  0  0  0
    0.0090   -0.1762   -1.3759 C   0  0  2  0  0  0  0  0  0  0  0  0
    1.4995   -0.4848   -1.3108 C   0  0  0  0  0  0  0  0  0  0  0  0
    1.9464   -1.6300   -1.3058 O   0  0  0  0  0  0  0  0  0  0  0  0
   -0.3400    0.5425   -2.6765 C   0  0  0  0  0  0  0  0  0  0  0  0
   -1.8340    0.6506   -2.8583 C   0  0  0  0  0  0  0  0  0  0  0  0
   -2.6381   -0.1552   -2.4082 O   0  0  0  0  0  0  0  0  0  0  0  0
   -2.1926    1.7326   -3.5929 O   0  0  0  0  0  0  0  0  0  0  0  0
    0.2381    0.4970    0.6194 H   0  0  0  0  0  0  0  0  0  0  0  0
   -0.5525   -1.1137   -1.2835 H   0  0  0  0  0  0  0  0  0  0  0  0
    0.0513    1.5677   -2.6796 H   0  0  0  0  0  0  0  0  0  0  0  0
    0.1010    0.0551   -3.5544 H   0  0  0  0  0  0  0  0  0  0  0  0
   -3.1573    1.8298   -3.7433 H   0  0  0  0  0  0  0  0  0  0  0  0
    2.2724    0.6679   -1.3074 N   0  0  0  0  0  0  0  0  0  0  0  0
    3.7157    0.6383   -1.2645 C   0  0  2  0  0  0  0  0  0  0  0  0
    4.2132    0.0479   -2.5773 C   0  0  0  0  0  0  0  0  0  0  0  0
    3.5209   -0.6717   -3.2942 O   0  0  0  0  0  0  0  0  0  0  0  0
    4.2176   -0.1719   -0.0794 C   0  0  0  0  0  0  0  0  0  0  0  0
    1.8041    1.5688   -1.3362 H   0  0  0  0  0  0  0  0  0  0  0  0
    4.0510    1.6778   -1.1806 H   0  0  0  0  0  0  0  0  0  0  0  0
    3.8916   -1.2163   -0.1460 H   0  0  0  0  0  0  0  0  0  0  0  0
    5.3116   -0.1696   -0.0320 H   0  0  0  0  0  0  0  0  0  0  0  0
    3.8346    0.2364    0.8621 H   0  0  0  0  0  0  0  0  0  0  0  0
    5.5353    0.3839   -2.8328 N   0  0  0  0  0  0  0  0  0  0  0  0
    6.2403   -0.0654   -4.0106 C   0  0  0  0  0  0  0  0  0  0  0  0
    6.0267    1.0010   -2.1930 H   0  0  0  0  0  0  0  0  0  0  0  0
    6.7706   -1.0025   -3.7860 H   0  0  0  0  0  0  0  0  0  0  0  0
    5.5211   -0.2374   -4.8250 H   0  0  0  0  0  0  0  0  0  0  0  0
    6.9661    0.7018   -4.3183 H   0  0  0  0  0  0  0  0  0  0  0  0
  1  3  1  0  0  0  0
  1  7  1  0  0  0  0
  1  2  2  0  0  0  0
 31 32  1  0  0  0  0
 32 40  1  0  0  0  0
 32 33  2  0  0  0  0
  8  9  1  0  0  0  0
  9 17  1  0  0  0  0
  9 10  2  0  0  0  0
 18 19  1  0  0  0  0
 19 30  1  0  0  0  0
 19 20  2  0  0  0  0
 21 22  1  0  0  0  0
 22 23  2  0  0  0  0
 22 24  1  0  0  0  0
 31 34  1  0  0  0  0
  8 11  1  0  0  0  0
 40 41  1  0  0  0  0
 18 21  1  0  0  0  0
 30 31  1  0  0  0  0
  7  8  1  0  0  0  0
 17 18  1  0  0  0  0
  3  4  1  0  0  0  0
  3  5  1  0  0  0  0
  3  6  1  0  0  0  0
 34 37  1  0  0  0  0
 34 38  1  0  0  0  0
 34 39  1  0  0  0  0
 11 14  1  0  0  0  0
 11 15  1  0  0  0  0
 11 16  1  0  0  0  0
 41 43  1  0  0  0  0
 41 44  1  0  0  0  0
 41 45  1  0  0  0  0
 21 27  1  0  0  0  0
 21 28  1  0  0  0  0
 31 36  1  0  0  0  0
  8 13  1  0  0  0  0
 18 26  1  0  0  0  0
 40 42  1  0  0  0  0
  7 12  1  0  0  0  0
 30 35  1  0  0  0  0
 17 25  1  0  0  0  0
 24 29  1  0  0  0  0
M  END
$$$$

  -OEChem-05262214473D

 45 44  0     1  0  0  0  0  0999 V2000
   -2.2987    4.1032   -0.3022 C   0  0  0  0  0  0  0  0  0  0  0  0
   -1.8049    3.7117   -1.3532 O   0  0  0  0  0  0  0  0  0  0  0  0
   -3.0791    5.3755   -0.2846 C   0  0  0  0  0  0  0  0  0  0  0  0
   -2.4478    6.2532   -0.0717 H   0  0  0  0  0  0  0  0  0  0  0  0
   -3.5571    5.5891   -1.2541 H   0  0  0  0  0  0  0  0  0  0  0  0
   -3.8940    5.4184    0.4556 H   0  0  0  0  0  0  0  0  0  0  0  0
   -2.2137    3.4712    0.9275 N   0  0  0  0  0  0  0  0  0  0  0  0
   -1.5102    2.2327    1.1338 C   0  0  2  0  0  0  0  0  0  0  0  0
   -1.3539    1.5497   -0.2184 C   0  0  0  0  0  0  0  0  0  0  0  0
   -2.0852    1.7861   -1.1778 O   0  0  0  0  0  0  0  0  0  0  0  0
   -2.2477    1.3342    2.1145 C   0  0  0  0  0  0  0  0  0  0  0  0
   -2.6724    3.9052    1.7265 H   0  0  0  0  0  0  0  0  0  0  0  0
   -0.5220    2.4922    1.5290 H   0  0  0  0  0  0  0  0  0  0  0  0
   -3.2400    1.0636    1.7358 H   0  0  0  0  0  0  0  0  0  0  0  0
   -1.6970    0.4046    2.2923 H   0  0  0  0  0  0  0  0  0  0  0  0
   -2.3854    1.8384    3.0772 H   0  0  0  0  0  0  0  0  0  0  0  0
   -0.3283    0.6116   -0.2182 N   0  0  0  0  0  0  0  0  0  0  0  0
    0.0090   -0.1762   -1.3759 C   0  0  2  0  0  0  0  0  0  0  0  0
    1.4995   -0.4848   -1.3108 C   0  0  0  0  0  0  0  0  0  0  0  0
    1.9659   -1.5919   -1.5716 O   0  0  0  0  0  0  0  0  0  0  0  0
   -0.3400    0.5425   -2.6765 C   0  0  0  0  0  0  0  0  0  0  0  0
   -1.8340    0.6506   -2.8583 C   0  0  0  0  0  0  0  0  0  0  0  0
   -2.6381   -0.1552   -2.4082 O   0  0  0  0  0  0  0  0  0  0  0  0
   -2.1926    1.7326   -3.5929 O   0  0  0  0  0  0  0  0  0  0  0  0
    0.2381    0.4970    0.6194 H   0  0  0  0  0  0  0  0  0  0  0  0
   -0.5525   -1.1137   -1.2835 H   0  0  0  0  0  0  0  0  0  0  0  0
    0.0513    1.5677   -2.6796 H   0  0  0  0  0  0  0  0  0  0  0  0
    0.1010    0.0551   -3.5544 H   0  0  0  0  0  0  0  0  0  0  0  0
   -3.1573    1.8298   -3.7433 H   0  0  0  0  0  0  0  0  0  0  0  0
    2.2506    0.6327   -0.9743 N   0  0  0  0  0  0  0  0  0  0  0  0
    3.6902    0.5994   -0.8627 C   0  0  2  0  0  0  0  0  0  0  0  0
    4.2644    0.3632   -2.2534 C   0  0  0  0  0  0  0  0  0  0  0  0
    3.6225   -0.1541   -3.1652 O   0  0  0  0  0  0  0  0  0  0  0  0
    4.1453   -0.4826    0.1042 C   0  0  0  0  0  0  0  0  0  0  0  0
    1.7684    1.5094   -0.7995 H   0  0  0  0  0  0  0  0  0  0  0  0
    4.0022    1.5851   -0.5006 H   0  0  0  0  0  0  0  0  0  0  0  0
    3.8417   -1.4774   -0.2418 H   0  0  0  0  0  0  0  0  0  0  0  0
    5.2352   -0.4877    0.2095 H   0  0  0  0  0  0  0  0  0  0  0  0
    3.7075   -0.3279    1.0963 H   0  0  0  0  0  0  0  0  0  0  0  0
    5.5916    0.7587   -2.3440 N   0  0  0  0  0  0  0  0  0  0  0  0
    6.3636    0.6257   -3.5574 C   0  0  0  0  0  0  0  0  0  0  0  0
    6.0386    1.1956   -1.5434 H   0  0  0  0  0  0  0  0  0  0  0  0
    6.8984   -0.3355   -3.5489 H   0  0  0  0  0  0  0  0  0  0  0  0
    5.6900    0.6627   -4.4263 H   0  0  0  0  0  0  0  0  0  0  0  0
    7.0903    1.4490   -3.6216 H   0  0  0  0  0  0  0  0  0  0  0  0
  1  3  1  0  0  0  0
  1  7  1  0  0  0  0
  1  2  2  0  0  0  0
 31 32  1  0  0  0  0
 32 40  1  0  0  0  0
 32 33  2  0  0  0  0
  8  9  1  0  0  0  0
  9 17  1  0  0  0  0
  9 10  2  0  0  0  0
 18 19  1  0  0  0  0
 19 30  1  0  0  0  0
 19 20  2  0  0  0  0
 21 22  1  0  0  0  0
 22 23  2  0  0  0  0
 22 24  1  0  0  0  0
 31 34  1  0  0  0  0
  8 11  1  0  0  0  0
 40 41  1  0  0  0  0
 18 21  1  0  0  0  0
 30 31  1  0  0  0  0
  7  8  1  0  0  0  0
 17 18  1  0  0  0  0
  3  4  1  0  0  0  0
  3  5  1  0  0  0  0
  3  6  1  0  0  0  0
 34 37  1  0  0  0  0
 34 38  1  0  0  0  0
 34 39  1  0  0  0  0
 11 14  1  0  0  0  0
 11 15  1  0  0  0  0
 11 16  1  0  0  0  0
 41 43  1  0  0  0  0
 41 44  1  0  0  0  0
 41 45  1  0  0  0  0
 21 27  1  0  0  0  0
 21 28  1  0  0  0  0
 31 36  1  0  0  0  0
  8 13  1  0  0  0  0
 18 26  1  0  0  0  0
 40 42  1  0  0  0  0
  7 12  1  0  0  0  0
 30 35  1  0  0  0  0
 17 25  1  0  0  0  0
 24 29  1  0  0  0  0
M  END
$$$$

  -OEChem-05262214473D

 45 44  0     1  0  0  0  0  0999 V2000
   -2.2987    4.1032   -0.3022 C   0  0  0  0  0  0  0  0  0  0  0  0
   -1.8049    3.7117   -1.3532 O   0  0  0  0  0  0  0  0  0  0  0  0
   -3.0791    5.3755   -0.2846 C   0  0  0  0  0  0  0  0  0  0  0  0
   -2.4478    6.2532   -0.0717 H   0  0  0  0  0  0  0  0  0  0  0  0
   -3.5571    5.5891   -1.2541 H   0  0  0  0  0  0  0  0  0  0  0  0
   -3.8940    5.4184    0.4556 H   0  0  0  0  0  0  0  0  0  0  0  0
   -2.2137    3.4712    0.9275 N   0  0  0  0  0  0  0  0  0  0  0  0
   -1.5102    2.2327    1.1338 C   0  0  2  0  0  0  0  0  0  0  0  0
   -1.3539    1.5497   -0.2184 C   0  0  0  0  0  0  0  0  0  0  0  0
   -2.0852    1.7861   -1.1778 O   0  0  0  0  0  0  0  0  0  0  0  0
   -2.2477    1.3342    2.1145 C   0  0  0  0  0  0  0  0  0  0  0  0
   -2.6724    3.9052    1.7265 H   0  0  0  0  0  0  0  0  0  0  0  0
   -0.5220    2.4922    1.5290 H   0  0  0  0  0  0  0  0  0  0  0  0
   -3.2400    1.0636    1.7358 H   0  0  0  0  0  0  0  0  0  0  0  0
   -1.6970    0.4046    2.2923 H   0  0  0  0  0  0  0  0  0  0  0  0
   -2.3854    1.8384    3.0772 H   0  0  0  0  0  0  0  0  0  0  0  0
   -0.3283    0.6116   -0.2182 N   0  0  0  0  0  0  0  0  0  0  0  0
    0.0090   -0.1762   -1.3759 C   0  0  2  0  0  0  0  0  0  0  0  0
    1.4995   -0.4848   -1.3108 C   0  0  0  0  0  0  0  0  0  0  0  0
    1.9982   -1.4876   -1.8176 O   0  0  0  0  0  0  0  0  0  0  0  0
   -0.3400    0.5425   -2.6765 C   0  0  0  0  0  0  0  0  0  0  0  0
   -1.8340    0.6506   -2.8583 C   0  0  0  0  0  0  0  0  0  0  0  0
   -2.6381   -0.1552   -2.4082 O   0  0  0  0  0  0  0  0  0  0  0  0
   -2.1926    1.7326   -3.5929 O   0  0  0  0  0  0  0  0  0  0  0  0
    0.2381    0.4970    0.6194 H   0  0  0  0  0  0  0  0  0  0  0  0
   -0.5525   -1.1137   -1.2835 H   0  0  0  0  0  0  0  0  0  0  0  0
    0.0513    1.5677   -2.6796 H   0  0  0  0  0  0  0  0  0  0  0  0
    0.1010    0.0551   -3.5544 H   0  0  0  0  0  0  0  0  0  0  0  0
   -3.1573    1.8298   -3.7433 H   0  0  0  0  0  0  0  0  0  0  0  0
    2.2124    0.5141   -0.6627 N   0  0  0  0  0  0  0  0  0  0  0  0
    3.6448    0.4598   -0.4858 C   0  0  2  0  0  0  0  0  0  0  0  0
    4.2933    0.5863   -1.8580 C   0  0  0  0  0  0  0  0  0  0  0  0
    3.7080    0.3143   -2.9041 O   0  0  0  0  0  0  0  0  0  0  0  0
    4.0692   -0.8300    0.1991 C   0  0  0  0  0  0  0  0  0  0  0  0
    1.7064    1.3158   -0.2980 H   0  0  0  0  0  0  0  0  0  0  0  0
    3.9204    1.3228    0.1301 H   0  0  0  0  0  0  0  0  0  0  0  0
    3.8014   -1.7059   -0.4031 H   0  0  0  0  0  0  0  0  0  0  0  0
    5.1523   -0.8570    0.3582 H   0  0  0  0  0  0  0  0  0  0  0  0
    3.5788   -0.9338    1.1730 H   0  0  0  0  0  0  0  0  0  0  0  0
    5.6162    0.9976   -1.7740 N   0  0  0  0  0  0  0  0  0  0  0  0
    6.4513    1.1799   -2.9382 C   0  0  0  0  0  0  0  0  0  0  0  0
    6.0140    1.2191   -0.8661 H   0  0  0  0  0  0  0  0  0  0  0  0
    7.0020    0.2502   -3.1443 H   0  0  0  0  0  0  0  0  0  0  0  0
    5.8224    1.4330   -3.8045 H   0  0  0  0  0  0  0  0  0  0  0  0
    7.1656    1.9956   -2.7529 H   0  0  0  0  0  0  0  0  0  0  0  0
  1  3  1  0  0  0  0
  1  7  1  0  0  0  0
  1  2  2  0  0  0  0
 31 32  1  0  0  0  0
 32 40  1  0  0  0  0
 32 33  2  0  0  0  0
  8  9  1  0  0  0  0
  9 17  1  0  0  0  0
  9 10  2  0  0  0  0
 18 19  1  0  0  0  0
 19 30  1  0  0  0  0
 19 20  2  0  0  0  0
 21 22  1  0  0  0  0
 22 23  2  0  0  0  0
 22 24  1  0  0  0  0
 31 34  1  0  0  0  0
  8 11  1  0  0  0  0
 40 41  1  0  0  0  0
 18 21  1  0  0  0  0
 30 31  1  0  0  0  0
  7  8  1  0  0  0  0
 17 18  1  0  0  0  0
  3  4  1  0  0  0  0
  3  5  1  0  0  0  0
  3  6  1  0  0  0  0
 34 37  1  0  0  0  0
 34 38  1  0  0  0  0
 34 39  1  0  0  0  0
 11 14  1  0  0  0  0
 11 15  1  0  0  0  0
 11 16  1  0  0  0  0
 41 43  1  0  0  0  0
 41 44  1  0  0  0  0
 41 45  1  0  0  0  0
 21 27  1  0  0  0  0
 21 28  1  0  0  0  0
 31 36  1  0  0  0  0
  8 13  1  0  0  0  0
 18 26  1  0  0  0  0
 40 42  1  0  0  0  0
  7 12  1  0  0  0  0
 30 35  1  0  0  0  0
 17 25  1  0  0  0  0
 24 29  1  0  0  0  0
M  END
$$$$

  -OEChem-05262214473D

 45 44  0     1  0  0  0  0  0999 V2000
   -2.2987    4.1032   -0.3022 C   0  0  0  0  0  0  0  0  0  0  0  0
   -1.8049    3.7117   -1.3532 O   0  0  0  0  0  0  0  0  0  0  0  0
   -3.0791    5.3755   -0.2846 C   0  0  0  0  0  0  0  0  0  0  0  0
   -2.4478    6.2532   -0.0717 H   0  0  0  0  0  0  0  0  0  0  0  0
   -3.5571    5.5891   -1.2541 H   0  0  0  0  0  0  0  0  0  0  0  0
   -3.8940    5.4184    0.4556 H   0  0  0  0  0  0  0  0  0  0  0  0
   -2.2137    3.4712    0.9275 N   0  0  0  0  0  0  0  0  0  0  0  0
   -1.5102    2.2327    1.1338 C   0  0  2  0  0  0  0  0  0  0  0  0
   -1.3539    1.5497   -0.2184 C   0  0  0  0  0  0  0  0  0  0  0  0
   -2.0852    1.7861   -1.1778 O   0  0  0  0  0  0  0  0  0  0  0  0
   -2.2477    1.3342    2.1145 C   0  0  0  0  0  0  0  0  0  0  0  0
   -2.6724    3.9052    1.7265 H   0  0  0  0  0  0  0  0  0  0  0  0
   -0.5220    2.4922    1.5290 H   0  0  0  0  0  0  0  0  0  0  0  0
   -3.2400    1.0636    1.7358 H   0  0  0  0  0  0  0  0  0  0  0  0
   -1.6970    0.4046    2.2923 H   0  0  0  0  0  0  0  0  0  0  0  0
   -2.3854    1.8384    3.0772 H   0  0  0  0  0  0  0  0  0  0  0  0
   -0.3283    0.6116   -0.2182 N   0  0  0  0  0  0  0  0  0  0  0  0
    0.0090   -0.1762   -1.3759 C   0  0  2  0  0  0  0  0  0  0  0  0
    1.4995   -0.4848   -1.3108 C   0  0  0  0  0  0  0  0  0  0  0  0
    2.0412   -1.3243   -2.0271 O   0  0  0  0  0  0  0  0  0  0  0  0
   -0.3400    0.5425   -2.6765 C   0  0  0  0  0  0  0  0  0  0  0  0
   -1.8340    0.6506   -2.8583 C   0  0  0  0  0  0  0  0  0  0  0  0
   -2.6381   -0.1552   -2.4082 O   0  0  0  0  0  0  0  0  0  0  0  0
   -2.1926    1.7326   -3.5929 O   0  0  0  0  0  0  0  0  0  0  0  0
    0.2381    0.4970    0.6194 H   0  0  0  0  0  0  0  0  0  0  0  0
   -0.5525   -1.1137   -1.2835 H   0  0  0  0  0  0  0  0  0  0  0  0
    0.0513    1.5677   -2.6796 H   0  0  0  0  0  0  0  0  0  0  0  0
    0.1010    0.0551   -3.5544 H   0  0  0  0  0  0  0  0  0  0  0  0
   -3.1573    1.8298   -3.7433 H   0  0  0  0  0  0  0  0  0  0  0  0
    2.1605    0.3202   -0.3937 N   0  0  0  0  0  0  0  0  0  0  0  0
    3.5828    0.2290   -0.1594 C   0  0  2  0  0  0  0  0  0  0  0  0
    4.2981    0.7021   -1.4180 C   0  0  0  0  0  0  0  0  0  0  0  0
    3.7719    0.7016   -2.5289 O   0  0  0  0  0  0  0  0  0  0  0  0
    3.9946   -1.1905    0.1988 C   0  0  0  0  0  0  0  0  0  0  0  0
    1.6224    1.0011    0.1341 H   0  0  0  0  0  0  0  0  0  0  0  0
    3.8112    0.9089    0.6686 H   0  0  0  0  0  0  0  0  0  0  0  0
    3.7735   -1.8862   -0.6189 H   0  0  0  0  0  0  0  0  0  0  0  0
    5.0684   -1.2522    0.4040 H   0  0  0  0  0  0  0  0  0  0  0  0
    3.4570   -1.5399    1.0869 H   0  0  0  0  0  0  0  0  0  0  0  0
    5.6074    1.0843   -1.1617 N   0  0  0  0  0  0  0  0  0  0  0  0
    6.4974    1.5593   -2.1952 C   0  0  0  0  0  0  0  0  0  0  0  0
    5.9543    1.0701   -0.2071 H   0  0  0  0  0  0  0  0  0  0  0  0
    7.0744    0.7147   -2.5998 H   0  0  0  0  0  0  0  0  0  0  0  0
    5.9091    2.0211   -3.0018 H   0  0  0  0  0  0  0  0  0  0  0  0
    7.1867    2.3045   -1.7714 H   0  0  0  0  0  0  0  0  0  0  0  0
  1  3  1  0  0  0  0
  1  7  1  0  0  0  0
  1  2  2  0  0  0  0
 31 32  1  0  0  0  0
 32 40  1  0  0  0  0
 32 33  2  0  0  0  0
  8  9  1  0  0  0  0
  9 17  1  0  0  0  0
  9 10  2  0  0  0  0
 18 19  1  0  0  0  0
 19 30  1  0  0  0  0
 19 20  2  0  0  0  0
 21 22  1  0  0  0  0
 22 23  2  0  0  0  0
 22 24  1  0  0  0  0
 31 34  1  0  0  0  0
  8 11  1  0  0  0  0
 40 41  1  0  0  0  0
 18 21  1  0  0  0  0
 30 31  1  0  0  0  0
  7  8  1  0  0  0  0
 17 18  1  0  0  0  0
  3  4  1  0  0  0  0
  3  5  1  0  0  0  0
  3  6  1  0  0  0  0
 34 37  1  0  0  0  0
 34 38  1  0  0  0  0
 34 39  1  0  0  0  0
 11 14  1  0  0  0  0
 11 15  1  0  0  0  0
 11 16  1  0  0  0  0
 41 43  1  0  0  0  0
 41 44  1  0  0  0  0
 41 45  1  0  0  0  0
 21 27  1  0  0  0  0
 21 28  1  0  0  0  0
 31 36  1  0  0  0  0
  8 13  1  0  0  0  0
 18 26  1  0  0  0  0
 40 42  1  0  0  0  0
  7 12  1  0  0  0  0
 30 35  1  0  0  0  0
 17 25  1  0  0  0  0
 24 29  1  0  0  0  0
M  END
$$$$

  -OEChem-05262214473D

 45 44  0     1  0  0  0  0  0999 V2000
   -2.2987    4.1032   -0.3022 C   0  0  0  0  0  0  0  0  0  0  0  0
   -1.8049    3.7117   -1.3532 O   0  0  0  0  0  0  0  0  0  0  0  0
   -3.0791    5.3755   -0.2846 C   0  0  0  0  0  0  0  0  0  0  0  0
   -2.4478    6.2532   -0.0717 H   0  0  0  0  0  0  0  0  0  0  0  0
   -3.5571    5.5891   -1.2541 H   0  0  0  0  0  0  0  0  0  0  0  0
   -3.8940    5.4184    0.4556 H   0  0  0  0  0  0  0  0  0  0  0  0
   -2.2137    3.4712    0.9275 N   0  0  0  0  0  0  0  0  0  0  0  0
   -1.5102    2.2327    1.1338 C   0  0  2  0  0  0  0  0  0  0  0  0
   -1.3539    1.5497   -0.2184 C   0  0  0  0  0  0  0  0  0  0  0  0
   -2.0852    1.7861   -1.1778 O   0  0  0  0  0  0  0  0  0  0  0  0
   -2.2477    1.3342    2.1145 C   0  0  0  0  0  0  0  0  0  0  0  0
   -2.6724    3.9052    1.7265 H   0  0  0  0  0  0  0  0  0  0  0  0
   -0.5220    2.4922    1.5290 H   0  0  0  0  0  0  0  0  0  0  0  0
   -3.2400    1.0636    1.7358 H   0  0  0  0  0  0  0  0  0  0  0  0
   -1.6970    0.4046    2.2923 H   0  0  0  0  0  0  0  0  0  0  0  0
   -2.3854    1.8384    3.0772 H   0  0  0  0  0  0  0  0  0  0  0  0
   -0.3283    0.6116   -0.2182 N   0  0  0  0  0  0  0  0  0  0  0  0
    0.0090   -0.1762   -1.3759 C   0  0  2  0  0  0  0  0  0  0  0  0
    1.4995   -0.4848   -1.3108 C   0  0  0  0  0  0  0  0  0  0  0  0
    2.0918   -1.1129   -2.1859 O   0  0  0  0  0  0  0  0  0  0  0  0
   -0.3400    0.5425   -2.6765 C   0  0  0  0  0  0  0  0  0  0  0  0
   -1.8340    0.6506   -2.8583 C   0  0  0  0  0  0  0  0  0  0  0  0
   -2.6381   -0.1552   -2.4082 O   0  0  0  0  0  0  0  0  0  0  0  0
   -2.1926    1.7326   -3.5929 O   0  0  0  0  0  0  0  0  0  0  0  0
    0.2381    0.4970    0.6194 H   0  0  0  0  0  0  0  0  0  0  0  0
   -0.5525   -1.1137   -1.2835 H   0  0  0  0  0  0  0  0  0  0  0  0
    0.0513    1.5677   -2.6796 H   0  0  0  0  0  0  0  0  0  0  0  0
    0.1010    0.0551   -3.5544 H   0  0  0  0  0  0  0  0  0  0  0  0
   -3.1573    1.8298   -3.7433 H   0  0  0  0  0  0  0  0  0  0  0  0
    2.0985    0.0642   -0.1857 N   0  0  0  0  0  0  0  0  0  0  0  0
    3.5083   -0.0773    0.0941 C   0  0  2  0  0  0  0  0  0  0  0  0
    4.2783    0.7025   -0.9635 C   0  0  0  0  0  0  0  0  0  0  0  0
    3.8095    0.9814   -2.0651 O   0  0  0  0  0  0  0  0  0  0  0  0
    3.9265   -1.5394    0.1034 C   0  0  0  0  0  0  0  0  0  0  0  0
    1.5221    0.5868    0.4673 H   0  0  0  0  0  0  0  0  0  0  0  0
    3.6820    0.3715    1.0782 H   0  0  0  0  0  0  0  0  0  0  0  0
    3.7599   -2.0060   -0.8744 H   0  0  0  0  0  0  0  0  0  0  0  0
    4.9894   -1.6465    0.3438 H   0  0  0  0  0  0  0  0  0  0  0  0
    3.3507   -2.1048    0.8440 H   0  0  0  0  0  0  0  0  0  0  0  0
    5.5659    1.0129   -0.5487 N   0  0  0  0  0  0  0  0  0  0  0  0
    6.4988    1.7382   -1.3790 C   0  0  0  0  0  0  0  0  0  0  0  0
    5.8639    0.7587    0.3885 H   0  0  0  0  0  0  0  0  0  0  0  0
    7.1106    1.0262   -1.9524 H   0  0  0  0  0  0  0  0  0  0  0  0
    5.9443    2.3869   -2.0731 H   0  0  0  0  0  0  0  0  0  0  0  0
    7.1522    2.3545   -0.7440 H   0  0  0  0  0  0  0  0  0  0  0  0
  1  3  1  0  0  0  0
  1  7  1  0  0  0  0
  1  2  2  0  0  0  0
 31 32  1  0  0  0  0
 32 40  1  0  0  0  0
 32 33  2  0  0  0  0
  8  9  1  0  0  0  0
  9 17  1  0  0  0  0
  9 10  2  0  0  0  0
 18 19  1  0  0  0  0
 19 30  1  0  0  0  0
 19 20  2  0  0  0  0
 21 22  1  0  0  0  0
 22 23  2  0  0  0  0
 22 24  1  0  0  0  0
 31 34  1  0  0  0  0
  8 11  1  0  0  0  0
 40 41  1  0  0  0  0
 18 21  1  0  0  0  0
 30 31  1  0  0  0  0
  7  8  1  0  0  0  0
 17 18  1  0  0  0  0
  3  4  1  0  0  0  0
  3  5  1  0  0  0  0
  3  6  1  0  0  0  0
 34 37  1  0  0  0  0
 34 38  1  0  0  0  0
 34 39  1  0  0  0  0
 11 14  1  0  0  0  0
 11 15  1  0  0  0  0
 11 16  1  0  0  0  0
 41 43  1  0  0  0  0
 41 44  1  0  0  0  0
 41 45  1  0  0  0  0
 21 27  1  0  0  0  0
 21 28  1  0  0  0  0
 31 36  1  0  0  0  0
  8 13  1  0  0  0  0
 18 26  1  0  0  0  0
 40 42  1  0  0  0  0
  7 12  1  0  0  0  0
 30 35  1  0  0  0  0
 17 25  1  0  0  0  0
 24 29  1  0  0  0  0
M  END
$$$$

  -OEChem-05262214473D

 45 44  0     1  0  0  0  0  0999 V2000
   -2.2987    4.1032   -0.3022 C   0  0  0  0  0  0  0  0  0  0  0  0
   -1.8049    3.7117   -1.3532 O   0  0  0  0  0  0  0  0  0  0  0  0
   -3.0791    5.3755   -0.2846 C   0  0  0  0  0  0  0  0  0  0  0  0
   -2.4478    6.2532   -0.0717 H   0  0  0  0  0  0  0  0  0  0  0  0
   -3.5571    5.5891   -1.2541 H   0  0  0  0  0  0  0  0  0  0  0  0
   -3.8940    5.4184    0.4556 H   0  0  0  0  0  0  0  0  0  0  0  0
   -2.2137    3.4712    0.9275 N   0  0  0  0  0  0  0  0  0  0  0  0
   -1.5102    2.2327    1.1338 C   0  0  2  0  0  0  0  0  0  0  0  0
   -1.3539    1.5497   -0.2184 C   0  0  0  0  0  0  0  0  0  0  0  0
   -2.0852    1.7861   -1.1778 O   0  0  0  0  0  0  0  0  0  0  0  0
   -2.2477    1.3342    2.1145 C   0  0  0  0  0  0  0  0  0  0  0  0
   -2.6724    3.9052    1.7265 H   0  0  0  0  0  0  0  0  0  0  0  0
   -0.5220    2.4922    1.5290 H   0  0  0  0  0  0  0  0  0  0  0  0
   -3.2400    1.0636    1.7358 H   0  0  0  0  0  0  0  0  0  0  0  0
   -1.6970    0.4046    2.2923 H   0  0  0  0  0  0  0  0  0  0  0  0
   -2.3854    1.8384    3.0772 H   0  0  0  0  0  0  0  0  0  0  0  0
   -0.3283    0.6116   -0.2182 N   0  0  0  0  0  0  0  0  0  0  0  0
    0.0090   -0.1762   -1.3759 C   0  0  2  0  0  0  0  0  0  0  0  0
    1.4995   -0.4848   -1.3108 C   0  0  0  0  0  0  0  0  0  0  0  0
    2.1468   -0.8680   -2.2831 O   0  0  0  0  0  0  0  0  0  0  0  0
   -0.3400    0.5425   -2.6765 C   0  0  0  0  0  0  0  0  0  0  0  0
   -1.8340    0.6506   -2.8583 C   0  0  0  0  0  0  0  0  0  0  0  0
   -2.6381   -0.1552   -2.4082 O   0  0  0  0  0  0  0  0  0  0  0  0
   -2.1926    1.7326   -3.5929 O   0  0  0  0  0  0  0  0  0  0  0  0
    0.2381    0.4970    0.6194 H   0  0  0  0  0  0  0  0  0  0  0  0
   -0.5525   -1.1137   -1.2835 H   0  0  0  0  0  0  0  0  0  0  0  0
    0.0513    1.5677   -2.6796 H   0  0  0  0  0  0  0  0  0  0  0  0
    0.1010    0.0551   -3.5544 H   0  0  0  0  0  0  0  0  0  0  0  0
   -3.1573    1.8298   -3.7433 H   0  0  0  0  0  0  0  0  0  0  0  0
    2.0305   -0.2363   -0.0529 N   0  0  0  0  0  0  0  0  0  0  0  0
    3.4265   -0.4381    0.2576 C   0  0  2  0  0  0  0  0  0  0  0  0
    4.2354    0.5876   -0.5254 C   0  0  0  0  0  0  0  0  0  0  0  0
    3.8185    1.1346   -1.5442 O   0  0  0  0  0  0  0  0  0  0  0  0
    3.8697   -1.8530   -0.0808 C   0  0  0  0  0  0  0  0  0  0  0  0
    1.4123    0.1011    0.6791 H   0  0  0  0  0  0  0  0  0  0  0  0
    3.5418   -0.2528    1.3311 H   0  0  0  0  0  0  0  0  0  0  0  0
    3.7614   -2.0572   -1.1522 H   0  0  0  0  0  0  0  0  0  0  0  0
    4.9206   -2.0130    0.1816 H   0  0  0  0  0  0  0  0  0  0  0  0
    3.2669   -2.5902    0.4606 H   0  0  0  0  0  0  0  0  0  0  0  0
    5.4944    0.7882    0.0231 N   0  0  0  0  0  0  0  0  0  0  0  0
    6.4554    1.7044   -0.5453 C   0  0  0  0  0  0  0  0  0  0  0  0
    5.7487    0.3060    0.8802 H   0  0  0  0  0  0  0  0  0  0  0  0
    7.1082    1.1636   -1.2463 H   0  0  0  0  0  0  0  0  0  0  0  0
    5.9255    2.5054   -1.0815 H   0  0  0  0  0  0  0  0  0  0  0  0
    7.0645    2.1424    0.2592 H   0  0  0  0  0  0  0  0  0  0  0  0
  1  3  1  0  0  0  0
  1  7  1  0  0  0  0
  1  2  2  0  0  0  0
 31 32  1  0  0  0  0
 32 40  1  0  0  0  0
 32 33  2  0  0  0  0
  8  9  1  0  0  0  0
  9 17  1  0  0  0  0
  9 10  2  0  0  0  0
 18 19  1  0  0  0  0
 19 30  1  0  0  0  0
 19 20  2  0  0  0  0
 21 22  1  0  0  0  0
 22 23  2  0  0  0  0
 22 24  1  0  0  0  0
 31 34  1  0  0  0  0
  8 11  1  0  0  0  0
 40 41  1  0  0  0  0
 18 21  1  0  0  0  0
 30 31  1  0  0  0  0
  7  8  1  0  0  0  0
 17 18  1  0  0  0  0
  3  4  1  0  0  0  0
  3  5  1  0  0  0  0
  3  6  1  0  0  0  0
 34 37  1  0  0  0  0
 34 38  1  0  0  0  0
 34 39  1  0  0  0  0
 11 14  1  0  0  0  0
 11 15  1  0  0  0  0
 11 16  1  0  0  0  0
 41 43  1  0  0  0  0
 41 44  1  0  0  0  0
 41 45  1  0  0  0  0
 21 27  1  0  0  0  0
 21 28  1  0  0  0  0
 31 36  1  0  0  0  0
  8 13  1  0  0  0  0
 18 26  1  0  0  0  0
 40 42  1  0  0  0  0
  7 12  1  0  0  0  0
 30 35  1  0  0  0  0
 17 25  1  0  0  0  0
 24 29  1  0  0  0  0
M  END
$$$$

  -OEChem-05262214473D

 45 44  0     1  0  0  0  0  0999 V2000
   -2.2987    4.1032   -0.3022 C   0  0  0  0  0  0  0  0  0  0  0  0
   -1.8049    3.7117   -1.3532 O   0  0  0  0  0  0  0  0  0  0  0  0
   -3.0791    5.3755   -0.2846 C   0  0  0  0  0  0  0  0  0  0  0  0
   -2.4478    6.2532   -0.0717 H   0  0  0  0  0  0  0  0  0  0  0  0
   -3.5571    5.5891   -1.2541 H   0  0  0  0  0  0  0  0  0  0  0  0
   -3.8940    5.4184    0.4556 H   0  0  0  0  0  0  0  0  0  0  0  0
   -2.2137    3.4712    0.9275 N   0  0  0  0  0  0  0  0  0  0  0  0
   -1.5102    2.2327    1.1338 C   0  0  2  0  0  0  0  0  0  0  0  0
   -1.3539    1.5497   -0.2184 C   0  0  0  0  0  0  0  0  0  0  0  0
   -2.0852    1.7861   -1.1778 O   0  0  0  0  0  0  0  0  0  0  0  0
   -2.2477    1.3342    2.1145 C   0  0  0  0  0  0  0  0  0  0  0  0
   -2.6724    3.9052    1.7265 H   0  0  0  0  0  0  0  0  0  0  0  0
   -0.5220    2.4922    1.5290 H   0  0  0  0  0  0  0  0  0  0  0  0
   -3.2400    1.0636    1.7358 H   0  0  0  0  0  0  0  0  0  0  0  0
   -1.6970    0.4046    2.2923 H   0  0  0  0  0  0  0  0  0  0  0  0
   -2.3854    1.8384    3.0772 H   0  0  0  0  0  0  0  0  0  0  0  0
   -0.3283    0.6116   -0.2182 N   0  0  0  0  0  0  0  0  0  0  0  0
    0.0090   -0.1762   -1.3759 C   0  0  2  0  0  0  0  0  0  0  0  0
    1.4995   -0.4848   -1.3108 C   0  0  0  0  0  0  0  0  0  0  0  0
    2.2022   -0.6062   -2.3121 O   0  0  0  0  0  0  0  0  0  0  0  0
   -0.3400    0.5425   -2.6765 C   0  0  0  0  0  0  0  0  0  0  0  0
   -1.8340    0.6506   -2.8583 C   0  0  0  0  0  0  0  0  0  0  0  0
   -2.6381   -0.1552   -2.4082 O   0  0  0  0  0  0  0  0  0  0  0  0
   -2.1926    1.7326   -3.5929 O   0  0  0  0  0  0  0  0  0  0  0  0
    0.2381    0.4970    0.6194 H   0  0  0  0  0  0  0  0  0  0  0  0
   -0.5525   -1.1137   -1.2835 H   0  0  0  0  0  0  0  0  0  0  0  0
    0.0513    1.5677   -2.6796 H   0  0  0  0  0  0  0  0  0  0  0  0
    0.1010    0.0551   -3.5544 H   0  0  0  0  0  0  0  0  0  0  0  0
   -3.1573    1.8298   -3.7433 H   0  0  0  0  0  0  0  0  0  0  0  0
    1.9611   -0.5611   -0.0042 N   0  0  0  0  0  0  0  0  0  0  0  0
    3.3428   -0.8290    0.3198 C   0  0  2  0  0  0  0  0  0  0  0  0
    4.1723    0.3652   -0.1335 C   0  0  0  0  0  0  0  0  0  0  0  0
    3.7982    1.1508   -1.0018 O   0  0  0  0  0  0  0  0  0  0  0  0
    3.8278   -2.1099   -0.3410 C   0  0  0  0  0  0  0  0  0  0  0  0
    1.3005   -0.4229    0.7549 H   0  0  0  0  0  0  0  0  0  0  0  0
    3.3999   -0.9213    1.4099 H   0  0  0  0  0  0  0  0  0  0  0  0
    3.7780   -2.0363   -1.4335 H   0  0  0  0  0  0  0  0  0  0  0  0
    4.8667   -2.3267   -0.0714 H   0  0  0  0  0  0  0  0  0  0  0  0
    3.2115   -2.9629   -0.0369 H   0  0  0  0  0  0  0  0  0  0  0  0
    5.3979    0.4256    0.5148 N   0  0  0  0  0  0  0  0  0  0  0  0
    6.3702    1.4601    0.2492 C   0  0  0  0  0  0  0  0  0  0  0  0
    5.6167   -0.2570    1.2345 H   0  0  0  0  0  0  0  0  0  0  0  0
    7.0674    1.1175   -0.5295 H   0  0  0  0  0  0  0  0  0  0  0  0
    5.8541    2.3686   -0.0947 H   0  0  0  0  0  0  0  0  0  0  0  0
    6.9295    1.6824    1.1699 H   0  0  0  0  0  0  0  0  0  0  0  0
  1  3  1  0  0  0  0
  1  7  1  0  0  0  0
  1  2  2  0  0  0  0
 31 32  1  0  0  0  0
 32 40  1  0  0  0  0
 32 33  2  0  0  0  0
  8  9  1  0  0  0  0
  9 17  1  0  0  0  0
  9 10  2  0  0  0  0
 18 19  1  0  0  0  0
 19 30  1  0  0  0  0
 19 20  2  0  0  0  0
 21 22  1  0  0  0  0
 22 23  2  0  0  0  0
 22 24  1  0  0  0  0
 31 34  1  0  0  0  0
  8 11  1  0  0  0  0
 40 41  1  0  0  0  0
 18 21  1  0  0  0  0
 30 31  1  0  0  0  0
  7  8  1  0  0  0  0
 17 18  1  0  0  0  0
  3  4  1  0  0  0  0
  3  5  1  0  0  0  0
  3  6  1  0  0  0  0
 34 37  1  0  0  0  0
 34 38  1  0  0  0  0
 34 39  1  0  0  0  0
 11 14  1  0  0  0  0
 11 15  1  0  0  0  0
 11 16  1  0  0  0  0
 41 43  1  0  0  0  0
 41 44  1  0  0  0  0
 41 45  1  0  0  0  0
 21 27  1  0  0  0  0
 21 28  1  0  0  0  0
 31 36  1  0  0  0  0
  8 13  1  0  0  0  0
 18 26  1  0  0  0  0
 40 42  1  0  0  0  0
  7 12  1  0  0  0  0
 30 35  1  0  0  0  0
 17 25  1  0  0  0  0
 24 29  1  0  0  0  0
M  END
$$$$

  -OEChem-05262214473D

 45 44  0     1  0  0  0  0  0999 V2000
   -2.2987    4.1032   -0.3022 C   0  0  0  0  0  0  0  0  0  0  0  0
   -1.8049    3.7117   -1.3532 O   0  0  0  0  0  0  0  0  0  0  0  0
   -3.0791    5.3755   -0.2846 C   0  0  0  0  0  0  0  0  0  0  0  0
   -2.4478    6.2532   -0.0717 H   0  0  0  0  0  0  0  0  0  0  0  0
   -3.5571    5.5891   -1.2541 H   0  0  0  0  0  0  0  0  0  0  0  0
   -3.8940    5.4184    0.4556 H   0  0  0  0  0  0  0  0  0  0  0  0
   -2.2137    3.4712    0.9275 N   0  0  0  0  0  0  0  0  0  0  0  0
   -1.5102    2.2327    1.1338 C   0  0  2  0  0  0  0  0  0  0  0  0
   -1.3539    1.5497   -0.2184 C   0  0  0  0  0  0  0  0  0  0  0  0
   -2.0852    1.7861   -1.1778 O   0  0  0  0  0  0  0  0  0  0  0  0
   -2.2477    1.3342    2.1145 C   0  0  0  0  0  0  0  0  0  0  0  0
   -2.6724    3.9052    1.7265 H   0  0  0  0  0  0  0  0  0  0  0  0
   -0.5220    2.4922    1.5290 H   0  0  0  0  0  0  0  0  0  0  0  0
   -3.2400    1.0636    1.7358 H   0  0  0  0  0  0  0  0  0  0  0  0
   -1.6970    0.4046    2.2923 H   0  0  0  0  0  0  0  0  0  0  0  0
   -2.3854    1.8384    3.0772 H   0  0  0  0  0  0  0  0  0  0  0  0
   -0.3283    0.6116   -0.2182 N   0  0  0  0  0  0  0  0  0  0  0  0
    0.0090   -0.1762   -1.3759 C   0  0  2  0  0  0  0  0  0  0  0  0
    1.4995   -0.4848   -1.3108 C   0  0  0  0  0  0  0  0  0  0  0  0
    2.2544   -0.3454   -2.2709 O   0  0  0  0  0  0  0  0  0  0  0  0
   -0.3400    0.5425   -2.6765 C   0  0  0  0  0  0  0  0  0  0  0  0
   -1.8340    0.6506   -2.8583 C   0  0  0  0  0  0  0  0  0  0  0  0
   -2.6381   -0.1552   -2.4082 O   0  0  0  0  0  0  0  0  0  0  0  0
   -2.1926    1.7326   -3.5929 O   0  0  0  0  0  0  0  0  0  0  0  0
    0.2381    0.4970    0.6194 H   0  0  0  0  0  0  0  0  0  0  0  0
   -0.5525   -1.1137   -1.2835 H   0  0  0  0  0  0  0  0  0  0  0  0
    0.0513    1.5677   -2.6796 H   0  0  0  0  0  0  0  0  0  0  0  0
    0.1010    0.0551   -3.5544 H   0  0  0  0  0  0  0  0  0  0  0  0
   -3.1573    1.8298   -3.7433 H   0  0  0  0  0  0  0  0  0  0  0  0
    1.8951   -0.8878   -0.0431 N   0  0  0  0  0  0  0  0  0  0  0  0
    3.2631   -1.2232    0.2766 C   0  0  2  0  0  0  0  0  0  0  0  0
    4.0932    0.0504    0.1853 C   0  0  0  0  0  0  0  0  0  0  0  0
    3.7500    1.0289   -0.4748 O   0  0  0  0  0  0  0  0  0  0  0  0
    3.8039   -2.2927   -0.6597 C   0  0  0  0  0  0  0  0  0  0  0  0
    1.1943   -0.9495    0.6896 H   0  0  0  0  0  0  0  0  0  0  0  0
    3.2661   -1.5886    1.3093 H   0  0  0  0  0  0  0  0  0  0  0  0
    3.8085   -1.9447   -1.6991 H   0  0  0  0  0  0  0  0  0  0  0  0
    4.8314   -2.5662   -0.3981 H   0  0  0  0  0  0  0  0  0  0  0  0
    3.1881   -3.1975   -0.6148 H   0  0  0  0  0  0  0  0  0  0  0  0
    5.2829   -0.0502    0.8929 N   0  0  0  0  0  0  0  0  0  0  0  0
    6.2489    1.0220    0.9503 C   0  0  0  0  0  0  0  0  0  0  0  0
    5.4768   -0.8920    1.4272 H   0  0  0  0  0  0  0  0  0  0  0  0
    6.9909    0.8910    0.1489 H   0  0  0  0  0  0  0  0  0  0  0  0
    5.7350    1.9858    0.8201 H   0  0  0  0  0  0  0  0  0  0  0  0
    6.7565    1.0061    1.9261 H   0  0  0  0  0  0  0  0  0  0  0  0
  1  3  1  0  0  0  0
  1  7  1  0  0  0  0
  1  2  2  0  0  0  0
 31 32  1  0  0  0  0
 32 40  1  0  0  0  0
 32 33  2  0  0  0  0
  8  9  1  0  0  0  0
  9 17  1  0  0  0  0
  9 10  2  0  0  0  0
 18 19  1  0  0  0  0
 19 30  1  0  0  0  0
 19 20  2  0  0  0  0
 21 22  1  0  0  0  0
 22 23  2  0  0  0  0
 22 24  1  0  0  0  0
 31 34  1  0  0  0  0
  8 11  1  0  0  0  0
 40 41  1  0  0  0  0
 18 21  1  0  0  0  0
 30 31  1  0  0  0  0
  7  8  1  0  0  0  0
 17 18  1  0  0  0  0
  3  4  1  0  0  0  0
  3  5  1  0  0  0  0
  3  6  1  0  0  0  0
 34 37  1  0  0  0  0
 34 38  1  0  0  0  0
 34 39  1  0  0  0  0
 11 14  1  0  0  0  0
 11 15  1  0  0  0  0
 11 16  1  0  0  0  0
 41 43  1  0  0  0  0
 41 44  1  0  0  0  0
 41 45  1  0  0  0  0
 21 27  1  0  0  0  0
 21 28  1  0  0  0  0
 31 36  1  0  0  0  0
  8 13  1  0  0  0  0
 18 26  1  0  0  0  0
 40 42  1  0  0  0  0
  7 12  1  0  0  0  0
 30 35  1  0  0  0  0
 17 25  1  0  0  0  0
 24 29  1  0  0  0  0
M  END
$$$$

  -OEChem-05262214473D

 45 44  0     1  0  0  0  0  0999 V2000
   -2.2987    4.1032   -0.3022 C   0  0  0  0  0  0  0  0  0  0  0  0
   -1.8049    3.7117   -1.3532 O   0  0  0  0  0  0  0  0  0  0  0  0
   -3.0791    5.3755   -0.2846 C   0  0  0  0  0  0  0  0  0  0  0  0
   -2.4478    6.2532   -0.0717 H   0  0  0  0  0  0  0  0  0  0  0  0
   -3.5571    5.5891   -1.2541 H   0  0  0  0  0  0  0  0  0  0  0  0
   -3.8940    5.4184    0.4556 H   0  0  0  0  0  0  0  0  0  0  0  0
   -2.2137    3.4712    0.9275 N   0  0  0  0  0  0  0  0  0  0  0  0
   -1.5102    2.2327    1.1338 C   0  0  2  0  0  0  0  0  0  0  0  0
   -1.3539    1.5497   -0.2184 C   0  0  0  0  0  0  0  0  0  0  0  0
   -2.0852    1.7861   -1.1778 O   0  0  0  0  0  0  0  0  0  0  0  0
   -2.2477    1.3342    2.1145 C   0  0  0  0  0  0  0  0  0  0  0  0
   -2.6724    3.9052    1.7265 H   0  0  0  0  0  0  0  0  0  0  0  0
   -0.5220    2.4922    1.5290 H   0  0  0  0  0  0  0  0  0  0  0  0
   -3.2400    1.0636    1.7358 H   0  0  0  0  0  0  0  0  0  0  0  0
   -1.6970    0.4046    2.2923 H   0  0  0  0  0  0  0  0  0  0  0  0
   -2.3854    1.8384    3.0772 H   0  0  0  0  0  0  0  0  0  0  0  0
   -0.3283    0.6116   -0.2182 N   0  0  0  0  0  0  0  0  0  0  0  0
    0.0090   -0.1762   -1.3759 C   0  0  2  0  0  0  0  0  0  0  0  0
    1.4995   -0.4848   -1.3108 C   0  0  0  0  0  0  0  0  0  0  0  0
    2.2998   -0.1033   -2.1623 O   0  0  0  0  0  0  0  0  0  0  0  0
   -0.3400    0.5425   -2.6765 C   0  0  0  0  0  0  0  0  0  0  0  0
   -1.8340    0.6506   -2.8583 C   0  0  0  0  0  0  0  0  0  0  0  0
   -2.6381   -0.1552   -2.4082 O   0  0  0  0  0  0  0  0  0  0  0  0
   -2.1926    1.7326   -3.5929 O   0  0  0  0  0  0  0  0  0  0  0  0
    0.2381    0.4970    0.6194 H   0  0  0  0  0  0  0  0  0  0  0  0
   -0.5525   -1.1137   -1.2835 H   0  0  0  0  0  0  0  0  0  0  0  0
    0.0513    1.5677   -2.6796 H   0  0  0  0  0  0  0  0  0  0  0  0
    0.1010    0.0551   -3.5544 H   0  0  0  0  0  0  0  0  0  0  0  0
   -3.1573    1.8298   -3.7433 H   0  0  0  0  0  0  0  0  0  0  0  0
    1.8371   -1.1944   -0.1668 N   0  0  0  0  0  0  0  0  0  0  0  0
    3.1927   -1.5939    0.1308 C   0  0  2  0  0  0  0  0  0  0  0  0
    4.0036   -0.3352    0.4095 C   0  0  0  0  0  0  0  0  0  0  0  0
    3.6771    0.7772    0.0008 O   0  0  0  0  0  0  0  0  0  0  0  0
    3.7995   -2.3888   -1.0150 C   0  0  0  0  0  0  0  0  0  0  0  0
    1.1010   -1.4427    0.4876 H   0  0  0  0  0  0  0  0  0  0  0  0
    3.1496   -2.2092    1.0361 H   0  0  0  0  0  0  0  0  0  0  0  0
    3.8510   -1.7887   -1.9308 H   0  0  0  0  0  0  0  0  0  0  0  0
    4.8171   -2.7153   -0.7762 H   0  0  0  0  0  0  0  0  0  0  0  0
    3.1985   -3.2780   -1.2336 H   0  0  0  0  0  0  0  0  0  0  0  0
    5.1572   -0.6068    1.1316 N   0  0  0  0  0  0  0  0  0  0  0  0
    6.0998    0.4199    1.5103 C   0  0  0  0  0  0  0  0  0  0  0  0
    5.3386   -1.5557    1.4453 H   0  0  0  0  0  0  0  0  0  0  0  0
    6.8840    0.4996    0.7430 H   0  0  0  0  0  0  0  0  0  0  0  0
    5.5761    1.3830    1.6005 H   0  0  0  0  0  0  0  0  0  0  0  0
    6.5572    0.1594    2.4761 H   0  0  0  0  0  0  0  0  0  0  0  0
  1  3  1  0  0  0  0
  1  7  1  0  0  0  0
  1  2  2  0  0  0  0
 31 32  1  0  0  0  0
 32 40  1  0  0  0  0
 32 33  2  0  0  0  0
  8  9  1  0  0  0  0
  9 17  1  0  0  0  0
  9 10  2  0  0  0  0
 18 19  1  0  0  0  0
 19 30  1  0  0  0  0
 19 20  2  0  0  0  0
 21 22  1  0  0  0  0
 22 23  2  0  0  0  0
 22 24  1  0  0  0  0
 31 34  1  0  0  0  0
  8 11  1  0  0  0  0
 40 41  1  0  0  0  0
 18 21  1  0  0  0  0
 30 31  1  0  0  0  0
  7  8  1  0  0  0  0
 17 18  1  0  0  0  0
  3  4  1  0  0  0  0
  3  5  1  0  0  0  0
  3  6  1  0  0  0  0
 34 37  1  0  0  0  0
 34 38  1  0  0  0  0
 34 39  1  0  0  0  0
 11 14  1  0  0  0  0
 11 15  1  0  0  0  0
 11 16  1  0  0  0  0
 41 43  1  0  0  0  0
 41 44  1  0  0  0  0
 41 45  1  0  0  0  0
 21 27  1  0  0  0  0
 21 28  1  0  0  0  0
 31 36  1  0  0  0  0
  8 13  1  0  0  0  0
 18 26  1  0  0  0  0
 40 42  1  0  0  0  0
  7 12  1  0  0  0  0
 30 35  1  0  0  0  0
 17 25  1  0  0  0  0
 24 29  1  0  0  0  0
M  END
$$$$

  -OEChem-05262214473D

 45 44  0     1  0  0  0  0  0999 V2000
   -2.2987    4.1032   -0.3022 C   0  0  0  0  0  0  0  0  0  0  0  0
   -1.8049    3.7117   -1.3532 O   0  0  0  0  0  0  0  0  0  0  0  0
   -3.0791    5.3755   -0.2846 C   0  0  0  0  0  0  0  0  0  0  0  0
   -2.4478    6.2532   -0.0717 H   0  0  0  0  0  0  0  0  0  0  0  0
   -3.5571    5.5891   -1.2541 H   0  0  0  0  0  0  0  0  0  0  0  0
   -3.8940    5.4184    0.4556 H   0  0  0  0  0  0  0  0  0  0  0  0
   -2.2137    3.4712    0.9275 N   0  0  0  0  0  0  0  0  0  0  0  0
   -1.5102    2.2327    1.1338 C   0  0  2  0  0  0  0  0  0  0  0  0
   -1.3539    1.5497   -0.2184 C   0  0  0  0  0  0  0  0  0  0  0  0
   -2.0852    1.7861   -1.1778 O   0  0  0  0  0  0  0  0  0  0  0  0
   -2.2477    1.3342    2.1145 C   0  0  0  0  0  0  0  0  0  0  0  0
   -2.6724    3.9052    1.7265 H   0  0  0  0  0  0  0  0  0  0  0  0
   -0.5220    2.4922    1.5290 H   0  0  0  0  0  0  0  0  0  0  0  0
   -3.2400    1.0636    1.7358 H   0  0  0  0  0  0  0  0  0  0  0  0
   -1.6970    0.4046    2.2923 H   0  0  0  0  0  0  0  0  0  0  0  0
   -2.3854    1.8384    3.0772 H   0  0  0  0  0  0  0  0  0  0  0  0
   -0.3283    0.6116   -0.2182 N   0  0  0  0  0  0  0  0  0  0  0  0
    0.0090   -0.1762   -1.3759 C   0  0  2  0  0  0  0  0  0  0  0  0
    1.4995   -0.4848   -1.3108 C   0  0  0  0  0  0  0  0  0  0  0  0
    2.3353    0.1035   -1.9938 O   0  0  0  0  0  0  0  0  0  0  0  0
   -0.3400    0.5425   -2.6765 C   0  0  0  0  0  0  0  0  0  0  0  0
   -1.8340    0.6506   -2.8583 C   0  0  0  0  0  0  0  0  0  0  0  0
   -2.6381   -0.1552   -2.4082 O   0  0  0  0  0  0  0  0  0  0  0  0
   -2.1926    1.7326   -3.5929 O   0  0  0  0  0  0  0  0  0  0  0  0
    0.2381    0.4970    0.6194 H   0  0  0  0  0  0  0  0  0  0  0  0
   -0.5525   -1.1137   -1.2835 H   0  0  0  0  0  0  0  0  0  0  0  0
    0.0513    1.5677   -2.6796 H   0  0  0  0  0  0  0  0  0  0  0  0
    0.1010    0.0551   -3.5544 H   0  0  0  0  0  0  0  0  0  0  0  0
   -3.1573    1.8298   -3.7433 H   0  0  0  0  0  0  0  0  0  0  0  0
    1.7909   -1.4597   -0.3670 N   0  0  0  0  0  0  0  0  0  0  0  0
    3.1365   -1.9158   -0.1076 C   0  0  2  0  0  0  0  0  0  0  0  0
    3.9095   -0.7654    0.5236 C   0  0  0  0  0  0  0  0  0  0  0  0
    3.5846    0.4129    0.3926 O   0  0  0  0  0  0  0  0  0  0  0  0
    3.8150   -2.3917   -1.3827 C   0  0  0  0  0  0  0  0  0  0  0  0
    1.0269   -1.8690    0.1627 H   0  0  0  0  0  0  0  0  0  0  0  0
    3.0582   -2.7407    0.6090 H   0  0  0  0  0  0  0  0  0  0  0  0
    3.9024   -1.5788   -2.1128 H   0  0  0  0  0  0  0  0  0  0  0  0
    4.8247   -2.7637   -1.1799 H   0  0  0  0  0  0  0  0  0  0  0  0
    3.2418   -3.1990   -1.8512 H   0  0  0  0  0  0  0  0  0  0  0  0
    5.0295   -1.2062    1.2146 N   0  0  0  0  0  0  0  0  0  0  0  0
    5.9331   -0.3050    1.8909 C   0  0  0  0  0  0  0  0  0  0  0  0
    5.2115   -2.2029    1.2874 H   0  0  0  0  0  0  0  0  0  0  0  0
    6.7538   -0.0301    1.2120 H   0  0  0  0  0  0  0  0  0  0  0  0
    5.3884    0.6015    2.1934 H   0  0  0  0  0  0  0  0  0  0  0  0
    6.3452   -0.7999    2.7826 H   0  0  0  0  0  0  0  0  0  0  0  0
  1  3  1  0  0  0  0
  1  7  1  0  0  0  0
  1  2  2  0  0  0  0
 31 32  1  0  0  0  0
 32 40  1  0  0  0  0
 32 33  2  0  0  0  0
  8  9  1  0  0  0  0
  9 17  1  0  0  0  0
  9 10  2  0  0  0  0
 18 19  1  0  0  0  0
 19 30  1  0  0  0  0
 19 20  2  0  0  0  0
 21 22  1  0  0  0  0
 22 23  2  0  0  0  0
 22 24  1  0  0  0  0
 31 34  1  0  0  0  0
  8 11  1  0  0  0  0
 40 41  1  0  0  0  0
 18 21  1  0  0  0  0
 30 31  1  0  0  0  0
  7  8  1  0  0  0  0
 17 18  1  0  0  0  0
  3  4  1  0  0  0  0
  3  5  1  0  0  0  0
  3  6  1  0  0  0  0
 34 37  1  0  0  0  0
 34 38  1  0  0  0  0
 34 39  1  0  0  0  0
 11 14  1  0  0  0  0
 11 15  1  0  0  0  0
 11 16  1  0  0  0  0
 41 43  1  0  0  0  0
 41 44  1  0  0  0  0
 41 45  1  0  0  0  0
 21 27  1  0  0  0  0
 21 28  1  0  0  0  0
 31 36  1  0  0  0  0
  8 13  1  0  0  0  0
 18 26  1  0  0  0  0
 40 42  1  0  0  0  0
  7 12  1  0  0  0  0
 30 35  1  0  0  0  0
 17 25  1  0  0  0  0
 24 29  1  0  0  0  0
M  END
$$$$

  -OEChem-05262214473D

 45 44  0     1  0  0  0  0  0999 V2000
   -2.2987    4.1032   -0.3022 C   0  0  0  0  0  0  0  0  0  0  0  0
   -1.8049    3.7117   -1.3532 O   0  0  0  0  0  0  0  0  0  0  0  0
   -3.0791    5.3755   -0.2846 C   0  0  0  0  0  0  0  0  0  0  0  0
   -2.4478    6.2532   -0.0717 H   0  0  0  0  0  0  0  0  0  0  0  0
   -3.5571    5.5891   -1.2541 H   0  0  0  0  0  0  0  0  0  0  0  0
   -3.8940    5.4184    0.4556 H   0  0  0  0  0  0  0  0  0  0  0  0
   -2.2137    3.4712    0.9275 N   0  0  0  0  0  0  0  0  0  0  0  0
   -1.5102    2.2327    1.1338 C   0  0  2  0  0  0  0  0  0  0  0  0
   -1.3539    1.5497   -0.2184 C   0  0  0  0  0  0  0  0  0  0  0  0
   -2.0852    1.7861   -1.1778 O   0  0  0  0  0  0  0  0  0  0  0  0
   -2.2477    1.3342    2.1145 C   0  0  0  0  0  0  0  0  0  0  0  0
   -2.6724    3.9052    1.7265 H   0  0  0  0  0  0  0  0  0  0  0  0
   -0.5220    2.4922    1.5290 H   0  0  0  0  0  0  0  0  0  0  0  0
   -3.2400    1.0636    1.7358 H   0  0  0  0  0  0  0  0  0  0  0  0
   -1.6970    0.4046    2.2923 H   0  0  0  0  0  0  0  0  0  0  0  0
   -2.3854    1.8384    3.0772 H   0  0  0  0  0  0  0  0  0  0  0  0
   -0.3283    0.6116   -0.2182 N   0  0  0  0  0  0  0  0  0  0  0  0
    0.0090   -0.1762   -1.3759 C   0  0  2  0  0  0  0  0  0  0  0  0
    1.4995   -0.4848   -1.3108 C   0  0  0  0  0  0  0  0  0  0  0  0
    2.3584    0.2610   -1.7767 O   0  0  0  0  0  0  0  0  0  0  0  0
   -0.3400    0.5425   -2.6765 C   0  0  0  0  0  0  0  0  0  0  0  0
   -1.8340    0.6506   -2.8583 C   0  0  0  0  0  0  0  0  0  0  0  0
   -2.6381   -0.1552   -2.4082 O   0  0  0  0  0  0  0  0  0  0  0  0
   -2.1926    1.7326   -3.5929 O   0  0  0  0  0  0  0  0  0  0  0  0
    0.2381    0.4970    0.6194 H   0  0  0  0  0  0  0  0  0  0  0  0
   -0.5525   -1.1137   -1.2835 H   0  0  0  0  0  0  0  0  0  0  0  0
    0.0513    1.5677   -2.6796 H   0  0  0  0  0  0  0  0  0  0  0  0
    0.1010    0.0551   -3.5544 H   0  0  0  0  0  0  0  0  0  0  0  0
   -3.1573    1.8298   -3.7433 H   0  0  0  0  0  0  0  0  0  0  0  0
    1.7597   -1.6659   -0.6300 N   0  0  0  0  0  0  0  0  0  0  0  0
    3.0982   -2.1671   -0.4223 C   0  0  2  0  0  0  0  0  0  0  0  0
    3.8174   -1.2109    0.5200 C   0  0  0  0  0  0  0  0  0  0  0  0
    3.4787   -0.0393    0.6740 O   0  0  0  0  0  0  0  0  0  0  0  0
    3.8492   -2.3012   -1.7379 C   0  0  0  0  0  0  0  0  0  0  0  0
    0.9771   -2.1994   -0.2629 H   0  0  0  0  0  0  0  0  0  0  0  0
    2.9982   -3.1470    0.0571 H   0  0  0  0  0  0  0  0  0  0  0  0
    3.9592   -1.3294   -2.2329 H   0  0  0  0  0  0  0  0  0  0  0  0
    4.8537   -2.7081   -1.5816 H   0  0  0  0  0  0  0  0  0  0  0  0
    3.3151   -2.9658   -2.4255 H   0  0  0  0  0  0  0  0  0  0  0  0
    4.9084   -1.8077    1.1363 N   0  0  0  0  0  0  0  0  0  0  0  0
    5.7602   -1.1035    2.0662 C   0  0  0  0  0  0  0  0  0  0  0  0
    5.1042   -2.7895    0.9644 H   0  0  0  0  0  0  0  0  0  0  0  0
    6.6094   -0.6619    1.5241 H   0  0  0  0  0  0  0  0  0  0  0  0
    5.1847   -0.3056    2.5584 H   0  0  0  0  0  0  0  0  0  0  0  0
    6.1350   -1.8065    2.8246 H   0  0  0  0  0  0  0  0  0  0  0  0
  1  3  1  0  0  0  0
  1  7  1  0  0  0  0
  1  2  2  0  0  0  0
 31 32  1  0  0  0  0
 32 40  1  0  0  0  0
 32 33  2  0  0  0  0
  8  9  1  0  0  0  0
  9 17  1  0  0  0  0
  9 10  2  0  0  0  0
 18 19  1  0  0  0  0
 19 30  1  0  0  0  0
 19 20  2  0  0  0  0
 21 22  1  0  0  0  0
 22 23  2  0  0  0  0
 22 24  1  0  0  0  0
 31 34  1  0  0  0  0
  8 11  1  0  0  0  0
 40 41  1  0  0  0  0
 18 21  1  0  0  0  0
 30 31  1  0  0  0  0
  7  8  1  0  0  0  0
 17 18  1  0  0  0  0
  3  4  1  0  0  0  0
  3  5  1  0  0  0  0
  3  6  1  0  0  0  0
 34 37  1  0  0  0  0
 34 38  1  0  0  0  0
 34 39  1  0  0  0  0
 11 14  1  0  0  0  0
 11 15  1  0  0  0  0
 11 16  1  0  0  0  0
 41 43  1  0  0  0  0
 41 44  1  0  0  0  0
 41 45  1  0  0  0  0
 21 27  1  0  0  0  0
 21 28  1  0  0  0  0
 31 36  1  0  0  0  0
  8 13  1  0  0  0  0
 18 26  1  0  0  0  0
 40 42  1  0  0  0  0
  7 12  1  0  0  0  0
 30 35  1  0  0  0  0
 17 25  1  0  0  0  0
 24 29  1  0  0  0  0
M  END
$$$$

  -OEChem-05262214473D

 45 44  0     1  0  0  0  0  0999 V2000
   -2.2987    4.1032   -0.3022 C   0  0  0  0  0  0  0  0  0  0  0  0
   -1.8049    3.7117   -1.3532 O   0  0  0  0  0  0  0  0  0  0  0  0
   -3.0791    5.3755   -0.2846 C   0  0  0  0  0  0  0  0  0  0  0  0
   -2.4478    6.2532   -0.0717 H   0  0  0  0  0  0  0  0  0  0  0  0
   -3.5571    5.5891   -1.2541 H   0  0  0  0  0  0  0  0  0  0  0  0
   -3.8940    5.4184    0.4556 H   0  0  0  0  0  0  0  0  0  0  0  0
   -2.2137    3.4712    0.9275 N   0  0  0  0  0  0  0  0  0  0  0  0
   -1.5102    2.2327    1.1338 C   0  0  2  0  0  0  0  0  0  0  0  0
   -1.3539    1.5497   -0.2184 C   0  0  0  0  0  0  0  0  0  0  0  0
   -2.0852    1.7861   -1.1778 O   0  0  0  0  0  0  0  0  0  0  0  0
   -2.2477    1.3342    2.1145 C   0  0  0  0  0  0  0  0  0  0  0  0
   -2.6724    3.9052    1.7265 H   0  0  0  0  0  0  0  0  0  0  0  0
   -0.5220    2.4922    1.5290 H   0  0  0  0  0  0  0  0  0  0  0  0
   -3.2400    1.0636    1.7358 H   0  0  0  0  0  0  0  0  0  0  0  0
   -1.6970    0.4046    2.2923 H   0  0  0  0  0  0  0  0  0  0  0  0
   -2.3854    1.8384    3.0772 H   0  0  0  0  0  0  0  0  0  0  0  0
   -0.3283    0.6116   -0.2182 N   0  0  0  0  0  0  0  0  0  0  0  0
    0.0090   -0.1762   -1.3759 C   0  0  2  0  0  0  0  0  0  0  0  0
    1.4995   -0.4848   -1.3108 C   0  0  0  0  0  0  0  0  0  0  0  0
    2.3677    0.3585   -1.5260 O   0  0  0  0  0  0  0  0  0  0  0  0
   -0.3400    0.5425   -2.6765 C   0  0  0  0  0  0  0  0  0  0  0  0
   -1.8340    0.6506   -2.8583 C   0  0  0  0  0  0  0  0  0  0  0  0
   -2.6381   -0.1552   -2.4082 O   0  0  0  0  0  0  0  0  0  0  0  0
   -2.1926    1.7326   -3.5929 O   0  0  0  0  0  0  0  0  0  0  0  0
    0.2381    0.4970    0.6194 H   0  0  0  0  0  0  0  0  0  0  0  0
   -0.5525   -1.1137   -1.2835 H   0  0  0  0  0  0  0  0  0  0  0  0
    0.0513    1.5677   -2.6796 H   0  0  0  0  0  0  0  0  0  0  0  0
    0.1010    0.0551   -3.5544 H   0  0  0  0  0  0  0  0  0  0  0  0
   -3.1573    1.8298   -3.7433 H   0  0  0  0  0  0  0  0  0  0  0  0
    1.7456   -1.7988   -0.9379 N   0  0  0  0  0  0  0  0  0  0  0  0
    3.0805   -2.3305   -0.7919 C   0  0  2  0  0  0  0  0  0  0  0  0
    3.7336   -1.6414    0.3989 C   0  0  0  0  0  0  0  0  0  0  0  0
    3.3666   -0.5486    0.8257 O   0  0  0  0  0  0  0  0  0  0  0  0
    3.8999   -2.1234   -2.0562 C   0  0  0  0  0  0  0  0  0  0  0  0
    0.9550   -2.4113   -0.7604 H   0  0  0  0  0  0  0  0  0  0  0  0
    2.9736   -3.4003   -0.5820 H   0  0  0  0  0  0  0  0  0  0  0  0
    4.0177   -1.0575   -2.2827 H   0  0  0  0  0  0  0  0  0  0  0  0
    4.9022   -2.5524   -1.9541 H   0  0  0  0  0  0  0  0  0  0  0  0
    3.4135   -2.5943   -2.9173 H   0  0  0  0  0  0  0  0  0  0  0  0
    4.8022   -2.3702    0.9021 N   0  0  0  0  0  0  0  0  0  0  0  0
    5.5927   -1.9210    2.0242 C   0  0  0  0  0  0  0  0  0  0  0  0
    5.0239   -3.2754    0.4982 H   0  0  0  0  0  0  0  0  0  0  0  0
    6.4605   -1.3528    1.6581 H   0  0  0  0  0  0  0  0  0  0  0  0
    4.9788   -1.2765    2.6705 H   0  0  0  0  0  0  0  0  0  0  0  0
    5.9409   -2.7918    2.5993 H   0  0  0  0  0  0  0  0  0  0  0  0
  1  3  1  0  0  0  0
  1  7  1  0  0  0  0
  1  2  2  0  0  0  0
 31 32  1  0  0  0  0
 32 40  1  0  0  0  0
 32 33  2  0  0  0  0
  8  9  1  0  0  0  0
  9 17  1  0  0  0  0
  9 10  2  0  0  0  0
 18 19  1  0  0  0  0
 19 30  1  0  0  0  0
 19 20  2  0  0  0  0
 21 22  1  0  0  0  0
 22 23  2  0  0  0  0
 22 24  1  0  0  0  0
 31 34  1  0  0  0  0
  8 11  1  0  0  0  0
 40 41  1  0  0  0  0
 18 21  1  0  0  0  0
 30 31  1  0  0  0  0
  7  8  1  0  0  0  0
 17 18  1  0  0  0  0
  3  4  1  0  0  0  0
  3  5  1  0  0  0  0
  3  6  1  0  0  0  0
 34 37  1  0  0  0  0
 34 38  1  0  0  0  0
 34 39  1  0  0  0  0
 11 14  1  0  0  0  0
 11 15  1  0  0  0  0
 11 16  1  0  0  0  0
 41 43  1  0  0  0  0
 41 44  1  0  0  0  0
 41 45  1  0  0  0  0
 21 27  1  0  0  0  0
 21 28  1  0  0  0  0
 31 36  1  0  0  0  0
  8 13  1  0  0  0  0
 18 26  1  0  0  0  0
 40 42  1  0  0  0  0
  7 12  1  0  0  0  0
 30 35  1  0  0  0  0
 17 25  1  0  0  0  0
 24 29  1  0  0  0  0
M  END
$$$$

  -OEChem-05262214473D

 45 44  0     1  0  0  0  0  0999 V2000
   -2.2987    4.1032   -0.3022 C   0  0  0  0  0  0  0  0  0  0  0  0
   -1.8049    3.7117   -1.3532 O   0  0  0  0  0  0  0  0  0  0  0  0
   -3.0791    5.3755   -0.2846 C   0  0  0  0  0  0  0  0  0  0  0  0
   -2.4478    6.2532   -0.0717 H   0  0  0  0  0  0  0  0  0  0  0  0
   -3.5571    5.5891   -1.2541 H   0  0  0  0  0  0  0  0  0  0  0  0
   -3.8940    5.4184    0.4556 H   0  0  0  0  0  0  0  0  0  0  0  0
   -2.2137    3.4712    0.9275 N   0  0  0  0  0  0  0  0  0  0  0  0
   -1.5102    2.2327    1.1338 C   0  0  2  0  0  0  0  0  0  0  0  0
   -1.3539    1.5497   -0.2184 C   0  0  0  0  0  0  0  0  0  0  0  0
   -2.0852    1.7861   -1.1778 O   0  0  0  0  0  0  0  0  0  0  0  0
   -2.2477    1.3342    2.1145 C   0  0  0  0  0  0  0  0  0  0  0  0
   -2.6724    3.9052    1.7265 H   0  0  0  0  0  0  0  0  0  0  0  0
   -0.5220    2.4922    1.5290 H   0  0  0  0  0  0  0  0  0  0  0  0
   -3.2400    1.0636    1.7358 H   0  0  0  0  0  0  0  0  0  0  0  0
   -1.6970    0.4046    2.2923 H   0  0  0  0  0  0  0  0  0  0  0  0
   -2.3854    1.8384    3.0772 H   0  0  0  0  0  0  0  0  0  0  0  0
   -0.3283    0.6116   -0.2182 N   0  0  0  0  0  0  0  0  0  0  0  0
    0.0090   -0.1762   -1.3759 C   0  0  2  0  0  0  0  0  0  0  0  0
    1.4995   -0.4848   -1.3108 C   0  0  0  0  0  0  0  0  0  0  0  0
    2.3623    0.3892   -1.2586 O   0  0  0  0  0  0  0  0  0  0  0  0
   -0.3400    0.5425   -2.6765 C   0  0  0  0  0  0  0  0  0  0  0  0
   -1.8340    0.6506   -2.8583 C   0  0  0  0  0  0  0  0  0  0  0  0
   -2.6381   -0.1552   -2.4082 O   0  0  0  0  0  0  0  0  0  0  0  0
   -2.1926    1.7326   -3.5929 O   0  0  0  0  0  0  0  0  0  0  0  0
    0.2381    0.4970    0.6194 H   0  0  0  0  0  0  0  0  0  0  0  0
   -0.5525   -1.1137   -1.2835 H   0  0  0  0  0  0  0  0  0  0  0  0
    0.0513    1.5677   -2.6796 H   0  0  0  0  0  0  0  0  0  0  0  0
    0.1010    0.0551   -3.5544 H   0  0  0  0  0  0  0  0  0  0  0  0
   -3.1573    1.8298   -3.7433 H   0  0  0  0  0  0  0  0  0  0  0  0
    1.7496   -1.8493   -1.2696 N   0  0  0  0  0  0  0  0  0  0  0  0
    3.0846   -2.3949   -1.1912 C   0  0  2  0  0  0  0  0  0  0  0  0
    3.6637   -2.0274    0.1686 C   0  0  0  0  0  0  0  0  0  0  0  0
    3.2561   -1.0801    0.8375 O   0  0  0  0  0  0  0  0  0  0  0  0
    3.9636   -1.8706   -2.3161 C   0  0  0  0  0  0  0  0  0  0  0  0
    0.9620   -2.4902   -1.2956 H   0  0  0  0  0  0  0  0  0  0  0  0
    2.9862   -3.4835   -1.2648 H   0  0  0  0  0  0  0  0  0  0  0  0
    4.0738   -0.7816   -2.2588 H   0  0  0  0  0  0  0  0  0  0  0  0
    4.9668   -2.3071   -2.2720 H   0  0  0  0  0  0  0  0  0  0  0  0
    3.5302   -2.1099   -3.2932 H   0  0  0  0  0  0  0  0  0  0  0  0
    4.7181   -2.8554    0.5278 N   0  0  0  0  0  0  0  0  0  0  0  0
    5.4422   -2.7020    1.7680 C   0  0  0  0  0  0  0  0  0  0  0  0
    4.9762   -3.6277   -0.0794 H   0  0  0  0  0  0  0  0  0  0  0  0
    6.3173   -2.0558    1.6047 H   0  0  0  0  0  0  0  0  0  0  0  0
    4.7848   -2.2450    2.5222 H   0  0  0  0  0  0  0  0  0  0  0  0
    5.7761   -3.6885    2.1219 H   0  0  0  0  0  0  0  0  0  0  0  0
  1  3  1  0  0  0  0
  1  7  1  0  0  0  0
  1  2  2  0  0  0  0
 31 32  1  0  0  0  0
 32 40  1  0  0  0  0
 32 33  2  0  0  0  0
  8  9  1  0  0  0  0
  9 17  1  0  0  0  0
  9 10  2  0  0  0  0
 18 19  1  0  0  0  0
 19 30  1  0  0  0  0
 19 20  2  0  0  0  0
 21 22  1  0  0  0  0
 22 23  2  0  0  0  0
 22 24  1  0  0  0  0
 31 34  1  0  0  0  0
  8 11  1  0  0  0  0
 40 41  1  0  0  0  0
 18 21  1  0  0  0  0
 30 31  1  0  0  0  0
  7  8  1  0  0  0  0
 17 18  1  0  0  0  0
  3  4  1  0  0  0  0
  3  5  1  0  0  0  0
  3  6  1  0  0  0  0
 34 37  1  0  0  0  0
 34 38  1  0  0  0  0
 34 39  1  0  0  0  0
 11 14  1  0  0  0  0
 11 15  1  0  0  0  0
 11 16  1  0  0  0  0
 41 43  1  0  0  0  0
 41 44  1  0  0  0  0
 41 45  1  0  0  0  0
 21 27  1  0  0  0  0
 21 28  1  0  0  0  0
 31 36  1  0  0  0  0
  8 13  1  0  0  0  0
 18 26  1  0  0  0  0
 40 42  1  0  0  0  0
  7 12  1  0  0  0  0
 30 35  1  0  0  0  0
 17 25  1  0  0  0  0
 24 29  1  0  0  0  0
M  END
$$$$

  -OEChem-05262214473D

 45 44  0     1  0  0  0  0  0999 V2000
   -2.2987    4.1032   -0.3022 C   0  0  0  0  0  0  0  0  0  0  0  0
   -1.8049    3.7117   -1.3532 O   0  0  0  0  0  0  0  0  0  0  0  0
   -3.0791    5.3755   -0.2846 C   0  0  0  0  0  0  0  0  0  0  0  0
   -2.4478    6.2532   -0.0717 H   0  0  0  0  0  0  0  0  0  0  0  0
   -3.5571    5.5891   -1.2541 H   0  0  0  0  0  0  0  0  0  0  0  0
   -3.8940    5.4184    0.4556 H   0  0  0  0  0  0  0  0  0  0  0  0
   -2.2137    3.4712    0.9275 N   0  0  0  0  0  0  0  0  0  0  0  0
   -1.5102    2.2327    1.1338 C   0  0  2  0  0  0  0  0  0  0  0  0
   -1.3539    1.5497   -0.2184 C   0  0  0  0  0  0  0  0  0  0  0  0
   -2.0852    1.7861   -1.1778 O   0  0  0  0  0  0  0  0  0  0  0  0
   -2.2477    1.3342    2.1145 C   0  0  0  0  0  0  0  0  0  0  0  0
   -2.6724    3.9052    1.7265 H   0  0  0  0  0  0  0  0  0  0  0  0
   -0.5220    2.4922    1.5290 H   0  0  0  0  0  0  0  0  0  0  0  0
   -3.2400    1.0636    1.7358 H   0  0  0  0  0  0  0  0  0  0  0  0
   -1.6970    0.4046    2.2923 H   0  0  0  0  0  0  0  0  0  0  0  0
   -2.3854    1.8384    3.0772 H   0  0  0  0  0  0  0  0  0  0  0  0
   -0.3283    0.6116   -0.2182 N   0  0  0  0  0  0  0  0  0  0  0  0
    0.0090   -0.1762   -1.3759 C   0  0  2  0  0  0  0  0  0  0  0  0
    1.4995   -0.4848   -1.3108 C   0  0  0  0  0  0  0  0  0  0  0  0
    2.3429    0.3511   -0.9929 O   0  0  0  0  0  0  0  0  0  0  0  0
   -0.3400    0.5425   -2.6765 C   0  0  0  0  0  0  0  0  0  0  0  0
   -1.8340    0.6506   -2.8583 C   0  0  0  0  0  0  0  0  0  0  0  0
   -2.6381   -0.1552   -2.4082 O   0  0  0  0  0  0  0  0  0  0  0  0
   -2.1926    1.7326   -3.5929 O   0  0  0  0  0  0  0  0  0  0  0  0
    0.2381    0.4970    0.6194 H   0  0  0  0  0  0  0  0  0  0  0  0
   -0.5525   -1.1137   -1.2835 H   0  0  0  0  0  0  0  0  0  0  0  0
    0.0513    1.5677   -2.6796 H   0  0  0  0  0  0  0  0  0  0  0  0
    0.1010    0.0551   -3.5544 H   0  0  0  0  0  0  0  0  0  0  0  0
   -3.1573    1.8298   -3.7433 H   0  0  0  0  0  0  0  0  0  0  0  0
    1.7715   -1.8141   -1.6027 N   0  0  0  0  0  0  0  0  0  0  0  0
    3.1102   -2.3560   -1.5930 C   0  0  2  0  0  0  0  0  0  0  0  0
    3.6126   -2.3427   -0.1554 C   0  0  0  0  0  0  0  0  0  0  0  0
    3.1546   -1.5977    0.7084 O   0  0  0  0  0  0  0  0  0  0  0  0
    4.0359   -1.5599   -2.4997 C   0  0  0  0  0  0  0  0  0  0  0  0
    0.9977   -2.4308   -1.8323 H   0  0  0  0  0  0  0  0  0  0  0  0
    3.0351   -3.3907   -1.9447 H   0  0  0  0  0  0  0  0  0  0  0  0
    4.1236   -0.5205   -2.1630 H   0  0  0  0  0  0  0  0  0  0  0  0
    5.0432   -1.9890   -2.5134 H   0  0  0  0  0  0  0  0  0  0  0  0
    3.6573   -1.5456   -3.5274 H   0  0  0  0  0  0  0  0  0  0  0  0
    4.6618   -3.2302    0.0390 N   0  0  0  0  0  0  0  0  0  0  0  0
    5.3189   -3.3931    1.3148 C   0  0  0  0  0  0  0  0  0  0  0  0
    4.9643   -3.8222   -0.7289 H   0  0  0  0  0  0  0  0  0  0  0  0
    6.1896   -2.7228    1.3676 H   0  0  0  0  0  0  0  0  0  0  0  0
    4.6158   -3.1451    2.1236 H   0  0  0  0  0  0  0  0  0  0  0  0
    5.6518   -4.4357    1.4252 H   0  0  0  0  0  0  0  0  0  0  0  0
  1  3  1  0  0  0  0
  1  7  1  0  0  0  0
  1  2  2  0  0  0  0
 31 32  1  0  0  0  0
 32 40  1  0  0  0  0
 32 33  2  0  0  0  0
  8  9  1  0  0  0  0
  9 17  1  0  0  0  0
  9 10  2  0  0  0  0
 18 19  1  0  0  0  0
 19 30  1  0  0  0  0
 19 20  2  0  0  0  0
 21 22  1  0  0  0  0
 22 23  2  0  0  0  0
 22 24  1  0  0  0  0
 31 34  1  0  0  0  0
  8 11  1  0  0  0  0
 40 41  1  0  0  0  0
 18 21  1  0  0  0  0
 30 31  1  0  0  0  0
  7  8  1  0  0  0  0
 17 18  1  0  0  0  0
  3  4  1  0  0  0  0
  3  5  1  0  0  0  0
  3  6  1  0  0  0  0
 34 37  1  0  0  0  0
 34 38  1  0  0  0  0
 34 39  1  0  0  0  0
 11 14  1  0  0  0  0
 11 15  1  0  0  0  0
 11 16  1  0  0  0  0
 41 43  1  0  0  0  0
 41 44  1  0  0  0  0
 41 45  1  0  0  0  0
 21 27  1  0  0  0  0
 21 28  1  0  0  0  0
 31 36  1  0  0  0  0
  8 13  1  0  0  0  0
 18 26  1  0  0  0  0
 40 42  1  0  0  0  0
  7 12  1  0  0  0  0
 30 35  1  0  0  0  0
 17 25  1  0  0  0  0
 24 29  1  0  0  0  0
M  END
$$$$

  -OEChem-05262214473D

 45 44  0     1  0  0  0  0  0999 V2000
   -2.2987    4.1032   -0.3022 C   0  0  0  0  0  0  0  0  0  0  0  0
   -1.8049    3.7117   -1.3532 O   0  0  0  0  0  0  0  0  0  0  0  0
   -3.0791    5.3755   -0.2846 C   0  0  0  0  0  0  0  0  0  0  0  0
   -2.4478    6.2532   -0.0717 H   0  0  0  0  0  0  0  0  0  0  0  0
   -3.5571    5.5891   -1.2541 H   0  0  0  0  0  0  0  0  0  0  0  0
   -3.8940    5.4184    0.4556 H   0  0  0  0  0  0  0  0  0  0  0  0
   -2.2137    3.4712    0.9275 N   0  0  0  0  0  0  0  0  0  0  0  0
   -1.5102    2.2327    1.1338 C   0  0  2  0  0  0  0  0  0  0  0  0
   -1.3539    1.5497   -0.2184 C   0  0  0  0  0  0  0  0  0  0  0  0
   -2.0852    1.7861   -1.1778 O   0  0  0  0  0  0  0  0  0  0  0  0
   -2.2477    1.3342    2.1145 C   0  0  0  0  0  0  0  0  0  0  0  0
   -2.6724    3.9052    1.7265 H   0  0  0  0  0  0  0  0  0  0  0  0
   -0.5220    2.4922    1.5290 H   0  0  0  0  0  0  0  0  0  0  0  0
   -3.2400    1.0636    1.7358 H   0  0  0  0  0  0  0  0  0  0  0  0
   -1.6970    0.4046    2.2923 H   0  0  0  0  0  0  0  0  0  0  0  0
   -2.3854    1.8384    3.0772 H   0  0  0  0  0  0  0  0  0  0  0  0
   -0.3283    0.6116   -0.2182 N   0  0  0  0  0  0  0  0  0  0  0  0
    0.0090   -0.1762   -1.3759 C   0  0  2  0  0  0  0  0  0  0  0  0
    1.4995   -0.4848   -1.3108 C   0  0  0  0  0  0  0  0  0  0  0  0
    2.3105    0.2468   -0.7469 O   0  0  0  0  0  0  0  0  0  0  0  0
   -0.3400    0.5425   -2.6765 C   0  0  0  0  0  0  0  0  0  0  0  0
   -1.8340    0.6506   -2.8583 C   0  0  0  0  0  0  0  0  0  0  0  0
   -2.6381   -0.1552   -2.4082 O   0  0  0  0  0  0  0  0  0  0  0  0
   -2.1926    1.7326   -3.5929 O   0  0  0  0  0  0  0  0  0  0  0  0
    0.2381    0.4970    0.6194 H   0  0  0  0  0  0  0  0  0  0  0  0
   -0.5525   -1.1137   -1.2835 H   0  0  0  0  0  0  0  0  0  0  0  0
    0.0513    1.5677   -2.6796 H   0  0  0  0  0  0  0  0  0  0  0  0
    0.1010    0.0551   -3.5544 H   0  0  0  0  0  0  0  0  0  0  0  0
   -3.1573    1.8298   -3.7433 H   0  0  0  0  0  0  0  0  0  0  0  0
    1.8096   -1.6955   -1.9143 N   0  0  0  0  0  0  0  0  0  0  0  0
    3.1555   -2.2164   -1.9700 C   0  0  2  0  0  0  0  0  0  0  0  0
    3.5837   -2.5659   -0.5508 C   0  0  0  0  0  0  0  0  0  0  0  0
    3.0690   -2.0661    0.4474 O   0  0  0  0  0  0  0  0  0  0  0  0
    4.1120   -1.2125   -2.5946 C   0  0  0  0  0  0  0  0  0  0  0  0
    1.0597   -2.2372   -2.3338 H   0  0  0  0  0  0  0  0  0  0  0  0
    3.1169   -3.1285   -2.5755 H   0  0  0  0  0  0  0  0  0  0  0  0
    4.1639   -0.2920   -2.0018 H   0  0  0  0  0  0  0  0  0  0  0  0
    5.1262   -1.6197   -2.6622 H   0  0  0  0  0  0  0  0  0  0  0  0
    3.7860   -0.9397   -3.6041 H   0  0  0  0  0  0  0  0  0  0  0  0
    4.6372   -3.4691   -0.5310 N   0  0  0  0  0  0  0  0  0  0  0  0
    5.2312   -3.9472    0.6956 C   0  0  0  0  0  0  0  0  0  0  0  0
    4.9889   -3.8458   -1.4063 H   0  0  0  0  0  0  0  0  0  0  0  0
    6.0860   -3.3086    0.9630 H   0  0  0  0  0  0  0  0  0  0  0  0
    4.4835   -3.9154    1.5017 H   0  0  0  0  0  0  0  0  0  0  0  0
    5.5765   -4.9823    0.5565 H   0  0  0  0  0  0  0  0  0  0  0  0
  1  3  1  0  0  0  0
  1  7  1  0  0  0  0
  1  2  2  0  0  0  0
 31 32  1  0  0  0  0
 32 40  1  0  0  0  0
 32 33  2  0  0  0  0
  8  9  1  0  0  0  0
  9 17  1  0  0  0  0
  9 10  2  0  0  0  0
 18 19  1  0  0  0  0
 19 30  1  0  0  0  0
 19 20  2  0  0  0  0
 21 22  1  0  0  0  0
 22 23  2  0  0  0  0
 22 24  1  0  0  0  0
 31 34  1  0  0  0  0
  8 11  1  0  0  0  0
 40 41  1  0  0  0  0
 18 21  1  0  0  0  0
 30 31  1  0  0  0  0
  7  8  1  0  0  0  0
 17 18  1  0  0  0  0
  3  4  1  0  0  0  0
  3  5  1  0  0  0  0
  3  6  1  0  0  0  0
 34 37  1  0  0  0  0
 34 38  1  0  0  0  0
 34 39  1  0  0  0  0
 11 14  1  0  0  0  0
 11 15  1  0  0  0  0
 11 16  1  0  0  0  0
 41 43  1  0  0  0  0
 41 44  1  0  0  0  0
 41 45  1  0  0  0  0
 21 27  1  0  0  0  0
 21 28  1  0  0  0  0
 31 36  1  0  0  0  0
  8 13  1  0  0  0  0
 18 26  1  0  0  0  0
 40 42  1  0  0  0  0
  7 12  1  0  0  0  0
 30 35  1  0  0  0  0
 17 25  1  0  0  0  0
 24 29  1  0  0  0  0
M  END
$$$$

  -OEChem-05262214473D

 45 44  0     1  0  0  0  0  0999 V2000
   -2.2987    4.1032   -0.3022 C   0  0  0  0  0  0  0  0  0  0  0  0
   -1.8049    3.7117   -1.3532 O   0  0  0  0  0  0  0  0  0  0  0  0
   -3.0791    5.3755   -0.2846 C   0  0  0  0  0  0  0  0  0  0  0  0
   -2.4478    6.2532   -0.0717 H   0  0  0  0  0  0  0  0  0  0  0  0
   -3.5571    5.5891   -1.2541 H   0  0  0  0  0  0  0  0  0  0  0  0
   -3.8940    5.4184    0.4556 H   0  0  0  0  0  0  0  0  0  0  0  0
   -2.2137    3.4712    0.9275 N   0  0  0  0  0  0  0  0  0  0  0  0
   -1.5102    2.2327    1.1338 C   0  0  2  0  0  0  0  0  0  0  0  0
   -1.3539    1.5497   -0.2184 C   0  0  0  0  0  0  0  0  0  0  0  0
   -2.0852    1.7861   -1.1778 O   0  0  0  0  0  0  0  0  0  0  0  0
   -2.2477    1.3342    2.1145 C   0  0  0  0  0  0  0  0  0  0  0  0
   -2.6724    3.9052    1.7265 H   0  0  0  0  0  0  0  0  0  0  0  0
   -0.5220    2.4922    1.5290 H   0  0  0  0  0  0  0  0  0  0  0  0
   -3.2400    1.0636    1.7358 H   0  0  0  0  0  0  0  0  0  0  0  0
   -1.6970    0.4046    2.2923 H   0  0  0  0  0  0  0  0  0  0  0  0
   -2.3854    1.8384    3.0772 H   0  0  0  0  0  0  0  0  0  0  0  0
   -0.3283    0.6116   -0.2182 N   0  0  0  0  0  0  0  0  0  0  0  0
    0.0090   -0.1762   -1.3759 C   0  0  2  0  0  0  0  0  0  0  0  0
    1.4995   -0.4848   -1.3108 C   0  0  0  0  0  0  0  0  0  0  0  0
    2.2676    0.0835   -0.5373 O   0  0  0  0  0  0  0  0  0  0  0  0
   -0.3400    0.5425   -2.6765 C   0  0  0  0  0  0  0  0  0  0  0  0
   -1.8340    0.6506   -2.8583 C   0  0  0  0  0  0  0  0  0  0  0  0
   -2.6381   -0.1552   -2.4082 O   0  0  0  0  0  0  0  0  0  0  0  0
   -2.1926    1.7326   -3.5929 O   0  0  0  0  0  0  0  0  0  0  0  0
    0.2381    0.4970    0.6194 H   0  0  0  0  0  0  0  0  0  0  0  0
   -0.5525   -1.1137   -1.2835 H   0  0  0  0  0  0  0  0  0  0  0  0
    0.0513    1.5677   -2.6796 H   0  0  0  0  0  0  0  0  0  0  0  0
    0.1010    0.0551   -3.5544 H   0  0  0  0  0  0  0  0  0  0  0  0
   -3.1573    1.8298   -3.7433 H   0  0  0  0  0  0  0  0  0  0  0  0
    1.8615   -1.5016   -2.1833 N   0  0  0  0  0  0  0  0  0  0  0  0
    3.2176   -1.9856   -2.2963 C   0  0  2  0  0  0  0  0  0  0  0  0
    3.5789   -2.6816   -0.9907 C   0  0  0  0  0  0  0  0  0  0  0  0
    3.0052   -2.4534    0.0722 O   0  0  0  0  0  0  0  0  0  0  0  0
    4.1866   -0.8520   -2.5943 C   0  0  0  0  0  0  0  0  0  0  0  0
    1.1437   -1.9225   -2.7659 H   0  0  0  0  0  0  0  0  0  0  0  0
    3.2261   -2.7145   -3.1140 H   0  0  0  0  0  0  0  0  0  0  0  0
    4.1918   -0.1116   -1.7860 H   0  0  0  0  0  0  0  0  0  0  0  0
    5.2100   -1.2245   -2.7080 H   0  0  0  0  0  0  0  0  0  0  0  0
    3.9077   -0.3336   -3.5180 H   0  0  0  0  0  0  0  0  0  0  0  0
    4.6460   -3.5558   -1.1433 N   0  0  0  0  0  0  0  0  0  0  0  0
    5.1851   -4.3267   -0.0474 C   0  0  0  0  0  0  0  0  0  0  0  0
    5.0486   -3.6968   -2.0652 H   0  0  0  0  0  0  0  0  0  0  0  0
    6.0136   -3.7730    0.4185 H   0  0  0  0  0  0  0  0  0  0  0  0
    4.3968   -4.5035    0.6991 H   0  0  0  0  0  0  0  0  0  0  0  0
    5.5554   -5.2912   -0.4250 H   0  0  0  0  0  0  0  0  0  0  0  0
  1  3  1  0  0  0  0
  1  7  1  0  0  0  0
  1  2  2  0  0  0  0
 31 32  1  0  0  0  0
 32 40  1  0  0  0  0
 32 33  2  0  0  0  0
  8  9  1  0  0  0  0
  9 17  1  0  0  0  0
  9 10  2  0  0  0  0
 18 19  1  0  0  0  0
 19 30  1  0  0  0  0
 19 20  2  0  0  0  0
 21 22  1  0  0  0  0
 22 23  2  0  0  0  0
 22 24  1  0  0  0  0
 31 34  1  0  0  0  0
  8 11  1  0  0  0  0
 40 41  1  0  0  0  0
 18 21  1  0  0  0  0
 30 31  1  0  0  0  0
  7  8  1  0  0  0  0
 17 18  1  0  0  0  0
  3  4  1  0  0  0  0
  3  5  1  0  0  0  0
  3  6  1  0  0  0  0
 34 37  1  0  0  0  0
 34 38  1  0  0  0  0
 34 39  1  0  0  0  0
 11 14  1  0  0  0  0
 11 15  1  0  0  0  0
 11 16  1  0  0  0  0
 41 43  1  0  0  0  0
 41 44  1  0  0  0  0
 41 45  1  0  0  0  0
 21 27  1  0  0  0  0
 21 28  1  0  0  0  0
 31 36  1  0  0  0  0
  8 13  1  0  0  0  0
 18 26  1  0  0  0  0
 40 42  1  0  0  0  0
  7 12  1  0  0  0  0
 30 35  1  0  0  0  0
 17 25  1  0  0  0  0
 24 29  1  0  0  0  0
M  END
$$$$

  -OEChem-05262214473D

 45 44  0     1  0  0  0  0  0999 V2000
   -2.2987    4.1032   -0.3022 C   0  0  0  0  0  0  0  0  0  0  0  0
   -1.8049    3.7117   -1.3532 O   0  0  0  0  0  0  0  0  0  0  0  0
   -3.0791    5.3755   -0.2846 C   0  0  0  0  0  0  0  0  0  0  0  0
   -2.4478    6.2532   -0.0717 H   0  0  0  0  0  0  0  0  0  0  0  0
   -3.5571    5.5891   -1.2541 H   0  0  0  0  0  0  0  0  0  0  0  0
   -3.8940    5.4184    0.4556 H   0  0  0  0  0  0  0  0  0  0  0  0
   -2.2137    3.4712    0.9275 N   0  0  0  0  0  0  0  0  0  0  0  0
   -1.5102    2.2327    1.1338 C   0  0  2  0  0  0  0  0  0  0  0  0
   -1.3539    1.5497   -0.2184 C   0  0  0  0  0  0  0  0  0  0  0  0
   -2.0852    1.7861   -1.1778 O   0  0  0  0  0  0  0  0  0  0  0  0
   -2.2477    1.3342    2.1145 C   0  0  0  0  0  0  0  0  0  0  0  0
   -2.6724    3.9052    1.7265 H   0  0  0  0  0  0  0  0  0  0  0  0
   -0.5220    2.4922    1.5290 H   0  0  0  0  0  0  0  0  0  0  0  0
   -3.2400    1.0636    1.7358 H   0  0  0  0  0  0  0  0  0  0  0  0
   -1.6970    0.4046    2.2923 H   0  0  0  0  0  0  0  0  0  0  0  0
   -2.3854    1.8384    3.0772 H   0  0  0  0  0  0  0  0  0  0  0  0
   -0.3283    0.6116   -0.2182 N   0  0  0  0  0  0  0  0  0  0  0  0
    0.0090   -0.1762   -1.3759 C   0  0  2  0  0  0  0  0  0  0  0  0
    1.3790   -0.7970   -1.1335 C   0  0  0  0  0  0  0  0  0  0  0  0
    2.0080   -0.6435   -0.0885 O   0  0  0  0  0  0  0  0  0  0  0  0
    0.0101    0.6588   -2.6536 C   0  0  0  0  0  0  0  0  0  0  0  0
   -1.3869    1.0900   -3.0270 C   0  0  0  0  0  0  0  0  0  0  0  0
   -2.3958    0.4536   -2.7519 O   0  0  0  0  0  0  0  0  0  0  0  0
   -1.4049    2.2557   -3.7194 O   0  0  0  0  0  0  0  0  0  0  0  0
    0.2381    0.4970    0.6194 H   0  0  0  0  0  0  0  0  0  0  0  0
   -0.7390   -0.9763   -1.4314 H   0  0  0  0  0  0  0  0  0  0  0  0
    0.5980    1.5766   -2.5264 H   0  0  0  0  0  0  0  0  0  0  0  0
    0.4676    0.1294   -3.4982 H   0  0  0  0  0  0  0  0  0  0  0  0
   -2.2964    2.5623   -3.9911 H   0  0  0  0  0  0  0  0  0  0  0  0
    1.7944   -1.5804   -2.2011 N   0  0  0  0  0  0  0  0  0  0  0  0
    3.0539   -2.2871   -2.2056 C   0  0  2  0  0  0  0  0  0  0  0  0
    2.9830   -3.3814   -1.1487 C   0  0  0  0  0  0  0  0  0  0  0  0
    2.2058   -3.3454   -0.1969 O   0  0  0  0  0  0  0  0  0  0  0  0
    4.2175   -1.3458   -1.9361 C   0  0  0  0  0  0  0  0  0  0  0  0
    1.1880   -1.6601   -3.0121 H   0  0  0  0  0  0  0  0  0  0  0  0
    3.1578   -2.7421   -3.1967 H   0  0  0  0  0  0  0  0  0  0  0  0
    4.1308   -0.8804   -0.9475 H   0  0  0  0  0  0  0  0  0  0  0  0
    5.1740   -1.8779   -1.9682 H   0  0  0  0  0  0  0  0  0  0  0  0
    4.2492   -0.5424   -2.6800 H   0  0  0  0  0  0  0  0  0  0  0  0
    3.9194   -4.3817   -1.3694 N   0  0  0  0  0  0  0  0  0  0  0  0
    4.0595   -5.5246   -0.4976 C   0  0  0  0  0  0  0  0  0  0  0  0
    4.5104   -4.3396   -2.1945 H   0  0  0  0  0  0  0  0  0  0  0  0
    4.8195   -5.3111    0.2685 H   0  0  0  0  0  0  0  0  0  0  0  0
    3.0960   -5.7339   -0.0099 H   0  0  0  0  0  0  0  0  0  0  0  0
    4.3696   -6.3997   -1.0875 H   0  0  0  0  0  0  0  0  0  0  0  0
  1  3  1  0  0  0  0
  1  7  1  0  0  0  0
  1  2  2  0  0  0  0
 31 32  1  0  0  0  0
 32 40  1  0  0  0  0
 32 33  2  0  0  0  0
  8  9  1  0  0  0  0
  9 17  1  0  0  0  0
  9 10  2  0  0  0  0
 18 19  1  0  0  0  0
 19 30  1  0  0  0  0
 19 20  2  0  0  0  0
 21 22  1  0  0  0  0
 22 23  2  0  0  0  0
 22 24  1  0  0  0  0
 31 34  1  0  0  0  0
  8 11  1  0  0  0  0
 40 41  1  0  0  0  0
 18 21  1  0  0  0  0
 30 31  1  0  0  0  0
  7  8  1  0  0  0  0
 17 18  1  0  0  0  0
  3  4  1  0  0  0  0
  3  5  1  0  0  0  0
  3  6  1  0  0  0  0
 34 37  1  0  0  0  0
 34 38  1  0  0  0  0
 34 39  1  0  0  0  0
 11 14  1  0  0  0  0
 11 15  1  0  0  0  0
 11 16  1  0  0  0  0
 41 43  1  0  0  0  0
 41 44  1  0  0  0  0
 41 45  1  0  0  0  0
 21 27  1  0  0  0  0
 21 28  1  0  0  0  0
 31 36  1  0  0  0  0
  8 13  1  0  0  0  0
 18 26  1  0  0  0  0
 40 42  1  0  0  0  0
  7 12  1  0  0  0  0
 30 35  1  0  0  0  0
 17 25  1  0  0  0  0
 24 29  1  0  0  0  0
M  END
$$$$

  -OEChem-05262214473D

 45 44  0     1  0  0  0  0  0999 V2000
   -2.2987    4.1032   -0.3022 C   0  0  0  0  0  0  0  0  0  0  0  0
   -1.8049    3.7117   -1.3532 O   0  0  0  0  0  0  0  0  0  0  0  0
   -3.0791    5.3755   -0.2846 C   0  0  0  0  0  0  0  0  0  0  0  0
   -2.4478    6.2532   -0.0717 H   0  0  0  0  0  0  0  0  0  0  0  0
   -3.5571    5.5891   -1.2541 H   0  0  0  0  0  0  0  0  0  0  0  0
   -3.8940    5.4184    0.4556 H   0  0  0  0  0  0  0  0  0  0  0  0
   -2.2137    3.4712    0.9275 N   0  0  0  0  0  0  0  0  0  0  0  0
   -1.5102    2.2327    1.1338 C   0  0  2  0  0  0  0  0  0  0  0  0
   -1.3539    1.5497   -0.2184 C   0  0  0  0  0  0  0  0  0  0  0  0
   -2.0852    1.7861   -1.1778 O   0  0  0  0  0  0  0  0  0  0  0  0
   -2.2477    1.3342    2.1145 C   0  0  0  0  0  0  0  0  0  0  0  0
   -2.6724    3.9052    1.7265 H   0  0  0  0  0  0  0  0  0  0  0  0
   -0.5220    2.4922    1.5290 H   0  0  0  0  0  0  0  0  0  0  0  0
   -3.2400    1.0636    1.7358 H   0  0  0  0  0  0  0  0  0  0  0  0
   -1.6970    0.4046    2.2923 H   0  0  0  0  0  0  0  0  0  0  0  0
   -2.3854    1.8384    3.0772 H   0  0  0  0  0  0  0  0  0  0  0  0
   -0.3283    0.6116   -0.2182 N   0  0  0  0  0  0  0  0  0  0  0  0
    0.0090   -0.1762   -1.3759 C   0  0  2  0  0  0  0  0  0  0  0  0
    1.3790   -0.7970   -1.1335 C   0  0  0  0  0  0  0  0  0  0  0  0
    1.8906   -0.8753   -0.0184 O   0  0  0  0  0  0  0  0  0  0  0  0
    0.0101    0.6588   -2.6536 C   0  0  0  0  0  0  0  0  0  0  0  0
   -1.3869    1.0900   -3.0270 C   0  0  0  0  0  0  0  0  0  0  0  0
   -2.3958    0.4536   -2.7519 O   0  0  0  0  0  0  0  0  0  0  0  0
   -1.4049    2.2557   -3.7194 O   0  0  0  0  0  0  0  0  0  0  0  0
    0.2381    0.4970    0.6194 H   0  0  0  0  0  0  0  0  0  0  0  0
   -0.7390   -0.9763   -1.4314 H   0  0  0  0  0  0  0  0  0  0  0  0
    0.5980    1.5766   -2.5264 H   0  0  0  0  0  0  0  0  0  0  0  0
    0.4676    0.1294   -3.4982 H   0  0  0  0  0  0  0  0  0  0  0  0
   -2.2964    2.5623   -3.9911 H   0  0  0  0  0  0  0  0  0  0  0  0
    1.9411   -1.2954   -2.3004 N   0  0  0  0  0  0  0  0  0  0  0  0
    3.2308   -1.9448   -2.3287 C   0  0  2  0  0  0  0  0  0  0  0  0
    3.1128   -3.2584   -1.5670 C   0  0  0  0  0  0  0  0  0  0  0  0
    2.2430   -3.4693   -0.7243 O   0  0  0  0  0  0  0  0  0  0  0  0
    4.3092   -1.0601   -1.7228 C   0  0  0  0  0  0  0  0  0  0  0  0
    1.4245   -1.1996   -3.1698 H   0  0  0  0  0  0  0  0  0  0  0  0
    3.4581   -2.1510   -3.3803 H   0  0  0  0  0  0  0  0  0  0  0  0
    4.0986   -0.8428   -0.6693 H   0  0  0  0  0  0  0  0  0  0  0  0
    5.2912   -1.5422   -1.7709 H   0  0  0  0  0  0  0  0  0  0  0  0
    4.3723   -0.1039   -2.2533 H   0  0  0  0  0  0  0  0  0  0  0  0
    4.1190   -4.1515   -1.9077 N   0  0  0  0  0  0  0  0  0  0  0  0
    4.2318   -5.4627   -1.3129 C   0  0  0  0  0  0  0  0  0  0  0  0
    4.7868   -3.8998   -2.6305 H   0  0  0  0  0  0  0  0  0  0  0  0
    4.8983   -5.4135   -0.4392 H   0  0  0  0  0  0  0  0  0  0  0  0
    3.2368   -5.8083   -0.9959 H   0  0  0  0  0  0  0  0  0  0  0  0
    4.6461   -6.1655   -2.0508 H   0  0  0  0  0  0  0  0  0  0  0  0
  1  3  1  0  0  0  0
  1  7  1  0  0  0  0
  1  2  2  0  0  0  0
 31 32  1  0  0  0  0
 32 40  1  0  0  0  0
 32 33  2  0  0  0  0
  8  9  1  0  0  0  0
  9 17  1  0  0  0  0
  9 10  2  0  0  0  0
 18 19  1  0  0  0  0
 19 30  1  0  0  0  0
 19 20  2  0  0  0  0
 21 22  1  0  0  0  0
 22 23  2  0  0  0  0
 22 24  1  0  0  0  0
 31 34  1  0  0  0  0
  8 11  1  0  0  0  0
 40 41  1  0  0  0  0
 18 21  1  0  0  0  0
 30 31  1  0  0  0  0
  7  8  1  0  0  0  0
 17 18  1  0  0  0  0
  3  4  1  0  0  0  0
  3  5  1  0  0  0  0
  3  6  1  0  0  0  0
 34 37  1  0  0  0  0
 34 38  1  0  0  0  0
 34 39  1  0  0  0  0
 11 14  1  0  0  0  0
 11 15  1  0  0  0  0
 11 16  1  0  0  0  0
 41 43  1  0  0  0  0
 41 44  1  0  0  0  0
 41 45  1  0  0  0  0
 21 27  1  0  0  0  0
 21 28  1  0  0  0  0
 31 36  1  0  0  0  0
  8 13  1  0  0  0  0
 18 26  1  0  0  0  0
 40 42  1  0  0  0  0
  7 12  1  0  0  0  0
 30 35  1  0  0  0  0
 17 25  1  0  0  0  0
 24 29  1  0  0  0  0
M  END
$$$$

  -OEChem-05262214473D

 45 44  0     1  0  0  0  0  0999 V2000
   -2.2987    4.1032   -0.3022 C   0  0  0  0  0  0  0  0  0  0  0  0
   -1.8049    3.7117   -1.3532 O   0  0  0  0  0  0  0  0  0  0  0  0
   -3.0791    5.3755   -0.2846 C   0  0  0  0  0  0  0  0  0  0  0  0
   -2.4478    6.2532   -0.0717 H   0  0  0  0  0  0  0  0  0  0  0  0
   -3.5571    5.5891   -1.2541 H   0  0  0  0  0  0  0  0  0  0  0  0
   -3.8940    5.4184    0.4556 H   0  0  0  0  0  0  0  0  0  0  0  0
   -2.2137    3.4712    0.9275 N   0  0  0  0  0  0  0  0  0  0  0  0
   -1.5102    2.2327    1.1338 C   0  0  2  0  0  0  0  0  0  0  0  0
   -1.3539    1.5497   -0.2184 C   0  0  0  0  0  0  0  0  0  0  0  0
   -2.0852    1.7861   -1.1778 O   0  0  0  0  0  0  0  0  0  0  0  0
   -2.2477    1.3342    2.1145 C   0  0  0  0  0  0  0  0  0  0  0  0
   -2.6724    3.9052    1.7265 H   0  0  0  0  0  0  0  0  0  0  0  0
   -0.5220    2.4922    1.5290 H   0  0  0  0  0  0  0  0  0  0  0  0
   -3.2400    1.0636    1.7358 H   0  0  0  0  0  0  0  0  0  0  0  0
   -1.6970    0.4046    2.2923 H   0  0  0  0  0  0  0  0  0  0  0  0
   -2.3854    1.8384    3.0772 H   0  0  0  0  0  0  0  0  0  0  0  0
   -0.3283    0.6116   -0.2182 N   0  0  0  0  0  0  0  0  0  0  0  0
    0.0090   -0.1762   -1.3759 C   0  0  2  0  0  0  0  0  0  0  0  0
    1.3790   -0.7970   -1.1335 C   0  0  0  0  0  0  0  0  0  0  0  0
    1.7793   -1.1204   -0.0171 O   0  0  0  0  0  0  0  0  0  0  0  0
    0.0101    0.6588   -2.6536 C   0  0  0  0  0  0  0  0  0  0  0  0
   -1.3869    1.0900   -3.0270 C   0  0  0  0  0  0  0  0  0  0  0  0
   -2.3958    0.4536   -2.7519 O   0  0  0  0  0  0  0  0  0  0  0  0
   -1.4049    2.2557   -3.7194 O   0  0  0  0  0  0  0  0  0  0  0  0
    0.2381    0.4970    0.6194 H   0  0  0  0  0  0  0  0  0  0  0  0
   -0.7390   -0.9763   -1.4314 H   0  0  0  0  0  0  0  0  0  0  0  0
    0.5980    1.5766   -2.5264 H   0  0  0  0  0  0  0  0  0  0  0  0
    0.4676    0.1294   -3.4982 H   0  0  0  0  0  0  0  0  0  0  0  0
   -2.2964    2.5623   -3.9911 H   0  0  0  0  0  0  0  0  0  0  0  0
    2.0815   -0.9909   -2.3146 N   0  0  0  0  0  0  0  0  0  0  0  0
    3.4005   -1.5782   -2.3493 C   0  0  2  0  0  0  0  0  0  0  0  0
    3.2772   -3.0368   -1.9287 C   0  0  0  0  0  0  0  0  0  0  0  0
    2.3396   -3.4647   -1.2587 O   0  0  0  0  0  0  0  0  0  0  0  0
    4.3635   -0.8301   -1.4407 C   0  0  0  0  0  0  0  0  0  0  0  0
    1.6506   -0.7084   -3.1899 H   0  0  0  0  0  0  0  0  0  0  0  0
    3.7432   -1.5249   -3.3885 H   0  0  0  0  0  0  0  0  0  0  0  0
    4.0367   -0.8725   -0.3953 H   0  0  0  0  0  0  0  0  0  0  0  0
    5.3698   -1.2590   -1.4899 H   0  0  0  0  0  0  0  0  0  0  0  0
    4.4283    0.2254   -1.7261 H   0  0  0  0  0  0  0  0  0  0  0  0
    4.3590   -3.7956   -2.3530 N   0  0  0  0  0  0  0  0  0  0  0  0
    4.4816   -5.2061   -2.0678 C   0  0  0  0  0  0  0  0  0  0  0  0
    5.0817   -3.3621   -2.9201 H   0  0  0  0  0  0  0  0  0  0  0  0
    5.0532   -5.3445   -1.1382 H   0  0  0  0  0  0  0  0  0  0  0  0
    3.4797   -5.6449   -1.9508 H   0  0  0  0  0  0  0  0  0  0  0  0
    5.0052   -5.7037   -2.8975 H   0  0  0  0  0  0  0  0  0  0  0  0
  1  3  1  0  0  0  0
  1  7  1  0  0  0  0
  1  2  2  0  0  0  0
 31 32  1  0  0  0  0
 32 40  1  0  0  0  0
 32 33  2  0  0  0  0
  8  9  1  0  0  0  0
  9 17  1  0  0  0  0
  9 10  2  0  0  0  0
 18 19  1  0  0  0  0
 19 30  1  0  0  0  0
 19 20  2  0  0  0  0
 21 22  1  0  0  0  0
 22 23  2  0  0  0  0
 22 24  1  0  0  0  0
 31 34  1  0  0  0  0
  8 11  1  0  0  0  0
 40 41  1  0  0  0  0
 18 21  1  0  0  0  0
 30 31  1  0  0  0  0
  7  8  1  0  0  0  0
 17 18  1  0  0  0  0
  3  4  1  0  0  0  0
  3  5  1  0  0  0  0
  3  6  1  0  0  0  0
 34 37  1  0  0  0  0
 34 38  1  0  0  0  0
 34 39  1  0  0  0  0
 11 14  1  0  0  0  0
 11 15  1  0  0  0  0
 11 16  1  0  0  0  0
 41 43  1  0  0  0  0
 41 44  1  0  0  0  0
 41 45  1  0  0  0  0
 21 27  1  0  0  0  0
 21 28  1  0  0  0  0
 31 36  1  0  0  0  0
  8 13  1  0  0  0  0
 18 26  1  0  0  0  0
 40 42  1  0  0  0  0
  7 12  1  0  0  0  0
 30 35  1  0  0  0  0
 17 25  1  0  0  0  0
 24 29  1  0  0  0  0
M  END
$$$$

  -OEChem-05262214473D

 45 44  0     1  0  0  0  0  0999 V2000
   -2.2987    4.1032   -0.3022 C   0  0  0  0  0  0  0  0  0  0  0  0
   -1.8049    3.7117   -1.3532 O   0  0  0  0  0  0  0  0  0  0  0  0
   -3.0791    5.3755   -0.2846 C   0  0  0  0  0  0  0  0  0  0  0  0
   -2.4478    6.2532   -0.0717 H   0  0  0  0  0  0  0  0  0  0  0  0
   -3.5571    5.5891   -1.2541 H   0  0  0  0  0  0  0  0  0  0  0  0
   -3.8940    5.4184    0.4556 H   0  0  0  0  0  0  0  0  0  0  0  0
   -2.2137    3.4712    0.9275 N   0  0  0  0  0  0  0  0  0  0  0  0
   -1.5102    2.2327    1.1338 C   0  0  2  0  0  0  0  0  0  0  0  0
   -1.3539    1.5497   -0.2184 C   0  0  0  0  0  0  0  0  0  0  0  0
   -2.0852    1.7861   -1.1778 O   0  0  0  0  0  0  0  0  0  0  0  0
   -2.2477    1.3342    2.1145 C   0  0  0  0  0  0  0  0  0  0  0  0
   -2.6724    3.9052    1.7265 H   0  0  0  0  0  0  0  0  0  0  0  0
   -0.5220    2.4922    1.5290 H   0  0  0  0  0  0  0  0  0  0  0  0
   -3.2400    1.0636    1.7358 H   0  0  0  0  0  0  0  0  0  0  0  0
   -1.6970    0.4046    2.2923 H   0  0  0  0  0  0  0  0  0  0  0  0
   -2.3854    1.8384    3.0772 H   0  0  0  0  0  0  0  0  0  0  0  0
   -0.3283    0.6116   -0.2182 N   0  0  0  0  0  0  0  0  0  0  0  0
    0.0090   -0.1762   -1.3759 C   0  0  2  0  0  0  0  0  0  0  0  0
    1.3790   -0.7970   -1.1335 C   0  0  0  0  0  0  0  0  0  0  0  0
    1.6818   -1.3620   -0.0845 O   0  0  0  0  0  0  0  0  0  0  0  0
    0.0101    0.6588   -2.6536 C   0  0  0  0  0  0  0  0  0  0  0  0
   -1.3869    1.0900   -3.0270 C   0  0  0  0  0  0  0  0  0  0  0  0
   -2.3958    0.4536   -2.7519 O   0  0  0  0  0  0  0  0  0  0  0  0
   -1.4049    2.2557   -3.7194 O   0  0  0  0  0  0  0  0  0  0  0  0
    0.2381    0.4970    0.6194 H   0  0  0  0  0  0  0  0  0  0  0  0
   -0.7390   -0.9763   -1.4314 H   0  0  0  0  0  0  0  0  0  0  0  0
    0.5980    1.5766   -2.5264 H   0  0  0  0  0  0  0  0  0  0  0  0
    0.4676    0.1294   -3.4982 H   0  0  0  0  0  0  0  0  0  0  0  0
   -2.2964    2.5623   -3.9911 H   0  0  0  0  0  0  0  0  0  0  0  0
    2.2061   -0.6878   -2.2425 N   0  0  0  0  0  0  0  0  0  0  0  0
    3.5516   -1.2124   -2.2660 C   0  0  2  0  0  0  0  0  0  0  0  0
    3.4650   -2.7318   -2.2093 C   0  0  0  0  0  0  0  0  0  0  0  0
    2.4891   -3.3319   -1.7635 O   0  0  0  0  0  0  0  0  0  0  0  0
    4.3767   -0.6714   -1.1088 C   0  0  0  0  0  0  0  0  0  0  0  0
    1.8509   -0.2200   -3.0713 H   0  0  0  0  0  0  0  0  0  0  0  0
    3.9936   -0.9066   -3.2206 H   0  0  0  0  0  0  0  0  0  0  0  0
    3.9491   -0.9675   -0.1440 H   0  0  0  0  0  0  0  0  0  0  0  0
    5.4044   -1.0476   -1.1443 H   0  0  0  0  0  0  0  0  0  0  0  0
    4.4131    0.4231   -1.1343 H   0  0  0  0  0  0  0  0  0  0  0  0
    4.6231   -3.3383   -2.6750 N   0  0  0  0  0  0  0  0  0  0  0  0
    4.7920   -4.7723   -2.7110 C   0  0  0  0  0  0  0  0  0  0  0  0
    5.3749   -2.7632   -3.0436 H   0  0  0  0  0  0  0  0  0  0  0  0
    5.2738   -5.1087   -1.7811 H   0  0  0  0  0  0  0  0  0  0  0  0
    3.8084   -5.2548   -2.8095 H   0  0  0  0  0  0  0  0  0  0  0  0
    5.4223   -5.0457   -3.5700 H   0  0  0  0  0  0  0  0  0  0  0  0
  1  3  1  0  0  0  0
  1  7  1  0  0  0  0
  1  2  2  0  0  0  0
 31 32  1  0  0  0  0
 32 40  1  0  0  0  0
 32 33  2  0  0  0  0
  8  9  1  0  0  0  0
  9 17  1  0  0  0  0
  9 10  2  0  0  0  0
 18 19  1  0  0  0  0
 19 30  1  0  0  0  0
 19 20  2  0  0  0  0
 21 22  1  0  0  0  0
 22 23  2  0  0  0  0
 22 24  1  0  0  0  0
 31 34  1  0  0  0  0
  8 11  1  0  0  0  0
 40 41  1  0  0  0  0
 18 21  1  0  0  0  0
 30 31  1  0  0  0  0
  7  8  1  0  0  0  0
 17 18  1  0  0  0  0
  3  4  1  0  0  0  0
  3  5  1  0  0  0  0
  3  6  1  0  0  0  0
 34 37  1  0  0  0  0
 34 38  1  0  0  0  0
 34 39  1  0  0  0  0
 11 14  1  0  0  0  0
 11 15  1  0  0  0  0
 11 16  1  0  0  0  0
 41 43  1  0  0  0  0
 41 44  1  0  0  0  0
 41 45  1  0  0  0  0
 21 27  1  0  0  0  0
 21 28  1  0  0  0  0
 31 36  1  0  0  0  0
  8 13  1  0  0  0  0
 18 26  1  0  0  0  0
 40 42  1  0  0  0  0
  7 12  1  0  0  0  0
 30 35  1  0  0  0  0
 17 25  1  0  0  0  0
 24 29  1  0  0  0  0
M  END
$$$$

  -OEChem-05262214473D

 45 44  0     1  0  0  0  0  0999 V2000
   -2.2987    4.1032   -0.3022 C   0  0  0  0  0  0  0  0  0  0  0  0
   -1.8049    3.7117   -1.3532 O   0  0  0  0  0  0  0  0  0  0  0  0
   -3.0791    5.3755   -0.2846 C   0  0  0  0  0  0  0  0  0  0  0  0
   -2.4478    6.2532   -0.0717 H   0  0  0  0  0  0  0  0  0  0  0  0
   -3.5571    5.5891   -1.2541 H   0  0  0  0  0  0  0  0  0  0  0  0
   -3.8940    5.4184    0.4556 H   0  0  0  0  0  0  0  0  0  0  0  0
   -2.2137    3.4712    0.9275 N   0  0  0  0  0  0  0  0  0  0  0  0
   -1.5102    2.2327    1.1338 C   0  0  2  0  0  0  0  0  0  0  0  0
   -1.3539    1.5497   -0.2184 C   0  0  0  0  0  0  0  0  0  0  0  0
   -2.0852    1.7861   -1.1778 O   0  0  0  0  0  0  0  0  0  0  0  0
   -2.2477    1.3342    2.1145 C   0  0  0  0  0  0  0  0  0  0  0  0
   -2.6724    3.9052    1.7265 H   0  0  0  0  0  0  0  0  0  0  0  0
   -0.5220    2.4922    1.5290 H   0  0  0  0  0  0  0  0  0  0  0  0
   -3.2400    1.0636    1.7358 H   0  0  0  0  0  0  0  0  0  0  0  0
   -1.6970    0.4046    2.2923 H   0  0  0  0  0  0  0  0  0  0  0  0
   -2.3854    1.8384    3.0772 H   0  0  0  0  0  0  0  0  0  0  0  0
   -0.3283    0.6116   -0.2182 N   0  0  0  0  0  0  0  0  0  0  0  0
    0.0090   -0.1762   -1.3759 C   0  0  2  0  0  0  0  0  0  0  0  0
    1.3790   -0.7970   -1.1335 C   0  0  0  0  0  0  0  0  0  0  0  0
    1.6046   -1.5837   -0.2162 O   0  0  0  0  0  0  0  0  0  0  0  0
    0.0101    0.6588   -2.6536 C   0  0  0  0  0  0  0  0  0  0  0  0
   -1.3869    1.0900   -3.0270 C   0  0  0  0  0  0  0  0  0  0  0  0
   -2.3958    0.4536   -2.7519 O   0  0  0  0  0  0  0  0  0  0  0  0
   -1.4049    2.2557   -3.7194 O   0  0  0  0  0  0  0  0  0  0  0  0
    0.2381    0.4970    0.6194 H   0  0  0  0  0  0  0  0  0  0  0  0
   -0.7390   -0.9763   -1.4314 H   0  0  0  0  0  0  0  0  0  0  0  0
    0.5980    1.5766   -2.5264 H   0  0  0  0  0  0  0  0  0  0  0  0
    0.4676    0.1294   -3.4982 H   0  0  0  0  0  0  0  0  0  0  0  0
   -2.2964    2.5623   -3.9911 H   0  0  0  0  0  0  0  0  0  0  0  0
    2.3064   -0.4065   -2.0893 N   0  0  0  0  0  0  0  0  0  0  0  0
    3.6736   -0.8721   -2.0845 C   0  0  2  0  0  0  0  0  0  0  0  0
    3.6634   -2.3642   -2.3895 C   0  0  0  0  0  0  0  0  0  0  0  0
    2.6813   -3.0800   -2.2045 O   0  0  0  0  0  0  0  0  0  0  0  0
    4.3480   -0.5947   -0.7499 C   0  0  0  0  0  0  0  0  0  0  0  0
    2.0118    0.2325   -2.8218 H   0  0  0  0  0  0  0  0  0  0  0  0
    4.1924   -0.3381   -2.8881 H   0  0  0  0  0  0  0  0  0  0  0  0
    3.8420   -1.1214    0.0674 H   0  0  0  0  0  0  0  0  0  0  0  0
    5.3927   -0.9224   -0.7576 H   0  0  0  0  0  0  0  0  0  0  0  0
    4.3280    0.4757   -0.5182 H   0  0  0  0  0  0  0  0  0  0  0  0
    4.8934   -2.8108   -2.8518 N   0  0  0  0  0  0  0  0  0  0  0  0
    5.1417   -4.1907   -3.1985 C   0  0  0  0  0  0  0  0  0  0  0  0
    5.6465   -2.1439   -2.9926 H   0  0  0  0  0  0  0  0  0  0  0  0
    5.5449   -4.7222   -2.3239 H   0  0  0  0  0  0  0  0  0  0  0  0
    4.2004   -4.6646   -3.5135 H   0  0  0  0  0  0  0  0  0  0  0  0
    5.8690   -4.2365   -4.0225 H   0  0  0  0  0  0  0  0  0  0  0  0
  1  3  1  0  0  0  0
  1  7  1  0  0  0  0
  1  2  2  0  0  0  0
 31 32  1  0  0  0  0
 32 40  1  0  0  0  0
 32 33  2  0  0  0  0
  8  9  1  0  0  0  0
  9 17  1  0  0  0  0
  9 10  2  0  0  0  0
 18 19  1  0  0  0  0
 19 30  1  0  0  0  0
 19 20  2  0  0  0  0
 21 22  1  0  0  0  0
 22 23  2  0  0  0  0
 22 24  1  0  0  0  0
 31 34  1  0  0  0  0
  8 11  1  0  0  0  0
 40 41  1  0  0  0  0
 18 21  1  0  0  0  0
 30 31  1  0  0  0  0
  7  8  1  0  0  0  0
 17 18  1  0  0  0  0
  3  4  1  0  0  0  0
  3  5  1  0  0  0  0
  3  6  1  0  0  0  0
 34 37  1  0  0  0  0
 34 38  1  0  0  0  0
 34 39  1  0  0  0  0
 11 14  1  0  0  0  0
 11 15  1  0  0  0  0
 11 16  1  0  0  0  0
 41 43  1  0  0  0  0
 41 44  1  0  0  0  0
 41 45  1  0  0  0  0
 21 27  1  0  0  0  0
 21 28  1  0  0  0  0
 31 36  1  0  0  0  0
  8 13  1  0  0  0  0
 18 26  1  0  0  0  0
 40 42  1  0  0  0  0
  7 12  1  0  0  0  0
 30 35  1  0  0  0  0
 17 25  1  0  0  0  0
 24 29  1  0  0  0  0
M  END
$$$$

  -OEChem-05262214473D

 45 44  0     1  0  0  0  0  0999 V2000
   -2.2987    4.1032   -0.3022 C   0  0  0  0  0  0  0  0  0  0  0  0
   -1.8049    3.7117   -1.3532 O   0  0  0  0  0  0  0  0  0  0  0  0
   -3.0791    5.3755   -0.2846 C   0  0  0  0  0  0  0  0  0  0  0  0
   -2.4478    6.2532   -0.0717 H   0  0  0  0  0  0  0  0  0  0  0  0
   -3.5571    5.5891   -1.2541 H   0  0  0  0  0  0  0  0  0  0  0  0
   -3.8940    5.4184    0.4556 H   0  0  0  0  0  0  0  0  0  0  0  0
   -2.2137    3.4712    0.9275 N   0  0  0  0  0  0  0  0  0  0  0  0
   -1.5102    2.2327    1.1338 C   0  0  2  0  0  0  0  0  0  0  0  0
   -1.3539    1.5497   -0.2184 C   0  0  0  0  0  0  0  0  0  0  0  0
   -2.0852    1.7861   -1.1778 O   0  0  0  0  0  0  0  0  0  0  0  0
   -2.2477    1.3342    2.1145 C   0  0  0  0  0  0  0  0  0  0  0  0
   -2.6724    3.9052    1.7265 H   0  0  0  0  0  0  0  0  0  0  0  0
   -0.5220    2.4922    1.5290 H   0  0  0  0  0  0  0  0  0  0  0  0
   -3.2400    1.0636    1.7358 H   0  0  0  0  0  0  0  0  0  0  0  0
   -1.6970    0.4046    2.2923 H   0  0  0  0  0  0  0  0  0  0  0  0
   -2.3854    1.8384    3.0772 H   0  0  0  0  0  0  0  0  0  0  0  0
   -0.3283    0.6116   -0.2182 N   0  0  0  0  0  0  0  0  0  0  0  0
    0.0090   -0.1762   -1.3759 C   0  0  2  0  0  0  0  0  0  0  0  0
    1.3790   -0.7970   -1.1335 C   0  0  0  0  0  0  0  0  0  0  0  0
    1.5531   -1.7704   -0.4032 O   0  0  0  0  0  0  0  0  0  0  0  0
    0.0101    0.6588   -2.6536 C   0  0  0  0  0  0  0  0  0  0  0  0
   -1.3869    1.0900   -3.0270 C   0  0  0  0  0  0  0  0  0  0  0  0
   -2.3958    0.4536   -2.7519 O   0  0  0  0  0  0  0  0  0  0  0  0
   -1.4049    2.2557   -3.7194 O   0  0  0  0  0  0  0  0  0  0  0  0
    0.2381    0.4970    0.6194 H   0  0  0  0  0  0  0  0  0  0  0  0
   -0.7390   -0.9763   -1.4314 H   0  0  0  0  0  0  0  0  0  0  0  0
    0.5980    1.5766   -2.5264 H   0  0  0  0  0  0  0  0  0  0  0  0
    0.4676    0.1294   -3.4982 H   0  0  0  0  0  0  0  0  0  0  0  0
   -2.2964    2.5623   -3.9911 H   0  0  0  0  0  0  0  0  0  0  0  0
    2.3756   -0.1665   -1.8652 N   0  0  0  0  0  0  0  0  0  0  0  0
    3.7583   -0.5807   -1.8171 C   0  0  2  0  0  0  0  0  0  0  0  0
    3.8589   -1.9590   -2.4570 C   0  0  0  0  0  0  0  0  0  0  0  0
    2.9030   -2.7261   -2.5516 O   0  0  0  0  0  0  0  0  0  0  0  0
    4.2792   -0.6054   -0.3885 C   0  0  0  0  0  0  0  0  0  0  0  0
    2.1222    0.6181   -2.4586 H   0  0  0  0  0  0  0  0  0  0  0  0
    4.3259    0.1419   -2.4136 H   0  0  0  0  0  0  0  0  0  0  0  0
    3.7226   -1.3237    0.2245 H   0  0  0  0  0  0  0  0  0  0  0  0
    5.3355   -0.8920   -0.3562 H   0  0  0  0  0  0  0  0  0  0  0  0
    4.1786    0.3796    0.0801 H   0  0  0  0  0  0  0  0  0  0  0  0
    5.1514   -2.2490   -2.8713 N   0  0  0  0  0  0  0  0  0  0  0  0
    5.5070   -3.5011   -3.4972 C   0  0  0  0  0  0  0  0  0  0  0  0
    5.8779   -1.5463   -2.7705 H   0  0  0  0  0  0  0  0  0  0  0  0
    5.8481   -4.2115   -2.7297 H   0  0  0  0  0  0  0  0  0  0  0  0
    4.6289   -3.9146   -4.0149 H   0  0  0  0  0  0  0  0  0  0  0  0
    6.3149   -3.3311   -4.2241 H   0  0  0  0  0  0  0  0  0  0  0  0
  1  3  1  0  0  0  0
  1  7  1  0  0  0  0
  1  2  2  0  0  0  0
 31 32  1  0  0  0  0
 32 40  1  0  0  0  0
 32 33  2  0  0  0  0
  8  9  1  0  0  0  0
  9 17  1  0  0  0  0
  9 10  2  0  0  0  0
 18 19  1  0  0  0  0
 19 30  1  0  0  0  0
 19 20  2  0  0  0  0
 21 22  1  0  0  0  0
 22 23  2  0  0  0  0
 22 24  1  0  0  0  0
 31 34  1  0  0  0  0
  8 11  1  0  0  0  0
 40 41  1  0  0  0  0
 18 21  1  0  0  0  0
 30 31  1  0  0  0  0
  7  8  1  0  0  0  0
 17 18  1  0  0  0  0
  3  4  1  0  0  0  0
  3  5  1  0  0  0  0
  3  6  1  0  0  0  0
 34 37  1  0  0  0  0
 34 38  1  0  0  0  0
 34 39  1  0  0  0  0
 11 14  1  0  0  0  0
 11 15  1  0  0  0  0
 11 16  1  0  0  0  0
 41 43  1  0  0  0  0
 41 44  1  0  0  0  0
 41 45  1  0  0  0  0
 21 27  1  0  0  0  0
 21 28  1  0  0  0  0
 31 36  1  0  0  0  0
  8 13  1  0  0  0  0
 18 26  1  0  0  0  0
 40 42  1  0  0  0  0
  7 12  1  0  0  0  0
 30 35  1  0  0  0  0
 17 25  1  0  0  0  0
 24 29  1  0  0  0  0
M  END
$$$$

  -OEChem-05262214473D

 45 44  0     1  0  0  0  0  0999 V2000
   -2.2987    4.1032   -0.3022 C   0  0  0  0  0  0  0  0  0  0  0  0
   -1.8049    3.7117   -1.3532 O   0  0  0  0  0  0  0  0  0  0  0  0
   -3.0791    5.3755   -0.2846 C   0  0  0  0  0  0  0  0  0  0  0  0
   -2.4478    6.2532   -0.0717 H   0  0  0  0  0  0  0  0  0  0  0  0
   -3.5571    5.5891   -1.2541 H   0  0  0  0  0  0  0  0  0  0  0  0
   -3.8940    5.4184    0.4556 H   0  0  0  0  0  0  0  0  0  0  0  0
   -2.2137    3.4712    0.9275 N   0  0  0  0  0  0  0  0  0  0  0  0
   -1.5102    2.2327    1.1338 C   0  0  2  0  0  0  0  0  0  0  0  0
   -1.3539    1.5497   -0.2184 C   0  0  0  0  0  0  0  0  0  0  0  0
   -2.0852    1.7861   -1.1778 O   0  0  0  0  0  0  0  0  0  0  0  0
   -2.2477    1.3342    2.1145 C   0  0  0  0  0  0  0  0  0  0  0  0
   -2.6724    3.9052    1.7265 H   0  0  0  0  0  0  0  0  0  0  0  0
   -0.5220    2.4922    1.5290 H   0  0  0  0  0  0  0  0  0  0  0  0
   -3.2400    1.0636    1.7358 H   0  0  0  0  0  0  0  0  0  0  0  0
   -1.6970    0.4046    2.2923 H   0  0  0  0  0  0  0  0  0  0  0  0
   -2.3854    1.8384    3.0772 H   0  0  0  0  0  0  0  0  0  0  0  0
   -0.3283    0.6116   -0.2182 N   0  0  0  0  0  0  0  0  0  0  0  0
    0.0090   -0.1762   -1.3759 C   0  0  2  0  0  0  0  0  0  0  0  0
    1.3790   -0.7970   -1.1335 C   0  0  0  0  0  0  0  0  0  0  0  0
    1.5308   -1.9093   -0.6326 O   0  0  0  0  0  0  0  0  0  0  0  0
    0.0101    0.6588   -2.6536 C   0  0  0  0  0  0  0  0  0  0  0  0
   -1.3869    1.0900   -3.0270 C   0  0  0  0  0  0  0  0  0  0  0  0
   -2.3958    0.4536   -2.7519 O   0  0  0  0  0  0  0  0  0  0  0  0
   -1.4049    2.2557   -3.7194 O   0  0  0  0  0  0  0  0  0  0  0  0
    0.2381    0.4970    0.6194 H   0  0  0  0  0  0  0  0  0  0  0  0
   -0.7390   -0.9763   -1.4314 H   0  0  0  0  0  0  0  0  0  0  0  0
    0.5980    1.5766   -2.5264 H   0  0  0  0  0  0  0  0  0  0  0  0
    0.4676    0.1294   -3.4982 H   0  0  0  0  0  0  0  0  0  0  0  0
   -2.2964    2.5623   -3.9911 H   0  0  0  0  0  0  0  0  0  0  0  0
    2.4088    0.0161   -1.5856 N   0  0  0  0  0  0  0  0  0  0  0  0
    3.8000   -0.3579   -1.4820 C   0  0  2  0  0  0  0  0  0  0  0  0
    4.0383   -1.5439   -2.4074 C   0  0  0  0  0  0  0  0  0  0  0  0
    3.1392   -2.2943   -2.7811 O   0  0  0  0  0  0  0  0  0  0  0  0
    4.1751   -0.7026   -0.0491 C   0  0  0  0  0  0  0  0  0  0  0  0
    2.1747    0.9105   -2.0064 H   0  0  0  0  0  0  0  0  0  0  0  0
    4.3851    0.5005   -1.8295 H   0  0  0  0  0  0  0  0  0  0  0  0
    3.5990   -1.5605    0.3165 H   0  0  0  0  0  0  0  0  0  0  0  0
    5.2366   -0.9584    0.0326 H   0  0  0  0  0  0  0  0  0  0  0  0
    3.9751    0.1413    0.6199 H   0  0  0  0  0  0  0  0  0  0  0  0
    5.3795   -1.6912   -2.7321 N   0  0  0  0  0  0  0  0  0  0  0  0
    5.8630   -2.7505   -3.5866 C   0  0  0  0  0  0  0  0  0  0  0  0
    6.0535   -1.0113   -2.3926 H   0  0  0  0  0  0  0  0  0  0  0  0
    6.1628   -3.6112   -2.9707 H   0  0  0  0  0  0  0  0  0  0  0  0
    5.0648   -3.0557   -4.2793 H   0  0  0  0  0  0  0  0  0  0  0  0
    6.7295   -2.3913   -4.1611 H   0  0  0  0  0  0  0  0  0  0  0  0
  1  3  1  0  0  0  0
  1  7  1  0  0  0  0
  1  2  2  0  0  0  0
 31 32  1  0  0  0  0
 32 40  1  0  0  0  0
 32 33  2  0  0  0  0
  8  9  1  0  0  0  0
  9 17  1  0  0  0  0
  9 10  2  0  0  0  0
 18 19  1  0  0  0  0
 19 30  1  0  0  0  0
 19 20  2  0  0  0  0
 21 22  1  0  0  0  0
 22 23  2  0  0  0  0
 22 24  1  0  0  0  0
 31 34  1  0  0  0  0
  8 11  1  0  0  0  0
 40 41  1  0  0  0  0
 18 21  1  0  0  0  0
 30 31  1  0  0  0  0
  7  8  1  0  0  0  0
 17 18  1  0  0  0  0
  3  4  1  0  0  0  0
  3  5  1  0  0  0  0
  3  6  1  0  0  0  0
 34 37  1  0  0  0  0
 34 38  1  0  0  0  0
 34 39  1  0  0  0  0
 11 14  1  0  0  0  0
 11 15  1  0  0  0  0
 11 16  1  0  0  0  0
 41 43  1  0  0  0  0
 41 44  1  0  0  0  0
 41 45  1  0  0  0  0
 21 27  1  0  0  0  0
 21 28  1  0  0  0  0
 31 36  1  0  0  0  0
  8 13  1  0  0  0  0
 18 26  1  0  0  0  0
 40 42  1  0  0  0  0
  7 12  1  0  0  0  0
 30 35  1  0  0  0  0
 17 25  1  0  0  0  0
 24 29  1  0  0  0  0
M  END
$$$$

  -OEChem-05262214473D

 45 44  0     1  0  0  0  0  0999 V2000
   -2.2987    4.1032   -0.3022 C   0  0  0  0  0  0  0  0  0  0  0  0
   -1.8049    3.7117   -1.3532 O   0  0  0  0  0  0  0  0  0  0  0  0
   -3.0791    5.3755   -0.2846 C   0  0  0  0  0  0  0  0  0  0  0  0
   -2.4478    6.2532   -0.0717 H   0  0  0  0  0  0  0  0  0  0  0  0
   -3.5571    5.5891   -1.2541 H   0  0  0  0  0  0  0  0  0  0  0  0
   -3.8940    5.4184    0.4556 H   0  0  0  0  0  0  0  0  0  0  0  0
   -2.2137    3.4712    0.9275 N   0  0  0  0  0  0  0  0  0  0  0  0
   -1.5102    2.2327    1.1338 C   0  0  2  0  0  0  0  0  0  0  0  0
   -1.3539    1.5497   -0.2184 C   0  0  0  0  0  0  0  0  0  0  0  0
   -2.0852    1.7861   -1.1778 O   0  0  0  0  0  0  0  0  0  0  0  0
   -2.2477    1.3342    2.1145 C   0  0  0  0  0  0  0  0  0  0  0  0
   -2.6724    3.9052    1.7265 H   0  0  0  0  0  0  0  0  0  0  0  0
   -0.5220    2.4922    1.5290 H   0  0  0  0  0  0  0  0  0  0  0  0
   -3.2400    1.0636    1.7358 H   0  0  0  0  0  0  0  0  0  0  0  0
   -1.6970    0.4046    2.2923 H   0  0  0  0  0  0  0  0  0  0  0  0
   -2.3854    1.8384    3.0772 H   0  0  0  0  0  0  0  0  0  0  0  0
   -0.3283    0.6116   -0.2182 N   0  0  0  0  0  0  0  0  0  0  0  0
    0.0090   -0.1762   -1.3759 C   0  0  2  0  0  0  0  0  0  0  0  0
    1.3790   -0.7970   -1.1335 C   0  0  0  0  0  0  0  0  0  0  0  0
    1.5391   -1.9910   -0.8890 O   0  0  0  0  0  0  0  0  0  0  0  0
    0.0101    0.6588   -2.6536 C   0  0  0  0  0  0  0  0  0  0  0  0
   -1.3869    1.0900   -3.0270 C   0  0  0  0  0  0  0  0  0  0  0  0
   -2.3958    0.4536   -2.7519 O   0  0  0  0  0  0  0  0  0  0  0  0
   -1.4049    2.2557   -3.7194 O   0  0  0  0  0  0  0  0  0  0  0  0
    0.2381    0.4970    0.6194 H   0  0  0  0  0  0  0  0  0  0  0  0
   -0.7390   -0.9763   -1.4314 H   0  0  0  0  0  0  0  0  0  0  0  0
    0.5980    1.5766   -2.5264 H   0  0  0  0  0  0  0  0  0  0  0  0
    0.4676    0.1294   -3.4982 H   0  0  0  0  0  0  0  0  0  0  0  0
   -2.2964    2.5623   -3.9911 H   0  0  0  0  0  0  0  0  0  0  0  0
    2.4040    0.1288   -1.2695 N   0  0  0  0  0  0  0  0  0  0  0  0
    3.7957   -0.2191   -1.1021 C   0  0  2  0  0  0  0  0  0  0  0  0
    4.1891   -1.1470   -2.2439 C   0  0  0  0  0  0  0  0  0  0  0  0
    3.3738   -1.8141   -2.8773 O   0  0  0  0  0  0  0  0  0  0  0  0
    4.0427   -0.8799    0.2451 C   0  0  0  0  0  0  0  0  0  0  0  0
    2.1657    1.0899   -1.4960 H   0  0  0  0  0  0  0  0  0  0  0  0
    4.3658    0.7134   -1.1756 H   0  0  0  0  0  0  0  0  0  0  0  0
    3.4797   -1.8158    0.3372 H   0  0  0  0  0  0  0  0  0  0  0  0
    5.1029   -1.1171    0.3823 H   0  0  0  0  0  0  0  0  0  0  0  0
    3.7315   -0.2228    1.0644 H   0  0  0  0  0  0  0  0  0  0  0  0
    5.5622   -1.1754   -2.4438 N   0  0  0  0  0  0  0  0  0  0  0  0
    6.1853   -1.9899   -3.4608 C   0  0  0  0  0  0  0  0  0  0  0  0
    6.1611   -0.5752   -1.8844 H   0  0  0  0  0  0  0  0  0  0  0  0
    6.4674   -2.9622   -3.0307 H   0  0  0  0  0  0  0  0  0  0  0  0
    5.4784   -2.1466   -4.2889 H   0  0  0  0  0  0  0  0  0  0  0  0
    7.0847   -1.4811   -3.8378 H   0  0  0  0  0  0  0  0  0  0  0  0
  1  3  1  0  0  0  0
  1  7  1  0  0  0  0
  1  2  2  0  0  0  0
 31 32  1  0  0  0  0
 32 40  1  0  0  0  0
 32 33  2  0  0  0  0
  8  9  1  0  0  0  0
  9 17  1  0  0  0  0
  9 10  2  0  0  0  0
 18 19  1  0  0  0  0
 19 30  1  0  0  0  0
 19 20  2  0  0  0  0
 21 22  1  0  0  0  0
 22 23  2  0  0  0  0
 22 24  1  0  0  0  0
 31 34  1  0  0  0  0
  8 11  1  0  0  0  0
 40 41  1  0  0  0  0
 18 21  1  0  0  0  0
 30 31  1  0  0  0  0
  7  8  1  0  0  0  0
 17 18  1  0  0  0  0
  3  4  1  0  0  0  0
  3  5  1  0  0  0  0
  3  6  1  0  0  0  0
 34 37  1  0  0  0  0
 34 38  1  0  0  0  0
 34 39  1  0  0  0  0
 11 14  1  0  0  0  0
 11 15  1  0  0  0  0
 11 16  1  0  0  0  0
 41 43  1  0  0  0  0
 41 44  1  0  0  0  0
 41 45  1  0  0  0  0
 21 27  1  0  0  0  0
 21 28  1  0  0  0  0
 31 36  1  0  0  0  0
  8 13  1  0  0  0  0
 18 26  1  0  0  0  0
 40 42  1  0  0  0  0
  7 12  1  0  0  0  0
 30 35  1  0  0  0  0
 17 25  1  0  0  0  0
 24 29  1  0  0  0  0
M  END
$$$$

  -OEChem-05262214473D

 45 44  0     1  0  0  0  0  0999 V2000
   -2.2987    4.1032   -0.3022 C   0  0  0  0  0  0  0  0  0  0  0  0
   -1.8049    3.7117   -1.3532 O   0  0  0  0  0  0  0  0  0  0  0  0
   -3.0791    5.3755   -0.2846 C   0  0  0  0  0  0  0  0  0  0  0  0
   -2.4478    6.2532   -0.0717 H   0  0  0  0  0  0  0  0  0  0  0  0
   -3.5571    5.5891   -1.2541 H   0  0  0  0  0  0  0  0  0  0  0  0
   -3.8940    5.4184    0.4556 H   0  0  0  0  0  0  0  0  0  0  0  0
   -2.2137    3.4712    0.9275 N   0  0  0  0  0  0  0  0  0  0  0  0
   -1.5102    2.2327    1.1338 C   0  0  2  0  0  0  0  0  0  0  0  0
   -1.3539    1.5497   -0.2184 C   0  0  0  0  0  0  0  0  0  0  0  0
   -2.0852    1.7861   -1.1778 O   0  0  0  0  0  0  0  0  0  0  0  0
   -2.2477    1.3342    2.1145 C   0  0  0  0  0  0  0  0  0  0  0  0
   -2.6724    3.9052    1.7265 H   0  0  0  0  0  0  0  0  0  0  0  0
   -0.5220    2.4922    1.5290 H   0  0  0  0  0  0  0  0  0  0  0  0
   -3.2400    1.0636    1.7358 H   0  0  0  0  0  0  0  0  0  0  0  0
   -1.6970    0.4046    2.2923 H   0  0  0  0  0  0  0  0  0  0  0  0
   -2.3854    1.8384    3.0772 H   0  0  0  0  0  0  0  0  0  0  0  0
   -0.3283    0.6116   -0.2182 N   0  0  0  0  0  0  0  0  0  0  0  0
    0.0090   -0.1762   -1.3759 C   0  0  2  0  0  0  0  0  0  0  0  0
    1.3790   -0.7970   -1.1335 C   0  0  0  0  0  0  0  0  0  0  0  0
    1.5775   -2.0100   -1.1547 O   0  0  0  0  0  0  0  0  0  0  0  0
    0.0101    0.6588   -2.6536 C   0  0  0  0  0  0  0  0  0  0  0  0
   -1.3869    1.0900   -3.0270 C   0  0  0  0  0  0  0  0  0  0  0  0
   -2.3958    0.4536   -2.7519 O   0  0  0  0  0  0  0  0  0  0  0  0
   -1.4049    2.2557   -3.7194 O   0  0  0  0  0  0  0  0  0  0  0  0
    0.2381    0.4970    0.6194 H   0  0  0  0  0  0  0  0  0  0  0  0
   -0.7390   -0.9763   -1.4314 H   0  0  0  0  0  0  0  0  0  0  0  0
    0.5980    1.5766   -2.5264 H   0  0  0  0  0  0  0  0  0  0  0  0
    0.4676    0.1294   -3.4982 H   0  0  0  0  0  0  0  0  0  0  0  0
   -2.2964    2.5623   -3.9911 H   0  0  0  0  0  0  0  0  0  0  0  0
    2.3613    0.1639   -0.9385 N   0  0  0  0  0  0  0  0  0  0  0  0
    3.7458   -0.1735   -0.7033 C   0  0  2  0  0  0  0  0  0  0  0  0
    4.3013   -0.7956   -1.9776 C   0  0  0  0  0  0  0  0  0  0  0  0
    3.5908   -1.3183   -2.8338 O   0  0  0  0  0  0  0  0  0  0  0  0
    3.8911   -1.1250    0.4741 C   0  0  0  0  0  0  0  0  0  0  0  0
    2.0958    1.1441   -0.9621 H   0  0  0  0  0  0  0  0  0  0  0  0
    4.2696    0.7661   -0.4965 H   0  0  0  0  0  0  0  0  0  0  0  0
    3.3727   -2.0721    0.2853 H   0  0  0  0  0  0  0  0  0  0  0  0
    4.9433   -1.3573    0.6690 H   0  0  0  0  0  0  0  0  0  0  0  0
    3.4643   -0.6880    1.3833 H   0  0  0  0  0  0  0  0  0  0  0  0
    5.6870   -0.7367   -2.0260 N   0  0  0  0  0  0  0  0  0  0  0  0
    6.4521   -1.2713   -3.1283 C   0  0  0  0  0  0  0  0  0  0  0  0
    6.1936   -0.2679   -1.2808 H   0  0  0  0  0  0  0  0  0  0  0  0
    6.7412   -2.3089   -2.9055 H   0  0  0  0  0  0  0  0  0  0  0  0
    5.8415   -1.2492   -4.0430 H   0  0  0  0  0  0  0  0  0  0  0  0
    7.3562   -0.6625   -3.2762 H   0  0  0  0  0  0  0  0  0  0  0  0
  1  3  1  0  0  0  0
  1  7  1  0  0  0  0
  1  2  2  0  0  0  0
 31 32  1  0  0  0  0
 32 40  1  0  0  0  0
 32 33  2  0  0  0  0
  8  9  1  0  0  0  0
  9 17  1  0  0  0  0
  9 10  2  0  0  0  0
 18 19  1  0  0  0  0
 19 30  1  0  0  0  0
 19 20  2  0  0  0  0
 21 22  1  0  0  0  0
 22 23  2  0  0  0  0
 22 24  1  0  0  0  0
 31 34  1  0  0  0  0
  8 11  1  0  0  0  0
 40 41  1  0  0  0  0
 18 21  1  0  0  0  0
 30 31  1  0  0  0  0
  7  8  1  0  0  0  0
 17 18  1  0  0  0  0
  3  4  1  0  0  0  0
  3  5  1  0  0  0  0
  3  6  1  0  0  0  0
 34 37  1  0  0  0  0
 34 38  1  0  0  0  0
 34 39  1  0  0  0  0
 11 14  1  0  0  0  0
 11 15  1  0  0  0  0
 11 16  1  0  0  0  0
 41 43  1  0  0  0  0
 41 44  1  0  0  0  0
 41 45  1  0  0  0  0
 21 27  1  0  0  0  0
 21 28  1  0  0  0  0
 31 36  1  0  0  0  0
  8 13  1  0  0  0  0
 18 26  1  0  0  0  0
 40 42  1  0  0  0  0
  7 12  1  0  0  0  0
 30 35  1  0  0  0  0
 17 25  1  0  0  0  0
 24 29  1  0  0  0  0
M  END
$$$$

  -OEChem-05262214473D

 45 44  0     1  0  0  0  0  0999 V2000
   -2.2987    4.1032   -0.3022 C   0  0  0  0  0  0  0  0  0  0  0  0
   -1.8049    3.7117   -1.3532 O   0  0  0  0  0  0  0  0  0  0  0  0
   -3.0791    5.3755   -0.2846 C   0  0  0  0  0  0  0  0  0  0  0  0
   -2.4478    6.2532   -0.0717 H   0  0  0  0  0  0  0  0  0  0  0  0
   -3.5571    5.5891   -1.2541 H   0  0  0  0  0  0  0  0  0  0  0  0
   -3.8940    5.4184    0.4556 H   0  0  0  0  0  0  0  0  0  0  0  0
   -2.2137    3.4712    0.9275 N   0  0  0  0  0  0  0  0  0  0  0  0
   -1.5102    2.2327    1.1338 C   0  0  2  0  0  0  0  0  0  0  0  0
   -1.3539    1.5497   -0.2184 C   0  0  0  0  0  0  0  0  0  0  0  0
   -2.0852    1.7861   -1.1778 O   0  0  0  0  0  0  0  0  0  0  0  0
   -2.2477    1.3342    2.1145 C   0  0  0  0  0  0  0  0  0  0  0  0
   -2.6724    3.9052    1.7265 H   0  0  0  0  0  0  0  0  0  0  0  0
   -0.5220    2.4922    1.5290 H   0  0  0  0  0  0  0  0  0  0  0  0
   -3.2400    1.0636    1.7358 H   0  0  0  0  0  0  0  0  0  0  0  0
   -1.6970    0.4046    2.2923 H   0  0  0  0  0  0  0  0  0  0  0  0
   -2.3854    1.8384    3.0772 H   0  0  0  0  0  0  0  0  0  0  0  0
   -0.3283    0.6116   -0.2182 N   0  0  0  0  0  0  0  0  0  0  0  0
    0.0090   -0.1762   -1.3759 C   0  0  2  0  0  0  0  0  0  0  0  0
    1.3790   -0.7970   -1.1335 C   0  0  0  0  0  0  0  0  0  0  0  0
    1.6435   -1.9648   -1.4117 O   0  0  0  0  0  0  0  0  0  0  0  0
    0.0101    0.6588   -2.6536 C   0  0  0  0  0  0  0  0  0  0  0  0
   -1.3869    1.0900   -3.0270 C   0  0  0  0  0  0  0  0  0  0  0  0
   -2.3958    0.4536   -2.7519 O   0  0  0  0  0  0  0  0  0  0  0  0
   -1.4049    2.2557   -3.7194 O   0  0  0  0  0  0  0  0  0  0  0  0
    0.2381    0.4970    0.6194 H   0  0  0  0  0  0  0  0  0  0  0  0
   -0.7390   -0.9763   -1.4314 H   0  0  0  0  0  0  0  0  0  0  0  0
    0.5980    1.5766   -2.5264 H   0  0  0  0  0  0  0  0  0  0  0  0
    0.4676    0.1294   -3.4982 H   0  0  0  0  0  0  0  0  0  0  0  0
   -2.2964    2.5623   -3.9911 H   0  0  0  0  0  0  0  0  0  0  0  0
    2.2837    0.1190   -0.6151 N   0  0  0  0  0  0  0  0  0  0  0  0
    3.6536   -0.2244   -0.3127 C   0  0  2  0  0  0  0  0  0  0  0  0
    4.3671   -0.5134   -1.6269 C   0  0  0  0  0  0  0  0  0  0  0  0
    3.7754   -0.8405   -2.6535 O   0  0  0  0  0  0  0  0  0  0  0  0
    3.7307   -1.4213    0.6223 C   0  0  0  0  0  0  0  0  0  0  0  0
    1.9697    1.0692   -0.4413 H   0  0  0  0  0  0  0  0  0  0  0  0
    4.1028    0.6550    0.1616 H   0  0  0  0  0  0  0  0  0  0  0  0
    3.2855   -2.3120    0.1642 H   0  0  0  0  0  0  0  0  0  0  0  0
    4.7688   -1.6626    0.8732 H   0  0  0  0  0  0  0  0  0  0  0  0
    3.1917   -1.2226    1.5549 H   0  0  0  0  0  0  0  0  0  0  0  0
    5.7455   -0.4051   -1.5072 N   0  0  0  0  0  0  0  0  0  0  0  0
    6.6451   -0.6435   -2.6116 C   0  0  0  0  0  0  0  0  0  0  0  0
    6.1486   -0.1102   -0.6227 H   0  0  0  0  0  0  0  0  0  0  0  0
    6.9657   -1.6958   -2.6036 H   0  0  0  0  0  0  0  0  0  0  0  0
    6.1293   -0.4247   -3.5583 H   0  0  0  0  0  0  0  0  0  0  0  0
    7.5256    0.0086   -2.5146 H   0  0  0  0  0  0  0  0  0  0  0  0
  1  3  1  0  0  0  0
  1  7  1  0  0  0  0
  1  2  2  0  0  0  0
 31 32  1  0  0  0  0
 32 40  1  0  0  0  0
 32 33  2  0  0  0  0
  8  9  1  0  0  0  0
  9 17  1  0  0  0  0
  9 10  2  0  0  0  0
 18 19  1  0  0  0  0
 19 30  1  0  0  0  0
 19 20  2  0  0  0  0
 21 22  1  0  0  0  0
 22 23  2  0  0  0  0
 22 24  1  0  0  0  0
 31 34  1  0  0  0  0
  8 11  1  0  0  0  0
 40 41  1  0  0  0  0
 18 21  1  0  0  0  0
 30 31  1  0  0  0  0
  7  8  1  0  0  0  0
 17 18  1  0  0  0  0
  3  4  1  0  0  0  0
  3  5  1  0  0  0  0
  3  6  1  0  0  0  0
 34 37  1  0  0  0  0
 34 38  1  0  0  0  0
 34 39  1  0  0  0  0
 11 14  1  0  0  0  0
 11 15  1  0  0  0  0
 11 16  1  0  0  0  0
 41 43  1  0  0  0  0
 41 44  1  0  0  0  0
 41 45  1  0  0  0  0
 21 27  1  0  0  0  0
 21 28  1  0  0  0  0
 31 36  1  0  0  0  0
  8 13  1  0  0  0  0
 18 26  1  0  0  0  0
 40 42  1  0  0  0  0
  7 12  1  0  0  0  0
 30 35  1  0  0  0  0
 17 25  1  0  0  0  0
 24 29  1  0  0  0  0
M  END
$$$$

  -OEChem-05262214473D

 45 44  0     1  0  0  0  0  0999 V2000
   -2.2987    4.1032   -0.3022 C   0  0  0  0  0  0  0  0  0  0  0  0
   -1.8049    3.7117   -1.3532 O   0  0  0  0  0  0  0  0  0  0  0  0
   -3.0791    5.3755   -0.2846 C   0  0  0  0  0  0  0  0  0  0  0  0
   -2.4478    6.2532   -0.0717 H   0  0  0  0  0  0  0  0  0  0  0  0
   -3.5571    5.5891   -1.2541 H   0  0  0  0  0  0  0  0  0  0  0  0
   -3.8940    5.4184    0.4556 H   0  0  0  0  0  0  0  0  0  0  0  0
   -2.2137    3.4712    0.9275 N   0  0  0  0  0  0  0  0  0  0  0  0
   -1.5102    2.2327    1.1338 C   0  0  2  0  0  0  0  0  0  0  0  0
   -1.3539    1.5497   -0.2184 C   0  0  0  0  0  0  0  0  0  0  0  0
   -2.0852    1.7861   -1.1778 O   0  0  0  0  0  0  0  0  0  0  0  0
   -2.2477    1.3342    2.1145 C   0  0  0  0  0  0  0  0  0  0  0  0
   -2.6724    3.9052    1.7265 H   0  0  0  0  0  0  0  0  0  0  0  0
   -0.5220    2.4922    1.5290 H   0  0  0  0  0  0  0  0  0  0  0  0
   -3.2400    1.0636    1.7358 H   0  0  0  0  0  0  0  0  0  0  0  0
   -1.6970    0.4046    2.2923 H   0  0  0  0  0  0  0  0  0  0  0  0
   -2.3854    1.8384    3.0772 H   0  0  0  0  0  0  0  0  0  0  0  0
   -0.3283    0.6116   -0.2182 N   0  0  0  0  0  0  0  0  0  0  0  0
    0.0090   -0.1762   -1.3759 C   0  0  2  0  0  0  0  0  0  0  0  0
    1.3790   -0.7970   -1.1335 C   0  0  0  0  0  0  0  0  0  0  0  0
    1.7324   -1.8586   -1.6425 O   0  0  0  0  0  0  0  0  0  0  0  0
    0.0101    0.6588   -2.6536 C   0  0  0  0  0  0  0  0  0  0  0  0
   -1.3869    1.0900   -3.0270 C   0  0  0  0  0  0  0  0  0  0  0  0
   -2.3958    0.4536   -2.7519 O   0  0  0  0  0  0  0  0  0  0  0  0
   -1.4049    2.2557   -3.7194 O   0  0  0  0  0  0  0  0  0  0  0  0
    0.2381    0.4970    0.6194 H   0  0  0  0  0  0  0  0  0  0  0  0
   -0.7390   -0.9763   -1.4314 H   0  0  0  0  0  0  0  0  0  0  0  0
    0.5980    1.5766   -2.5264 H   0  0  0  0  0  0  0  0  0  0  0  0
    0.4676    0.1294   -3.4982 H   0  0  0  0  0  0  0  0  0  0  0  0
   -2.2964    2.5623   -3.9911 H   0  0  0  0  0  0  0  0  0  0  0  0
    2.1765   -0.0029   -0.3213 N   0  0  0  0  0  0  0  0  0  0  0  0
    3.5255   -0.3682    0.0430 C   0  0  2  0  0  0  0  0  0  0  0  0
    4.3820   -0.3198   -1.2154 C   0  0  0  0  0  0  0  0  0  0  0  0
    3.9150   -0.4133   -2.3487 O   0  0  0  0  0  0  0  0  0  0  0  0
    3.5722   -1.7486    0.6795 C   0  0  0  0  0  0  0  0  0  0  0  0
    1.7961    0.8705    0.0311 H   0  0  0  0  0  0  0  0  0  0  0  0
    3.8768    0.3876    0.7539 H   0  0  0  0  0  0  0  0  0  0  0  0
    3.2238   -2.5192   -0.0179 H   0  0  0  0  0  0  0  0  0  0  0  0
    4.5914   -2.0122    0.9810 H   0  0  0  0  0  0  0  0  0  0  0  0
    2.9323   -1.7901    1.5675 H   0  0  0  0  0  0  0  0  0  0  0  0
    5.7336   -0.2032   -0.9227 N   0  0  0  0  0  0  0  0  0  0  0  0
    6.7512   -0.1495   -1.9462 C   0  0  0  0  0  0  0  0  0  0  0  0
    6.0293   -0.1128    0.0449 H   0  0  0  0  0  0  0  0  0  0  0  0
    7.1253   -1.1645   -2.1456 H   0  0  0  0  0  0  0  0  0  0  0  0
    6.3223    0.2707   -2.8678 H   0  0  0  0  0  0  0  0  0  0  0  0
    7.5812    0.4866   -1.6048 H   0  0  0  0  0  0  0  0  0  0  0  0
  1  3  1  0  0  0  0
  1  7  1  0  0  0  0
  1  2  2  0  0  0  0
 31 32  1  0  0  0  0
 32 40  1  0  0  0  0
 32 33  2  0  0  0  0
  8  9  1  0  0  0  0
  9 17  1  0  0  0  0
  9 10  2  0  0  0  0
 18 19  1  0  0  0  0
 19 30  1  0  0  0  0
 19 20  2  0  0  0  0
 21 22  1  0  0  0  0
 22 23  2  0  0  0  0
 22 24  1  0  0  0  0
 31 34  1  0  0  0  0
  8 11  1  0  0  0  0
 40 41  1  0  0  0  0
 18 21  1  0  0  0  0
 30 31  1  0  0  0  0
  7  8  1  0  0  0  0
 17 18  1  0  0  0  0
  3  4  1  0  0  0  0
  3  5  1  0  0  0  0
  3  6  1  0  0  0  0
 34 37  1  0  0  0  0
 34 38  1  0  0  0  0
 34 39  1  0  0  0  0
 11 14  1  0  0  0  0
 11 15  1  0  0  0  0
 11 16  1  0  0  0  0
 41 43  1  0  0  0  0
 41 44  1  0  0  0  0
 41 45  1  0  0  0  0
 21 27  1  0  0  0  0
 21 28  1  0  0  0  0
 31 36  1  0  0  0  0
  8 13  1  0  0  0  0
 18 26  1  0  0  0  0
 40 42  1  0  0  0  0
  7 12  1  0  0  0  0
 30 35  1  0  0  0  0
 17 25  1  0  0  0  0
 24 29  1  0  0  0  0
M  END
$$$$

  -OEChem-05262214473D

 45 44  0     1  0  0  0  0  0999 V2000
   -2.2987    4.1032   -0.3022 C   0  0  0  0  0  0  0  0  0  0  0  0
   -1.8049    3.7117   -1.3532 O   0  0  0  0  0  0  0  0  0  0  0  0
   -3.0791    5.3755   -0.2846 C   0  0  0  0  0  0  0  0  0  0  0  0
   -2.4478    6.2532   -0.0717 H   0  0  0  0  0  0  0  0  0  0  0  0
   -3.5571    5.5891   -1.2541 H   0  0  0  0  0  0  0  0  0  0  0  0
   -3.8940    5.4184    0.4556 H   0  0  0  0  0  0  0  0  0  0  0  0
   -2.2137    3.4712    0.9275 N   0  0  0  0  0  0  0  0  0  0  0  0
   -1.5102    2.2327    1.1338 C   0  0  2  0  0  0  0  0  0  0  0  0
   -1.3539    1.5497   -0.2184 C   0  0  0  0  0  0  0  0  0  0  0  0
   -2.0852    1.7861   -1.1778 O   0  0  0  0  0  0  0  0  0  0  0  0
   -2.2477    1.3342    2.1145 C   0  0  0  0  0  0  0  0  0  0  0  0
   -2.6724    3.9052    1.7265 H   0  0  0  0  0  0  0  0  0  0  0  0
   -0.5220    2.4922    1.5290 H   0  0  0  0  0  0  0  0  0  0  0  0
   -3.2400    1.0636    1.7358 H   0  0  0  0  0  0  0  0  0  0  0  0
   -1.6970    0.4046    2.2923 H   0  0  0  0  0  0  0  0  0  0  0  0
   -2.3854    1.8384    3.0772 H   0  0  0  0  0  0  0  0  0  0  0  0
   -0.3283    0.6116   -0.2182 N   0  0  0  0  0  0  0  0  0  0  0  0
    0.0090   -0.1762   -1.3759 C   0  0  2  0  0  0  0  0  0  0  0  0
    1.3790   -0.7970   -1.1335 C   0  0  0  0  0  0  0  0  0  0  0  0
    1.8383   -1.6987   -1.8314 O   0  0  0  0  0  0  0  0  0  0  0  0
    0.0101    0.6588   -2.6536 C   0  0  0  0  0  0  0  0  0  0  0  0
   -1.3869    1.0900   -3.0270 C   0  0  0  0  0  0  0  0  0  0  0  0
   -2.3958    0.4536   -2.7519 O   0  0  0  0  0  0  0  0  0  0  0  0
   -1.4049    2.2557   -3.7194 O   0  0  0  0  0  0  0  0  0  0  0  0
    0.2381    0.4970    0.6194 H   0  0  0  0  0  0  0  0  0  0  0  0
   -0.7390   -0.9763   -1.4314 H   0  0  0  0  0  0  0  0  0  0  0  0
    0.5980    1.5766   -2.5264 H   0  0  0  0  0  0  0  0  0  0  0  0
    0.4676    0.1294   -3.4982 H   0  0  0  0  0  0  0  0  0  0  0  0
   -2.2964    2.5623   -3.9911 H   0  0  0  0  0  0  0  0  0  0  0  0
    2.0470   -0.1934   -0.0772 N   0  0  0  0  0  0  0  0  0  0  0  0
    3.3702   -0.5952    0.3396 C   0  0  2  0  0  0  0  0  0  0  0  0
    4.3450   -0.2279   -0.7714 C   0  0  0  0  0  0  0  0  0  0  0  0
    4.0001   -0.0659   -1.9401 O   0  0  0  0  0  0  0  0  0  0  0  0
    3.4267   -2.0846    0.6419 C   0  0  0  0  0  0  0  0  0  0  0  0
    1.5867    0.5614    0.4229 H   0  0  0  0  0  0  0  0  0  0  0  0
    3.6072   -0.0178    1.2398 H   0  0  0  0  0  0  0  0  0  0  0  0
    3.1920   -2.6794   -0.2484 H   0  0  0  0  0  0  0  0  0  0  0  0
    4.4230   -2.3823    0.9851 H   0  0  0  0  0  0  0  0  0  0  0  0
    2.7038   -2.3520    1.4202 H   0  0  0  0  0  0  0  0  0  0  0  0
    5.6521   -0.1446   -0.3123 N   0  0  0  0  0  0  0  0  0  0  0  0
    6.7632    0.1772   -1.1772 C   0  0  0  0  0  0  0  0  0  0  0  0
    5.8437   -0.2757    0.6765 H   0  0  0  0  0  0  0  0  0  0  0  0
    7.2094   -0.7514   -1.5627 H   0  0  0  0  0  0  0  0  0  0  0  0
    6.4072    0.7897   -2.0187 H   0  0  0  0  0  0  0  0  0  0  0  0
    7.5193    0.7388   -0.6090 H   0  0  0  0  0  0  0  0  0  0  0  0
  1  3  1  0  0  0  0
  1  7  1  0  0  0  0
  1  2  2  0  0  0  0
 31 32  1  0  0  0  0
 32 40  1  0  0  0  0
 32 33  2  0  0  0  0
  8  9  1  0  0  0  0
  9 17  1  0  0  0  0
  9 10  2  0  0  0  0
 18 19  1  0  0  0  0
 19 30  1  0  0  0  0
 19 20  2  0  0  0  0
 21 22  1  0  0  0  0
 22 23  2  0  0  0  0
 22 24  1  0  0  0  0
 31 34  1  0  0  0  0
  8 11  1  0  0  0  0
 40 41  1  0  0  0  0
 18 21  1  0  0  0  0
 30 31  1  0  0  0  0
  7  8  1  0  0  0  0
 17 18  1  0  0  0  0
  3  4  1  0  0  0  0
  3  5  1  0  0  0  0
  3  6  1  0  0  0  0
 34 37  1  0  0  0  0
 34 38  1  0  0  0  0
 34 39  1  0  0  0  0
 11 14  1  0  0  0  0
 11 15  1  0  0  0  0
 11 16  1  0  0  0  0
 41 43  1  0  0  0  0
 41 44  1  0  0  0  0
 41 45  1  0  0  0  0
 21 27  1  0  0  0  0
 21 28  1  0  0  0  0
 31 36  1  0  0  0  0
  8 13  1  0  0  0  0
 18 26  1  0  0  0  0
 40 42  1  0  0  0  0
  7 12  1  0  0  0  0
 30 35  1  0  0  0  0
 17 25  1  0  0  0  0
 24 29  1  0  0  0  0
M  END
$$$$

  -OEChem-05262214473D

 45 44  0     1  0  0  0  0  0999 V2000
   -2.2987    4.1032   -0.3022 C   0  0  0  0  0  0  0  0  0  0  0  0
   -1.8049    3.7117   -1.3532 O   0  0  0  0  0  0  0  0  0  0  0  0
   -3.0791    5.3755   -0.2846 C   0  0  0  0  0  0  0  0  0  0  0  0
   -2.4478    6.2532   -0.0717 H   0  0  0  0  0  0  0  0  0  0  0  0
   -3.5571    5.5891   -1.2541 H   0  0  0  0  0  0  0  0  0  0  0  0
   -3.8940    5.4184    0.4556 H   0  0  0  0  0  0  0  0  0  0  0  0
   -2.2137    3.4712    0.9275 N   0  0  0  0  0  0  0  0  0  0  0  0
   -1.5102    2.2327    1.1338 C   0  0  2  0  0  0  0  0  0  0  0  0
   -1.3539    1.5497   -0.2184 C   0  0  0  0  0  0  0  0  0  0  0  0
   -2.0852    1.7861   -1.1778 O   0  0  0  0  0  0  0  0  0  0  0  0
   -2.2477    1.3342    2.1145 C   0  0  0  0  0  0  0  0  0  0  0  0
   -2.6724    3.9052    1.7265 H   0  0  0  0  0  0  0  0  0  0  0  0
   -0.5220    2.4922    1.5290 H   0  0  0  0  0  0  0  0  0  0  0  0
   -3.2400    1.0636    1.7358 H   0  0  0  0  0  0  0  0  0  0  0  0
   -1.6970    0.4046    2.2923 H   0  0  0  0  0  0  0  0  0  0  0  0
   -2.3854    1.8384    3.0772 H   0  0  0  0  0  0  0  0  0  0  0  0
   -0.3283    0.6116   -0.2182 N   0  0  0  0  0  0  0  0  0  0  0  0
    0.0090   -0.1762   -1.3759 C   0  0  2  0  0  0  0  0  0  0  0  0
    1.3790   -0.7970   -1.1335 C   0  0  0  0  0  0  0  0  0  0  0  0
    1.9539   -1.4959   -1.9654 O   0  0  0  0  0  0  0  0  0  0  0  0
    0.0101    0.6588   -2.6536 C   0  0  0  0  0  0  0  0  0  0  0  0
   -1.3869    1.0900   -3.0270 C   0  0  0  0  0  0  0  0  0  0  0  0
   -2.3958    0.4536   -2.7519 O   0  0  0  0  0  0  0  0  0  0  0  0
   -1.4049    2.2557   -3.7194 O   0  0  0  0  0  0  0  0  0  0  0  0
    0.2381    0.4970    0.6194 H   0  0  0  0  0  0  0  0  0  0  0  0
   -0.7390   -0.9763   -1.4314 H   0  0  0  0  0  0  0  0  0  0  0  0
    0.5980    1.5766   -2.5264 H   0  0  0  0  0  0  0  0  0  0  0  0
    0.4676    0.1294   -3.4982 H   0  0  0  0  0  0  0  0  0  0  0  0
   -2.2964    2.5623   -3.9911 H   0  0  0  0  0  0  0  0  0  0  0  0
    1.9040   -0.4396    0.1005 N   0  0  0  0  0  0  0  0  0  0  0  0
    3.1982   -0.8899    0.5568 C   0  0  2  0  0  0  0  0  0  0  0  0
    4.2587   -0.2441   -0.3250 C   0  0  0  0  0  0  0  0  0  0  0  0
    4.0249    0.1780   -1.4556 O   0  0  0  0  0  0  0  0  0  0  0  0
    3.3039   -2.4064    0.5120 C   0  0  0  0  0  0  0  0  0  0  0  0
    1.3560    0.1631    0.7073 H   0  0  0  0  0  0  0  0  0  0  0  0
    3.3121   -0.5337    1.5865 H   0  0  0  0  0  0  0  0  0  0  0  0
    3.1922   -2.7818   -0.5118 H   0  0  0  0  0  0  0  0  0  0  0  0
    4.2751   -2.7476    0.8851 H   0  0  0  0  0  0  0  0  0  0  0  0
    2.5218   -2.8698    1.1231 H   0  0  0  0  0  0  0  0  0  0  0  0
    5.5067   -0.2335    0.2822 N   0  0  0  0  0  0  0  0  0  0  0  0
    6.6802    0.3143   -0.3571 C   0  0  0  0  0  0  0  0  0  0  0  0
    5.6046   -0.5876    1.2292 H   0  0  0  0  0  0  0  0  0  0  0  0
    7.2121   -0.4845   -0.8947 H   0  0  0  0  0  0  0  0  0  0  0  0
    6.3783    1.0969   -1.0688 H   0  0  0  0  0  0  0  0  0  0  0  0
    7.3441    0.7482    0.4051 H   0  0  0  0  0  0  0  0  0  0  0  0
  1  3  1  0  0  0  0
  1  7  1  0  0  0  0
  1  2  2  0  0  0  0
 31 32  1  0  0  0  0
 32 40  1  0  0  0  0
 32 33  2  0  0  0  0
  8  9  1  0  0  0  0
  9 17  1  0  0  0  0
  9 10  2  0  0  0  0
 18 19  1  0  0  0  0
 19 30  1  0  0  0  0
 19 20  2  0  0  0  0
 21 22  1  0  0  0  0
 22 23  2  0  0  0  0
 22 24  1  0  0  0  0
 31 34  1  0  0  0  0
  8 11  1  0  0  0  0
 40 41  1  0  0  0  0
 18 21  1  0  0  0  0
 30 31  1  0  0  0  0
  7  8  1  0  0  0  0
 17 18  1  0  0  0  0
  3  4  1  0  0  0  0
  3  5  1  0  0  0  0
  3  6  1  0  0  0  0
 34 37  1  0  0  0  0
 34 38  1  0  0  0  0
 34 39  1  0  0  0  0
 11 14  1  0  0  0  0
 11 15  1  0  0  0  0
 11 16  1  0  0  0  0
 41 43  1  0  0  0  0
 41 44  1  0  0  0  0
 41 45  1  0  0  0  0
 21 27  1  0  0  0  0
 21 28  1  0  0  0  0
 31 36  1  0  0  0  0
  8 13  1  0  0  0  0
 18 26  1  0  0  0  0
 40 42  1  0  0  0  0
  7 12  1  0  0  0  0
 30 35  1  0  0  0  0
 17 25  1  0  0  0  0
 24 29  1  0  0  0  0
M  END
$$$$

  -OEChem-05262214473D

 45 44  0     1  0  0  0  0  0999 V2000
   -2.2987    4.1032   -0.3022 C   0  0  0  0  0  0  0  0  0  0  0  0
   -1.8049    3.7117   -1.3532 O   0  0  0  0  0  0  0  0  0  0  0  0
   -3.0791    5.3755   -0.2846 C   0  0  0  0  0  0  0  0  0  0  0  0
   -2.4478    6.2532   -0.0717 H   0  0  0  0  0  0  0  0  0  0  0  0
   -3.5571    5.5891   -1.2541 H   0  0  0  0  0  0  0  0  0  0  0  0
   -3.8940    5.4184    0.4556 H   0  0  0  0  0  0  0  0  0  0  0  0
   -2.2137    3.4712    0.9275 N   0  0  0  0  0  0  0  0  0  0  0  0
   -1.5102    2.2327    1.1338 C   0  0  2  0  0  0  0  0  0  0  0  0
   -1.3539    1.5497   -0.2184 C   0  0  0  0  0  0  0  0  0  0  0  0
   -2.0852    1.7861   -1.1778 O   0  0  0  0  0  0  0  0  0  0  0  0
   -2.2477    1.3342    2.1145 C   0  0  0  0  0  0  0  0  0  0  0  0
   -2.6724    3.9052    1.7265 H   0  0  0  0  0  0  0  0  0  0  0  0
   -0.5220    2.4922    1.5290 H   0  0  0  0  0  0  0  0  0  0  0  0
   -3.2400    1.0636    1.7358 H   0  0  0  0  0  0  0  0  0  0  0  0
   -1.6970    0.4046    2.2923 H   0  0  0  0  0  0  0  0  0  0  0  0
   -2.3854    1.8384    3.0772 H   0  0  0  0  0  0  0  0  0  0  0  0
   -0.3283    0.6116   -0.2182 N   0  0  0  0  0  0  0  0  0  0  0  0
    0.0090   -0.1762   -1.3759 C   0  0  2  0  0  0  0  0  0  0  0  0
    1.3790   -0.7970   -1.1335 C   0  0  0  0  0  0  0  0  0  0  0  0
    2.0713   -1.2641   -2.0355 O   0  0  0  0  0  0  0  0  0  0  0  0
    0.0101    0.6588   -2.6536 C   0  0  0  0  0  0  0  0  0  0  0  0
   -1.3869    1.0900   -3.0270 C   0  0  0  0  0  0  0  0  0  0  0  0
   -2.3958    0.4536   -2.7519 O   0  0  0  0  0  0  0  0  0  0  0  0
   -1.4049    2.2557   -3.7194 O   0  0  0  0  0  0  0  0  0  0  0  0
    0.2381    0.4970    0.6194 H   0  0  0  0  0  0  0  0  0  0  0  0
   -0.7390   -0.9763   -1.4314 H   0  0  0  0  0  0  0  0  0  0  0  0
    0.5980    1.5766   -2.5264 H   0  0  0  0  0  0  0  0  0  0  0  0
    0.4676    0.1294   -3.4982 H   0  0  0  0  0  0  0  0  0  0  0  0
   -2.2964    2.5623   -3.9911 H   0  0  0  0  0  0  0  0  0  0  0  0
    1.7573   -0.7246    0.1999 N   0  0  0  0  0  0  0  0  0  0  0  0
    3.0213   -1.2322    0.6800 C   0  0  2  0  0  0  0  0  0  0  0  0
    4.1290   -0.3671    0.0933 C   0  0  0  0  0  0  0  0  0  0  0  0
    3.9877    0.3019   -0.9282 O   0  0  0  0  0  0  0  0  0  0  0  0
    3.2122   -2.6920    0.2987 C   0  0  0  0  0  0  0  0  0  0  0  0
    1.1194   -0.2973    0.8649 H   0  0  0  0  0  0  0  0  0  0  0  0
    3.0118   -1.1247    1.7701 H   0  0  0  0  0  0  0  0  0  0  0  0
    3.2244   -2.8195   -0.7900 H   0  0  0  0  0  0  0  0  0  0  0  0
    4.1579   -3.0834    0.6878 H   0  0  0  0  0  0  0  0  0  0  0  0
    2.3986   -3.3082    0.6964 H   0  0  0  0  0  0  0  0  0  0  0  0
    5.3071   -0.4637    0.8205 N   0  0  0  0  0  0  0  0  0  0  0  0
    6.5079    0.2524    0.4581 C   0  0  0  0  0  0  0  0  0  0  0  0
    5.3282   -1.0275    1.6652 H   0  0  0  0  0  0  0  0  0  0  0  0
    7.1333   -0.3821   -0.1870 H   0  0  0  0  0  0  0  0  0  0  0  0
    6.2375    1.1713   -0.0827 H   0  0  0  0  0  0  0  0  0  0  0  0
    7.0675    0.5139    1.3683 H   0  0  0  0  0  0  0  0  0  0  0  0
  1  3  1  0  0  0  0
  1  7  1  0  0  0  0
  1  2  2  0  0  0  0
 31 32  1  0  0  0  0
 32 40  1  0  0  0  0
 32 33  2  0  0  0  0
  8  9  1  0  0  0  0
  9 17  1  0  0  0  0
  9 10  2  0  0  0  0
 18 19  1  0  0  0  0
 19 30  1  0  0  0  0
 19 20  2  0  0  0  0
 21 22  1  0  0  0  0
 22 23  2  0  0  0  0
 22 24  1  0  0  0  0
 31 34  1  0  0  0  0
  8 11  1  0  0  0  0
 40 41  1  0  0  0  0
 18 21  1  0  0  0  0
 30 31  1  0  0  0  0
  7  8  1  0  0  0  0
 17 18  1  0  0  0  0
  3  4  1  0  0  0  0
  3  5  1  0  0  0  0
  3  6  1  0  0  0  0
 34 37  1  0  0  0  0
 34 38  1  0  0  0  0
 34 39  1  0  0  0  0
 11 14  1  0  0  0  0
 11 15  1  0  0  0  0
 11 16  1  0  0  0  0
 41 43  1  0  0  0  0
 41 44  1  0  0  0  0
 41 45  1  0  0  0  0
 21 27  1  0  0  0  0
 21 28  1  0  0  0  0
 31 36  1  0  0  0  0
  8 13  1  0  0  0  0
 18 26  1  0  0  0  0
 40 42  1  0  0  0  0
  7 12  1  0  0  0  0
 30 35  1  0  0  0  0
 17 25  1  0  0  0  0
 24 29  1  0  0  0  0
M  END
$$$$

  -OEChem-05262214473D

 45 44  0     1  0  0  0  0  0999 V2000
   -2.2987    4.1032   -0.3022 C   0  0  0  0  0  0  0  0  0  0  0  0
   -1.8049    3.7117   -1.3532 O   0  0  0  0  0  0  0  0  0  0  0  0
   -3.0791    5.3755   -0.2846 C   0  0  0  0  0  0  0  0  0  0  0  0
   -2.4478    6.2532   -0.0717 H   0  0  0  0  0  0  0  0  0  0  0  0
   -3.5571    5.5891   -1.2541 H   0  0  0  0  0  0  0  0  0  0  0  0
   -3.8940    5.4184    0.4556 H   0  0  0  0  0  0  0  0  0  0  0  0
   -2.2137    3.4712    0.9275 N   0  0  0  0  0  0  0  0  0  0  0  0
   -1.5102    2.2327    1.1338 C   0  0  2  0  0  0  0  0  0  0  0  0
   -1.3539    1.5497   -0.2184 C   0  0  0  0  0  0  0  0  0  0  0  0
   -2.0852    1.7861   -1.1778 O   0  0  0  0  0  0  0  0  0  0  0  0
   -2.2477    1.3342    2.1145 C   0  0  0  0  0  0  0  0  0  0  0  0
   -2.6724    3.9052    1.7265 H   0  0  0  0  0  0  0  0  0  0  0  0
   -0.5220    2.4922    1.5290 H   0  0  0  0  0  0  0  0  0  0  0  0
   -3.2400    1.0636    1.7358 H   0  0  0  0  0  0  0  0  0  0  0  0
   -1.6970    0.4046    2.2923 H   0  0  0  0  0  0  0  0  0  0  0  0
   -2.3854    1.8384    3.0772 H   0  0  0  0  0  0  0  0  0  0  0  0
   -0.3283    0.6116   -0.2182 N   0  0  0  0  0  0  0  0  0  0  0  0
    0.0090   -0.1762   -1.3759 C   0  0  2  0  0  0  0  0  0  0  0  0
    1.3790   -0.7970   -1.1335 C   0  0  0  0  0  0  0  0  0  0  0  0
    2.1826   -1.0190   -2.0369 O   0  0  0  0  0  0  0  0  0  0  0  0
    0.0101    0.6588   -2.6536 C   0  0  0  0  0  0  0  0  0  0  0  0
   -1.3869    1.0900   -3.0270 C   0  0  0  0  0  0  0  0  0  0  0  0
   -2.3958    0.4536   -2.7519 O   0  0  0  0  0  0  0  0  0  0  0  0
   -1.4049    2.2557   -3.7194 O   0  0  0  0  0  0  0  0  0  0  0  0
    0.2381    0.4970    0.6194 H   0  0  0  0  0  0  0  0  0  0  0  0
   -0.7390   -0.9763   -1.4314 H   0  0  0  0  0  0  0  0  0  0  0  0
    0.5980    1.5766   -2.5264 H   0  0  0  0  0  0  0  0  0  0  0  0
    0.4676    0.1294   -3.4982 H   0  0  0  0  0  0  0  0  0  0  0  0
   -2.2964    2.5623   -3.9911 H   0  0  0  0  0  0  0  0  0  0  0  0
    1.6169   -1.0291    0.2140 N   0  0  0  0  0  0  0  0  0  0  0  0
    2.8516   -1.5988    0.7006 C   0  0  2  0  0  0  0  0  0  0  0  0
    3.9646   -0.5886    0.4551 C   0  0  0  0  0  0  0  0  0  0  0  0
    3.8911    0.2973   -0.3939 O   0  0  0  0  0  0  0  0  0  0  0  0
    3.1579   -2.9220    0.0165 C   0  0  0  0  0  0  0  0  0  0  0  0
    0.8933   -0.7885    0.8851 H   0  0  0  0  0  0  0  0  0  0  0  0
    2.7267   -1.7508    1.7783 H   0  0  0  0  0  0  0  0  0  0  0  0
    3.2863   -2.7898   -1.0640 H   0  0  0  0  0  0  0  0  0  0  0  0
    4.0793   -3.3666    0.4068 H   0  0  0  0  0  0  0  0  0  0  0  0
    2.3427   -3.6376    0.1691 H   0  0  0  0  0  0  0  0  0  0  0  0
    5.0671   -0.8195    1.2658 N   0  0  0  0  0  0  0  0  0  0  0  0
    6.2581   -0.0042    1.2131 C   0  0  0  0  0  0  0  0  0  0  0  0
    5.0334   -1.5651    1.9548 H   0  0  0  0  0  0  0  0  0  0  0  0
    6.9783   -0.4511    0.5120 H   0  0  0  0  0  0  0  0  0  0  0  0
    5.9946    1.0079    0.8722 H   0  0  0  0  0  0  0  0  0  0  0  0
    6.7085    0.0521    2.2151 H   0  0  0  0  0  0  0  0  0  0  0  0
  1  3  1  0  0  0  0
  1  7  1  0  0  0  0
  1  2  2  0  0  0  0
 31 32  1  0  0  0  0
 32 40  1  0  0  0  0
 32 33  2  0  0  0  0
  8  9  1  0  0  0  0
  9 17  1  0  0  0  0
  9 10  2  0  0  0  0
 18 19  1  0  0  0  0
 19 30  1  0  0  0  0
 19 20  2  0  0  0  0
 21 22  1  0  0  0  0
 22 23  2  0  0  0  0
 22 24  1  0  0  0  0
 31 34  1  0  0  0  0
  8 11  1  0  0  0  0
 40 41  1  0  0  0  0
 18 21  1  0  0  0  0
 30 31  1  0  0  0  0
  7  8  1  0  0  0  0
 17 18  1  0  0  0  0
  3  4  1  0  0  0  0
  3  5  1  0  0  0  0
  3  6  1  0  0  0  0
 34 37  1  0  0  0  0
 34 38  1  0  0  0  0
 34 39  1  0  0  0  0
 11 14  1  0  0  0  0
 11 15  1  0  0  0  0
 11 16  1  0  0  0  0
 41 43  1  0  0  0  0
 41 44  1  0  0  0  0
 41 45  1  0  0  0  0
 21 27  1  0  0  0  0
 21 28  1  0  0  0  0
 31 36  1  0  0  0  0
  8 13  1  0  0  0  0
 18 26  1  0  0  0  0
 40 42  1  0  0  0  0
  7 12  1  0  0  0  0
 30 35  1  0  0  0  0
 17 25  1  0  0  0  0
 24 29  1  0  0  0  0
M  END
$$$$

  -OEChem-05262214473D

 45 44  0     1  0  0  0  0  0999 V2000
   -2.2987    4.1032   -0.3022 C   0  0  0  0  0  0  0  0  0  0  0  0
   -1.8049    3.7117   -1.3532 O   0  0  0  0  0  0  0  0  0  0  0  0
   -3.0791    5.3755   -0.2846 C   0  0  0  0  0  0  0  0  0  0  0  0
   -2.4478    6.2532   -0.0717 H   0  0  0  0  0  0  0  0  0  0  0  0
   -3.5571    5.5891   -1.2541 H   0  0  0  0  0  0  0  0  0  0  0  0
   -3.8940    5.4184    0.4556 H   0  0  0  0  0  0  0  0  0  0  0  0
   -2.2137    3.4712    0.9275 N   0  0  0  0  0  0  0  0  0  0  0  0
   -1.5102    2.2327    1.1338 C   0  0  2  0  0  0  0  0  0  0  0  0
   -1.3539    1.5497   -0.2184 C   0  0  0  0  0  0  0  0  0  0  0  0
   -2.0852    1.7861   -1.1778 O   0  0  0  0  0  0  0  0  0  0  0  0
   -2.2477    1.3342    2.1145 C   0  0  0  0  0  0  0  0  0  0  0  0
   -2.6724    3.9052    1.7265 H   0  0  0  0  0  0  0  0  0  0  0  0
   -0.5220    2.4922    1.5290 H   0  0  0  0  0  0  0  0  0  0  0  0
   -3.2400    1.0636    1.7358 H   0  0  0  0  0  0  0  0  0  0  0  0
   -1.6970    0.4046    2.2923 H   0  0  0  0  0  0  0  0  0  0  0  0
   -2.3854    1.8384    3.0772 H   0  0  0  0  0  0  0  0  0  0  0  0
   -0.3283    0.6116   -0.2182 N   0  0  0  0  0  0  0  0  0  0  0  0
    0.0090   -0.1762   -1.3759 C   0  0  2  0  0  0  0  0  0  0  0  0
    1.3790   -0.7970   -1.1335 C   0  0  0  0  0  0  0  0  0  0  0  0
    2.2801   -0.7774   -1.9694 O   0  0  0  0  0  0  0  0  0  0  0  0
    0.0101    0.6588   -2.6536 C   0  0  0  0  0  0  0  0  0  0  0  0
   -1.3869    1.0900   -3.0270 C   0  0  0  0  0  0  0  0  0  0  0  0
   -2.3958    0.4536   -2.7519 O   0  0  0  0  0  0  0  0  0  0  0  0
   -1.4049    2.2557   -3.7194 O   0  0  0  0  0  0  0  0  0  0  0  0
    0.2381    0.4970    0.6194 H   0  0  0  0  0  0  0  0  0  0  0  0
   -0.7390   -0.9763   -1.4314 H   0  0  0  0  0  0  0  0  0  0  0  0
    0.5980    1.5766   -2.5264 H   0  0  0  0  0  0  0  0  0  0  0  0
    0.4676    0.1294   -3.4982 H   0  0  0  0  0  0  0  0  0  0  0  0
   -2.2964    2.5623   -3.9911 H   0  0  0  0  0  0  0  0  0  0  0  0
    1.4923   -1.3322    0.1420 N   0  0  0  0  0  0  0  0  0  0  0  0
    2.7006   -1.9647    0.6173 C   0  0  2  0  0  0  0  0  0  0  0  0
    3.7768   -0.8936    0.7356 C   0  0  0  0  0  0  0  0  0  0  0  0
    3.7416    0.1645    0.1110 O   0  0  0  0  0  0  0  0  0  0  0  0
    3.1447   -3.0808   -0.3154 C   0  0  0  0  0  0  0  0  0  0  0  0
    0.6930   -1.2770    0.7664 H   0  0  0  0  0  0  0  0  0  0  0  0
    2.4763   -2.3691    1.6104 H   0  0  0  0  0  0  0  0  0  0  0  0
    3.3738   -2.6947   -1.3153 H   0  0  0  0  0  0  0  0  0  0  0  0
    4.0447   -3.5780    0.0612 H   0  0  0  0  0  0  0  0  0  0  0  0
    2.3579   -3.8352   -0.4227 H   0  0  0  0  0  0  0  0  0  0  0  0
    4.8030   -1.2768    1.5879 N   0  0  0  0  0  0  0  0  0  0  0  0
    5.9477   -0.4380    1.8562 C   0  0  0  0  0  0  0  0  0  0  0  0
    4.7401   -2.1641    2.0783 H   0  0  0  0  0  0  0  0  0  0  0  0
    6.7578   -0.6869    1.1549 H   0  0  0  0  0  0  0  0  0  0  0  0
    5.6659    0.6178    1.7309 H   0  0  0  0  0  0  0  0  0  0  0  0
    6.2914   -0.6059    2.8876 H   0  0  0  0  0  0  0  0  0  0  0  0
  1  3  1  0  0  0  0
  1  7  1  0  0  0  0
  1  2  2  0  0  0  0
 31 32  1  0  0  0  0
 32 40  1  0  0  0  0
 32 33  2  0  0  0  0
  8  9  1  0  0  0  0
  9 17  1  0  0  0  0
  9 10  2  0  0  0  0
 18 19  1  0  0  0  0
 19 30  1  0  0  0  0
 19 20  2  0  0  0  0
 21 22  1  0  0  0  0
 22 23  2  0  0  0  0
 22 24  1  0  0  0  0
 31 34  1  0  0  0  0
  8 11  1  0  0  0  0
 40 41  1  0  0  0  0
 18 21  1  0  0  0  0
 30 31  1  0  0  0  0
  7  8  1  0  0  0  0
 17 18  1  0  0  0  0
  3  4  1  0  0  0  0
  3  5  1  0  0  0  0
  3  6  1  0  0  0  0
 34 37  1  0  0  0  0
 34 38  1  0  0  0  0
 34 39  1  0  0  0  0
 11 14  1  0  0  0  0
 11 15  1  0  0  0  0
 11 16  1  0  0  0  0
 41 43  1  0  0  0  0
 41 44  1  0  0  0  0
 41 45  1  0  0  0  0
 21 27  1  0  0  0  0
 21 28  1  0  0  0  0
 31 36  1  0  0  0  0
  8 13  1  0  0  0  0
 18 26  1  0  0  0  0
 40 42  1  0  0  0  0
  7 12  1  0  0  0  0
 30 35  1  0  0  0  0
 17 25  1  0  0  0  0
 24 29  1  0  0  0  0
M  END
$$$$

  -OEChem-05262214473D

 45 44  0     1  0  0  0  0  0999 V2000
   -2.2987    4.1032   -0.3022 C   0  0  0  0  0  0  0  0  0  0  0  0
   -1.8049    3.7117   -1.3532 O   0  0  0  0  0  0  0  0  0  0  0  0
   -3.0791    5.3755   -0.2846 C   0  0  0  0  0  0  0  0  0  0  0  0
   -2.4478    6.2532   -0.0717 H   0  0  0  0  0  0  0  0  0  0  0  0
   -3.5571    5.5891   -1.2541 H   0  0  0  0  0  0  0  0  0  0  0  0
   -3.8940    5.4184    0.4556 H   0  0  0  0  0  0  0  0  0  0  0  0
   -2.2137    3.4712    0.9275 N   0  0  0  0  0  0  0  0  0  0  0  0
   -1.5102    2.2327    1.1338 C   0  0  2  0  0  0  0  0  0  0  0  0
   -1.3539    1.5497   -0.2184 C   0  0  0  0  0  0  0  0  0  0  0  0
   -2.0852    1.7861   -1.1778 O   0  0  0  0  0  0  0  0  0  0  0  0
   -2.2477    1.3342    2.1145 C   0  0  0  0  0  0  0  0  0  0  0  0
   -2.6724    3.9052    1.7265 H   0  0  0  0  0  0  0  0  0  0  0  0
   -0.5220    2.4922    1.5290 H   0  0  0  0  0  0  0  0  0  0  0  0
   -3.2400    1.0636    1.7358 H   0  0  0  0  0  0  0  0  0  0  0  0
   -1.6970    0.4046    2.2923 H   0  0  0  0  0  0  0  0  0  0  0  0
   -2.3854    1.8384    3.0772 H   0  0  0  0  0  0  0  0  0  0  0  0
   -0.3283    0.6116   -0.2182 N   0  0  0  0  0  0  0  0  0  0  0  0
    0.0090   -0.1762   -1.3759 C   0  0  2  0  0  0  0  0  0  0  0  0
    1.3790   -0.7970   -1.1335 C   0  0  0  0  0  0  0  0  0  0  0  0
    2.3573   -0.5557   -1.8377 O   0  0  0  0  0  0  0  0  0  0  0  0
    0.0101    0.6588   -2.6536 C   0  0  0  0  0  0  0  0  0  0  0  0
   -1.3869    1.0900   -3.0270 C   0  0  0  0  0  0  0  0  0  0  0  0
   -2.3958    0.4536   -2.7519 O   0  0  0  0  0  0  0  0  0  0  0  0
   -1.4049    2.2557   -3.7194 O   0  0  0  0  0  0  0  0  0  0  0  0
    0.2381    0.4970    0.6194 H   0  0  0  0  0  0  0  0  0  0  0  0
   -0.7390   -0.9763   -1.4314 H   0  0  0  0  0  0  0  0  0  0  0  0
    0.5980    1.5766   -2.5264 H   0  0  0  0  0  0  0  0  0  0  0  0
    0.4676    0.1294   -3.4982 H   0  0  0  0  0  0  0  0  0  0  0  0
   -2.2964    2.5623   -3.9911 H   0  0  0  0  0  0  0  0  0  0  0  0
    1.3920   -1.6135   -0.0113 N   0  0  0  0  0  0  0  0  0  0  0  0
    2.5785   -2.3050    0.4358 C   0  0  2  0  0  0  0  0  0  0  0  0
    3.5784   -1.2612    0.9158 C   0  0  0  0  0  0  0  0  0  0  0  0
    3.5494   -0.0874    0.5520 O   0  0  0  0  0  0  0  0  0  0  0  0
    3.1734   -3.1574   -0.6742 C   0  0  0  0  0  0  0  0  0  0  0  0
    0.5322   -1.7294    0.5170 H   0  0  0  0  0  0  0  0  0  0  0  0
    2.2775   -2.9377    1.2778 H   0  0  0  0  0  0  0  0  0  0  0  0
    3.4810   -2.5408   -1.5267 H   0  0  0  0  0  0  0  0  0  0  0  0
    4.0564   -3.7032   -0.3255 H   0  0  0  0  0  0  0  0  0  0  0  0
    2.4430   -3.8878   -1.0387 H   0  0  0  0  0  0  0  0  0  0  0  0
    4.5327   -1.8043    1.7646 N   0  0  0  0  0  0  0  0  0  0  0  0
    5.5980   -1.0196    2.3437 C   0  0  0  0  0  0  0  0  0  0  0  0
    4.4686   -2.7834    2.0273 H   0  0  0  0  0  0  0  0  0  0  0  0
    6.4866   -1.0734    1.6977 H   0  0  0  0  0  0  0  0  0  0  0  0
    5.2739    0.0277    2.4349 H   0  0  0  0  0  0  0  0  0  0  0  0
    5.8447   -1.4151    3.3401 H   0  0  0  0  0  0  0  0  0  0  0  0
  1  3  1  0  0  0  0
  1  7  1  0  0  0  0
  1  2  2  0  0  0  0
 31 32  1  0  0  0  0
 32 40  1  0  0  0  0
 32 33  2  0  0  0  0
  8  9  1  0  0  0  0
  9 17  1  0  0  0  0
  9 10  2  0  0  0  0
 18 19  1  0  0  0  0
 19 30  1  0  0  0  0
 19 20  2  0  0  0  0
 21 22  1  0  0  0  0
 22 23  2  0  0  0  0
 22 24  1  0  0  0  0
 31 34  1  0  0  0  0
  8 11  1  0  0  0  0
 40 41  1  0  0  0  0
 18 21  1  0  0  0  0
 30 31  1  0  0  0  0
  7  8  1  0  0  0  0
 17 18  1  0  0  0  0
  3  4  1  0  0  0  0
  3  5  1  0  0  0  0
  3  6  1  0  0  0  0
 34 37  1  0  0  0  0
 34 38  1  0  0  0  0
 34 39  1  0  0  0  0
 11 14  1  0  0  0  0
 11 15  1  0  0  0  0
 11 16  1  0  0  0  0
 41 43  1  0  0  0  0
 41 44  1  0  0  0  0
 41 45  1  0  0  0  0
 21 27  1  0  0  0  0
 21 28  1  0  0  0  0
 31 36  1  0  0  0  0
  8 13  1  0  0  0  0
 18 26  1  0  0  0  0
 40 42  1  0  0  0  0
  7 12  1  0  0  0  0
 30 35  1  0  0  0  0
 17 25  1  0  0  0  0
 24 29  1  0  0  0  0
M  END
$$$$

  -OEChem-05262214473D

 45 44  0     1  0  0  0  0  0999 V2000
   -2.2987    4.1032   -0.3022 C   0  0  0  0  0  0  0  0  0  0  0  0
   -1.8049    3.7117   -1.3532 O   0  0  0  0  0  0  0  0  0  0  0  0
   -3.0791    5.3755   -0.2846 C   0  0  0  0  0  0  0  0  0  0  0  0
   -2.4478    6.2532   -0.0717 H   0  0  0  0  0  0  0  0  0  0  0  0
   -3.5571    5.5891   -1.2541 H   0  0  0  0  0  0  0  0  0  0  0  0
   -3.8940    5.4184    0.4556 H   0  0  0  0  0  0  0  0  0  0  0  0
   -2.2137    3.4712    0.9275 N   0  0  0  0  0  0  0  0  0  0  0  0
   -1.5102    2.2327    1.1338 C   0  0  2  0  0  0  0  0  0  0  0  0
   -1.3539    1.5497   -0.2184 C   0  0  0  0  0  0  0  0  0  0  0  0
   -2.0852    1.7861   -1.1778 O   0  0  0  0  0  0  0  0  0  0  0  0
   -2.2477    1.3342    2.1145 C   0  0  0  0  0  0  0  0  0  0  0  0
   -2.6724    3.9052    1.7265 H   0  0  0  0  0  0  0  0  0  0  0  0
   -0.5220    2.4922    1.5290 H   0  0  0  0  0  0  0  0  0  0  0  0
   -3.2400    1.0636    1.7358 H   0  0  0  0  0  0  0  0  0  0  0  0
   -1.6970    0.4046    2.2923 H   0  0  0  0  0  0  0  0  0  0  0  0
   -2.3854    1.8384    3.0772 H   0  0  0  0  0  0  0  0  0  0  0  0
   -0.3283    0.6116   -0.2182 N   0  0  0  0  0  0  0  0  0  0  0  0
    0.0090   -0.1762   -1.3759 C   0  0  2  0  0  0  0  0  0  0  0  0
    1.3790   -0.7970   -1.1335 C   0  0  0  0  0  0  0  0  0  0  0  0
    2.4088   -0.3690   -1.6508 O   0  0  0  0  0  0  0  0  0  0  0  0
    0.0101    0.6588   -2.6536 C   0  0  0  0  0  0  0  0  0  0  0  0
   -1.3869    1.0900   -3.0270 C   0  0  0  0  0  0  0  0  0  0  0  0
   -2.3958    0.4536   -2.7519 O   0  0  0  0  0  0  0  0  0  0  0  0
   -1.4049    2.2557   -3.7194 O   0  0  0  0  0  0  0  0  0  0  0  0
    0.2381    0.4970    0.6194 H   0  0  0  0  0  0  0  0  0  0  0  0
   -0.7390   -0.9763   -1.4314 H   0  0  0  0  0  0  0  0  0  0  0  0
    0.5980    1.5766   -2.5264 H   0  0  0  0  0  0  0  0  0  0  0  0
    0.4676    0.1294   -3.4982 H   0  0  0  0  0  0  0  0  0  0  0  0
   -2.2964    2.5623   -3.9911 H   0  0  0  0  0  0  0  0  0  0  0  0
    1.3228   -1.8536   -0.2354 N   0  0  0  0  0  0  0  0  0  0  0  0
    2.4938   -2.5964    0.1683 C   0  0  2  0  0  0  0  0  0  0  0  0
    3.3828   -1.6664    0.9834 C   0  0  0  0  0  0  0  0  0  0  0  0
    3.3277   -0.4413    0.8991 O   0  0  0  0  0  0  0  0  0  0  0  0
    3.2422   -3.1468   -1.0357 C   0  0  0  0  0  0  0  0  0  0  0  0
    0.4217   -2.1150    0.1538 H   0  0  0  0  0  0  0  0  0  0  0  0
    2.1440   -3.4176    0.8034 H   0  0  0  0  0  0  0  0  0  0  0  0
    3.6004   -2.3386   -1.6837 H   0  0  0  0  0  0  0  0  0  0  0  0
    4.1136   -3.7336   -0.7269 H   0  0  0  0  0  0  0  0  0  0  0  0
    2.5924   -3.7917   -1.6370 H   0  0  0  0  0  0  0  0  0  0  0  0
    4.2747   -2.3661    1.7841 N   0  0  0  0  0  0  0  0  0  0  0  0
    5.2327   -1.7092    2.6424 C   0  0  0  0  0  0  0  0  0  0  0  0
    4.2371   -3.3809    1.8053 H   0  0  0  0  0  0  0  0  0  0  0  0
    6.1834   -1.5842    2.1034 H   0  0  0  0  0  0  0  0  0  0  0  0
    4.8454   -0.7224    2.9362 H   0  0  0  0  0  0  0  0  0  0  0  0
    5.3988   -2.3205    3.5417 H   0  0  0  0  0  0  0  0  0  0  0  0
  1  3  1  0  0  0  0
  1  7  1  0  0  0  0
  1  2  2  0  0  0  0
 31 32  1  0  0  0  0
 32 40  1  0  0  0  0
 32 33  2  0  0  0  0
  8  9  1  0  0  0  0
  9 17  1  0  0  0  0
  9 10  2  0  0  0  0
 18 19  1  0  0  0  0
 19 30  1  0  0  0  0
 19 20  2  0  0  0  0
 21 22  1  0  0  0  0
 22 23  2  0  0  0  0
 22 24  1  0  0  0  0
 31 34  1  0  0  0  0
  8 11  1  0  0  0  0
 40 41  1  0  0  0  0
 18 21  1  0  0  0  0
 30 31  1  0  0  0  0
  7  8  1  0  0  0  0
 17 18  1  0  0  0  0
  3  4  1  0  0  0  0
  3  5  1  0  0  0  0
  3  6  1  0  0  0  0
 34 37  1  0  0  0  0
 34 38  1  0  0  0  0
 34 39  1  0  0  0  0
 11 14  1  0  0  0  0
 11 15  1  0  0  0  0
 11 16  1  0  0  0  0
 41 43  1  0  0  0  0
 41 44  1  0  0  0  0
 41 45  1  0  0  0  0
 21 27  1  0  0  0  0
 21 28  1  0  0  0  0
 31 36  1  0  0  0  0
  8 13  1  0  0  0  0
 18 26  1  0  0  0  0
 40 42  1  0  0  0  0
  7 12  1  0  0  0  0
 30 35  1  0  0  0  0
 17 25  1  0  0  0  0
 24 29  1  0  0  0  0
M  END
$$$$

  -OEChem-05262214473D

 45 44  0     1  0  0  0  0  0999 V2000
   -2.2987    4.1032   -0.3022 C   0  0  0  0  0  0  0  0  0  0  0  0
   -1.8049    3.7117   -1.3532 O   0  0  0  0  0  0  0  0  0  0  0  0
   -3.0791    5.3755   -0.2846 C   0  0  0  0  0  0  0  0  0  0  0  0
   -2.4478    6.2532   -0.0717 H   0  0  0  0  0  0  0  0  0  0  0  0
   -3.5571    5.5891   -1.2541 H   0  0  0  0  0  0  0  0  0  0  0  0
   -3.8940    5.4184    0.4556 H   0  0  0  0  0  0  0  0  0  0  0  0
   -2.2137    3.4712    0.9275 N   0  0  0  0  0  0  0  0  0  0  0  0
   -1.5102    2.2327    1.1338 C   0  0  2  0  0  0  0  0  0  0  0  0
   -1.3539    1.5497   -0.2184 C   0  0  0  0  0  0  0  0  0  0  0  0
   -2.0852    1.7861   -1.1778 O   0  0  0  0  0  0  0  0  0  0  0  0
   -2.2477    1.3342    2.1145 C   0  0  0  0  0  0  0  0  0  0  0  0
   -2.6724    3.9052    1.7265 H   0  0  0  0  0  0  0  0  0  0  0  0
   -0.5220    2.4922    1.5290 H   0  0  0  0  0  0  0  0  0  0  0  0
   -3.2400    1.0636    1.7358 H   0  0  0  0  0  0  0  0  0  0  0  0
   -1.6970    0.4046    2.2923 H   0  0  0  0  0  0  0  0  0  0  0  0
   -2.3854    1.8384    3.0772 H   0  0  0  0  0  0  0  0  0  0  0  0
   -0.3283    0.6116   -0.2182 N   0  0  0  0  0  0  0  0  0  0  0  0
    0.0090   -0.1762   -1.3759 C   0  0  2  0  0  0  0  0  0  0  0  0
    1.3790   -0.7970   -1.1335 C   0  0  0  0  0  0  0  0  0  0  0  0
    2.4311   -0.2301   -1.4213 O   0  0  0  0  0  0  0  0  0  0  0  0
    0.0101    0.6588   -2.6536 C   0  0  0  0  0  0  0  0  0  0  0  0
   -1.3869    1.0900   -3.0270 C   0  0  0  0  0  0  0  0  0  0  0  0
   -2.3958    0.4536   -2.7519 O   0  0  0  0  0  0  0  0  0  0  0  0
   -1.4049    2.2557   -3.7194 O   0  0  0  0  0  0  0  0  0  0  0  0
    0.2381    0.4970    0.6194 H   0  0  0  0  0  0  0  0  0  0  0  0
   -0.7390   -0.9763   -1.4314 H   0  0  0  0  0  0  0  0  0  0  0  0
    0.5980    1.5766   -2.5264 H   0  0  0  0  0  0  0  0  0  0  0  0
    0.4676    0.1294   -3.4982 H   0  0  0  0  0  0  0  0  0  0  0  0
   -2.2964    2.5623   -3.9911 H   0  0  0  0  0  0  0  0  0  0  0  0
    1.2896   -2.0362   -0.5150 N   0  0  0  0  0  0  0  0  0  0  0  0
    2.4522   -2.8191   -0.1667 C   0  0  2  0  0  0  0  0  0  0  0  0
    3.2035   -2.0816    0.9337 C   0  0  0  0  0  0  0  0  0  0  0  0
    3.0915   -0.8730    1.1285 O   0  0  0  0  0  0  0  0  0  0  0  0
    3.3463   -3.0495   -1.3751 C   0  0  0  0  0  0  0  0  0  0  0  0
    0.3692   -2.4075   -0.2984 H   0  0  0  0  0  0  0  0  0  0  0  0
    2.0848   -3.7762    0.2193 H   0  0  0  0  0  0  0  0  0  0  0  0
    3.7240   -2.1017   -1.7758 H   0  0  0  0  0  0  0  0  0  0  0  0
    4.2125   -3.6672   -1.1157 H   0  0  0  0  0  0  0  0  0  0  0  0
    2.7959   -3.5535   -2.1768 H   0  0  0  0  0  0  0  0  0  0  0  0
    4.0466   -2.9239    1.6449 N   0  0  0  0  0  0  0  0  0  0  0  0
    4.8767   -2.4598    2.7319 C   0  0  0  0  0  0  0  0  0  0  0  0
    4.0616   -3.9160    1.4273 H   0  0  0  0  0  0  0  0  0  0  0  0
    5.8688   -2.1845    2.3445 H   0  0  0  0  0  0  0  0  0  0  0  0
    4.4095   -1.5813    3.2007 H   0  0  0  0  0  0  0  0  0  0  0  0
    4.9841   -3.2603    3.4787 H   0  0  0  0  0  0  0  0  0  0  0  0
  1  3  1  0  0  0  0
  1  7  1  0  0  0  0
  1  2  2  0  0  0  0
 31 32  1  0  0  0  0
 32 40  1  0  0  0  0
 32 33  2  0  0  0  0
  8  9  1  0  0  0  0
  9 17  1  0  0  0  0
  9 10  2  0  0  0  0
 18 19  1  0  0  0  0
 19 30  1  0  0  0  0
 19 20  2  0  0  0  0
 21 22  1  0  0  0  0
 22 23  2  0  0  0  0
 22 24  1  0  0  0  0
 31 34  1  0  0  0  0
  8 11  1  0  0  0  0
 40 41  1  0  0  0  0
 18 21  1  0  0  0  0
 30 31  1  0  0  0  0
  7  8  1  0  0  0  0
 17 18  1  0  0  0  0
  3  4  1  0  0  0  0
  3  5  1  0  0  0  0
  3  6  1  0  0  0  0
 34 37  1  0  0  0  0
 34 38  1  0  0  0  0
 34 39  1  0  0  0  0
 11 14  1  0  0  0  0
 11 15  1  0  0  0  0
 11 16  1  0  0  0  0
 41 43  1  0  0  0  0
 41 44  1  0  0  0  0
 41 45  1  0  0  0  0
 21 27  1  0  0  0  0
 21 28  1  0  0  0  0
 31 36  1  0  0  0  0
  8 13  1  0  0  0  0
 18 26  1  0  0  0  0
 40 42  1  0  0  0  0
  7 12  1  0  0  0  0
 30 35  1  0  0  0  0
 17 25  1  0  0  0  0
 24 29  1  0  0  0  0
M  END
$$$$

  -OEChem-05262214473D

 45 44  0     1  0  0  0  0  0999 V2000
   -2.2987    4.1032   -0.3022 C   0  0  0  0  0  0  0  0  0  0  0  0
   -1.8049    3.7117   -1.3532 O   0  0  0  0  0  0  0  0  0  0  0  0
   -3.0791    5.3755   -0.2846 C   0  0  0  0  0  0  0  0  0  0  0  0
   -2.4478    6.2532   -0.0717 H   0  0  0  0  0  0  0  0  0  0  0  0
   -3.5571    5.5891   -1.2541 H   0  0  0  0  0  0  0  0  0  0  0  0
   -3.8940    5.4184    0.4556 H   0  0  0  0  0  0  0  0  0  0  0  0
   -2.2137    3.4712    0.9275 N   0  0  0  0  0  0  0  0  0  0  0  0
   -1.5102    2.2327    1.1338 C   0  0  2  0  0  0  0  0  0  0  0  0
   -1.3539    1.5497   -0.2184 C   0  0  0  0  0  0  0  0  0  0  0  0
   -2.0852    1.7861   -1.1778 O   0  0  0  0  0  0  0  0  0  0  0  0
   -2.2477    1.3342    2.1145 C   0  0  0  0  0  0  0  0  0  0  0  0
   -2.6724    3.9052    1.7265 H   0  0  0  0  0  0  0  0  0  0  0  0
   -0.5220    2.4922    1.5290 H   0  0  0  0  0  0  0  0  0  0  0  0
   -3.2400    1.0636    1.7358 H   0  0  0  0  0  0  0  0  0  0  0  0
   -1.6970    0.4046    2.2923 H   0  0  0  0  0  0  0  0  0  0  0  0
   -2.3854    1.8384    3.0772 H   0  0  0  0  0  0  0  0  0  0  0  0
   -0.3283    0.6116   -0.2182 N   0  0  0  0  0  0  0  0  0  0  0  0
    0.0090   -0.1762   -1.3759 C   0  0  2  0  0  0  0  0  0  0  0  0
    1.3790   -0.7970   -1.1335 C   0  0  0  0  0  0  0  0  0  0  0  0
    2.4228   -0.1484   -1.1650 O   0  0  0  0  0  0  0  0  0  0  0  0
    0.0101    0.6588   -2.6536 C   0  0  0  0  0  0  0  0  0  0  0  0
   -1.3869    1.0900   -3.0270 C   0  0  0  0  0  0  0  0  0  0  0  0
   -2.3958    0.4536   -2.7519 O   0  0  0  0  0  0  0  0  0  0  0  0
   -1.4049    2.2557   -3.7194 O   0  0  0  0  0  0  0  0  0  0  0  0
    0.2381    0.4970    0.6194 H   0  0  0  0  0  0  0  0  0  0  0  0
   -0.7390   -0.9763   -1.4314 H   0  0  0  0  0  0  0  0  0  0  0  0
    0.5980    1.5766   -2.5264 H   0  0  0  0  0  0  0  0  0  0  0  0
    0.4676    0.1294   -3.4982 H   0  0  0  0  0  0  0  0  0  0  0  0
   -2.2964    2.5623   -3.9911 H   0  0  0  0  0  0  0  0  0  0  0  0
    1.2944   -2.1488   -0.8311 N   0  0  0  0  0  0  0  0  0  0  0  0
    2.4564   -2.9580   -0.5466 C   0  0  2  0  0  0  0  0  0  0  0  0
    3.0526   -2.4784    0.7702 C   0  0  0  0  0  0  0  0  0  0  0  0
    2.8569   -1.3532    1.2248 O   0  0  0  0  0  0  0  0  0  0  0  0
    3.4787   -2.8723   -1.6693 C   0  0  0  0  0  0  0  0  0  0  0  0
    0.3782   -2.5869   -0.8089 H   0  0  0  0  0  0  0  0  0  0  0  0
    2.1041   -3.9892   -0.4346 H   0  0  0  0  0  0  0  0  0  0  0  0
    3.8433   -1.8464   -1.7965 H   0  0  0  0  0  0  0  0  0  0  0  0
    4.3463   -3.5085   -1.4654 H   0  0  0  0  0  0  0  0  0  0  0  0
    3.0395   -3.1893   -2.6213 H   0  0  0  0  0  0  0  0  0  0  0  0
    3.8639   -3.4397    1.3566 N   0  0  0  0  0  0  0  0  0  0  0  0
    4.5544   -3.2204    2.6060 C   0  0  0  0  0  0  0  0  0  0  0  0
    3.9539   -4.3520    0.9192 H   0  0  0  0  0  0  0  0  0  0  0  0
    5.5642   -2.8334    2.4045 H   0  0  0  0  0  0  0  0  0  0  0  0
    3.9959   -2.4904    3.2103 H   0  0  0  0  0  0  0  0  0  0  0  0
    4.6289   -4.1705    3.1554 H   0  0  0  0  0  0  0  0  0  0  0  0
  1  3  1  0  0  0  0
  1  7  1  0  0  0  0
  1  2  2  0  0  0  0
 31 32  1  0  0  0  0
 32 40  1  0  0  0  0
 32 33  2  0  0  0  0
  8  9  1  0  0  0  0
  9 17  1  0  0  0  0
  9 10  2  0  0  0  0
 18 19  1  0  0  0  0
 19 30  1  0  0  0  0
 19 20  2  0  0  0  0
 21 22  1  0  0  0  0
 22 23  2  0  0  0  0
 22 24  1  0  0  0  0
 31 34  1  0  0  0  0
  8 11  1  0  0  0  0
 40 41  1  0  0  0  0
 18 21  1  0  0  0  0
 30 31  1  0  0  0  0
  7  8  1  0  0  0  0
 17 18  1  0  0  0  0
  3  4  1  0  0  0  0
  3  5  1  0  0  0  0
  3  6  1  0  0  0  0
 34 37  1  0  0  0  0
 34 38  1  0  0  0  0
 34 39  1  0  0  0  0
 11 14  1  0  0  0  0
 11 15  1  0  0  0  0
 11 16  1  0  0  0  0
 41 43  1  0  0  0  0
 41 44  1  0  0  0  0
 41 45  1  0  0  0  0
 21 27  1  0  0  0  0
 21 28  1  0  0  0  0
 31 36  1  0  0  0  0
  8 13  1  0  0  0  0
 18 26  1  0  0  0  0
 40 42  1  0  0  0  0
  7 12  1  0  0  0  0
 30 35  1  0  0  0  0
 17 25  1  0  0  0  0
 24 29  1  0  0  0  0
M  END
$$$$

  -OEChem-05262214473D

 45 44  0     1  0  0  0  0  0999 V2000
   -2.2987    4.1032   -0.3022 C   0  0  0  0  0  0  0  0  0  0  0  0
   -1.8049    3.7117   -1.3532 O   0  0  0  0  0  0  0  0  0  0  0  0
   -3.0791    5.3755   -0.2846 C   0  0  0  0  0  0  0  0  0  0  0  0
   -2.4478    6.2532   -0.0717 H   0  0  0  0  0  0  0  0  0  0  0  0
   -3.5571    5.5891   -1.2541 H   0  0  0  0  0  0  0  0  0  0  0  0
   -3.8940    5.4184    0.4556 H   0  0  0  0  0  0  0  0  0  0  0  0
   -2.2137    3.4712    0.9275 N   0  0  0  0  0  0  0  0  0  0  0  0
   -1.5102    2.2327    1.1338 C   0  0  2  0  0  0  0  0  0  0  0  0
   -1.3539    1.5497   -0.2184 C   0  0  0  0  0  0  0  0  0  0  0  0
   -2.0852    1.7861   -1.1778 O   0  0  0  0  0  0  0  0  0  0  0  0
   -2.2477    1.3342    2.1145 C   0  0  0  0  0  0  0  0  0  0  0  0
   -2.6724    3.9052    1.7265 H   0  0  0  0  0  0  0  0  0  0  0  0
   -0.5220    2.4922    1.5290 H   0  0  0  0  0  0  0  0  0  0  0  0
   -3.2400    1.0636    1.7358 H   0  0  0  0  0  0  0  0  0  0  0  0
   -1.6970    0.4046    2.2923 H   0  0  0  0  0  0  0  0  0  0  0  0
   -2.3854    1.8384    3.0772 H   0  0  0  0  0  0  0  0  0  0  0  0
   -0.3283    0.6116   -0.2182 N   0  0  0  0  0  0  0  0  0  0  0  0
    0.0090   -0.1762   -1.3759 C   0  0  2  0  0  0  0  0  0  0  0  0
    1.3790   -0.7970   -1.1335 C   0  0  0  0  0  0  0  0  0  0  0  0
    2.3844   -0.1295   -0.8992 O   0  0  0  0  0  0  0  0  0  0  0  0
    0.0101    0.6588   -2.6536 C   0  0  0  0  0  0  0  0  0  0  0  0
   -1.3869    1.0900   -3.0270 C   0  0  0  0  0  0  0  0  0  0  0  0
   -2.3958    0.4536   -2.7519 O   0  0  0  0  0  0  0  0  0  0  0  0
   -1.4049    2.2557   -3.7194 O   0  0  0  0  0  0  0  0  0  0  0  0
    0.2381    0.4970    0.6194 H   0  0  0  0  0  0  0  0  0  0  0  0
   -0.7390   -0.9763   -1.4314 H   0  0  0  0  0  0  0  0  0  0  0  0
    0.5980    1.5766   -2.5264 H   0  0  0  0  0  0  0  0  0  0  0  0
    0.4676    0.1294   -3.4982 H   0  0  0  0  0  0  0  0  0  0  0  0
   -2.2964    2.5623   -3.9911 H   0  0  0  0  0  0  0  0  0  0  0  0
    1.3371   -2.1839   -1.1621 N   0  0  0  0  0  0  0  0  0  0  0  0
    2.5064   -3.0036   -0.9454 C   0  0  2  0  0  0  0  0  0  0  0  0
    2.9405   -2.8299    0.5040 C   0  0  0  0  0  0  0  0  0  0  0  0
    2.6399   -1.8491    1.1813 O   0  0  0  0  0  0  0  0  0  0  0  0
    3.6303   -2.6271   -1.8983 C   0  0  0  0  0  0  0  0  0  0  0  0
    0.4482   -2.6410   -1.3427 H   0  0  0  0  0  0  0  0  0  0  0  0
    2.2004   -4.0419   -1.1137 H   0  0  0  0  0  0  0  0  0  0  0  0
    3.9503   -1.5901   -1.7446 H   0  0  0  0  0  0  0  0  0  0  0  0
    4.5058   -3.2683   -1.7521 H   0  0  0  0  0  0  0  0  0  0  0  0
    3.3067   -2.7241   -2.9403 H   0  0  0  0  0  0  0  0  0  0  0  0
    3.7391   -3.8784    0.9388 N   0  0  0  0  0  0  0  0  0  0  0  0
    4.2876   -3.9390    2.2735 C   0  0  0  0  0  0  0  0  0  0  0  0
    3.9214   -4.6594    0.3155 H   0  0  0  0  0  0  0  0  0  0  0  0
    5.2903   -3.4867    2.2793 H   0  0  0  0  0  0  0  0  0  0  0  0
    3.6328   -3.3877    2.9643 H   0  0  0  0  0  0  0  0  0  0  0  0
    4.3574   -4.9891    2.5937 H   0  0  0  0  0  0  0  0  0  0  0  0
  1  3  1  0  0  0  0
  1  7  1  0  0  0  0
  1  2  2  0  0  0  0
 31 32  1  0  0  0  0
 32 40  1  0  0  0  0
 32 33  2  0  0  0  0
  8  9  1  0  0  0  0
  9 17  1  0  0  0  0
  9 10  2  0  0  0  0
 18 19  1  0  0  0  0
 19 30  1  0  0  0  0
 19 20  2  0  0  0  0
 21 22  1  0  0  0  0
 22 23  2  0  0  0  0
 22 24  1  0  0  0  0
 31 34  1  0  0  0  0
  8 11  1  0  0  0  0
 40 41  1  0  0  0  0
 18 21  1  0  0  0  0
 30 31  1  0  0  0  0
  7  8  1  0  0  0  0
 17 18  1  0  0  0  0
  3  4  1  0  0  0  0
  3  5  1  0  0  0  0
  3  6  1  0  0  0  0
 34 37  1  0  0  0  0
 34 38  1  0  0  0  0
 34 39  1  0  0  0  0
 11 14  1  0  0  0  0
 11 15  1  0  0  0  0
 11 16  1  0  0  0  0
 41 43  1  0  0  0  0
 41 44  1  0  0  0  0
 41 45  1  0  0  0  0
 21 27  1  0  0  0  0
 21 28  1  0  0  0  0
 31 36  1  0  0  0  0
  8 13  1  0  0  0  0
 18 26  1  0  0  0  0
 40 42  1  0  0  0  0
  7 12  1  0  0  0  0
 30 35  1  0  0  0  0
 17 25  1  0  0  0  0
 24 29  1  0  0  0  0
M  END
$$$$

  -OEChem-05262214473D

 45 44  0     1  0  0  0  0  0999 V2000
   -2.2987    4.1032   -0.3022 C   0  0  0  0  0  0  0  0  0  0  0  0
   -1.8049    3.7117   -1.3532 O   0  0  0  0  0  0  0  0  0  0  0  0
   -3.0791    5.3755   -0.2846 C   0  0  0  0  0  0  0  0  0  0  0  0
   -2.4478    6.2532   -0.0717 H   0  0  0  0  0  0  0  0  0  0  0  0
   -3.5571    5.5891   -1.2541 H   0  0  0  0  0  0  0  0  0  0  0  0
   -3.8940    5.4184    0.4556 H   0  0  0  0  0  0  0  0  0  0  0  0
   -2.2137    3.4712    0.9275 N   0  0  0  0  0  0  0  0  0  0  0  0
   -1.5102    2.2327    1.1338 C   0  0  2  0  0  0  0  0  0  0  0  0
   -1.3539    1.5497   -0.2184 C   0  0  0  0  0  0  0  0  0  0  0  0
   -2.0852    1.7861   -1.1778 O   0  0  0  0  0  0  0  0  0  0  0  0
   -2.2477    1.3342    2.1145 C   0  0  0  0  0  0  0  0  0  0  0  0
   -2.6724    3.9052    1.7265 H   0  0  0  0  0  0  0  0  0  0  0  0
   -0.5220    2.4922    1.5290 H   0  0  0  0  0  0  0  0  0  0  0  0
   -3.2400    1.0636    1.7358 H   0  0  0  0  0  0  0  0  0  0  0  0
   -1.6970    0.4046    2.2923 H   0  0  0  0  0  0  0  0  0  0  0  0
   -2.3854    1.8384    3.0772 H   0  0  0  0  0  0  0  0  0  0  0  0
   -0.3283    0.6116   -0.2182 N   0  0  0  0  0  0  0  0  0  0  0  0
    0.0090   -0.1762   -1.3759 C   0  0  2  0  0  0  0  0  0  0  0  0
    1.3790   -0.7970   -1.1335 C   0  0  0  0  0  0  0  0  0  0  0  0
    2.3184   -0.1746   -0.6422 O   0  0  0  0  0  0  0  0  0  0  0  0
    0.0101    0.6588   -2.6536 C   0  0  0  0  0  0  0  0  0  0  0  0
   -1.3869    1.0900   -3.0270 C   0  0  0  0  0  0  0  0  0  0  0  0
   -2.3958    0.4536   -2.7519 O   0  0  0  0  0  0  0  0  0  0  0  0
   -1.4049    2.2557   -3.7194 O   0  0  0  0  0  0  0  0  0  0  0  0
    0.2381    0.4970    0.6194 H   0  0  0  0  0  0  0  0  0  0  0  0
   -0.7390   -0.9763   -1.4314 H   0  0  0  0  0  0  0  0  0  0  0  0
    0.5980    1.5766   -2.5264 H   0  0  0  0  0  0  0  0  0  0  0  0
    0.4676    0.1294   -3.4982 H   0  0  0  0  0  0  0  0  0  0  0  0
   -2.2964    2.5623   -3.9911 H   0  0  0  0  0  0  0  0  0  0  0  0
    1.4147   -2.1390   -1.4855 N   0  0  0  0  0  0  0  0  0  0  0  0
    2.5985   -2.9527   -1.3360 C   0  0  2  0  0  0  0  0  0  0  0  0
    2.8747   -3.1120    0.1532 C   0  0  0  0  0  0  0  0  0  0  0  0
    2.4553   -2.3269    1.0010 O   0  0  0  0  0  0  0  0  0  0  0  0
    3.7907   -2.3308   -2.0464 C   0  0  0  0  0  0  0  0  0  0  0  0
    0.5742   -2.5661   -1.8636 H   0  0  0  0  0  0  0  0  0  0  0  0
    2.3671   -3.9307   -1.7718 H   0  0  0  0  0  0  0  0  0  0  0  0
    4.0375   -1.3502   -1.6234 H   0  0  0  0  0  0  0  0  0  0  0  0
    4.6803   -2.9630   -1.9563 H   0  0  0  0  0  0  0  0  0  0  0  0
    3.5793   -2.1895   -3.1119 H   0  0  0  0  0  0  0  0  0  0  0  0
    3.6806   -4.2100    0.4200 N   0  0  0  0  0  0  0  0  0  0  0  0
    4.0946   -4.5668    1.7569 C   0  0  0  0  0  0  0  0  0  0  0  0
    3.9664   -4.8171   -0.3426 H   0  0  0  0  0  0  0  0  0  0  0  0
    5.0659   -4.0999    1.9774 H   0  0  0  0  0  0  0  0  0  0  0  0
    3.3450   -4.2122    2.4796 H   0  0  0  0  0  0  0  0  0  0  0  0
    4.1881   -5.6602    1.8321 H   0  0  0  0  0  0  0  0  0  0  0  0
  1  3  1  0  0  0  0
  1  7  1  0  0  0  0
  1  2  2  0  0  0  0
 31 32  1  0  0  0  0
 32 40  1  0  0  0  0
 32 33  2  0  0  0  0
  8  9  1  0  0  0  0
  9 17  1  0  0  0  0
  9 10  2  0  0  0  0
 18 19  1  0  0  0  0
 19 30  1  0  0  0  0
 19 20  2  0  0  0  0
 21 22  1  0  0  0  0
 22 23  2  0  0  0  0
 22 24  1  0  0  0  0
 31 34  1  0  0  0  0
  8 11  1  0  0  0  0
 40 41  1  0  0  0  0
 18 21  1  0  0  0  0
 30 31  1  0  0  0  0
  7  8  1  0  0  0  0
 17 18  1  0  0  0  0
  3  4  1  0  0  0  0
  3  5  1  0  0  0  0
  3  6  1  0  0  0  0
 34 37  1  0  0  0  0
 34 38  1  0  0  0  0
 34 39  1  0  0  0  0
 11 14  1  0  0  0  0
 11 15  1  0  0  0  0
 11 16  1  0  0  0  0
 41 43  1  0  0  0  0
 41 44  1  0  0  0  0
 41 45  1  0  0  0  0
 21 27  1  0  0  0  0
 21 28  1  0  0  0  0
 31 36  1  0  0  0  0
  8 13  1  0  0  0  0
 18 26  1  0  0  0  0
 40 42  1  0  0  0  0
  7 12  1  0  0  0  0
 30 35  1  0  0  0  0
 17 25  1  0  0  0  0
 24 29  1  0  0  0  0
M  END
$$$$

  -OEChem-05262214473D

 45 44  0     1  0  0  0  0  0999 V2000
   -2.2987    4.1032   -0.3022 C   0  0  0  0  0  0  0  0  0  0  0  0
   -1.8049    3.7117   -1.3532 O   0  0  0  0  0  0  0  0  0  0  0  0
   -3.0791    5.3755   -0.2846 C   0  0  0  0  0  0  0  0  0  0  0  0
   -2.4478    6.2532   -0.0717 H   0  0  0  0  0  0  0  0  0  0  0  0
   -3.5571    5.5891   -1.2541 H   0  0  0  0  0  0  0  0  0  0  0  0
   -3.8940    5.4184    0.4556 H   0  0  0  0  0  0  0  0  0  0  0  0
   -2.2137    3.4712    0.9275 N   0  0  0  0  0  0  0  0  0  0  0  0
   -1.5102    2.2327    1.1338 C   0  0  2  0  0  0  0  0  0  0  0  0
   -1.3539    1.5497   -0.2184 C   0  0  0  0  0  0  0  0  0  0  0  0
   -2.0852    1.7861   -1.1778 O   0  0  0  0  0  0  0  0  0  0  0  0
   -2.2477    1.3342    2.1145 C   0  0  0  0  0  0  0  0  0  0  0  0
   -2.6724    3.9052    1.7265 H   0  0  0  0  0  0  0  0  0  0  0  0
   -0.5220    2.4922    1.5290 H   0  0  0  0  0  0  0  0  0  0  0  0
   -3.2400    1.0636    1.7358 H   0  0  0  0  0  0  0  0  0  0  0  0
   -1.6970    0.4046    2.2923 H   0  0  0  0  0  0  0  0  0  0  0  0
   -2.3854    1.8384    3.0772 H   0  0  0  0  0  0  0  0  0  0  0  0
   -0.3283    0.6116   -0.2182 N   0  0  0  0  0  0  0  0  0  0  0  0
    0.0090   -0.1762   -1.3759 C   0  0  2  0  0  0  0  0  0  0  0  0
    1.3790   -0.7970   -1.1335 C   0  0  0  0  0  0  0  0  0  0  0  0
    2.2295   -0.2808   -0.4114 O   0  0  0  0  0  0  0  0  0  0  0  0
    0.0101    0.6588   -2.6536 C   0  0  0  0  0  0  0  0  0  0  0  0
   -1.3869    1.0900   -3.0270 C   0  0  0  0  0  0  0  0  0  0  0  0
   -2.3958    0.4536   -2.7519 O   0  0  0  0  0  0  0  0  0  0  0  0
   -1.4049    2.2557   -3.7194 O   0  0  0  0  0  0  0  0  0  0  0  0
    0.2381    0.4970    0.6194 H   0  0  0  0  0  0  0  0  0  0  0  0
   -0.7390   -0.9763   -1.4314 H   0  0  0  0  0  0  0  0  0  0  0  0
    0.5980    1.5766   -2.5264 H   0  0  0  0  0  0  0  0  0  0  0  0
    0.4676    0.1294   -3.4982 H   0  0  0  0  0  0  0  0  0  0  0  0
   -2.2964    2.5623   -3.9911 H   0  0  0  0  0  0  0  0  0  0  0  0
    1.5219   -2.0171   -1.7792 N   0  0  0  0  0  0  0  0  0  0  0  0
    2.7266   -2.8088   -1.6917 C   0  0  2  0  0  0  0  0  0  0  0  0
    2.8598   -3.3057   -0.2582 C   0  0  0  0  0  0  0  0  0  0  0  0
    2.3157   -2.7540    0.6962 O   0  0  0  0  0  0  0  0  0  0  0  0
    3.9491   -2.0035   -2.1037 C   0  0  0  0  0  0  0  0  0  0  0  0
    0.7479   -2.3674   -2.3360 H   0  0  0  0  0  0  0  0  0  0  0  0
    2.5931   -3.6633   -2.3641 H   0  0  0  0  0  0  0  0  0  0  0  0
    4.0992   -1.1431   -1.4414 H   0  0  0  0  0  0  0  0  0  0  0  0
    4.8577   -2.6134   -2.0641 H   0  0  0  0  0  0  0  0  0  0  0  0
    3.8386   -1.6220   -3.1244 H   0  0  0  0  0  0  0  0  0  0  0  0
    3.6925   -4.4120   -0.1645 N   0  0  0  0  0  0  0  0  0  0  0  0
    3.9885   -5.0608    1.0914 C   0  0  0  0  0  0  0  0  0  0  0  0
    4.0857   -4.8145   -1.0102 H   0  0  0  0  0  0  0  0  0  0  0  0
    4.9062   -4.6311    1.5194 H   0  0  0  0  0  0  0  0  0  0  0  0
    3.1521   -4.9077    1.7892 H   0  0  0  0  0  0  0  0  0  0  0  0
    4.1325   -6.1382    0.9224 H   0  0  0  0  0  0  0  0  0  0  0  0
  1  3  1  0  0  0  0
  1  7  1  0  0  0  0
  1  2  2  0  0  0  0
 31 32  1  0  0  0  0
 32 40  1  0  0  0  0
 32 33  2  0  0  0  0
  8  9  1  0  0  0  0
  9 17  1  0  0  0  0
  9 10  2  0  0  0  0
 18 19  1  0  0  0  0
 19 30  1  0  0  0  0
 19 20  2  0  0  0  0
 21 22  1  0  0  0  0
 22 23  2  0  0  0  0
 22 24  1  0  0  0  0
 31 34  1  0  0  0  0
  8 11  1  0  0  0  0
 40 41  1  0  0  0  0
 18 21  1  0  0  0  0
 30 31  1  0  0  0  0
  7  8  1  0  0  0  0
 17 18  1  0  0  0  0
  3  4  1  0  0  0  0
  3  5  1  0  0  0  0
  3  6  1  0  0  0  0
 34 37  1  0  0  0  0
 34 38  1  0  0  0  0
 34 39  1  0  0  0  0
 11 14  1  0  0  0  0
 11 15  1  0  0  0  0
 11 16  1  0  0  0  0
 41 43  1  0  0  0  0
 41 44  1  0  0  0  0
 41 45  1  0  0  0  0
 21 27  1  0  0  0  0
 21 28  1  0  0  0  0
 31 36  1  0  0  0  0
  8 13  1  0  0  0  0
 18 26  1  0  0  0  0
 40 42  1  0  0  0  0
  7 12  1  0  0  0  0
 30 35  1  0  0  0  0
 17 25  1  0  0  0  0
 24 29  1  0  0  0  0
M  END
$$$$

  -OEChem-05262214473D

 45 44  0     1  0  0  0  0  0999 V2000
   -2.2987    4.1032   -0.3022 C   0  0  0  0  0  0  0  0  0  0  0  0
   -1.8049    3.7117   -1.3532 O   0  0  0  0  0  0  0  0  0  0  0  0
   -3.0791    5.3755   -0.2846 C   0  0  0  0  0  0  0  0  0  0  0  0
   -2.4478    6.2532   -0.0717 H   0  0  0  0  0  0  0  0  0  0  0  0
   -3.5571    5.5891   -1.2541 H   0  0  0  0  0  0  0  0  0  0  0  0
   -3.8940    5.4184    0.4556 H   0  0  0  0  0  0  0  0  0  0  0  0
   -2.2137    3.4712    0.9275 N   0  0  0  0  0  0  0  0  0  0  0  0
   -1.5102    2.2327    1.1338 C   0  0  2  0  0  0  0  0  0  0  0  0
   -1.3539    1.5497   -0.2184 C   0  0  0  0  0  0  0  0  0  0  0  0
   -2.0852    1.7861   -1.1778 O   0  0  0  0  0  0  0  0  0  0  0  0
   -2.2477    1.3342    2.1145 C   0  0  0  0  0  0  0  0  0  0  0  0
   -2.6724    3.9052    1.7265 H   0  0  0  0  0  0  0  0  0  0  0  0
   -0.5220    2.4922    1.5290 H   0  0  0  0  0  0  0  0  0  0  0  0
   -3.2400    1.0636    1.7358 H   0  0  0  0  0  0  0  0  0  0  0  0
   -1.6970    0.4046    2.2923 H   0  0  0  0  0  0  0  0  0  0  0  0
   -2.3854    1.8384    3.0772 H   0  0  0  0  0  0  0  0  0  0  0  0
   -0.3283    0.6116   -0.2182 N   0  0  0  0  0  0  0  0  0  0  0  0
    0.0090   -0.1762   -1.3759 C   0  0  2  0  0  0  0  0  0  0  0  0
    1.3790   -0.7970   -1.1335 C   0  0  0  0  0  0  0  0  0  0  0  0
    2.1236   -0.4407   -0.2226 O   0  0  0  0  0  0  0  0  0  0  0  0
    0.0101    0.6588   -2.6536 C   0  0  0  0  0  0  0  0  0  0  0  0
   -1.3869    1.0900   -3.0270 C   0  0  0  0  0  0  0  0  0  0  0  0
   -2.3958    0.4536   -2.7519 O   0  0  0  0  0  0  0  0  0  0  0  0
   -1.4049    2.2557   -3.7194 O   0  0  0  0  0  0  0  0  0  0  0  0
    0.2381    0.4970    0.6194 H   0  0  0  0  0  0  0  0  0  0  0  0
   -0.7390   -0.9763   -1.4314 H   0  0  0  0  0  0  0  0  0  0  0  0
    0.5980    1.5766   -2.5264 H   0  0  0  0  0  0  0  0  0  0  0  0
    0.4676    0.1294   -3.4982 H   0  0  0  0  0  0  0  0  0  0  0  0
   -2.2964    2.5623   -3.9911 H   0  0  0  0  0  0  0  0  0  0  0  0
    1.6514   -1.8266   -2.0233 N   0  0  0  0  0  0  0  0  0  0  0  0
    2.8820   -2.5818   -1.9883 C   0  0  2  0  0  0  0  0  0  0  0  0
    2.8967   -3.3975   -0.7023 C   0  0  0  0  0  0  0  0  0  0  0  0
    2.2306   -3.1014    0.2876 O   0  0  0  0  0  0  0  0  0  0  0  0
    4.0947   -1.6676   -2.0660 C   0  0  0  0  0  0  0  0  0  0  0  0
    0.9572   -2.0584   -2.7277 H   0  0  0  0  0  0  0  0  0  0  0  0
    2.8628   -3.2579   -2.8501 H   0  0  0  0  0  0  0  0  0  0  0  0
    4.1310   -0.9828   -1.2109 H   0  0  0  0  0  0  0  0  0  0  0  0
    5.0261   -2.2433   -2.0682 H   0  0  0  0  0  0  0  0  0  0  0  0
    4.0671   -1.0602   -2.9771 H   0  0  0  0  0  0  0  0  0  0  0  0
    3.7740   -4.4705   -0.7748 N   0  0  0  0  0  0  0  0  0  0  0  0
    3.9766   -5.3875    0.3224 C   0  0  0  0  0  0  0  0  0  0  0  0
    4.2713   -4.6516   -1.6418 H   0  0  0  0  0  0  0  0  0  0  0  0
    4.8222   -5.0443    0.9365 H   0  0  0  0  0  0  0  0  0  0  0  0
    3.0671   -5.4267    0.9401 H   0  0  0  0  0  0  0  0  0  0  0  0
    4.1944   -6.3904   -0.0735 H   0  0  0  0  0  0  0  0  0  0  0  0
  1  3  1  0  0  0  0
  1  7  1  0  0  0  0
  1  2  2  0  0  0  0
 31 32  1  0  0  0  0
 32 40  1  0  0  0  0
 32 33  2  0  0  0  0
  8  9  1  0  0  0  0
  9 17  1  0  0  0  0
  9 10  2  0  0  0  0
 18 19  1  0  0  0  0
 19 30  1  0  0  0  0
 19 20  2  0  0  0  0
 21 22  1  0  0  0  0
 22 23  2  0  0  0  0
 22 24  1  0  0  0  0
 31 34  1  0  0  0  0
  8 11  1  0  0  0  0
 40 41  1  0  0  0  0
 18 21  1  0  0  0  0
 30 31  1  0  0  0  0
  7  8  1  0  0  0  0
 17 18  1  0  0  0  0
  3  4  1  0  0  0  0
  3  5  1  0  0  0  0
  3  6  1  0  0  0  0
 34 37  1  0  0  0  0
 34 38  1  0  0  0  0
 34 39  1  0  0  0  0
 11 14  1  0  0  0  0
 11 15  1  0  0  0  0
 11 16  1  0  0  0  0
 41 43  1  0  0  0  0
 41 44  1  0  0  0  0
 41 45  1  0  0  0  0
 21 27  1  0  0  0  0
 21 28  1  0  0  0  0
 31 36  1  0  0  0  0
  8 13  1  0  0  0  0
 18 26  1  0  0  0  0
 40 42  1  0  0  0  0
  7 12  1  0  0  0  0
 30 35  1  0  0  0  0
 17 25  1  0  0  0  0
 24 29  1  0  0  0  0
M  END
$$$$
