
  -OEChem-05262214473D

 46 46  0     1  0  0  0  0  0999 V2000
   -0.6012   -3.2995    3.8205 C   0  0  0  0  0  0  0  0  0  0  0  0
   -0.6574   -4.4683    3.4568 O   0  0  0  0  0  0  0  0  0  0  0  0
   -0.4935   -2.9859    5.2760 C   0  0  0  0  0  0  0  0  0  0  0  0
   -1.4789   -2.8689    5.7550 H   0  0  0  0  0  0  0  0  0  0  0  0
    0.0123   -3.7847    5.8419 H   0  0  0  0  0  0  0  0  0  0  0  0
    0.0585   -2.0642    5.5199 H   0  0  0  0  0  0  0  0  0  0  0  0
   -0.6261   -2.1849    2.9917 N   0  0  0  0  0  0  0  0  0  0  0  0
   -0.7237   -2.2601    1.5650 C   0  0  2  0  0  0  0  0  0  0  0  0
    0.1695   -1.1513    1.0687 C   0  0  0  0  0  0  0  0  0  0  0  0
    0.3193   -0.1267    1.7365 O   0  0  0  0  0  0  0  0  0  0  0  0
   -2.1397   -2.0663    1.0750 C   0  0  0  0  0  0  0  0  0  0  0  0
   -0.5717   -1.2606    3.4238 H   0  0  0  0  0  0  0  0  0  0  0  0
   -0.3076   -3.2111    1.2363 H   0  0  0  0  0  0  0  0  0  0  0  0
   -2.5584   -1.1089    1.4061 H   0  0  0  0  0  0  0  0  0  0  0  0
   -2.1682   -2.0790   -0.0197 H   0  0  0  0  0  0  0  0  0  0  0  0
   -2.7965   -2.8601    1.4459 H   0  0  0  0  0  0  0  0  0  0  0  0
    0.7724   -1.3745   -0.1593 N   0  0  0  0  0  0  0  0  0  0  0  0
    1.6644   -0.4046   -0.7812 C   0  0  2  0  0  0  0  0  0  0  0  0
    0.8166    0.4953   -1.6290 C   0  0  0  0  0  0  0  0  0  0  0  0
   -0.3939    0.3119   -1.6816 O   0  0  0  0  0  0  0  0  0  0  0  0
    2.6195   -1.2417   -1.6241 C   0  0  0  0  0  0  0  0  0  0  0  0
    2.1758   -2.2356   -0.5535 C   0  0  0  0  0  0  0  0  0  0  0  0
    0.7499   -2.6270   -0.9105 C   0  0  0  0  0  0  0  0  0  0  0  0
    2.1745    0.2007   -0.0258 H   0  0  0  0  0  0  0  0  0  0  0  0
    3.6296   -0.8175   -1.5784 H   0  0  0  0  0  0  0  0  0  0  0  0
    2.3218   -1.3211   -2.6742 H   0  0  0  0  0  0  0  0  0  0  0  0
    2.8084   -3.1304   -0.5781 H   0  0  0  0  0  0  0  0  0  0  0  0
    2.2249   -1.8085    0.4522 H   0  0  0  0  0  0  0  0  0  0  0  0
    0.5944   -2.7143   -1.9893 H   0  0  0  0  0  0  0  0  0  0  0  0
    0.4645   -3.5695   -0.4308 H   0  0  0  0  0  0  0  0  0  0  0  0
    1.8326    1.5009   -2.2592 N   0  0  0  0  0  0  0  0  0  0  0  0
    1.3793    2.6134   -3.0627 C   0  0  2  0  0  0  0  0  0  0  0  0
    0.6202    3.5714   -2.1541 C   0  0  0  0  0  0  0  0  0  0  0  0
    0.1112    3.2253   -1.0901 O   0  0  0  0  0  0  0  0  0  0  0  0
    0.5014    2.1442   -4.2124 C   0  0  0  0  0  0  0  0  0  0  0  0
    2.8287    1.3072   -2.2198 H   0  0  0  0  0  0  0  0  0  0  0  0
    2.2757    3.1097   -3.4502 H   0  0  0  0  0  0  0  0  0  0  0  0
   -0.4018    1.6444   -3.8437 H   0  0  0  0  0  0  0  0  0  0  0  0
    0.1822    2.9852   -4.8368 H   0  0  0  0  0  0  0  0  0  0  0  0
    1.0391    1.4323   -4.8480 H   0  0  0  0  0  0  0  0  0  0  0  0
    0.5410    4.8484   -2.6919 N   0  0  0  0  0  0  0  0  0  0  0  0
   -0.1397    5.9341   -2.0256 C   0  0  0  0  0  0  0  0  0  0  0  0
    1.0087    5.0504   -3.5706 H   0  0  0  0  0  0  0  0  0  0  0  0
   -1.1827    5.9812   -2.3718 H   0  0  0  0  0  0  0  0  0  0  0  0
   -0.1215    5.7660   -0.9386 H   0  0  0  0  0  0  0  0  0  0  0  0
    0.3670    6.8823   -2.2585 H   0  0  0  0  0  0  0  0  0  0  0  0
 18 19  1  0  0  0  0
 19 31  1  0  0  0  0
 19 20  2  0  0  0  0
  8  9  1  0  0  0  0
  9 17  1  0  0  0  0
  9 10  2  0  0  0  0
  1  3  1  0  0  0  0
  1  7  1  0  0  0  0
  1  2  2  0  0  0  0
 32 33  1  0  0  0  0
 33 41  1  0  0  0  0
 33 34  2  0  0  0  0
 21 22  1  0  0  0  0
 22 23  1  0  0  0  0
 18 21  1  0  0  0  0
 17 23  1  0  0  0  0
 17 18  1  0  0  0  0
  8 11  1  0  0  0  0
 32 35  1  0  0  0  0
 41 42  1  0  0  0  0
  7  8  1  0  0  0  0
 31 32  1  0  0  0  0
 22 27  1  0  0  0  0
 22 28  1  0  0  0  0
 21 25  1  0  0  0  0
 21 26  1  0  0  0  0
 23 29  1  0  0  0  0
 23 30  1  0  0  0  0
 18 24  1  0  0  0  0
  3  4  1  0  0  0  0
  3  5  1  0  0  0  0
  3  6  1  0  0  0  0
 11 14  1  0  0  0  0
 11 15  1  0  0  0  0
 11 16  1  0  0  0  0
 35 38  1  0  0  0  0
 35 39  1  0  0  0  0
 35 40  1  0  0  0  0
 42 44  1  0  0  0  0
 42 45  1  0  0  0  0
 42 46  1  0  0  0  0
  8 13  1  0  0  0  0
 32 37  1  0  0  0  0
 31 36  1  0  0  0  0
 41 43  1  0  0  0  0
  7 12  1  0  0  0  0
M  END
$$$$

  -OEChem-05262214473D

 46 46  0     1  0  0  0  0  0999 V2000
   -0.6012   -3.2995    3.8205 C   0  0  0  0  0  0  0  0  0  0  0  0
   -0.6574   -4.4683    3.4568 O   0  0  0  0  0  0  0  0  0  0  0  0
   -0.4935   -2.9859    5.2760 C   0  0  0  0  0  0  0  0  0  0  0  0
   -1.4789   -2.8689    5.7550 H   0  0  0  0  0  0  0  0  0  0  0  0
    0.0123   -3.7847    5.8419 H   0  0  0  0  0  0  0  0  0  0  0  0
    0.0585   -2.0642    5.5199 H   0  0  0  0  0  0  0  0  0  0  0  0
   -0.6261   -2.1849    2.9917 N   0  0  0  0  0  0  0  0  0  0  0  0
   -0.7237   -2.2601    1.5650 C   0  0  2  0  0  0  0  0  0  0  0  0
    0.1695   -1.1513    1.0687 C   0  0  0  0  0  0  0  0  0  0  0  0
    0.3193   -0.1267    1.7365 O   0  0  0  0  0  0  0  0  0  0  0  0
   -2.1397   -2.0663    1.0750 C   0  0  0  0  0  0  0  0  0  0  0  0
   -0.5717   -1.2606    3.4238 H   0  0  0  0  0  0  0  0  0  0  0  0
   -0.3076   -3.2111    1.2363 H   0  0  0  0  0  0  0  0  0  0  0  0
   -2.5584   -1.1089    1.4061 H   0  0  0  0  0  0  0  0  0  0  0  0
   -2.1682   -2.0790   -0.0197 H   0  0  0  0  0  0  0  0  0  0  0  0
   -2.7965   -2.8601    1.4459 H   0  0  0  0  0  0  0  0  0  0  0  0
    0.7724   -1.3745   -0.1593 N   0  0  0  0  0  0  0  0  0  0  0  0
    1.6644   -0.4046   -0.7812 C   0  0  2  0  0  0  0  0  0  0  0  0
    0.8166    0.4953   -1.6290 C   0  0  0  0  0  0  0  0  0  0  0  0
   -0.3993    0.5000   -1.4765 O   0  0  0  0  0  0  0  0  0  0  0  0
    2.6195   -1.2417   -1.6241 C   0  0  0  0  0  0  0  0  0  0  0  0
    2.1758   -2.2356   -0.5535 C   0  0  0  0  0  0  0  0  0  0  0  0
    0.7499   -2.6270   -0.9105 C   0  0  0  0  0  0  0  0  0  0  0  0
    2.1745    0.2007   -0.0258 H   0  0  0  0  0  0  0  0  0  0  0  0
    3.6296   -0.8175   -1.5784 H   0  0  0  0  0  0  0  0  0  0  0  0
    2.3218   -1.3211   -2.6742 H   0  0  0  0  0  0  0  0  0  0  0  0
    2.8084   -3.1304   -0.5781 H   0  0  0  0  0  0  0  0  0  0  0  0
    2.2249   -1.8085    0.4522 H   0  0  0  0  0  0  0  0  0  0  0  0
    0.5944   -2.7143   -1.9893 H   0  0  0  0  0  0  0  0  0  0  0  0
    0.4645   -3.5695   -0.4308 H   0  0  0  0  0  0  0  0  0  0  0  0
    1.8398    1.2336   -2.5502 N   0  0  0  0  0  0  0  0  0  0  0  0
    1.4134    2.2851   -3.4453 C   0  0  2  0  0  0  0  0  0  0  0  0
    0.9521    3.4646   -2.5994 C   0  0  0  0  0  0  0  0  0  0  0  0
    0.5851    3.3498   -1.4318 O   0  0  0  0  0  0  0  0  0  0  0  0
    0.3014    1.8097   -4.3674 C   0  0  0  0  0  0  0  0  0  0  0  0
    2.7933    0.8921   -2.6250 H   0  0  0  0  0  0  0  0  0  0  0  0
    2.2915    2.5768   -4.0317 H   0  0  0  0  0  0  0  0  0  0  0  0
   -0.5869    1.5132   -3.7978 H   0  0  0  0  0  0  0  0  0  0  0  0
   -0.0008    2.5987   -5.0641 H   0  0  0  0  0  0  0  0  0  0  0  0
    0.6251    0.9429   -4.9536 H   0  0  0  0  0  0  0  0  0  0  0  0
    0.9574    4.6538   -3.3149 N   0  0  0  0  0  0  0  0  0  0  0  0
    0.5497    5.9131   -2.7372 C   0  0  0  0  0  0  0  0  0  0  0  0
    1.2954    4.6591   -4.2728 H   0  0  0  0  0  0  0  0  0  0  0  0
   -0.5204    6.0772   -2.9322 H   0  0  0  0  0  0  0  0  0  0  0  0
    0.7255    5.8924   -1.6515 H   0  0  0  0  0  0  0  0  0  0  0  0
    1.1337    6.7292   -3.1877 H   0  0  0  0  0  0  0  0  0  0  0  0
 18 19  1  0  0  0  0
 19 31  1  0  0  0  0
 19 20  2  0  0  0  0
  8  9  1  0  0  0  0
  9 17  1  0  0  0  0
  9 10  2  0  0  0  0
  1  3  1  0  0  0  0
  1  7  1  0  0  0  0
  1  2  2  0  0  0  0
 32 33  1  0  0  0  0
 33 41  1  0  0  0  0
 33 34  2  0  0  0  0
 21 22  1  0  0  0  0
 22 23  1  0  0  0  0
 18 21  1  0  0  0  0
 17 23  1  0  0  0  0
 17 18  1  0  0  0  0
  8 11  1  0  0  0  0
 32 35  1  0  0  0  0
 41 42  1  0  0  0  0
  7  8  1  0  0  0  0
 31 32  1  0  0  0  0
 22 27  1  0  0  0  0
 22 28  1  0  0  0  0
 21 25  1  0  0  0  0
 21 26  1  0  0  0  0
 23 29  1  0  0  0  0
 23 30  1  0  0  0  0
 18 24  1  0  0  0  0
  3  4  1  0  0  0  0
  3  5  1  0  0  0  0
  3  6  1  0  0  0  0
 11 14  1  0  0  0  0
 11 15  1  0  0  0  0
 11 16  1  0  0  0  0
 35 38  1  0  0  0  0
 35 39  1  0  0  0  0
 35 40  1  0  0  0  0
 42 44  1  0  0  0  0
 42 45  1  0  0  0  0
 42 46  1  0  0  0  0
  8 13  1  0  0  0  0
 32 37  1  0  0  0  0
 31 36  1  0  0  0  0
 41 43  1  0  0  0  0
  7 12  1  0  0  0  0
M  END
$$$$

  -OEChem-05262214473D

 46 46  0     1  0  0  0  0  0999 V2000
   -0.6012   -3.2995    3.8205 C   0  0  0  0  0  0  0  0  0  0  0  0
   -0.6574   -4.4683    3.4568 O   0  0  0  0  0  0  0  0  0  0  0  0
   -0.4935   -2.9859    5.2760 C   0  0  0  0  0  0  0  0  0  0  0  0
   -1.4789   -2.8689    5.7550 H   0  0  0  0  0  0  0  0  0  0  0  0
    0.0123   -3.7847    5.8419 H   0  0  0  0  0  0  0  0  0  0  0  0
    0.0585   -2.0642    5.5199 H   0  0  0  0  0  0  0  0  0  0  0  0
   -0.6261   -2.1849    2.9917 N   0  0  0  0  0  0  0  0  0  0  0  0
   -0.7237   -2.2601    1.5650 C   0  0  2  0  0  0  0  0  0  0  0  0
    0.1695   -1.1513    1.0687 C   0  0  0  0  0  0  0  0  0  0  0  0
    0.3193   -0.1267    1.7365 O   0  0  0  0  0  0  0  0  0  0  0  0
   -2.1397   -2.0663    1.0750 C   0  0  0  0  0  0  0  0  0  0  0  0
   -0.5717   -1.2606    3.4238 H   0  0  0  0  0  0  0  0  0  0  0  0
   -0.3076   -3.2111    1.2363 H   0  0  0  0  0  0  0  0  0  0  0  0
   -2.5584   -1.1089    1.4061 H   0  0  0  0  0  0  0  0  0  0  0  0
   -2.1682   -2.0790   -0.0197 H   0  0  0  0  0  0  0  0  0  0  0  0
   -2.7965   -2.8601    1.4459 H   0  0  0  0  0  0  0  0  0  0  0  0
    0.7724   -1.3745   -0.1593 N   0  0  0  0  0  0  0  0  0  0  0  0
    1.6644   -0.4046   -0.7812 C   0  0  2  0  0  0  0  0  0  0  0  0
    0.8166    0.4953   -1.6290 C   0  0  0  0  0  0  0  0  0  0  0  0
   -0.3451    0.7125   -1.3051 O   0  0  0  0  0  0  0  0  0  0  0  0
    2.6195   -1.2417   -1.6241 C   0  0  0  0  0  0  0  0  0  0  0  0
    2.1758   -2.2356   -0.5535 C   0  0  0  0  0  0  0  0  0  0  0  0
    0.7499   -2.6270   -0.9105 C   0  0  0  0  0  0  0  0  0  0  0  0
    2.1745    0.2007   -0.0258 H   0  0  0  0  0  0  0  0  0  0  0  0
    3.6296   -0.8175   -1.5784 H   0  0  0  0  0  0  0  0  0  0  0  0
    2.3218   -1.3211   -2.6742 H   0  0  0  0  0  0  0  0  0  0  0  0
    2.8084   -3.1304   -0.5781 H   0  0  0  0  0  0  0  0  0  0  0  0
    2.2249   -1.8085    0.4522 H   0  0  0  0  0  0  0  0  0  0  0  0
    0.5944   -2.7143   -1.9893 H   0  0  0  0  0  0  0  0  0  0  0  0
    0.4645   -3.5695   -0.4308 H   0  0  0  0  0  0  0  0  0  0  0  0
    1.7625    0.9317   -2.7932 N   0  0  0  0  0  0  0  0  0  0  0  0
    1.3388    1.9070   -3.7721 C   0  0  2  0  0  0  0  0  0  0  0  0
    1.1878    3.2477   -3.0654 C   0  0  0  0  0  0  0  0  0  0  0  0
    1.0080    3.3507   -1.8538 O   0  0  0  0  0  0  0  0  0  0  0  0
    0.0352    1.4933   -4.4371 C   0  0  0  0  0  0  0  0  0  0  0  0
    2.6354    0.4370   -2.9502 H   0  0  0  0  0  0  0  0  0  0  0  0
    2.1384    1.9746   -4.5178 H   0  0  0  0  0  0  0  0  0  0  0  0
   -0.7778    1.4203   -3.7056 H   0  0  0  0  0  0  0  0  0  0  0  0
   -0.2695    2.2189   -5.1985 H   0  0  0  0  0  0  0  0  0  0  0  0
    0.1371    0.5152   -4.9195 H   0  0  0  0  0  0  0  0  0  0  0  0
    1.2344    4.3136   -3.9530 N   0  0  0  0  0  0  0  0  0  0  0  0
    1.1019    5.6878   -3.5286 C   0  0  0  0  0  0  0  0  0  0  0  0
    1.4060    4.1363   -4.9383 H   0  0  0  0  0  0  0  0  0  0  0  0
    0.0463    5.9910   -3.5904 H   0  0  0  0  0  0  0  0  0  0  0  0
    1.4514    5.7861   -2.4902 H   0  0  0  0  0  0  0  0  0  0  0  0
    1.7075    6.3332   -4.1819 H   0  0  0  0  0  0  0  0  0  0  0  0
 18 19  1  0  0  0  0
 19 31  1  0  0  0  0
 19 20  2  0  0  0  0
  8  9  1  0  0  0  0
  9 17  1  0  0  0  0
  9 10  2  0  0  0  0
  1  3  1  0  0  0  0
  1  7  1  0  0  0  0
  1  2  2  0  0  0  0
 32 33  1  0  0  0  0
 33 41  1  0  0  0  0
 33 34  2  0  0  0  0
 21 22  1  0  0  0  0
 22 23  1  0  0  0  0
 18 21  1  0  0  0  0
 17 23  1  0  0  0  0
 17 18  1  0  0  0  0
  8 11  1  0  0  0  0
 32 35  1  0  0  0  0
 41 42  1  0  0  0  0
  7  8  1  0  0  0  0
 31 32  1  0  0  0  0
 22 27  1  0  0  0  0
 22 28  1  0  0  0  0
 21 25  1  0  0  0  0
 21 26  1  0  0  0  0
 23 29  1  0  0  0  0
 23 30  1  0  0  0  0
 18 24  1  0  0  0  0
  3  4  1  0  0  0  0
  3  5  1  0  0  0  0
  3  6  1  0  0  0  0
 11 14  1  0  0  0  0
 11 15  1  0  0  0  0
 11 16  1  0  0  0  0
 35 38  1  0  0  0  0
 35 39  1  0  0  0  0
 35 40  1  0  0  0  0
 42 44  1  0  0  0  0
 42 45  1  0  0  0  0
 42 46  1  0  0  0  0
  8 13  1  0  0  0  0
 32 37  1  0  0  0  0
 31 36  1  0  0  0  0
 41 43  1  0  0  0  0
  7 12  1  0  0  0  0
M  END
$$$$

  -OEChem-05262214473D

 46 46  0     1  0  0  0  0  0999 V2000
   -0.6012   -3.2995    3.8205 C   0  0  0  0  0  0  0  0  0  0  0  0
   -0.6574   -4.4683    3.4568 O   0  0  0  0  0  0  0  0  0  0  0  0
   -0.4935   -2.9859    5.2760 C   0  0  0  0  0  0  0  0  0  0  0  0
   -1.4789   -2.8689    5.7550 H   0  0  0  0  0  0  0  0  0  0  0  0
    0.0123   -3.7847    5.8419 H   0  0  0  0  0  0  0  0  0  0  0  0
    0.0585   -2.0642    5.5199 H   0  0  0  0  0  0  0  0  0  0  0  0
   -0.6261   -2.1849    2.9917 N   0  0  0  0  0  0  0  0  0  0  0  0
   -0.7237   -2.2601    1.5650 C   0  0  2  0  0  0  0  0  0  0  0  0
    0.1695   -1.1513    1.0687 C   0  0  0  0  0  0  0  0  0  0  0  0
    0.3193   -0.1267    1.7365 O   0  0  0  0  0  0  0  0  0  0  0  0
   -2.1397   -2.0663    1.0750 C   0  0  0  0  0  0  0  0  0  0  0  0
   -0.5717   -1.2606    3.4238 H   0  0  0  0  0  0  0  0  0  0  0  0
   -0.3076   -3.2111    1.2363 H   0  0  0  0  0  0  0  0  0  0  0  0
   -2.5584   -1.1089    1.4061 H   0  0  0  0  0  0  0  0  0  0  0  0
   -2.1682   -2.0790   -0.0197 H   0  0  0  0  0  0  0  0  0  0  0  0
   -2.7965   -2.8601    1.4459 H   0  0  0  0  0  0  0  0  0  0  0  0
    0.7724   -1.3745   -0.1593 N   0  0  0  0  0  0  0  0  0  0  0  0
    1.6644   -0.4046   -0.7812 C   0  0  2  0  0  0  0  0  0  0  0  0
    0.8166    0.4953   -1.6290 C   0  0  0  0  0  0  0  0  0  0  0  0
   -0.2351    0.9349   -1.1791 O   0  0  0  0  0  0  0  0  0  0  0  0
    2.6195   -1.2417   -1.6241 C   0  0  0  0  0  0  0  0  0  0  0  0
    2.1758   -2.2356   -0.5535 C   0  0  0  0  0  0  0  0  0  0  0  0
    0.7499   -2.6270   -0.9105 C   0  0  0  0  0  0  0  0  0  0  0  0
    2.1745    0.2007   -0.0258 H   0  0  0  0  0  0  0  0  0  0  0  0
    3.6296   -0.8175   -1.5784 H   0  0  0  0  0  0  0  0  0  0  0  0
    2.3218   -1.3211   -2.6742 H   0  0  0  0  0  0  0  0  0  0  0  0
    2.8084   -3.1304   -0.5781 H   0  0  0  0  0  0  0  0  0  0  0  0
    2.2249   -1.8085    0.4522 H   0  0  0  0  0  0  0  0  0  0  0  0
    0.5944   -2.7143   -1.9893 H   0  0  0  0  0  0  0  0  0  0  0  0
    0.4645   -3.5695   -0.4308 H   0  0  0  0  0  0  0  0  0  0  0  0
    1.6058    0.6159   -2.9718 N   0  0  0  0  0  0  0  0  0  0  0  0
    1.1607    1.5049   -4.0209 C   0  0  2  0  0  0  0  0  0  0  0  0
    1.3114    2.9354   -3.5205 C   0  0  0  0  0  0  0  0  0  0  0  0
    1.3511    3.2280   -2.3272 O   0  0  0  0  0  0  0  0  0  0  0  0
   -0.2791    1.2164   -4.4168 C   0  0  0  0  0  0  0  0  0  0  0  0
    2.3657   -0.0271   -3.1731 H   0  0  0  0  0  0  0  0  0  0  0  0
    1.8269    1.3442   -4.8755 H   0  0  0  0  0  0  0  0  0  0  0  0
   -0.9614    1.3720   -3.5732 H   0  0  0  0  0  0  0  0  0  0  0  0
   -0.6055    1.8717   -5.2311 H   0  0  0  0  0  0  0  0  0  0  0  0
   -0.3916    0.1785   -4.7482 H   0  0  0  0  0  0  0  0  0  0  0  0
    1.3530    3.8512   -4.5625 N   0  0  0  0  0  0  0  0  0  0  0  0
    1.4794    5.2735   -4.3459 C   0  0  0  0  0  0  0  0  0  0  0  0
    1.3329    3.5178   -5.5218 H   0  0  0  0  0  0  0  0  0  0  0  0
    0.4789    5.7285   -4.3016 H   0  0  0  0  0  0  0  0  0  0  0  0
    2.0066    5.4544   -3.3976 H   0  0  0  0  0  0  0  0  0  0  0  0
    2.0493    5.7211   -5.1735 H   0  0  0  0  0  0  0  0  0  0  0  0
 18 19  1  0  0  0  0
 19 31  1  0  0  0  0
 19 20  2  0  0  0  0
  8  9  1  0  0  0  0
  9 17  1  0  0  0  0
  9 10  2  0  0  0  0
  1  3  1  0  0  0  0
  1  7  1  0  0  0  0
  1  2  2  0  0  0  0
 32 33  1  0  0  0  0
 33 41  1  0  0  0  0
 33 34  2  0  0  0  0
 21 22  1  0  0  0  0
 22 23  1  0  0  0  0
 18 21  1  0  0  0  0
 17 23  1  0  0  0  0
 17 18  1  0  0  0  0
  8 11  1  0  0  0  0
 32 35  1  0  0  0  0
 41 42  1  0  0  0  0
  7  8  1  0  0  0  0
 31 32  1  0  0  0  0
 22 27  1  0  0  0  0
 22 28  1  0  0  0  0
 21 25  1  0  0  0  0
 21 26  1  0  0  0  0
 23 29  1  0  0  0  0
 23 30  1  0  0  0  0
 18 24  1  0  0  0  0
  3  4  1  0  0  0  0
  3  5  1  0  0  0  0
  3  6  1  0  0  0  0
 11 14  1  0  0  0  0
 11 15  1  0  0  0  0
 11 16  1  0  0  0  0
 35 38  1  0  0  0  0
 35 39  1  0  0  0  0
 35 40  1  0  0  0  0
 42 44  1  0  0  0  0
 42 45  1  0  0  0  0
 42 46  1  0  0  0  0
  8 13  1  0  0  0  0
 32 37  1  0  0  0  0
 31 36  1  0  0  0  0
 41 43  1  0  0  0  0
  7 12  1  0  0  0  0
M  END
$$$$

  -OEChem-05262214473D

 46 46  0     1  0  0  0  0  0999 V2000
   -0.6012   -3.2995    3.8205 C   0  0  0  0  0  0  0  0  0  0  0  0
   -0.6574   -4.4683    3.4568 O   0  0  0  0  0  0  0  0  0  0  0  0
   -0.4935   -2.9859    5.2760 C   0  0  0  0  0  0  0  0  0  0  0  0
   -1.4789   -2.8689    5.7550 H   0  0  0  0  0  0  0  0  0  0  0  0
    0.0123   -3.7847    5.8419 H   0  0  0  0  0  0  0  0  0  0  0  0
    0.0585   -2.0642    5.5199 H   0  0  0  0  0  0  0  0  0  0  0  0
   -0.6261   -2.1849    2.9917 N   0  0  0  0  0  0  0  0  0  0  0  0
   -0.7237   -2.2601    1.5650 C   0  0  2  0  0  0  0  0  0  0  0  0
    0.1695   -1.1513    1.0687 C   0  0  0  0  0  0  0  0  0  0  0  0
    0.3193   -0.1267    1.7365 O   0  0  0  0  0  0  0  0  0  0  0  0
   -2.1397   -2.0663    1.0750 C   0  0  0  0  0  0  0  0  0  0  0  0
   -0.5717   -1.2606    3.4238 H   0  0  0  0  0  0  0  0  0  0  0  0
   -0.3076   -3.2111    1.2363 H   0  0  0  0  0  0  0  0  0  0  0  0
   -2.5584   -1.1089    1.4061 H   0  0  0  0  0  0  0  0  0  0  0  0
   -2.1682   -2.0790   -0.0197 H   0  0  0  0  0  0  0  0  0  0  0  0
   -2.7965   -2.8601    1.4459 H   0  0  0  0  0  0  0  0  0  0  0  0
    0.7724   -1.3745   -0.1593 N   0  0  0  0  0  0  0  0  0  0  0  0
    1.6644   -0.4046   -0.7812 C   0  0  2  0  0  0  0  0  0  0  0  0
    0.8166    0.4953   -1.6290 C   0  0  0  0  0  0  0  0  0  0  0  0
   -0.0767    1.1520   -1.1070 O   0  0  0  0  0  0  0  0  0  0  0  0
    2.6195   -1.2417   -1.6241 C   0  0  0  0  0  0  0  0  0  0  0  0
    2.1758   -2.2356   -0.5535 C   0  0  0  0  0  0  0  0  0  0  0  0
    0.7499   -2.6270   -0.9105 C   0  0  0  0  0  0  0  0  0  0  0  0
    2.1745    0.2007   -0.0258 H   0  0  0  0  0  0  0  0  0  0  0  0
    3.6296   -0.8175   -1.5784 H   0  0  0  0  0  0  0  0  0  0  0  0
    2.3218   -1.3211   -2.6742 H   0  0  0  0  0  0  0  0  0  0  0  0
    2.8084   -3.1304   -0.5781 H   0  0  0  0  0  0  0  0  0  0  0  0
    2.2249   -1.8085    0.4522 H   0  0  0  0  0  0  0  0  0  0  0  0
    0.5944   -2.7143   -1.9893 H   0  0  0  0  0  0  0  0  0  0  0  0
    0.4645   -3.5695   -0.4308 H   0  0  0  0  0  0  0  0  0  0  0  0
    1.3805    0.3076   -3.0738 N   0  0  0  0  0  0  0  0  0  0  0  0
    0.8911    1.1061   -4.1746 C   0  0  2  0  0  0  0  0  0  0  0  0
    1.3144    2.5491   -3.9335 C   0  0  0  0  0  0  0  0  0  0  0  0
    1.5910    2.9899   -2.8198 O   0  0  0  0  0  0  0  0  0  0  0  0
   -0.6200    0.9980   -4.3078 C   0  0  0  0  0  0  0  0  0  0  0  0
    2.0026   -0.4685   -3.2786 H   0  0  0  0  0  0  0  0  0  0  0  0
    1.3781    0.7285   -5.0803 H   0  0  0  0  0  0  0  0  0  0  0  0
   -1.1253    1.3717   -3.4097 H   0  0  0  0  0  0  0  0  0  0  0  0
   -0.9859    1.5807   -5.1595 H   0  0  0  0  0  0  0  0  0  0  0  0
   -0.9250   -0.0442   -4.4513 H   0  0  0  0  0  0  0  0  0  0  0  0
    1.3052    3.2979   -5.1021 N   0  0  0  0  0  0  0  0  0  0  0  0
    1.6564    4.6985   -5.1333 C   0  0  0  0  0  0  0  0  0  0  0  0
    1.0811    2.8456   -5.9835 H   0  0  0  0  0  0  0  0  0  0  0  0
    0.7478    5.3075   -5.0174 H   0  0  0  0  0  0  0  0  0  0  0  0
    2.3535    4.9200   -4.3118 H   0  0  0  0  0  0  0  0  0  0  0  0
    2.1358    4.9347   -6.0948 H   0  0  0  0  0  0  0  0  0  0  0  0
 18 19  1  0  0  0  0
 19 31  1  0  0  0  0
 19 20  2  0  0  0  0
  8  9  1  0  0  0  0
  9 17  1  0  0  0  0
  9 10  2  0  0  0  0
  1  3  1  0  0  0  0
  1  7  1  0  0  0  0
  1  2  2  0  0  0  0
 32 33  1  0  0  0  0
 33 41  1  0  0  0  0
 33 34  2  0  0  0  0
 21 22  1  0  0  0  0
 22 23  1  0  0  0  0
 18 21  1  0  0  0  0
 17 23  1  0  0  0  0
 17 18  1  0  0  0  0
  8 11  1  0  0  0  0
 32 35  1  0  0  0  0
 41 42  1  0  0  0  0
  7  8  1  0  0  0  0
 31 32  1  0  0  0  0
 22 27  1  0  0  0  0
 22 28  1  0  0  0  0
 21 25  1  0  0  0  0
 21 26  1  0  0  0  0
 23 29  1  0  0  0  0
 23 30  1  0  0  0  0
 18 24  1  0  0  0  0
  3  4  1  0  0  0  0
  3  5  1  0  0  0  0
  3  6  1  0  0  0  0
 11 14  1  0  0  0  0
 11 15  1  0  0  0  0
 11 16  1  0  0  0  0
 35 38  1  0  0  0  0
 35 39  1  0  0  0  0
 35 40  1  0  0  0  0
 42 44  1  0  0  0  0
 42 45  1  0  0  0  0
 42 46  1  0  0  0  0
  8 13  1  0  0  0  0
 32 37  1  0  0  0  0
 31 36  1  0  0  0  0
 41 43  1  0  0  0  0
  7 12  1  0  0  0  0
M  END
$$$$

  -OEChem-05262214473D

 46 46  0     1  0  0  0  0  0999 V2000
   -0.6012   -3.2995    3.8205 C   0  0  0  0  0  0  0  0  0  0  0  0
   -0.6574   -4.4683    3.4568 O   0  0  0  0  0  0  0  0  0  0  0  0
   -0.4935   -2.9859    5.2760 C   0  0  0  0  0  0  0  0  0  0  0  0
   -1.4789   -2.8689    5.7550 H   0  0  0  0  0  0  0  0  0  0  0  0
    0.0123   -3.7847    5.8419 H   0  0  0  0  0  0  0  0  0  0  0  0
    0.0585   -2.0642    5.5199 H   0  0  0  0  0  0  0  0  0  0  0  0
   -0.6261   -2.1849    2.9917 N   0  0  0  0  0  0  0  0  0  0  0  0
   -0.7237   -2.2601    1.5650 C   0  0  2  0  0  0  0  0  0  0  0  0
    0.1695   -1.1513    1.0687 C   0  0  0  0  0  0  0  0  0  0  0  0
    0.3193   -0.1267    1.7365 O   0  0  0  0  0  0  0  0  0  0  0  0
   -2.1397   -2.0663    1.0750 C   0  0  0  0  0  0  0  0  0  0  0  0
   -0.5717   -1.2606    3.4238 H   0  0  0  0  0  0  0  0  0  0  0  0
   -0.3076   -3.2111    1.2363 H   0  0  0  0  0  0  0  0  0  0  0  0
   -2.5584   -1.1089    1.4061 H   0  0  0  0  0  0  0  0  0  0  0  0
   -2.1682   -2.0790   -0.0197 H   0  0  0  0  0  0  0  0  0  0  0  0
   -2.7965   -2.8601    1.4459 H   0  0  0  0  0  0  0  0  0  0  0  0
    0.7724   -1.3745   -0.1593 N   0  0  0  0  0  0  0  0  0  0  0  0
    1.6644   -0.4046   -0.7812 C   0  0  2  0  0  0  0  0  0  0  0  0
    0.8166    0.4953   -1.6290 C   0  0  0  0  0  0  0  0  0  0  0  0
    0.1194    1.3492   -1.0938 O   0  0  0  0  0  0  0  0  0  0  0  0
    2.6195   -1.2417   -1.6241 C   0  0  0  0  0  0  0  0  0  0  0  0
    2.1758   -2.2356   -0.5535 C   0  0  0  0  0  0  0  0  0  0  0  0
    0.7499   -2.6270   -0.9105 C   0  0  0  0  0  0  0  0  0  0  0  0
    2.1745    0.2007   -0.0258 H   0  0  0  0  0  0  0  0  0  0  0  0
    3.6296   -0.8175   -1.5784 H   0  0  0  0  0  0  0  0  0  0  0  0
    2.3218   -1.3211   -2.6742 H   0  0  0  0  0  0  0  0  0  0  0  0
    2.8084   -3.1304   -0.5781 H   0  0  0  0  0  0  0  0  0  0  0  0
    2.2249   -1.8085    0.4522 H   0  0  0  0  0  0  0  0  0  0  0  0
    0.5944   -2.7143   -1.9893 H   0  0  0  0  0  0  0  0  0  0  0  0
    0.4645   -3.5695   -0.4308 H   0  0  0  0  0  0  0  0  0  0  0  0
    1.1019    0.0279   -3.0921 N   0  0  0  0  0  0  0  0  0  0  0  0
    0.5484    0.7379   -4.2228 C   0  0  2  0  0  0  0  0  0  0  0  0
    1.1965    2.1151   -4.2764 C   0  0  0  0  0  0  0  0  0  0  0  0
    1.7113    2.6527   -3.2981 O   0  0  0  0  0  0  0  0  0  0  0  0
   -0.9643    0.8528   -4.1175 C   0  0  0  0  0  0  0  0  0  0  0  0
    1.5710   -0.8572   -3.2595 H   0  0  0  0  0  0  0  0  0  0  0  0
    0.8227    0.1695   -5.1182 H   0  0  0  0  0  0  0  0  0  0  0  0
   -1.2582    1.4192   -3.2263 H   0  0  0  0  0  0  0  0  0  0  0  0
   -1.3849    1.3658   -4.9887 H   0  0  0  0  0  0  0  0  0  0  0  0
   -1.4266   -0.1379   -4.0491 H   0  0  0  0  0  0  0  0  0  0  0  0
    1.0942    2.6914   -5.5348 N   0  0  0  0  0  0  0  0  0  0  0  0
    1.6208    4.0018   -5.8373 C   0  0  0  0  0  0  0  0  0  0  0  0
    0.6678    2.1656   -6.2920 H   0  0  0  0  0  0  0  0  0  0  0  0
    0.8347    4.7568   -5.6890 H   0  0  0  0  0  0  0  0  0  0  0  0
    2.4682    4.2192   -5.1704 H   0  0  0  0  0  0  0  0  0  0  0  0
    1.9612    4.0276   -6.8830 H   0  0  0  0  0  0  0  0  0  0  0  0
 18 19  1  0  0  0  0
 19 31  1  0  0  0  0
 19 20  2  0  0  0  0
  8  9  1  0  0  0  0
  9 17  1  0  0  0  0
  9 10  2  0  0  0  0
  1  3  1  0  0  0  0
  1  7  1  0  0  0  0
  1  2  2  0  0  0  0
 32 33  1  0  0  0  0
 33 41  1  0  0  0  0
 33 34  2  0  0  0  0
 21 22  1  0  0  0  0
 22 23  1  0  0  0  0
 18 21  1  0  0  0  0
 17 23  1  0  0  0  0
 17 18  1  0  0  0  0
  8 11  1  0  0  0  0
 32 35  1  0  0  0  0
 41 42  1  0  0  0  0
  7  8  1  0  0  0  0
 31 32  1  0  0  0  0
 22 27  1  0  0  0  0
 22 28  1  0  0  0  0
 21 25  1  0  0  0  0
 21 26  1  0  0  0  0
 23 29  1  0  0  0  0
 23 30  1  0  0  0  0
 18 24  1  0  0  0  0
  3  4  1  0  0  0  0
  3  5  1  0  0  0  0
  3  6  1  0  0  0  0
 11 14  1  0  0  0  0
 11 15  1  0  0  0  0
 11 16  1  0  0  0  0
 35 38  1  0  0  0  0
 35 39  1  0  0  0  0
 35 40  1  0  0  0  0
 42 44  1  0  0  0  0
 42 45  1  0  0  0  0
 42 46  1  0  0  0  0
  8 13  1  0  0  0  0
 32 37  1  0  0  0  0
 31 36  1  0  0  0  0
 41 43  1  0  0  0  0
  7 12  1  0  0  0  0
M  END
$$$$

  -OEChem-05262214473D

 46 46  0     1  0  0  0  0  0999 V2000
   -0.6012   -3.2995    3.8205 C   0  0  0  0  0  0  0  0  0  0  0  0
   -0.6574   -4.4683    3.4568 O   0  0  0  0  0  0  0  0  0  0  0  0
   -0.4935   -2.9859    5.2760 C   0  0  0  0  0  0  0  0  0  0  0  0
   -1.4789   -2.8689    5.7550 H   0  0  0  0  0  0  0  0  0  0  0  0
    0.0123   -3.7847    5.8419 H   0  0  0  0  0  0  0  0  0  0  0  0
    0.0585   -2.0642    5.5199 H   0  0  0  0  0  0  0  0  0  0  0  0
   -0.6261   -2.1849    2.9917 N   0  0  0  0  0  0  0  0  0  0  0  0
   -0.7237   -2.2601    1.5650 C   0  0  2  0  0  0  0  0  0  0  0  0
    0.1695   -1.1513    1.0687 C   0  0  0  0  0  0  0  0  0  0  0  0
    0.3193   -0.1267    1.7365 O   0  0  0  0  0  0  0  0  0  0  0  0
   -2.1397   -2.0663    1.0750 C   0  0  0  0  0  0  0  0  0  0  0  0
   -0.5717   -1.2606    3.4238 H   0  0  0  0  0  0  0  0  0  0  0  0
   -0.3076   -3.2111    1.2363 H   0  0  0  0  0  0  0  0  0  0  0  0
   -2.5584   -1.1089    1.4061 H   0  0  0  0  0  0  0  0  0  0  0  0
   -2.1682   -2.0790   -0.0197 H   0  0  0  0  0  0  0  0  0  0  0  0
   -2.7965   -2.8601    1.4459 H   0  0  0  0  0  0  0  0  0  0  0  0
    0.7724   -1.3745   -0.1593 N   0  0  0  0  0  0  0  0  0  0  0  0
    1.6644   -0.4046   -0.7812 C   0  0  2  0  0  0  0  0  0  0  0  0
    0.8166    0.4953   -1.6290 C   0  0  0  0  0  0  0  0  0  0  0  0
    0.3396    1.5128   -1.1403 O   0  0  0  0  0  0  0  0  0  0  0  0
    2.6195   -1.2417   -1.6241 C   0  0  0  0  0  0  0  0  0  0  0  0
    2.1758   -2.2356   -0.5535 C   0  0  0  0  0  0  0  0  0  0  0  0
    0.7499   -2.6270   -0.9105 C   0  0  0  0  0  0  0  0  0  0  0  0
    2.1745    0.2007   -0.0258 H   0  0  0  0  0  0  0  0  0  0  0  0
    3.6296   -0.8175   -1.5784 H   0  0  0  0  0  0  0  0  0  0  0  0
    2.3218   -1.3211   -2.6742 H   0  0  0  0  0  0  0  0  0  0  0  0
    2.8084   -3.1304   -0.5781 H   0  0  0  0  0  0  0  0  0  0  0  0
    2.2249   -1.8085    0.4522 H   0  0  0  0  0  0  0  0  0  0  0  0
    0.5944   -2.7143   -1.9893 H   0  0  0  0  0  0  0  0  0  0  0  0
    0.4645   -3.5695   -0.4308 H   0  0  0  0  0  0  0  0  0  0  0  0
    0.7890   -0.2042   -3.0256 N   0  0  0  0  0  0  0  0  0  0  0  0
    0.1561    0.4253   -4.1623 C   0  0  2  0  0  0  0  0  0  0  0  0
    0.9659    1.6629   -4.5258 C   0  0  0  0  0  0  0  0  0  0  0  0
    1.7039    2.2393   -3.7294 O   0  0  0  0  0  0  0  0  0  0  0  0
   -1.2886    0.7908   -3.8590 C   0  0  0  0  0  0  0  0  0  0  0  0
    1.1001   -1.1667   -3.1171 H   0  0  0  0  0  0  0  0  0  0  0  0
    0.1984   -0.2947   -4.9868 H   0  0  0  0  0  0  0  0  0  0  0  0
   -1.3512    1.5114   -3.0354 H   0  0  0  0  0  0  0  0  0  0  0  0
   -1.7751    1.2416   -4.7303 H   0  0  0  0  0  0  0  0  0  0  0  0
   -1.8623   -0.0960   -3.5689 H   0  0  0  0  0  0  0  0  0  0  0  0
    0.7344    2.0732   -5.8312 N   0  0  0  0  0  0  0  0  0  0  0  0
    1.3752    3.2311   -6.4098 C   0  0  0  0  0  0  0  0  0  0  0  0
    0.1210    1.5242   -6.4263 H   0  0  0  0  0  0  0  0  0  0  0  0
    0.7336    4.1137   -6.2705 H   0  0  0  0  0  0  0  0  0  0  0  0
    2.3431    3.3998   -5.9151 H   0  0  0  0  0  0  0  0  0  0  0  0
    1.5372    3.0616   -7.4845 H   0  0  0  0  0  0  0  0  0  0  0  0
 18 19  1  0  0  0  0
 19 31  1  0  0  0  0
 19 20  2  0  0  0  0
  8  9  1  0  0  0  0
  9 17  1  0  0  0  0
  9 10  2  0  0  0  0
  1  3  1  0  0  0  0
  1  7  1  0  0  0  0
  1  2  2  0  0  0  0
 32 33  1  0  0  0  0
 33 41  1  0  0  0  0
 33 34  2  0  0  0  0
 21 22  1  0  0  0  0
 22 23  1  0  0  0  0
 18 21  1  0  0  0  0
 17 23  1  0  0  0  0
 17 18  1  0  0  0  0
  8 11  1  0  0  0  0
 32 35  1  0  0  0  0
 41 42  1  0  0  0  0
  7  8  1  0  0  0  0
 31 32  1  0  0  0  0
 22 27  1  0  0  0  0
 22 28  1  0  0  0  0
 21 25  1  0  0  0  0
 21 26  1  0  0  0  0
 23 29  1  0  0  0  0
 23 30  1  0  0  0  0
 18 24  1  0  0  0  0
  3  4  1  0  0  0  0
  3  5  1  0  0  0  0
  3  6  1  0  0  0  0
 11 14  1  0  0  0  0
 11 15  1  0  0  0  0
 11 16  1  0  0  0  0
 35 38  1  0  0  0  0
 35 39  1  0  0  0  0
 35 40  1  0  0  0  0
 42 44  1  0  0  0  0
 42 45  1  0  0  0  0
 42 46  1  0  0  0  0
  8 13  1  0  0  0  0
 32 37  1  0  0  0  0
 31 36  1  0  0  0  0
 41 43  1  0  0  0  0
  7 12  1  0  0  0  0
M  END
$$$$

  -OEChem-05262214473D

 46 46  0     1  0  0  0  0  0999 V2000
   -0.6012   -3.2995    3.8205 C   0  0  0  0  0  0  0  0  0  0  0  0
   -0.6574   -4.4683    3.4568 O   0  0  0  0  0  0  0  0  0  0  0  0
   -0.4935   -2.9859    5.2760 C   0  0  0  0  0  0  0  0  0  0  0  0
   -1.4789   -2.8689    5.7550 H   0  0  0  0  0  0  0  0  0  0  0  0
    0.0123   -3.7847    5.8419 H   0  0  0  0  0  0  0  0  0  0  0  0
    0.0585   -2.0642    5.5199 H   0  0  0  0  0  0  0  0  0  0  0  0
   -0.6261   -2.1849    2.9917 N   0  0  0  0  0  0  0  0  0  0  0  0
   -0.7237   -2.2601    1.5650 C   0  0  2  0  0  0  0  0  0  0  0  0
    0.1695   -1.1513    1.0687 C   0  0  0  0  0  0  0  0  0  0  0  0
    0.3193   -0.1267    1.7365 O   0  0  0  0  0  0  0  0  0  0  0  0
   -2.1397   -2.0663    1.0750 C   0  0  0  0  0  0  0  0  0  0  0  0
   -0.5717   -1.2606    3.4238 H   0  0  0  0  0  0  0  0  0  0  0  0
   -0.3076   -3.2111    1.2363 H   0  0  0  0  0  0  0  0  0  0  0  0
   -2.5584   -1.1089    1.4061 H   0  0  0  0  0  0  0  0  0  0  0  0
   -2.1682   -2.0790   -0.0197 H   0  0  0  0  0  0  0  0  0  0  0  0
   -2.7965   -2.8601    1.4459 H   0  0  0  0  0  0  0  0  0  0  0  0
    0.7724   -1.3745   -0.1593 N   0  0  0  0  0  0  0  0  0  0  0  0
    1.6644   -0.4046   -0.7812 C   0  0  2  0  0  0  0  0  0  0  0  0
    0.8166    0.4953   -1.6290 C   0  0  0  0  0  0  0  0  0  0  0  0
    0.5691    1.6318   -1.2434 O   0  0  0  0  0  0  0  0  0  0  0  0
    2.6195   -1.2417   -1.6241 C   0  0  0  0  0  0  0  0  0  0  0  0
    2.1758   -2.2356   -0.5535 C   0  0  0  0  0  0  0  0  0  0  0  0
    0.7499   -2.6270   -0.9105 C   0  0  0  0  0  0  0  0  0  0  0  0
    2.1745    0.2007   -0.0258 H   0  0  0  0  0  0  0  0  0  0  0  0
    3.6296   -0.8175   -1.5784 H   0  0  0  0  0  0  0  0  0  0  0  0
    2.3218   -1.3211   -2.6742 H   0  0  0  0  0  0  0  0  0  0  0  0
    2.8084   -3.1304   -0.5781 H   0  0  0  0  0  0  0  0  0  0  0  0
    2.2249   -1.8085    0.4522 H   0  0  0  0  0  0  0  0  0  0  0  0
    0.5944   -2.7143   -1.9893 H   0  0  0  0  0  0  0  0  0  0  0  0
    0.4645   -3.5695   -0.4308 H   0  0  0  0  0  0  0  0  0  0  0  0
    0.4631   -0.3729   -2.8788 N   0  0  0  0  0  0  0  0  0  0  0  0
   -0.2593    0.1897   -3.9971 C   0  0  2  0  0  0  0  0  0  0  0  0
    0.6382    1.2234   -4.6646 C   0  0  0  0  0  0  0  0  0  0  0  0
    1.5692    1.7781   -4.0844 O   0  0  0  0  0  0  0  0  0  0  0  0
   -1.5708    0.8163   -3.5499 C   0  0  0  0  0  0  0  0  0  0  0  0
    0.6220   -1.3758   -2.8611 H   0  0  0  0  0  0  0  0  0  0  0  0
   -0.4520   -0.6325   -4.6949 H   0  0  0  0  0  0  0  0  0  0  0  0
   -1.3978    1.6421   -2.8501 H   0  0  0  0  0  0  0  0  0  0  0  0
   -2.1301    1.2166   -4.4018 H   0  0  0  0  0  0  0  0  0  0  0  0
   -2.2025    0.0785   -3.0435 H   0  0  0  0  0  0  0  0  0  0  0  0
    0.2503    1.4854   -5.9711 N   0  0  0  0  0  0  0  0  0  0  0  0
    0.9361    2.4388   -6.8117 C   0  0  0  0  0  0  0  0  0  0  0  0
   -0.5218    0.9649   -6.3771 H   0  0  0  0  0  0  0  0  0  0  0  0
    0.4516    3.4223   -6.7224 H   0  0  0  0  0  0  0  0  0  0  0  0
    1.9866    2.5176   -6.4950 H   0  0  0  0  0  0  0  0  0  0  0  0
    0.8929    2.1026   -7.8582 H   0  0  0  0  0  0  0  0  0  0  0  0
 18 19  1  0  0  0  0
 19 31  1  0  0  0  0
 19 20  2  0  0  0  0
  8  9  1  0  0  0  0
  9 17  1  0  0  0  0
  9 10  2  0  0  0  0
  1  3  1  0  0  0  0
  1  7  1  0  0  0  0
  1  2  2  0  0  0  0
 32 33  1  0  0  0  0
 33 41  1  0  0  0  0
 33 34  2  0  0  0  0
 21 22  1  0  0  0  0
 22 23  1  0  0  0  0
 18 21  1  0  0  0  0
 17 23  1  0  0  0  0
 17 18  1  0  0  0  0
  8 11  1  0  0  0  0
 32 35  1  0  0  0  0
 41 42  1  0  0  0  0
  7  8  1  0  0  0  0
 31 32  1  0  0  0  0
 22 27  1  0  0  0  0
 22 28  1  0  0  0  0
 21 25  1  0  0  0  0
 21 26  1  0  0  0  0
 23 29  1  0  0  0  0
 23 30  1  0  0  0  0
 18 24  1  0  0  0  0
  3  4  1  0  0  0  0
  3  5  1  0  0  0  0
  3  6  1  0  0  0  0
 11 14  1  0  0  0  0
 11 15  1  0  0  0  0
 11 16  1  0  0  0  0
 35 38  1  0  0  0  0
 35 39  1  0  0  0  0
 35 40  1  0  0  0  0
 42 44  1  0  0  0  0
 42 45  1  0  0  0  0
 42 46  1  0  0  0  0
  8 13  1  0  0  0  0
 32 37  1  0  0  0  0
 31 36  1  0  0  0  0
 41 43  1  0  0  0  0
  7 12  1  0  0  0  0
M  END
$$$$

  -OEChem-05262214473D

 46 46  0     1  0  0  0  0  0999 V2000
   -0.6012   -3.2995    3.8205 C   0  0  0  0  0  0  0  0  0  0  0  0
   -0.6574   -4.4683    3.4568 O   0  0  0  0  0  0  0  0  0  0  0  0
   -0.4935   -2.9859    5.2760 C   0  0  0  0  0  0  0  0  0  0  0  0
   -1.4789   -2.8689    5.7550 H   0  0  0  0  0  0  0  0  0  0  0  0
    0.0123   -3.7847    5.8419 H   0  0  0  0  0  0  0  0  0  0  0  0
    0.0585   -2.0642    5.5199 H   0  0  0  0  0  0  0  0  0  0  0  0
   -0.6261   -2.1849    2.9917 N   0  0  0  0  0  0  0  0  0  0  0  0
   -0.7237   -2.2601    1.5650 C   0  0  2  0  0  0  0  0  0  0  0  0
    0.1695   -1.1513    1.0687 C   0  0  0  0  0  0  0  0  0  0  0  0
    0.3193   -0.1267    1.7365 O   0  0  0  0  0  0  0  0  0  0  0  0
   -2.1397   -2.0663    1.0750 C   0  0  0  0  0  0  0  0  0  0  0  0
   -0.5717   -1.2606    3.4238 H   0  0  0  0  0  0  0  0  0  0  0  0
   -0.3076   -3.2111    1.2363 H   0  0  0  0  0  0  0  0  0  0  0  0
   -2.5584   -1.1089    1.4061 H   0  0  0  0  0  0  0  0  0  0  0  0
   -2.1682   -2.0790   -0.0197 H   0  0  0  0  0  0  0  0  0  0  0  0
   -2.7965   -2.8601    1.4459 H   0  0  0  0  0  0  0  0  0  0  0  0
    0.7724   -1.3745   -0.1593 N   0  0  0  0  0  0  0  0  0  0  0  0
    1.6644   -0.4046   -0.7812 C   0  0  2  0  0  0  0  0  0  0  0  0
    0.8166    0.4953   -1.6290 C   0  0  0  0  0  0  0  0  0  0  0  0
    0.7922    1.6981   -1.3961 O   0  0  0  0  0  0  0  0  0  0  0  0
    2.6195   -1.2417   -1.6241 C   0  0  0  0  0  0  0  0  0  0  0  0
    2.1758   -2.2356   -0.5535 C   0  0  0  0  0  0  0  0  0  0  0  0
    0.7499   -2.6270   -0.9105 C   0  0  0  0  0  0  0  0  0  0  0  0
    2.1745    0.2007   -0.0258 H   0  0  0  0  0  0  0  0  0  0  0  0
    3.6296   -0.8175   -1.5784 H   0  0  0  0  0  0  0  0  0  0  0  0
    2.3218   -1.3211   -2.6742 H   0  0  0  0  0  0  0  0  0  0  0  0
    2.8084   -3.1304   -0.5781 H   0  0  0  0  0  0  0  0  0  0  0  0
    2.2249   -1.8085    0.4522 H   0  0  0  0  0  0  0  0  0  0  0  0
    0.5944   -2.7143   -1.9893 H   0  0  0  0  0  0  0  0  0  0  0  0
    0.4645   -3.5695   -0.4308 H   0  0  0  0  0  0  0  0  0  0  0  0
    0.1465   -0.4666   -2.6616 N   0  0  0  0  0  0  0  0  0  0  0  0
   -0.6693    0.0470   -3.7385 C   0  0  2  0  0  0  0  0  0  0  0  0
    0.2357    0.8265   -4.6835 C   0  0  0  0  0  0  0  0  0  0  0  0
    1.3164    1.3003   -4.3388 O   0  0  0  0  0  0  0  0  0  0  0  0
   -1.7916    0.9274   -3.2111 C   0  0  0  0  0  0  0  0  0  0  0  0
    0.1695   -1.4704   -2.5089 H   0  0  0  0  0  0  0  0  0  0  0  0
   -1.0844   -0.8208   -4.2625 H   0  0  0  0  0  0  0  0  0  0  0  0
   -1.3949    1.8022   -2.6830 H   0  0  0  0  0  0  0  0  0  0  0  0
   -2.4256    1.2925   -4.0258 H   0  0  0  0  0  0  0  0  0  0  0  0
   -2.4239    0.3737   -2.5087 H   0  0  0  0  0  0  0  0  0  0  0  0
   -0.3251    0.9679   -5.9451 N   0  0  0  0  0  0  0  0  0  0  0  0
    0.3336    1.6790   -7.0158 C   0  0  0  0  0  0  0  0  0  0  0  0
   -1.2169    0.5260   -6.1478 H   0  0  0  0  0  0  0  0  0  0  0  0
    0.0077    2.7296   -7.0139 H   0  0  0  0  0  0  0  0  0  0  0  0
    1.4230    1.6328   -6.8707 H   0  0  0  0  0  0  0  0  0  0  0  0
    0.0720    1.2158   -7.9787 H   0  0  0  0  0  0  0  0  0  0  0  0
 18 19  1  0  0  0  0
 19 31  1  0  0  0  0
 19 20  2  0  0  0  0
  8  9  1  0  0  0  0
  9 17  1  0  0  0  0
  9 10  2  0  0  0  0
  1  3  1  0  0  0  0
  1  7  1  0  0  0  0
  1  2  2  0  0  0  0
 32 33  1  0  0  0  0
 33 41  1  0  0  0  0
 33 34  2  0  0  0  0
 21 22  1  0  0  0  0
 22 23  1  0  0  0  0
 18 21  1  0  0  0  0
 17 23  1  0  0  0  0
 17 18  1  0  0  0  0
  8 11  1  0  0  0  0
 32 35  1  0  0  0  0
 41 42  1  0  0  0  0
  7  8  1  0  0  0  0
 31 32  1  0  0  0  0
 22 27  1  0  0  0  0
 22 28  1  0  0  0  0
 21 25  1  0  0  0  0
 21 26  1  0  0  0  0
 23 29  1  0  0  0  0
 23 30  1  0  0  0  0
 18 24  1  0  0  0  0
  3  4  1  0  0  0  0
  3  5  1  0  0  0  0
  3  6  1  0  0  0  0
 11 14  1  0  0  0  0
 11 15  1  0  0  0  0
 11 16  1  0  0  0  0
 35 38  1  0  0  0  0
 35 39  1  0  0  0  0
 35 40  1  0  0  0  0
 42 44  1  0  0  0  0
 42 45  1  0  0  0  0
 42 46  1  0  0  0  0
  8 13  1  0  0  0  0
 32 37  1  0  0  0  0
 31 36  1  0  0  0  0
 41 43  1  0  0  0  0
  7 12  1  0  0  0  0
M  END
$$$$

  -OEChem-05262214473D

 46 46  0     1  0  0  0  0  0999 V2000
   -0.6012   -3.2995    3.8205 C   0  0  0  0  0  0  0  0  0  0  0  0
   -0.6574   -4.4683    3.4568 O   0  0  0  0  0  0  0  0  0  0  0  0
   -0.4935   -2.9859    5.2760 C   0  0  0  0  0  0  0  0  0  0  0  0
   -1.4789   -2.8689    5.7550 H   0  0  0  0  0  0  0  0  0  0  0  0
    0.0123   -3.7847    5.8419 H   0  0  0  0  0  0  0  0  0  0  0  0
    0.0585   -2.0642    5.5199 H   0  0  0  0  0  0  0  0  0  0  0  0
   -0.6261   -2.1849    2.9917 N   0  0  0  0  0  0  0  0  0  0  0  0
   -0.7237   -2.2601    1.5650 C   0  0  2  0  0  0  0  0  0  0  0  0
    0.1695   -1.1513    1.0687 C   0  0  0  0  0  0  0  0  0  0  0  0
    0.3193   -0.1267    1.7365 O   0  0  0  0  0  0  0  0  0  0  0  0
   -2.1397   -2.0663    1.0750 C   0  0  0  0  0  0  0  0  0  0  0  0
   -0.5717   -1.2606    3.4238 H   0  0  0  0  0  0  0  0  0  0  0  0
   -0.3076   -3.2111    1.2363 H   0  0  0  0  0  0  0  0  0  0  0  0
   -2.5584   -1.1089    1.4061 H   0  0  0  0  0  0  0  0  0  0  0  0
   -2.1682   -2.0790   -0.0197 H   0  0  0  0  0  0  0  0  0  0  0  0
   -2.7965   -2.8601    1.4459 H   0  0  0  0  0  0  0  0  0  0  0  0
    0.7724   -1.3745   -0.1593 N   0  0  0  0  0  0  0  0  0  0  0  0
    1.6644   -0.4046   -0.7812 C   0  0  2  0  0  0  0  0  0  0  0  0
    0.8166    0.4953   -1.6290 C   0  0  0  0  0  0  0  0  0  0  0  0
    0.9936    1.7072   -1.5879 O   0  0  0  0  0  0  0  0  0  0  0  0
    2.6195   -1.2417   -1.6241 C   0  0  0  0  0  0  0  0  0  0  0  0
    2.1758   -2.2356   -0.5535 C   0  0  0  0  0  0  0  0  0  0  0  0
    0.7499   -2.6270   -0.9105 C   0  0  0  0  0  0  0  0  0  0  0  0
    2.1745    0.2007   -0.0258 H   0  0  0  0  0  0  0  0  0  0  0  0
    3.6296   -0.8175   -1.5784 H   0  0  0  0  0  0  0  0  0  0  0  0
    2.3218   -1.3211   -2.6742 H   0  0  0  0  0  0  0  0  0  0  0  0
    2.8084   -3.1304   -0.5781 H   0  0  0  0  0  0  0  0  0  0  0  0
    2.2249   -1.8085    0.4522 H   0  0  0  0  0  0  0  0  0  0  0  0
    0.5944   -2.7143   -1.9893 H   0  0  0  0  0  0  0  0  0  0  0  0
    0.4645   -3.5695   -0.4308 H   0  0  0  0  0  0  0  0  0  0  0  0
   -0.1393   -0.4790   -2.3890 N   0  0  0  0  0  0  0  0  0  0  0  0
   -1.0460    0.0071   -3.4042 C   0  0  2  0  0  0  0  0  0  0  0  0
   -0.2140    0.4993   -4.5811 C   0  0  0  0  0  0  0  0  0  0  0  0
    0.9628    0.8385   -4.4753 O   0  0  0  0  0  0  0  0  0  0  0  0
   -1.9359    1.1166   -2.8659 C   0  0  0  0  0  0  0  0  0  0  0  0
   -0.2268   -1.4439   -2.0846 H   0  0  0  0  0  0  0  0  0  0  0  0
   -1.6556   -0.8469   -3.7189 H   0  0  0  0  0  0  0  0  0  0  0  0
   -1.3428    1.9809   -2.5455 H   0  0  0  0  0  0  0  0  0  0  0  0
   -2.6415    1.4641   -3.6277 H   0  0  0  0  0  0  0  0  0  0  0  0
   -2.5115    0.7695   -2.0010 H   0  0  0  0  0  0  0  0  0  0  0  0
   -0.9526    0.5561   -5.7547 N   0  0  0  0  0  0  0  0  0  0  0  0
   -0.3913    1.0033   -7.0081 C   0  0  0  0  0  0  0  0  0  0  0  0
   -1.9170    0.2374   -5.7542 H   0  0  0  0  0  0  0  0  0  0  0  0
   -0.5677    2.0827   -7.1251 H   0  0  0  0  0  0  0  0  0  0  0  0
    0.6907    0.8057   -7.0165 H   0  0  0  0  0  0  0  0  0  0  0  0
   -0.8694    0.4618   -7.8377 H   0  0  0  0  0  0  0  0  0  0  0  0
 18 19  1  0  0  0  0
 19 31  1  0  0  0  0
 19 20  2  0  0  0  0
  8  9  1  0  0  0  0
  9 17  1  0  0  0  0
  9 10  2  0  0  0  0
  1  3  1  0  0  0  0
  1  7  1  0  0  0  0
  1  2  2  0  0  0  0
 32 33  1  0  0  0  0
 33 41  1  0  0  0  0
 33 34  2  0  0  0  0
 21 22  1  0  0  0  0
 22 23  1  0  0  0  0
 18 21  1  0  0  0  0
 17 23  1  0  0  0  0
 17 18  1  0  0  0  0
  8 11  1  0  0  0  0
 32 35  1  0  0  0  0
 41 42  1  0  0  0  0
  7  8  1  0  0  0  0
 31 32  1  0  0  0  0
 22 27  1  0  0  0  0
 22 28  1  0  0  0  0
 21 25  1  0  0  0  0
 21 26  1  0  0  0  0
 23 29  1  0  0  0  0
 23 30  1  0  0  0  0
 18 24  1  0  0  0  0
  3  4  1  0  0  0  0
  3  5  1  0  0  0  0
  3  6  1  0  0  0  0
 11 14  1  0  0  0  0
 11 15  1  0  0  0  0
 11 16  1  0  0  0  0
 35 38  1  0  0  0  0
 35 39  1  0  0  0  0
 35 40  1  0  0  0  0
 42 44  1  0  0  0  0
 42 45  1  0  0  0  0
 42 46  1  0  0  0  0
  8 13  1  0  0  0  0
 32 37  1  0  0  0  0
 31 36  1  0  0  0  0
 41 43  1  0  0  0  0
  7 12  1  0  0  0  0
M  END
$$$$

  -OEChem-05262214473D

 46 46  0     1  0  0  0  0  0999 V2000
   -0.6012   -3.2995    3.8205 C   0  0  0  0  0  0  0  0  0  0  0  0
   -0.6574   -4.4683    3.4568 O   0  0  0  0  0  0  0  0  0  0  0  0
   -0.4935   -2.9859    5.2760 C   0  0  0  0  0  0  0  0  0  0  0  0
   -1.4789   -2.8689    5.7550 H   0  0  0  0  0  0  0  0  0  0  0  0
    0.0123   -3.7847    5.8419 H   0  0  0  0  0  0  0  0  0  0  0  0
    0.0585   -2.0642    5.5199 H   0  0  0  0  0  0  0  0  0  0  0  0
   -0.6261   -2.1849    2.9917 N   0  0  0  0  0  0  0  0  0  0  0  0
   -0.7237   -2.2601    1.5650 C   0  0  2  0  0  0  0  0  0  0  0  0
    0.1695   -1.1513    1.0687 C   0  0  0  0  0  0  0  0  0  0  0  0
    0.3193   -0.1267    1.7365 O   0  0  0  0  0  0  0  0  0  0  0  0
   -2.1397   -2.0663    1.0750 C   0  0  0  0  0  0  0  0  0  0  0  0
   -0.5717   -1.2606    3.4238 H   0  0  0  0  0  0  0  0  0  0  0  0
   -0.3076   -3.2111    1.2363 H   0  0  0  0  0  0  0  0  0  0  0  0
   -2.5584   -1.1089    1.4061 H   0  0  0  0  0  0  0  0  0  0  0  0
   -2.1682   -2.0790   -0.0197 H   0  0  0  0  0  0  0  0  0  0  0  0
   -2.7965   -2.8601    1.4459 H   0  0  0  0  0  0  0  0  0  0  0  0
    0.7724   -1.3745   -0.1593 N   0  0  0  0  0  0  0  0  0  0  0  0
    1.6644   -0.4046   -0.7812 C   0  0  2  0  0  0  0  0  0  0  0  0
    0.8166    0.4953   -1.6290 C   0  0  0  0  0  0  0  0  0  0  0  0
    1.1597    1.6584   -1.8059 O   0  0  0  0  0  0  0  0  0  0  0  0
    2.6195   -1.2417   -1.6241 C   0  0  0  0  0  0  0  0  0  0  0  0
    2.1758   -2.2356   -0.5535 C   0  0  0  0  0  0  0  0  0  0  0  0
    0.7499   -2.6270   -0.9105 C   0  0  0  0  0  0  0  0  0  0  0  0
    2.1745    0.2007   -0.0258 H   0  0  0  0  0  0  0  0  0  0  0  0
    3.6296   -0.8175   -1.5784 H   0  0  0  0  0  0  0  0  0  0  0  0
    2.3218   -1.3211   -2.6742 H   0  0  0  0  0  0  0  0  0  0  0  0
    2.8084   -3.1304   -0.5781 H   0  0  0  0  0  0  0  0  0  0  0  0
    2.2249   -1.8085    0.4522 H   0  0  0  0  0  0  0  0  0  0  0  0
    0.5944   -2.7143   -1.9893 H   0  0  0  0  0  0  0  0  0  0  0  0
    0.4645   -3.5695   -0.4308 H   0  0  0  0  0  0  0  0  0  0  0  0
   -0.3749   -0.4093   -2.0794 N   0  0  0  0  0  0  0  0  0  0  0  0
   -1.3638    0.0726   -3.0168 C   0  0  2  0  0  0  0  0  0  0  0  0
   -0.6804    0.2640   -4.3644 C   0  0  0  0  0  0  0  0  0  0  0  0
    0.5324    0.4242   -4.4847 O   0  0  0  0  0  0  0  0  0  0  0  0
   -1.9940    1.3710   -2.5377 C   0  0  0  0  0  0  0  0  0  0  0  0
   -0.5398   -1.2983   -1.6170 H   0  0  0  0  0  0  0  0  0  0  0  0
   -2.1267   -0.7089   -3.1013 H   0  0  0  0  0  0  0  0  0  0  0  0
   -1.2448    2.1660   -2.4469 H   0  0  0  0  0  0  0  0  0  0  0  0
   -2.7631    1.7197   -3.2348 H   0  0  0  0  0  0  0  0  0  0  0  0
   -2.4592    1.2390   -1.5548 H   0  0  0  0  0  0  0  0  0  0  0  0
   -1.5893    0.2781   -5.4131 N   0  0  0  0  0  0  0  0  0  0  0  0
   -1.1892    0.4579   -6.7892 C   0  0  0  0  0  0  0  0  0  0  0  0
   -2.5743    0.1186   -5.2229 H   0  0  0  0  0  0  0  0  0  0  0  0
   -1.2355    1.5259   -7.0485 H   0  0  0  0  0  0  0  0  0  0  0  0
   -0.1603    0.0926   -6.9225 H   0  0  0  0  0  0  0  0  0  0  0  0
   -1.8671   -0.1082   -7.4450 H   0  0  0  0  0  0  0  0  0  0  0  0
 18 19  1  0  0  0  0
 19 31  1  0  0  0  0
 19 20  2  0  0  0  0
  8  9  1  0  0  0  0
  9 17  1  0  0  0  0
  9 10  2  0  0  0  0
  1  3  1  0  0  0  0
  1  7  1  0  0  0  0
  1  2  2  0  0  0  0
 32 33  1  0  0  0  0
 33 41  1  0  0  0  0
 33 34  2  0  0  0  0
 21 22  1  0  0  0  0
 22 23  1  0  0  0  0
 18 21  1  0  0  0  0
 17 23  1  0  0  0  0
 17 18  1  0  0  0  0
  8 11  1  0  0  0  0
 32 35  1  0  0  0  0
 41 42  1  0  0  0  0
  7  8  1  0  0  0  0
 31 32  1  0  0  0  0
 22 27  1  0  0  0  0
 22 28  1  0  0  0  0
 21 25  1  0  0  0  0
 21 26  1  0  0  0  0
 23 29  1  0  0  0  0
 23 30  1  0  0  0  0
 18 24  1  0  0  0  0
  3  4  1  0  0  0  0
  3  5  1  0  0  0  0
  3  6  1  0  0  0  0
 11 14  1  0  0  0  0
 11 15  1  0  0  0  0
 11 16  1  0  0  0  0
 35 38  1  0  0  0  0
 35 39  1  0  0  0  0
 35 40  1  0  0  0  0
 42 44  1  0  0  0  0
 42 45  1  0  0  0  0
 42 46  1  0  0  0  0
  8 13  1  0  0  0  0
 32 37  1  0  0  0  0
 31 36  1  0  0  0  0
 41 43  1  0  0  0  0
  7 12  1  0  0  0  0
M  END
$$$$

  -OEChem-05262214473D

 46 46  0     1  0  0  0  0  0999 V2000
   -0.6012   -3.2995    3.8205 C   0  0  0  0  0  0  0  0  0  0  0  0
   -0.6574   -4.4683    3.4568 O   0  0  0  0  0  0  0  0  0  0  0  0
   -0.4935   -2.9859    5.2760 C   0  0  0  0  0  0  0  0  0  0  0  0
   -1.4789   -2.8689    5.7550 H   0  0  0  0  0  0  0  0  0  0  0  0
    0.0123   -3.7847    5.8419 H   0  0  0  0  0  0  0  0  0  0  0  0
    0.0585   -2.0642    5.5199 H   0  0  0  0  0  0  0  0  0  0  0  0
   -0.6261   -2.1849    2.9917 N   0  0  0  0  0  0  0  0  0  0  0  0
   -0.7237   -2.2601    1.5650 C   0  0  2  0  0  0  0  0  0  0  0  0
    0.1695   -1.1513    1.0687 C   0  0  0  0  0  0  0  0  0  0  0  0
    0.3193   -0.1267    1.7365 O   0  0  0  0  0  0  0  0  0  0  0  0
   -2.1397   -2.0663    1.0750 C   0  0  0  0  0  0  0  0  0  0  0  0
   -0.5717   -1.2606    3.4238 H   0  0  0  0  0  0  0  0  0  0  0  0
   -0.3076   -3.2111    1.2363 H   0  0  0  0  0  0  0  0  0  0  0  0
   -2.5584   -1.1089    1.4061 H   0  0  0  0  0  0  0  0  0  0  0  0
   -2.1682   -2.0790   -0.0197 H   0  0  0  0  0  0  0  0  0  0  0  0
   -2.7965   -2.8601    1.4459 H   0  0  0  0  0  0  0  0  0  0  0  0
    0.7724   -1.3745   -0.1593 N   0  0  0  0  0  0  0  0  0  0  0  0
    1.6644   -0.4046   -0.7812 C   0  0  2  0  0  0  0  0  0  0  0  0
    0.8166    0.4953   -1.6290 C   0  0  0  0  0  0  0  0  0  0  0  0
    1.2791    1.5550   -2.0350 O   0  0  0  0  0  0  0  0  0  0  0  0
    2.6195   -1.2417   -1.6241 C   0  0  0  0  0  0  0  0  0  0  0  0
    2.1758   -2.2356   -0.5535 C   0  0  0  0  0  0  0  0  0  0  0  0
    0.7499   -2.6270   -0.9105 C   0  0  0  0  0  0  0  0  0  0  0  0
    2.1745    0.2007   -0.0258 H   0  0  0  0  0  0  0  0  0  0  0  0
    3.6296   -0.8175   -1.5784 H   0  0  0  0  0  0  0  0  0  0  0  0
    2.3218   -1.3211   -2.6742 H   0  0  0  0  0  0  0  0  0  0  0  0
    2.8084   -3.1304   -0.5781 H   0  0  0  0  0  0  0  0  0  0  0  0
    2.2249   -1.8085    0.4522 H   0  0  0  0  0  0  0  0  0  0  0  0
    0.5944   -2.7143   -1.9893 H   0  0  0  0  0  0  0  0  0  0  0  0
    0.4645   -3.5695   -0.4308 H   0  0  0  0  0  0  0  0  0  0  0  0
   -0.5441   -0.2621   -1.7539 N   0  0  0  0  0  0  0  0  0  0  0  0
   -1.6010    0.2391   -2.6029 C   0  0  2  0  0  0  0  0  0  0  0  0
   -1.1317    0.1368   -4.0482 C   0  0  0  0  0  0  0  0  0  0  0  0
    0.0546    0.0857   -4.3662 O   0  0  0  0  0  0  0  0  0  0  0  0
   -1.9619    1.6734   -2.2489 C   0  0  0  0  0  0  0  0  0  0  0  0
   -0.7481   -1.0434   -1.1380 H   0  0  0  0  0  0  0  0  0  0  0  0
   -2.4656   -0.4163   -2.4518 H   0  0  0  0  0  0  0  0  0  0  0  0
   -1.1079    2.3449   -2.3940 H   0  0  0  0  0  0  0  0  0  0  0  0
   -2.7821    2.0419   -2.8738 H   0  0  0  0  0  0  0  0  0  0  0  0
   -2.2707    1.7502   -1.2007 H   0  0  0  0  0  0  0  0  0  0  0  0
   -2.1920    0.1527   -4.9435 N   0  0  0  0  0  0  0  0  0  0  0  0
   -2.0058    0.0799   -6.3739 C   0  0  0  0  0  0  0  0  0  0  0  0
   -3.1440    0.1779   -4.5902 H   0  0  0  0  0  0  0  0  0  0  0  0
   -1.9501    1.0970   -6.7891 H   0  0  0  0  0  0  0  0  0  0  0  0
   -1.0721   -0.4579   -6.5950 H   0  0  0  0  0  0  0  0  0  0  0  0
   -2.8533   -0.4552   -6.8271 H   0  0  0  0  0  0  0  0  0  0  0  0
 18 19  1  0  0  0  0
 19 31  1  0  0  0  0
 19 20  2  0  0  0  0
  8  9  1  0  0  0  0
  9 17  1  0  0  0  0
  9 10  2  0  0  0  0
  1  3  1  0  0  0  0
  1  7  1  0  0  0  0
  1  2  2  0  0  0  0
 32 33  1  0  0  0  0
 33 41  1  0  0  0  0
 33 34  2  0  0  0  0
 21 22  1  0  0  0  0
 22 23  1  0  0  0  0
 18 21  1  0  0  0  0
 17 23  1  0  0  0  0
 17 18  1  0  0  0  0
  8 11  1  0  0  0  0
 32 35  1  0  0  0  0
 41 42  1  0  0  0  0
  7  8  1  0  0  0  0
 31 32  1  0  0  0  0
 22 27  1  0  0  0  0
 22 28  1  0  0  0  0
 21 25  1  0  0  0  0
 21 26  1  0  0  0  0
 23 29  1  0  0  0  0
 23 30  1  0  0  0  0
 18 24  1  0  0  0  0
  3  4  1  0  0  0  0
  3  5  1  0  0  0  0
  3  6  1  0  0  0  0
 11 14  1  0  0  0  0
 11 15  1  0  0  0  0
 11 16  1  0  0  0  0
 35 38  1  0  0  0  0
 35 39  1  0  0  0  0
 35 40  1  0  0  0  0
 42 44  1  0  0  0  0
 42 45  1  0  0  0  0
 42 46  1  0  0  0  0
  8 13  1  0  0  0  0
 32 37  1  0  0  0  0
 31 36  1  0  0  0  0
 41 43  1  0  0  0  0
  7 12  1  0  0  0  0
M  END
$$$$

  -OEChem-05262214473D

 46 46  0     1  0  0  0  0  0999 V2000
   -0.6012   -3.2995    3.8205 C   0  0  0  0  0  0  0  0  0  0  0  0
   -0.6574   -4.4683    3.4568 O   0  0  0  0  0  0  0  0  0  0  0  0
   -0.4935   -2.9859    5.2760 C   0  0  0  0  0  0  0  0  0  0  0  0
   -1.4789   -2.8689    5.7550 H   0  0  0  0  0  0  0  0  0  0  0  0
    0.0123   -3.7847    5.8419 H   0  0  0  0  0  0  0  0  0  0  0  0
    0.0585   -2.0642    5.5199 H   0  0  0  0  0  0  0  0  0  0  0  0
   -0.6261   -2.1849    2.9917 N   0  0  0  0  0  0  0  0  0  0  0  0
   -0.7237   -2.2601    1.5650 C   0  0  2  0  0  0  0  0  0  0  0  0
    0.1695   -1.1513    1.0687 C   0  0  0  0  0  0  0  0  0  0  0  0
    0.3193   -0.1267    1.7365 O   0  0  0  0  0  0  0  0  0  0  0  0
   -2.1397   -2.0663    1.0750 C   0  0  0  0  0  0  0  0  0  0  0  0
   -0.5717   -1.2606    3.4238 H   0  0  0  0  0  0  0  0  0  0  0  0
   -0.3076   -3.2111    1.2363 H   0  0  0  0  0  0  0  0  0  0  0  0
   -2.5584   -1.1089    1.4061 H   0  0  0  0  0  0  0  0  0  0  0  0
   -2.1682   -2.0790   -0.0197 H   0  0  0  0  0  0  0  0  0  0  0  0
   -2.7965   -2.8601    1.4459 H   0  0  0  0  0  0  0  0  0  0  0  0
    0.7724   -1.3745   -0.1593 N   0  0  0  0  0  0  0  0  0  0  0  0
    1.6644   -0.4046   -0.7812 C   0  0  2  0  0  0  0  0  0  0  0  0
    0.8166    0.4953   -1.6290 C   0  0  0  0  0  0  0  0  0  0  0  0
    1.3437    1.4041   -2.2598 O   0  0  0  0  0  0  0  0  0  0  0  0
    2.6195   -1.2417   -1.6241 C   0  0  0  0  0  0  0  0  0  0  0  0
    2.1758   -2.2356   -0.5535 C   0  0  0  0  0  0  0  0  0  0  0  0
    0.7499   -2.6270   -0.9105 C   0  0  0  0  0  0  0  0  0  0  0  0
    2.1745    0.2007   -0.0258 H   0  0  0  0  0  0  0  0  0  0  0  0
    3.6296   -0.8175   -1.5784 H   0  0  0  0  0  0  0  0  0  0  0  0
    2.3218   -1.3211   -2.6742 H   0  0  0  0  0  0  0  0  0  0  0  0
    2.8084   -3.1304   -0.5781 H   0  0  0  0  0  0  0  0  0  0  0  0
    2.2249   -1.8085    0.4522 H   0  0  0  0  0  0  0  0  0  0  0  0
    0.5944   -2.7143   -1.9893 H   0  0  0  0  0  0  0  0  0  0  0  0
    0.4645   -3.5695   -0.4308 H   0  0  0  0  0  0  0  0  0  0  0  0
   -0.6354   -0.0475   -1.4348 N   0  0  0  0  0  0  0  0  0  0  0  0
   -1.7414    0.4952   -2.1906 C   0  0  2  0  0  0  0  0  0  0  0  0
   -1.5371    0.1262   -3.6540 C   0  0  0  0  0  0  0  0  0  0  0  0
   -0.4381   -0.1540   -4.1280 O   0  0  0  0  0  0  0  0  0  0  0  0
   -1.8418    2.0030   -2.0191 C   0  0  0  0  0  0  0  0  0  0  0  0
   -0.8376   -0.6965   -0.6803 H   0  0  0  0  0  0  0  0  0  0  0  0
   -2.6493    0.0110   -1.8145 H   0  0  0  0  0  0  0  0  0  0  0  0
   -0.9411    2.5054   -2.3904 H   0  0  0  0  0  0  0  0  0  0  0  0
   -2.6972    2.4088   -2.5693 H   0  0  0  0  0  0  0  0  0  0  0  0
   -1.9588    2.2681   -0.9628 H   0  0  0  0  0  0  0  0  0  0  0  0
   -2.7196    0.1885   -4.3779 N   0  0  0  0  0  0  0  0  0  0  0  0
   -2.7853   -0.1049   -5.7905 C   0  0  0  0  0  0  0  0  0  0  0  0
   -3.5874    0.4112   -3.8992 H   0  0  0  0  0  0  0  0  0  0  0  0
   -2.6628    0.8252   -6.3649 H   0  0  0  0  0  0  0  0  0  0  0  0
   -1.9825   -0.8083   -6.0565 H   0  0  0  0  0  0  0  0  0  0  0  0
   -3.7606   -0.5556   -6.0263 H   0  0  0  0  0  0  0  0  0  0  0  0
 18 19  1  0  0  0  0
 19 31  1  0  0  0  0
 19 20  2  0  0  0  0
  8  9  1  0  0  0  0
  9 17  1  0  0  0  0
  9 10  2  0  0  0  0
  1  3  1  0  0  0  0
  1  7  1  0  0  0  0
  1  2  2  0  0  0  0
 32 33  1  0  0  0  0
 33 41  1  0  0  0  0
 33 34  2  0  0  0  0
 21 22  1  0  0  0  0
 22 23  1  0  0  0  0
 18 21  1  0  0  0  0
 17 23  1  0  0  0  0
 17 18  1  0  0  0  0
  8 11  1  0  0  0  0
 32 35  1  0  0  0  0
 41 42  1  0  0  0  0
  7  8  1  0  0  0  0
 31 32  1  0  0  0  0
 22 27  1  0  0  0  0
 22 28  1  0  0  0  0
 21 25  1  0  0  0  0
 21 26  1  0  0  0  0
 23 29  1  0  0  0  0
 23 30  1  0  0  0  0
 18 24  1  0  0  0  0
  3  4  1  0  0  0  0
  3  5  1  0  0  0  0
  3  6  1  0  0  0  0
 11 14  1  0  0  0  0
 11 15  1  0  0  0  0
 11 16  1  0  0  0  0
 35 38  1  0  0  0  0
 35 39  1  0  0  0  0
 35 40  1  0  0  0  0
 42 44  1  0  0  0  0
 42 45  1  0  0  0  0
 42 46  1  0  0  0  0
  8 13  1  0  0  0  0
 32 37  1  0  0  0  0
 31 36  1  0  0  0  0
 41 43  1  0  0  0  0
  7 12  1  0  0  0  0
M  END
$$$$

  -OEChem-05262214473D

 46 46  0     1  0  0  0  0  0999 V2000
   -0.6012   -3.2995    3.8205 C   0  0  0  0  0  0  0  0  0  0  0  0
   -0.6574   -4.4683    3.4568 O   0  0  0  0  0  0  0  0  0  0  0  0
   -0.4935   -2.9859    5.2760 C   0  0  0  0  0  0  0  0  0  0  0  0
   -1.4789   -2.8689    5.7550 H   0  0  0  0  0  0  0  0  0  0  0  0
    0.0123   -3.7847    5.8419 H   0  0  0  0  0  0  0  0  0  0  0  0
    0.0585   -2.0642    5.5199 H   0  0  0  0  0  0  0  0  0  0  0  0
   -0.6261   -2.1849    2.9917 N   0  0  0  0  0  0  0  0  0  0  0  0
   -0.7237   -2.2601    1.5650 C   0  0  2  0  0  0  0  0  0  0  0  0
    0.1695   -1.1513    1.0687 C   0  0  0  0  0  0  0  0  0  0  0  0
    0.3193   -0.1267    1.7365 O   0  0  0  0  0  0  0  0  0  0  0  0
   -2.1397   -2.0663    1.0750 C   0  0  0  0  0  0  0  0  0  0  0  0
   -0.5717   -1.2606    3.4238 H   0  0  0  0  0  0  0  0  0  0  0  0
   -0.3076   -3.2111    1.2363 H   0  0  0  0  0  0  0  0  0  0  0  0
   -2.5584   -1.1089    1.4061 H   0  0  0  0  0  0  0  0  0  0  0  0
   -2.1682   -2.0790   -0.0197 H   0  0  0  0  0  0  0  0  0  0  0  0
   -2.7965   -2.8601    1.4459 H   0  0  0  0  0  0  0  0  0  0  0  0
    0.7724   -1.3745   -0.1593 N   0  0  0  0  0  0  0  0  0  0  0  0
    1.6644   -0.4046   -0.7812 C   0  0  2  0  0  0  0  0  0  0  0  0
    0.8166    0.4953   -1.6290 C   0  0  0  0  0  0  0  0  0  0  0  0
    1.3491    1.2160   -2.4649 O   0  0  0  0  0  0  0  0  0  0  0  0
    2.6195   -1.2417   -1.6241 C   0  0  0  0  0  0  0  0  0  0  0  0
    2.1758   -2.2356   -0.5535 C   0  0  0  0  0  0  0  0  0  0  0  0
    0.7499   -2.6270   -0.9105 C   0  0  0  0  0  0  0  0  0  0  0  0
    2.1745    0.2007   -0.0258 H   0  0  0  0  0  0  0  0  0  0  0  0
    3.6296   -0.8175   -1.5784 H   0  0  0  0  0  0  0  0  0  0  0  0
    2.3218   -1.3211   -2.6742 H   0  0  0  0  0  0  0  0  0  0  0  0
    2.8084   -3.1304   -0.5781 H   0  0  0  0  0  0  0  0  0  0  0  0
    2.2249   -1.8085    0.4522 H   0  0  0  0  0  0  0  0  0  0  0  0
    0.5944   -2.7143   -1.9893 H   0  0  0  0  0  0  0  0  0  0  0  0
    0.4645   -3.5695   -0.4308 H   0  0  0  0  0  0  0  0  0  0  0  0
   -0.6426    0.2198   -1.1438 N   0  0  0  0  0  0  0  0  0  0  0  0
   -1.7755    0.8235   -1.8080 C   0  0  2  0  0  0  0  0  0  0  0  0
   -1.8690    0.2330   -3.2087 C   0  0  0  0  0  0  0  0  0  0  0  0
   -0.9120   -0.2785   -3.7863 O   0  0  0  0  0  0  0  0  0  0  0  0
   -1.6418    2.3374   -1.8641 C   0  0  0  0  0  0  0  0  0  0  0  0
   -0.8022   -0.2814   -0.2751 H   0  0  0  0  0  0  0  0  0  0  0  0
   -2.6650    0.5440   -1.2330 H   0  0  0  0  0  0  0  0  0  0  0  0
   -0.7560    2.6366   -2.4362 H   0  0  0  0  0  0  0  0  0  0  0  0
   -2.5141    2.7953   -2.3420 H   0  0  0  0  0  0  0  0  0  0  0  0
   -1.5447    2.7576   -0.8573 H   0  0  0  0  0  0  0  0  0  0  0  0
   -3.1361    0.3831   -3.7548 N   0  0  0  0  0  0  0  0  0  0  0  0
   -3.4747   -0.0840   -5.0789 C   0  0  0  0  0  0  0  0  0  0  0  0
   -3.8741    0.8025   -3.1971 H   0  0  0  0  0  0  0  0  0  0  0  0
   -3.3252    0.7292   -5.8045 H   0  0  0  0  0  0  0  0  0  0  0  0
   -2.8295   -0.9347   -5.3436 H   0  0  0  0  0  0  0  0  0  0  0  0
   -4.5274   -0.4025   -5.0971 H   0  0  0  0  0  0  0  0  0  0  0  0
 18 19  1  0  0  0  0
 19 31  1  0  0  0  0
 19 20  2  0  0  0  0
  8  9  1  0  0  0  0
  9 17  1  0  0  0  0
  9 10  2  0  0  0  0
  1  3  1  0  0  0  0
  1  7  1  0  0  0  0
  1  2  2  0  0  0  0
 32 33  1  0  0  0  0
 33 41  1  0  0  0  0
 33 34  2  0  0  0  0
 21 22  1  0  0  0  0
 22 23  1  0  0  0  0
 18 21  1  0  0  0  0
 17 23  1  0  0  0  0
 17 18  1  0  0  0  0
  8 11  1  0  0  0  0
 32 35  1  0  0  0  0
 41 42  1  0  0  0  0
  7  8  1  0  0  0  0
 31 32  1  0  0  0  0
 22 27  1  0  0  0  0
 22 28  1  0  0  0  0
 21 25  1  0  0  0  0
 21 26  1  0  0  0  0
 23 29  1  0  0  0  0
 23 30  1  0  0  0  0
 18 24  1  0  0  0  0
  3  4  1  0  0  0  0
  3  5  1  0  0  0  0
  3  6  1  0  0  0  0
 11 14  1  0  0  0  0
 11 15  1  0  0  0  0
 11 16  1  0  0  0  0
 35 38  1  0  0  0  0
 35 39  1  0  0  0  0
 35 40  1  0  0  0  0
 42 44  1  0  0  0  0
 42 45  1  0  0  0  0
 42 46  1  0  0  0  0
  8 13  1  0  0  0  0
 32 37  1  0  0  0  0
 31 36  1  0  0  0  0
 41 43  1  0  0  0  0
  7 12  1  0  0  0  0
M  END
$$$$

  -OEChem-05262214473D

 46 46  0     1  0  0  0  0  0999 V2000
   -0.6012   -3.2995    3.8205 C   0  0  0  0  0  0  0  0  0  0  0  0
   -0.6574   -4.4683    3.4568 O   0  0  0  0  0  0  0  0  0  0  0  0
   -0.4935   -2.9859    5.2760 C   0  0  0  0  0  0  0  0  0  0  0  0
   -1.4789   -2.8689    5.7550 H   0  0  0  0  0  0  0  0  0  0  0  0
    0.0123   -3.7847    5.8419 H   0  0  0  0  0  0  0  0  0  0  0  0
    0.0585   -2.0642    5.5199 H   0  0  0  0  0  0  0  0  0  0  0  0
   -0.6261   -2.1849    2.9917 N   0  0  0  0  0  0  0  0  0  0  0  0
   -0.7237   -2.2601    1.5650 C   0  0  2  0  0  0  0  0  0  0  0  0
    0.1695   -1.1513    1.0687 C   0  0  0  0  0  0  0  0  0  0  0  0
    0.3193   -0.1267    1.7365 O   0  0  0  0  0  0  0  0  0  0  0  0
   -2.1397   -2.0663    1.0750 C   0  0  0  0  0  0  0  0  0  0  0  0
   -0.5717   -1.2606    3.4238 H   0  0  0  0  0  0  0  0  0  0  0  0
   -0.3076   -3.2111    1.2363 H   0  0  0  0  0  0  0  0  0  0  0  0
   -2.5584   -1.1089    1.4061 H   0  0  0  0  0  0  0  0  0  0  0  0
   -2.1682   -2.0790   -0.0197 H   0  0  0  0  0  0  0  0  0  0  0  0
   -2.7965   -2.8601    1.4459 H   0  0  0  0  0  0  0  0  0  0  0  0
    0.7724   -1.3745   -0.1593 N   0  0  0  0  0  0  0  0  0  0  0  0
    1.6644   -0.4046   -0.7812 C   0  0  2  0  0  0  0  0  0  0  0  0
    0.8166    0.4953   -1.6290 C   0  0  0  0  0  0  0  0  0  0  0  0
    1.2950    1.0035   -2.6363 O   0  0  0  0  0  0  0  0  0  0  0  0
    2.6195   -1.2417   -1.6241 C   0  0  0  0  0  0  0  0  0  0  0  0
    2.1758   -2.2356   -0.5535 C   0  0  0  0  0  0  0  0  0  0  0  0
    0.7499   -2.6270   -0.9105 C   0  0  0  0  0  0  0  0  0  0  0  0
    2.1745    0.2007   -0.0258 H   0  0  0  0  0  0  0  0  0  0  0  0
    3.6296   -0.8175   -1.5784 H   0  0  0  0  0  0  0  0  0  0  0  0
    2.3218   -1.3211   -2.6742 H   0  0  0  0  0  0  0  0  0  0  0  0
    2.8084   -3.1304   -0.5781 H   0  0  0  0  0  0  0  0  0  0  0  0
    2.2249   -1.8085    0.4522 H   0  0  0  0  0  0  0  0  0  0  0  0
    0.5944   -2.7143   -1.9893 H   0  0  0  0  0  0  0  0  0  0  0  0
    0.4645   -3.5695   -0.4308 H   0  0  0  0  0  0  0  0  0  0  0  0
   -0.5653    0.5217   -0.9007 N   0  0  0  0  0  0  0  0  0  0  0  0
   -1.7009    1.2016   -1.4812 C   0  0  2  0  0  0  0  0  0  0  0  0
   -2.1048    0.4499   -2.7427 C   0  0  0  0  0  0  0  0  0  0  0  0
   -1.3350   -0.2795   -3.3643 O   0  0  0  0  0  0  0  0  0  0  0  0
   -1.3756    2.6538   -1.7944 C   0  0  0  0  0  0  0  0  0  0  0  0
   -0.6443    0.1737    0.0501 H   0  0  0  0  0  0  0  0  0  0  0  0
   -2.5120    1.1462   -0.7469 H   0  0  0  0  0  0  0  0  0  0  0  0
   -0.5651    2.7295   -2.5285 H   0  0  0  0  0  0  0  0  0  0  0  0
   -2.2455    3.1751   -2.2076 H   0  0  0  0  0  0  0  0  0  0  0  0
   -1.0567    3.1853   -0.8913 H   0  0  0  0  0  0  0  0  0  0  0  0
   -3.4130    0.7233   -3.1168 N   0  0  0  0  0  0  0  0  0  0  0  0
   -4.0269    0.1414   -4.2875 C   0  0  0  0  0  0  0  0  0  0  0  0
   -3.9847    1.3253   -2.5316 H   0  0  0  0  0  0  0  0  0  0  0  0
   -3.8919    0.8153   -5.1463 H   0  0  0  0  0  0  0  0  0  0  0  0
   -3.5554   -0.8284   -4.5049 H   0  0  0  0  0  0  0  0  0  0  0  0
   -5.1012   -0.0065   -4.1029 H   0  0  0  0  0  0  0  0  0  0  0  0
 18 19  1  0  0  0  0
 19 31  1  0  0  0  0
 19 20  2  0  0  0  0
  8  9  1  0  0  0  0
  9 17  1  0  0  0  0
  9 10  2  0  0  0  0
  1  3  1  0  0  0  0
  1  7  1  0  0  0  0
  1  2  2  0  0  0  0
 32 33  1  0  0  0  0
 33 41  1  0  0  0  0
 33 34  2  0  0  0  0
 21 22  1  0  0  0  0
 22 23  1  0  0  0  0
 18 21  1  0  0  0  0
 17 23  1  0  0  0  0
 17 18  1  0  0  0  0
  8 11  1  0  0  0  0
 32 35  1  0  0  0  0
 41 42  1  0  0  0  0
  7  8  1  0  0  0  0
 31 32  1  0  0  0  0
 22 27  1  0  0  0  0
 22 28  1  0  0  0  0
 21 25  1  0  0  0  0
 21 26  1  0  0  0  0
 23 29  1  0  0  0  0
 23 30  1  0  0  0  0
 18 24  1  0  0  0  0
  3  4  1  0  0  0  0
  3  5  1  0  0  0  0
  3  6  1  0  0  0  0
 11 14  1  0  0  0  0
 11 15  1  0  0  0  0
 11 16  1  0  0  0  0
 35 38  1  0  0  0  0
 35 39  1  0  0  0  0
 35 40  1  0  0  0  0
 42 44  1  0  0  0  0
 42 45  1  0  0  0  0
 42 46  1  0  0  0  0
  8 13  1  0  0  0  0
 32 37  1  0  0  0  0
 31 36  1  0  0  0  0
 41 43  1  0  0  0  0
  7 12  1  0  0  0  0
M  END
$$$$

  -OEChem-05262214473D

 46 46  0     1  0  0  0  0  0999 V2000
   -0.6012   -3.2995    3.8205 C   0  0  0  0  0  0  0  0  0  0  0  0
   -0.6574   -4.4683    3.4568 O   0  0  0  0  0  0  0  0  0  0  0  0
   -0.4935   -2.9859    5.2760 C   0  0  0  0  0  0  0  0  0  0  0  0
   -1.4789   -2.8689    5.7550 H   0  0  0  0  0  0  0  0  0  0  0  0
    0.0123   -3.7847    5.8419 H   0  0  0  0  0  0  0  0  0  0  0  0
    0.0585   -2.0642    5.5199 H   0  0  0  0  0  0  0  0  0  0  0  0
   -0.6261   -2.1849    2.9917 N   0  0  0  0  0  0  0  0  0  0  0  0
   -0.7237   -2.2601    1.5650 C   0  0  2  0  0  0  0  0  0  0  0  0
    0.1695   -1.1513    1.0687 C   0  0  0  0  0  0  0  0  0  0  0  0
    0.3193   -0.1267    1.7365 O   0  0  0  0  0  0  0  0  0  0  0  0
   -2.1397   -2.0663    1.0750 C   0  0  0  0  0  0  0  0  0  0  0  0
   -0.5717   -1.2606    3.4238 H   0  0  0  0  0  0  0  0  0  0  0  0
   -0.3076   -3.2111    1.2363 H   0  0  0  0  0  0  0  0  0  0  0  0
   -2.5584   -1.1089    1.4061 H   0  0  0  0  0  0  0  0  0  0  0  0
   -2.1682   -2.0790   -0.0197 H   0  0  0  0  0  0  0  0  0  0  0  0
   -2.7965   -2.8601    1.4459 H   0  0  0  0  0  0  0  0  0  0  0  0
    0.7724   -1.3745   -0.1593 N   0  0  0  0  0  0  0  0  0  0  0  0
    1.6644   -0.4046   -0.7812 C   0  0  2  0  0  0  0  0  0  0  0  0
    0.8166    0.4953   -1.6290 C   0  0  0  0  0  0  0  0  0  0  0  0
    1.1849    0.7811   -2.7623 O   0  0  0  0  0  0  0  0  0  0  0  0
    2.6195   -1.2417   -1.6241 C   0  0  0  0  0  0  0  0  0  0  0  0
    2.1758   -2.2356   -0.5535 C   0  0  0  0  0  0  0  0  0  0  0  0
    0.7499   -2.6270   -0.9105 C   0  0  0  0  0  0  0  0  0  0  0  0
    2.1745    0.2007   -0.0258 H   0  0  0  0  0  0  0  0  0  0  0  0
    3.6296   -0.8175   -1.5784 H   0  0  0  0  0  0  0  0  0  0  0  0
    2.3218   -1.3211   -2.6742 H   0  0  0  0  0  0  0  0  0  0  0  0
    2.8084   -3.1304   -0.5781 H   0  0  0  0  0  0  0  0  0  0  0  0
    2.2249   -1.8085    0.4522 H   0  0  0  0  0  0  0  0  0  0  0  0
    0.5944   -2.7143   -1.9893 H   0  0  0  0  0  0  0  0  0  0  0  0
    0.4645   -3.5695   -0.4308 H   0  0  0  0  0  0  0  0  0  0  0  0
   -0.4086    0.8375   -0.7221 N   0  0  0  0  0  0  0  0  0  0  0  0
   -1.5228    1.6038   -1.2324 C   0  0  2  0  0  0  0  0  0  0  0  0
   -2.2284    0.7622   -2.2876 C   0  0  0  0  0  0  0  0  0  0  0  0
   -1.6781   -0.1567   -2.8909 O   0  0  0  0  0  0  0  0  0  0  0  0
   -1.0613    2.9307   -1.8148 C   0  0  0  0  0  0  0  0  0  0  0  0
   -0.3746    0.6378    0.2730 H   0  0  0  0  0  0  0  0  0  0  0  0
   -2.2004    1.7766   -0.3892 H   0  0  0  0  0  0  0  0  0  0  0  0
   -0.3815    2.7777   -2.6609 H   0  0  0  0  0  0  0  0  0  0  0  0
   -1.9095    3.5223   -2.1750 H   0  0  0  0  0  0  0  0  0  0  0  0
   -0.5280    3.5220   -1.0626 H   0  0  0  0  0  0  0  0  0  0  0  0
   -3.5316    1.1857   -2.5072 N   0  0  0  0  0  0  0  0  0  0  0  0
   -4.4044    0.5557   -3.4702 C   0  0  0  0  0  0  0  0  0  0  0  0
   -3.9116    1.9438   -1.9481 H   0  0  0  0  0  0  0  0  0  0  0  0
   -4.3245    1.0779   -4.4351 H   0  0  0  0  0  0  0  0  0  0  0  0
   -4.1107   -0.4967   -3.5976 H   0  0  0  0  0  0  0  0  0  0  0  0
   -5.4430    0.6056   -3.1113 H   0  0  0  0  0  0  0  0  0  0  0  0
 18 19  1  0  0  0  0
 19 31  1  0  0  0  0
 19 20  2  0  0  0  0
  8  9  1  0  0  0  0
  9 17  1  0  0  0  0
  9 10  2  0  0  0  0
  1  3  1  0  0  0  0
  1  7  1  0  0  0  0
  1  2  2  0  0  0  0
 32 33  1  0  0  0  0
 33 41  1  0  0  0  0
 33 34  2  0  0  0  0
 21 22  1  0  0  0  0
 22 23  1  0  0  0  0
 18 21  1  0  0  0  0
 17 23  1  0  0  0  0
 17 18  1  0  0  0  0
  8 11  1  0  0  0  0
 32 35  1  0  0  0  0
 41 42  1  0  0  0  0
  7  8  1  0  0  0  0
 31 32  1  0  0  0  0
 22 27  1  0  0  0  0
 22 28  1  0  0  0  0
 21 25  1  0  0  0  0
 21 26  1  0  0  0  0
 23 29  1  0  0  0  0
 23 30  1  0  0  0  0
 18 24  1  0  0  0  0
  3  4  1  0  0  0  0
  3  5  1  0  0  0  0
  3  6  1  0  0  0  0
 11 14  1  0  0  0  0
 11 15  1  0  0  0  0
 11 16  1  0  0  0  0
 35 38  1  0  0  0  0
 35 39  1  0  0  0  0
 35 40  1  0  0  0  0
 42 44  1  0  0  0  0
 42 45  1  0  0  0  0
 42 46  1  0  0  0  0
  8 13  1  0  0  0  0
 32 37  1  0  0  0  0
 31 36  1  0  0  0  0
 41 43  1  0  0  0  0
  7 12  1  0  0  0  0
M  END
$$$$

  -OEChem-05262214473D

 46 46  0     1  0  0  0  0  0999 V2000
   -0.6012   -3.2995    3.8205 C   0  0  0  0  0  0  0  0  0  0  0  0
   -0.6574   -4.4683    3.4568 O   0  0  0  0  0  0  0  0  0  0  0  0
   -0.4935   -2.9859    5.2760 C   0  0  0  0  0  0  0  0  0  0  0  0
   -1.4789   -2.8689    5.7550 H   0  0  0  0  0  0  0  0  0  0  0  0
    0.0123   -3.7847    5.8419 H   0  0  0  0  0  0  0  0  0  0  0  0
    0.0585   -2.0642    5.5199 H   0  0  0  0  0  0  0  0  0  0  0  0
   -0.6261   -2.1849    2.9917 N   0  0  0  0  0  0  0  0  0  0  0  0
   -0.7237   -2.2601    1.5650 C   0  0  2  0  0  0  0  0  0  0  0  0
    0.1695   -1.1513    1.0687 C   0  0  0  0  0  0  0  0  0  0  0  0
    0.3193   -0.1267    1.7365 O   0  0  0  0  0  0  0  0  0  0  0  0
   -2.1397   -2.0663    1.0750 C   0  0  0  0  0  0  0  0  0  0  0  0
   -0.5717   -1.2606    3.4238 H   0  0  0  0  0  0  0  0  0  0  0  0
   -0.3076   -3.2111    1.2363 H   0  0  0  0  0  0  0  0  0  0  0  0
   -2.5584   -1.1089    1.4061 H   0  0  0  0  0  0  0  0  0  0  0  0
   -2.1682   -2.0790   -0.0197 H   0  0  0  0  0  0  0  0  0  0  0  0
   -2.7965   -2.8601    1.4459 H   0  0  0  0  0  0  0  0  0  0  0  0
    0.7724   -1.3745   -0.1593 N   0  0  0  0  0  0  0  0  0  0  0  0
    1.6644   -0.4046   -0.7812 C   0  0  2  0  0  0  0  0  0  0  0  0
    0.8166    0.4953   -1.6290 C   0  0  0  0  0  0  0  0  0  0  0  0
    1.0265    0.5640   -2.8344 O   0  0  0  0  0  0  0  0  0  0  0  0
    2.6195   -1.2417   -1.6241 C   0  0  0  0  0  0  0  0  0  0  0  0
    2.1758   -2.2356   -0.5535 C   0  0  0  0  0  0  0  0  0  0  0  0
    0.7499   -2.6270   -0.9105 C   0  0  0  0  0  0  0  0  0  0  0  0
    2.1745    0.2007   -0.0258 H   0  0  0  0  0  0  0  0  0  0  0  0
    3.6296   -0.8175   -1.5784 H   0  0  0  0  0  0  0  0  0  0  0  0
    2.3218   -1.3211   -2.6742 H   0  0  0  0  0  0  0  0  0  0  0  0
    2.8084   -3.1304   -0.5781 H   0  0  0  0  0  0  0  0  0  0  0  0
    2.2249   -1.8085    0.4522 H   0  0  0  0  0  0  0  0  0  0  0  0
    0.5944   -2.7143   -1.9893 H   0  0  0  0  0  0  0  0  0  0  0  0
    0.4645   -3.5695   -0.4308 H   0  0  0  0  0  0  0  0  0  0  0  0
   -0.1833    1.1458   -0.6202 N   0  0  0  0  0  0  0  0  0  0  0  0
   -1.2532    2.0025   -1.0787 C   0  0  2  0  0  0  0  0  0  0  0  0
   -2.2313    1.1485   -1.8746 C   0  0  0  0  0  0  0  0  0  0  0  0
   -1.9180    0.0814   -2.3982 O   0  0  0  0  0  0  0  0  0  0  0  0
   -0.7204    3.1491   -1.9238 C   0  0  0  0  0  0  0  0  0  0  0  0
   -0.0116    1.0792    0.3785 H   0  0  0  0  0  0  0  0  0  0  0  0
   -1.7516    2.3923   -0.1844 H   0  0  0  0  0  0  0  0  0  0  0  0
   -0.2176    2.7781   -2.8244 H   0  0  0  0  0  0  0  0  0  0  0  0
   -1.5290    3.8132   -2.2466 H   0  0  0  0  0  0  0  0  0  0  0  0
    0.0053    3.7447   -1.3595 H   0  0  0  0  0  0  0  0  0  0  0  0
   -3.4838    1.7390   -1.9677 N   0  0  0  0  0  0  0  0  0  0  0  0
   -4.5814    1.1307   -2.6828 C   0  0  0  0  0  0  0  0  0  0  0  0
   -3.6598    2.6160   -1.4863 H   0  0  0  0  0  0  0  0  0  0  0  0
   -4.5933    1.4988   -3.7193 H   0  0  0  0  0  0  0  0  0  0  0  0
   -4.4575    0.0377   -2.6834 H   0  0  0  0  0  0  0  0  0  0  0  0
   -5.5295    1.3920   -2.1900 H   0  0  0  0  0  0  0  0  0  0  0  0
 18 19  1  0  0  0  0
 19 31  1  0  0  0  0
 19 20  2  0  0  0  0
  8  9  1  0  0  0  0
  9 17  1  0  0  0  0
  9 10  2  0  0  0  0
  1  3  1  0  0  0  0
  1  7  1  0  0  0  0
  1  2  2  0  0  0  0
 32 33  1  0  0  0  0
 33 41  1  0  0  0  0
 33 34  2  0  0  0  0
 21 22  1  0  0  0  0
 22 23  1  0  0  0  0
 18 21  1  0  0  0  0
 17 23  1  0  0  0  0
 17 18  1  0  0  0  0
  8 11  1  0  0  0  0
 32 35  1  0  0  0  0
 41 42  1  0  0  0  0
  7  8  1  0  0  0  0
 31 32  1  0  0  0  0
 22 27  1  0  0  0  0
 22 28  1  0  0  0  0
 21 25  1  0  0  0  0
 21 26  1  0  0  0  0
 23 29  1  0  0  0  0
 23 30  1  0  0  0  0
 18 24  1  0  0  0  0
  3  4  1  0  0  0  0
  3  5  1  0  0  0  0
  3  6  1  0  0  0  0
 11 14  1  0  0  0  0
 11 15  1  0  0  0  0
 11 16  1  0  0  0  0
 35 38  1  0  0  0  0
 35 39  1  0  0  0  0
 35 40  1  0  0  0  0
 42 44  1  0  0  0  0
 42 45  1  0  0  0  0
 42 46  1  0  0  0  0
  8 13  1  0  0  0  0
 32 37  1  0  0  0  0
 31 36  1  0  0  0  0
 41 43  1  0  0  0  0
  7 12  1  0  0  0  0
M  END
$$$$

  -OEChem-05262214473D

 46 46  0     1  0  0  0  0  0999 V2000
   -0.6012   -3.2995    3.8205 C   0  0  0  0  0  0  0  0  0  0  0  0
   -0.6574   -4.4683    3.4568 O   0  0  0  0  0  0  0  0  0  0  0  0
   -0.4935   -2.9859    5.2760 C   0  0  0  0  0  0  0  0  0  0  0  0
   -1.4789   -2.8689    5.7550 H   0  0  0  0  0  0  0  0  0  0  0  0
    0.0123   -3.7847    5.8419 H   0  0  0  0  0  0  0  0  0  0  0  0
    0.0585   -2.0642    5.5199 H   0  0  0  0  0  0  0  0  0  0  0  0
   -0.6261   -2.1849    2.9917 N   0  0  0  0  0  0  0  0  0  0  0  0
   -0.7237   -2.2601    1.5650 C   0  0  2  0  0  0  0  0  0  0  0  0
    0.1695   -1.1513    1.0687 C   0  0  0  0  0  0  0  0  0  0  0  0
    0.3193   -0.1267    1.7365 O   0  0  0  0  0  0  0  0  0  0  0  0
   -2.1397   -2.0663    1.0750 C   0  0  0  0  0  0  0  0  0  0  0  0
   -0.5717   -1.2606    3.4238 H   0  0  0  0  0  0  0  0  0  0  0  0
   -0.3076   -3.2111    1.2363 H   0  0  0  0  0  0  0  0  0  0  0  0
   -2.5584   -1.1089    1.4061 H   0  0  0  0  0  0  0  0  0  0  0  0
   -2.1682   -2.0790   -0.0197 H   0  0  0  0  0  0  0  0  0  0  0  0
   -2.7965   -2.8601    1.4459 H   0  0  0  0  0  0  0  0  0  0  0  0
    0.7724   -1.3745   -0.1593 N   0  0  0  0  0  0  0  0  0  0  0  0
    1.6644   -0.4046   -0.7812 C   0  0  2  0  0  0  0  0  0  0  0  0
    0.8166    0.4953   -1.6290 C   0  0  0  0  0  0  0  0  0  0  0  0
    0.8304    0.3668   -2.8476 O   0  0  0  0  0  0  0  0  0  0  0  0
    2.6195   -1.2417   -1.6241 C   0  0  0  0  0  0  0  0  0  0  0  0
    2.1758   -2.2356   -0.5535 C   0  0  0  0  0  0  0  0  0  0  0  0
    0.7499   -2.6270   -0.9105 C   0  0  0  0  0  0  0  0  0  0  0  0
    2.1745    0.2007   -0.0258 H   0  0  0  0  0  0  0  0  0  0  0  0
    3.6296   -0.8175   -1.5784 H   0  0  0  0  0  0  0  0  0  0  0  0
    2.3218   -1.3211   -2.6742 H   0  0  0  0  0  0  0  0  0  0  0  0
    2.8084   -3.1304   -0.5781 H   0  0  0  0  0  0  0  0  0  0  0  0
    2.2249   -1.8085    0.4522 H   0  0  0  0  0  0  0  0  0  0  0  0
    0.5944   -2.7143   -1.9893 H   0  0  0  0  0  0  0  0  0  0  0  0
    0.4645   -3.5695   -0.4308 H   0  0  0  0  0  0  0  0  0  0  0  0
    0.0953    1.4255   -0.6019 N   0  0  0  0  0  0  0  0  0  0  0  0
   -0.9106    2.3708   -1.0305 C   0  0  2  0  0  0  0  0  0  0  0  0
   -2.1135    1.5825   -1.5317 C   0  0  0  0  0  0  0  0  0  0  0  0
   -2.0383    0.4186   -1.9200 O   0  0  0  0  0  0  0  0  0  0  0  0
   -0.3761    3.2943   -2.1140 C   0  0  0  0  0  0  0  0  0  0  0  0
    0.4201    1.4679    0.3594 H   0  0  0  0  0  0  0  0  0  0  0  0
   -1.1962    2.9512   -0.1465 H   0  0  0  0  0  0  0  0  0  0  0  0
   -0.0847    2.7306   -3.0078 H   0  0  0  0  0  0  0  0  0  0  0  0
   -1.1301    4.0281   -2.4174 H   0  0  0  0  0  0  0  0  0  0  0  0
    0.5069    3.8384   -1.7617 H   0  0  0  0  0  0  0  0  0  0  0  0
   -3.2728    2.3455   -1.5350 N   0  0  0  0  0  0  0  0  0  0  0  0
   -4.5458    1.8273   -1.9788 C   0  0  0  0  0  0  0  0  0  0  0  0
   -3.2465    3.2960   -1.1778 H   0  0  0  0  0  0  0  0  0  0  0  0
   -4.6802    2.0496   -3.0477 H   0  0  0  0  0  0  0  0  0  0  0  0
   -4.5723    0.7385   -1.8247 H   0  0  0  0  0  0  0  0  0  0  0  0
   -5.3548    2.2991   -1.4018 H   0  0  0  0  0  0  0  0  0  0  0  0
 18 19  1  0  0  0  0
 19 31  1  0  0  0  0
 19 20  2  0  0  0  0
  8  9  1  0  0  0  0
  9 17  1  0  0  0  0
  9 10  2  0  0  0  0
  1  3  1  0  0  0  0
  1  7  1  0  0  0  0
  1  2  2  0  0  0  0
 32 33  1  0  0  0  0
 33 41  1  0  0  0  0
 33 34  2  0  0  0  0
 21 22  1  0  0  0  0
 22 23  1  0  0  0  0
 18 21  1  0  0  0  0
 17 23  1  0  0  0  0
 17 18  1  0  0  0  0
  8 11  1  0  0  0  0
 32 35  1  0  0  0  0
 41 42  1  0  0  0  0
  7  8  1  0  0  0  0
 31 32  1  0  0  0  0
 22 27  1  0  0  0  0
 22 28  1  0  0  0  0
 21 25  1  0  0  0  0
 21 26  1  0  0  0  0
 23 29  1  0  0  0  0
 23 30  1  0  0  0  0
 18 24  1  0  0  0  0
  3  4  1  0  0  0  0
  3  5  1  0  0  0  0
  3  6  1  0  0  0  0
 11 14  1  0  0  0  0
 11 15  1  0  0  0  0
 11 16  1  0  0  0  0
 35 38  1  0  0  0  0
 35 39  1  0  0  0  0
 35 40  1  0  0  0  0
 42 44  1  0  0  0  0
 42 45  1  0  0  0  0
 42 46  1  0  0  0  0
  8 13  1  0  0  0  0
 32 37  1  0  0  0  0
 31 36  1  0  0  0  0
 41 43  1  0  0  0  0
  7 12  1  0  0  0  0
M  END
$$$$

  -OEChem-05262214473D

 46 46  0     1  0  0  0  0  0999 V2000
   -0.6012   -3.2995    3.8205 C   0  0  0  0  0  0  0  0  0  0  0  0
   -0.6574   -4.4683    3.4568 O   0  0  0  0  0  0  0  0  0  0  0  0
   -0.4935   -2.9859    5.2760 C   0  0  0  0  0  0  0  0  0  0  0  0
   -1.4789   -2.8689    5.7550 H   0  0  0  0  0  0  0  0  0  0  0  0
    0.0123   -3.7847    5.8419 H   0  0  0  0  0  0  0  0  0  0  0  0
    0.0585   -2.0642    5.5199 H   0  0  0  0  0  0  0  0  0  0  0  0
   -0.6261   -2.1849    2.9917 N   0  0  0  0  0  0  0  0  0  0  0  0
   -0.7237   -2.2601    1.5650 C   0  0  2  0  0  0  0  0  0  0  0  0
    0.1695   -1.1513    1.0687 C   0  0  0  0  0  0  0  0  0  0  0  0
    0.3193   -0.1267    1.7365 O   0  0  0  0  0  0  0  0  0  0  0  0
   -2.1397   -2.0663    1.0750 C   0  0  0  0  0  0  0  0  0  0  0  0
   -0.5717   -1.2606    3.4238 H   0  0  0  0  0  0  0  0  0  0  0  0
   -0.3076   -3.2111    1.2363 H   0  0  0  0  0  0  0  0  0  0  0  0
   -2.5584   -1.1089    1.4061 H   0  0  0  0  0  0  0  0  0  0  0  0
   -2.1682   -2.0790   -0.0197 H   0  0  0  0  0  0  0  0  0  0  0  0
   -2.7965   -2.8601    1.4459 H   0  0  0  0  0  0  0  0  0  0  0  0
    0.7724   -1.3745   -0.1593 N   0  0  0  0  0  0  0  0  0  0  0  0
    1.6644   -0.4046   -0.7812 C   0  0  2  0  0  0  0  0  0  0  0  0
    0.8166    0.4953   -1.6290 C   0  0  0  0  0  0  0  0  0  0  0  0
    0.6102    0.2032   -2.8011 O   0  0  0  0  0  0  0  0  0  0  0  0
    2.6195   -1.2417   -1.6241 C   0  0  0  0  0  0  0  0  0  0  0  0
    2.1758   -2.2356   -0.5535 C   0  0  0  0  0  0  0  0  0  0  0  0
    0.7499   -2.6270   -0.9105 C   0  0  0  0  0  0  0  0  0  0  0  0
    2.1745    0.2007   -0.0258 H   0  0  0  0  0  0  0  0  0  0  0  0
    3.6296   -0.8175   -1.5784 H   0  0  0  0  0  0  0  0  0  0  0  0
    2.3218   -1.3211   -2.6742 H   0  0  0  0  0  0  0  0  0  0  0  0
    2.8084   -3.1304   -0.5781 H   0  0  0  0  0  0  0  0  0  0  0  0
    2.2249   -1.8085    0.4522 H   0  0  0  0  0  0  0  0  0  0  0  0
    0.5944   -2.7143   -1.9893 H   0  0  0  0  0  0  0  0  0  0  0  0
    0.4645   -3.5695   -0.4308 H   0  0  0  0  0  0  0  0  0  0  0  0
    0.4082    1.6576   -0.6684 N   0  0  0  0  0  0  0  0  0  0  0  0
   -0.5182    2.6833   -1.0910 C   0  0  2  0  0  0  0  0  0  0  0  0
   -1.8828    2.0347   -1.2823 C   0  0  0  0  0  0  0  0  0  0  0  0
   -2.0308    0.8319   -1.4887 O   0  0  0  0  0  0  0  0  0  0  0  0
   -0.0518    3.3563   -2.3725 C   0  0  0  0  0  0  0  0  0  0  0  0
    0.8910    1.7773    0.2170 H   0  0  0  0  0  0  0  0  0  0  0  0
   -0.5720    3.4155   -0.2779 H   0  0  0  0  0  0  0  0  0  0  0  0
    0.0082    2.6383   -3.1986 H   0  0  0  0  0  0  0  0  0  0  0  0
   -0.7398    4.1523   -2.6758 H   0  0  0  0  0  0  0  0  0  0  0  0
    0.9427    3.7965   -2.2419 H   0  0  0  0  0  0  0  0  0  0  0  0
   -2.9130    2.9637   -1.2386 N   0  0  0  0  0  0  0  0  0  0  0  0
   -4.3001    2.5981   -1.4064 C   0  0  0  0  0  0  0  0  0  0  0  0
   -2.6998    3.9375   -1.0436 H   0  0  0  0  0  0  0  0  0  0  0  0
   -4.5792    2.6926   -2.4662 H   0  0  0  0  0  0  0  0  0  0  0  0
   -4.4471    1.5579   -1.0800 H   0  0  0  0  0  0  0  0  0  0  0  0
   -4.9309    3.2651   -0.8003 H   0  0  0  0  0  0  0  0  0  0  0  0
 18 19  1  0  0  0  0
 19 31  1  0  0  0  0
 19 20  2  0  0  0  0
  8  9  1  0  0  0  0
  9 17  1  0  0  0  0
  9 10  2  0  0  0  0
  1  3  1  0  0  0  0
  1  7  1  0  0  0  0
  1  2  2  0  0  0  0
 32 33  1  0  0  0  0
 33 41  1  0  0  0  0
 33 34  2  0  0  0  0
 21 22  1  0  0  0  0
 22 23  1  0  0  0  0
 18 21  1  0  0  0  0
 17 23  1  0  0  0  0
 17 18  1  0  0  0  0
  8 11  1  0  0  0  0
 32 35  1  0  0  0  0
 41 42  1  0  0  0  0
  7  8  1  0  0  0  0
 31 32  1  0  0  0  0
 22 27  1  0  0  0  0
 22 28  1  0  0  0  0
 21 25  1  0  0  0  0
 21 26  1  0  0  0  0
 23 29  1  0  0  0  0
 23 30  1  0  0  0  0
 18 24  1  0  0  0  0
  3  4  1  0  0  0  0
  3  5  1  0  0  0  0
  3  6  1  0  0  0  0
 11 14  1  0  0  0  0
 11 15  1  0  0  0  0
 11 16  1  0  0  0  0
 35 38  1  0  0  0  0
 35 39  1  0  0  0  0
 35 40  1  0  0  0  0
 42 44  1  0  0  0  0
 42 45  1  0  0  0  0
 42 46  1  0  0  0  0
  8 13  1  0  0  0  0
 32 37  1  0  0  0  0
 31 36  1  0  0  0  0
 41 43  1  0  0  0  0
  7 12  1  0  0  0  0
M  END
$$$$

  -OEChem-05262214473D

 46 46  0     1  0  0  0  0  0999 V2000
   -0.6012   -3.2995    3.8205 C   0  0  0  0  0  0  0  0  0  0  0  0
   -0.6574   -4.4683    3.4568 O   0  0  0  0  0  0  0  0  0  0  0  0
   -0.4935   -2.9859    5.2760 C   0  0  0  0  0  0  0  0  0  0  0  0
   -1.4789   -2.8689    5.7550 H   0  0  0  0  0  0  0  0  0  0  0  0
    0.0123   -3.7847    5.8419 H   0  0  0  0  0  0  0  0  0  0  0  0
    0.0585   -2.0642    5.5199 H   0  0  0  0  0  0  0  0  0  0  0  0
   -0.6261   -2.1849    2.9917 N   0  0  0  0  0  0  0  0  0  0  0  0
   -0.7237   -2.2601    1.5650 C   0  0  2  0  0  0  0  0  0  0  0  0
    0.1695   -1.1513    1.0687 C   0  0  0  0  0  0  0  0  0  0  0  0
    0.3193   -0.1267    1.7365 O   0  0  0  0  0  0  0  0  0  0  0  0
   -2.1397   -2.0663    1.0750 C   0  0  0  0  0  0  0  0  0  0  0  0
   -0.5717   -1.2606    3.4238 H   0  0  0  0  0  0  0  0  0  0  0  0
   -0.3076   -3.2111    1.2363 H   0  0  0  0  0  0  0  0  0  0  0  0
   -2.5584   -1.1089    1.4061 H   0  0  0  0  0  0  0  0  0  0  0  0
   -2.1682   -2.0790   -0.0197 H   0  0  0  0  0  0  0  0  0  0  0  0
   -2.7965   -2.8601    1.4459 H   0  0  0  0  0  0  0  0  0  0  0  0
    0.7724   -1.3745   -0.1593 N   0  0  0  0  0  0  0  0  0  0  0  0
    1.6644   -0.4046   -0.7812 C   0  0  2  0  0  0  0  0  0  0  0  0
    0.8166    0.4953   -1.6290 C   0  0  0  0  0  0  0  0  0  0  0  0
    0.3807    0.0841   -2.6980 O   0  0  0  0  0  0  0  0  0  0  0  0
    2.6195   -1.2417   -1.6241 C   0  0  0  0  0  0  0  0  0  0  0  0
    2.1758   -2.2356   -0.5535 C   0  0  0  0  0  0  0  0  0  0  0  0
    0.7499   -2.6270   -0.9105 C   0  0  0  0  0  0  0  0  0  0  0  0
    2.1745    0.2007   -0.0258 H   0  0  0  0  0  0  0  0  0  0  0  0
    3.6296   -0.8175   -1.5784 H   0  0  0  0  0  0  0  0  0  0  0  0
    2.3218   -1.3211   -2.6742 H   0  0  0  0  0  0  0  0  0  0  0  0
    2.8084   -3.1304   -0.5781 H   0  0  0  0  0  0  0  0  0  0  0  0
    2.2249   -1.8085    0.4522 H   0  0  0  0  0  0  0  0  0  0  0  0
    0.5944   -2.7143   -1.9893 H   0  0  0  0  0  0  0  0  0  0  0  0
    0.4645   -3.5695   -0.4308 H   0  0  0  0  0  0  0  0  0  0  0  0
    0.7341    1.8263   -0.8152 N   0  0  0  0  0  0  0  0  0  0  0  0
   -0.1029    2.9190   -1.2562 C   0  0  2  0  0  0  0  0  0  0  0  0
   -1.5551    2.4742   -1.1435 C   0  0  0  0  0  0  0  0  0  0  0  0
   -1.8961    1.2932   -1.1337 O   0  0  0  0  0  0  0  0  0  0  0  0
    0.2304    3.3308   -2.6817 C   0  0  0  0  0  0  0  0  0  0  0  0
    1.3691    1.9865   -0.0390 H   0  0  0  0  0  0  0  0  0  0  0  0
    0.0785    3.7532   -0.5698 H   0  0  0  0  0  0  0  0  0  0  0  0
    0.0549    2.5077   -3.3839 H   0  0  0  0  0  0  0  0  0  0  0  0
   -0.3849    4.1773   -3.0043 H   0  0  0  0  0  0  0  0  0  0  0  0
    1.2828    3.6220   -2.7673 H   0  0  0  0  0  0  0  0  0  0  0  0
   -2.4289    3.5515   -1.0986 N   0  0  0  0  0  0  0  0  0  0  0  0
   -3.8611    3.3904   -1.0044 C   0  0  0  0  0  0  0  0  0  0  0  0
   -2.0569    4.4967   -1.0928 H   0  0  0  0  0  0  0  0  0  0  0  0
   -4.2971    3.3841   -2.0142 H   0  0  0  0  0  0  0  0  0  0  0  0
   -4.0906    2.4401   -0.5001 H   0  0  0  0  0  0  0  0  0  0  0  0
   -4.2865    4.2241   -0.4266 H   0  0  0  0  0  0  0  0  0  0  0  0
 18 19  1  0  0  0  0
 19 31  1  0  0  0  0
 19 20  2  0  0  0  0
  8  9  1  0  0  0  0
  9 17  1  0  0  0  0
  9 10  2  0  0  0  0
  1  3  1  0  0  0  0
  1  7  1  0  0  0  0
  1  2  2  0  0  0  0
 32 33  1  0  0  0  0
 33 41  1  0  0  0  0
 33 34  2  0  0  0  0
 21 22  1  0  0  0  0
 22 23  1  0  0  0  0
 18 21  1  0  0  0  0
 17 23  1  0  0  0  0
 17 18  1  0  0  0  0
  8 11  1  0  0  0  0
 32 35  1  0  0  0  0
 41 42  1  0  0  0  0
  7  8  1  0  0  0  0
 31 32  1  0  0  0  0
 22 27  1  0  0  0  0
 22 28  1  0  0  0  0
 21 25  1  0  0  0  0
 21 26  1  0  0  0  0
 23 29  1  0  0  0  0
 23 30  1  0  0  0  0
 18 24  1  0  0  0  0
  3  4  1  0  0  0  0
  3  5  1  0  0  0  0
  3  6  1  0  0  0  0
 11 14  1  0  0  0  0
 11 15  1  0  0  0  0
 11 16  1  0  0  0  0
 35 38  1  0  0  0  0
 35 39  1  0  0  0  0
 35 40  1  0  0  0  0
 42 44  1  0  0  0  0
 42 45  1  0  0  0  0
 42 46  1  0  0  0  0
  8 13  1  0  0  0  0
 32 37  1  0  0  0  0
 31 36  1  0  0  0  0
 41 43  1  0  0  0  0
  7 12  1  0  0  0  0
M  END
$$$$

  -OEChem-05262214473D

 46 46  0     1  0  0  0  0  0999 V2000
   -0.6012   -3.2995    3.8205 C   0  0  0  0  0  0  0  0  0  0  0  0
   -0.6574   -4.4683    3.4568 O   0  0  0  0  0  0  0  0  0  0  0  0
   -0.4935   -2.9859    5.2760 C   0  0  0  0  0  0  0  0  0  0  0  0
   -1.4789   -2.8689    5.7550 H   0  0  0  0  0  0  0  0  0  0  0  0
    0.0123   -3.7847    5.8419 H   0  0  0  0  0  0  0  0  0  0  0  0
    0.0585   -2.0642    5.5199 H   0  0  0  0  0  0  0  0  0  0  0  0
   -0.6261   -2.1849    2.9917 N   0  0  0  0  0  0  0  0  0  0  0  0
   -0.7237   -2.2601    1.5650 C   0  0  2  0  0  0  0  0  0  0  0  0
    0.1695   -1.1513    1.0687 C   0  0  0  0  0  0  0  0  0  0  0  0
    0.3193   -0.1267    1.7365 O   0  0  0  0  0  0  0  0  0  0  0  0
   -2.1397   -2.0663    1.0750 C   0  0  0  0  0  0  0  0  0  0  0  0
   -0.5717   -1.2606    3.4238 H   0  0  0  0  0  0  0  0  0  0  0  0
   -0.3076   -3.2111    1.2363 H   0  0  0  0  0  0  0  0  0  0  0  0
   -2.5584   -1.1089    1.4061 H   0  0  0  0  0  0  0  0  0  0  0  0
   -2.1682   -2.0790   -0.0197 H   0  0  0  0  0  0  0  0  0  0  0  0
   -2.7965   -2.8601    1.4459 H   0  0  0  0  0  0  0  0  0  0  0  0
    0.7724   -1.3745   -0.1593 N   0  0  0  0  0  0  0  0  0  0  0  0
    1.6644   -0.4046   -0.7812 C   0  0  2  0  0  0  0  0  0  0  0  0
    0.8166    0.4953   -1.6290 C   0  0  0  0  0  0  0  0  0  0  0  0
    0.1577    0.0178   -2.5453 O   0  0  0  0  0  0  0  0  0  0  0  0
    2.6195   -1.2417   -1.6241 C   0  0  0  0  0  0  0  0  0  0  0  0
    2.1758   -2.2356   -0.5535 C   0  0  0  0  0  0  0  0  0  0  0  0
    0.7499   -2.6270   -0.9105 C   0  0  0  0  0  0  0  0  0  0  0  0
    2.1745    0.2007   -0.0258 H   0  0  0  0  0  0  0  0  0  0  0  0
    3.6296   -0.8175   -1.5784 H   0  0  0  0  0  0  0  0  0  0  0  0
    2.3218   -1.3211   -2.6742 H   0  0  0  0  0  0  0  0  0  0  0  0
    2.8084   -3.1304   -0.5781 H   0  0  0  0  0  0  0  0  0  0  0  0
    2.2249   -1.8085    0.4522 H   0  0  0  0  0  0  0  0  0  0  0  0
    0.5944   -2.7143   -1.9893 H   0  0  0  0  0  0  0  0  0  0  0  0
    0.4645   -3.5695   -0.4308 H   0  0  0  0  0  0  0  0  0  0  0  0
    1.0507    1.9200   -1.0324 N   0  0  0  0  0  0  0  0  0  0  0  0
    0.3071    3.0616   -1.5148 C   0  0  2  0  0  0  0  0  0  0  0  0
   -1.1527    2.8711   -1.1246 C   0  0  0  0  0  0  0  0  0  0  0  0
   -1.6433    1.7710   -0.8793 O   0  0  0  0  0  0  0  0  0  0  0  0
    0.4512    3.2197   -3.0204 C   0  0  0  0  0  0  0  0  0  0  0  0
    1.8216    2.0810   -0.3912 H   0  0  0  0  0  0  0  0  0  0  0  0
    0.7109    3.9416   -1.0023 H   0  0  0  0  0  0  0  0  0  0  0  0
    0.0520    2.3476   -3.5510 H   0  0  0  0  0  0  0  0  0  0  0  0
   -0.0894    4.1014   -3.3803 H   0  0  0  0  0  0  0  0  0  0  0  0
    1.5042    3.3268   -3.3021 H   0  0  0  0  0  0  0  0  0  0  0  0
   -1.8535    4.0690   -1.1247 N   0  0  0  0  0  0  0  0  0  0  0  0
   -3.2586    4.1502   -0.8003 C   0  0  0  0  0  0  0  0  0  0  0  0
   -1.3618    4.9356   -1.3220 H   0  0  0  0  0  0  0  0  0  0  0  0
   -3.8533    4.0768   -1.7228 H   0  0  0  0  0  0  0  0  0  0  0  0
   -3.5270    3.3249   -0.1245 H   0  0  0  0  0  0  0  0  0  0  0  0
   -3.4657    5.1109   -0.3061 H   0  0  0  0  0  0  0  0  0  0  0  0
 18 19  1  0  0  0  0
 19 31  1  0  0  0  0
 19 20  2  0  0  0  0
  8  9  1  0  0  0  0
  9 17  1  0  0  0  0
  9 10  2  0  0  0  0
  1  3  1  0  0  0  0
  1  7  1  0  0  0  0
  1  2  2  0  0  0  0
 32 33  1  0  0  0  0
 33 41  1  0  0  0  0
 33 34  2  0  0  0  0
 21 22  1  0  0  0  0
 22 23  1  0  0  0  0
 18 21  1  0  0  0  0
 17 23  1  0  0  0  0
 17 18  1  0  0  0  0
  8 11  1  0  0  0  0
 32 35  1  0  0  0  0
 41 42  1  0  0  0  0
  7  8  1  0  0  0  0
 31 32  1  0  0  0  0
 22 27  1  0  0  0  0
 22 28  1  0  0  0  0
 21 25  1  0  0  0  0
 21 26  1  0  0  0  0
 23 29  1  0  0  0  0
 23 30  1  0  0  0  0
 18 24  1  0  0  0  0
  3  4  1  0  0  0  0
  3  5  1  0  0  0  0
  3  6  1  0  0  0  0
 11 14  1  0  0  0  0
 11 15  1  0  0  0  0
 11 16  1  0  0  0  0
 35 38  1  0  0  0  0
 35 39  1  0  0  0  0
 35 40  1  0  0  0  0
 42 44  1  0  0  0  0
 42 45  1  0  0  0  0
 42 46  1  0  0  0  0
  8 13  1  0  0  0  0
 32 37  1  0  0  0  0
 31 36  1  0  0  0  0
 41 43  1  0  0  0  0
  7 12  1  0  0  0  0
M  END
$$$$

  -OEChem-05262214473D

 46 46  0     1  0  0  0  0  0999 V2000
   -0.6012   -3.2995    3.8205 C   0  0  0  0  0  0  0  0  0  0  0  0
   -0.6574   -4.4683    3.4568 O   0  0  0  0  0  0  0  0  0  0  0  0
   -0.4935   -2.9859    5.2760 C   0  0  0  0  0  0  0  0  0  0  0  0
   -1.4789   -2.8689    5.7550 H   0  0  0  0  0  0  0  0  0  0  0  0
    0.0123   -3.7847    5.8419 H   0  0  0  0  0  0  0  0  0  0  0  0
    0.0585   -2.0642    5.5199 H   0  0  0  0  0  0  0  0  0  0  0  0
   -0.6261   -2.1849    2.9917 N   0  0  0  0  0  0  0  0  0  0  0  0
   -0.7237   -2.2601    1.5650 C   0  0  2  0  0  0  0  0  0  0  0  0
    0.1695   -1.1513    1.0687 C   0  0  0  0  0  0  0  0  0  0  0  0
    0.3193   -0.1267    1.7365 O   0  0  0  0  0  0  0  0  0  0  0  0
   -2.1397   -2.0663    1.0750 C   0  0  0  0  0  0  0  0  0  0  0  0
   -0.5717   -1.2606    3.4238 H   0  0  0  0  0  0  0  0  0  0  0  0
   -0.3076   -3.2111    1.2363 H   0  0  0  0  0  0  0  0  0  0  0  0
   -2.5584   -1.1089    1.4061 H   0  0  0  0  0  0  0  0  0  0  0  0
   -2.1682   -2.0790   -0.0197 H   0  0  0  0  0  0  0  0  0  0  0  0
   -2.7965   -2.8601    1.4459 H   0  0  0  0  0  0  0  0  0  0  0  0
    0.7724   -1.3745   -0.1593 N   0  0  0  0  0  0  0  0  0  0  0  0
    1.6644   -0.4046   -0.7812 C   0  0  2  0  0  0  0  0  0  0  0  0
    0.8166    0.4953   -1.6290 C   0  0  0  0  0  0  0  0  0  0  0  0
   -0.0438    0.0088   -2.3534 O   0  0  0  0  0  0  0  0  0  0  0  0
    2.6195   -1.2417   -1.6241 C   0  0  0  0  0  0  0  0  0  0  0  0
    2.1758   -2.2356   -0.5535 C   0  0  0  0  0  0  0  0  0  0  0  0
    0.7499   -2.6270   -0.9105 C   0  0  0  0  0  0  0  0  0  0  0  0
    2.1745    0.2007   -0.0258 H   0  0  0  0  0  0  0  0  0  0  0  0
    3.6296   -0.8175   -1.5784 H   0  0  0  0  0  0  0  0  0  0  0  0
    2.3218   -1.3211   -2.6742 H   0  0  0  0  0  0  0  0  0  0  0  0
    2.8084   -3.1304   -0.5781 H   0  0  0  0  0  0  0  0  0  0  0  0
    2.2249   -1.8085    0.4522 H   0  0  0  0  0  0  0  0  0  0  0  0
    0.5944   -2.7143   -1.9893 H   0  0  0  0  0  0  0  0  0  0  0  0
    0.4645   -3.5695   -0.4308 H   0  0  0  0  0  0  0  0  0  0  0  0
    1.3365    1.9324   -1.3050 N   0  0  0  0  0  0  0  0  0  0  0  0
    0.6838    3.1016   -1.8492 C   0  0  2  0  0  0  0  0  0  0  0  0
   -0.7029    3.1983   -1.2271 C   0  0  0  0  0  0  0  0  0  0  0  0
   -1.2897    2.2328   -0.7428 O   0  0  0  0  0  0  0  0  0  0  0  0
    0.5955    3.0305   -3.3657 C   0  0  0  0  0  0  0  0  0  0  0  0
    2.2179    2.0546   -0.8155 H   0  0  0  0  0  0  0  0  0  0  0  0
    1.2821    3.9677   -1.5458 H   0  0  0  0  0  0  0  0  0  0  0  0
   -0.0002    2.1689   -3.6886 H   0  0  0  0  0  0  0  0  0  0  0  0
    0.1266    3.9298   -3.7784 H   0  0  0  0  0  0  0  0  0  0  0  0
    1.5918    2.9310   -3.8099 H   0  0  0  0  0  0  0  0  0  0  0  0
   -1.2261    4.4808   -1.3150 N   0  0  0  0  0  0  0  0  0  0  0  0
   -2.5337    4.8259   -0.8080 C   0  0  0  0  0  0  0  0  0  0  0  0
   -0.6617    5.2242   -1.7157 H   0  0  0  0  0  0  0  0  0  0  0  0
   -3.2778    4.7236   -1.6116 H   0  0  0  0  0  0  0  0  0  0  0  0
   -2.7948    4.1520    0.0213 H   0  0  0  0  0  0  0  0  0  0  0  0
   -2.5243    5.8649   -0.4471 H   0  0  0  0  0  0  0  0  0  0  0  0
 18 19  1  0  0  0  0
 19 31  1  0  0  0  0
 19 20  2  0  0  0  0
  8  9  1  0  0  0  0
  9 17  1  0  0  0  0
  9 10  2  0  0  0  0
  1  3  1  0  0  0  0
  1  7  1  0  0  0  0
  1  2  2  0  0  0  0
 32 33  1  0  0  0  0
 33 41  1  0  0  0  0
 33 34  2  0  0  0  0
 21 22  1  0  0  0  0
 22 23  1  0  0  0  0
 18 21  1  0  0  0  0
 17 23  1  0  0  0  0
 17 18  1  0  0  0  0
  8 11  1  0  0  0  0
 32 35  1  0  0  0  0
 41 42  1  0  0  0  0
  7  8  1  0  0  0  0
 31 32  1  0  0  0  0
 22 27  1  0  0  0  0
 22 28  1  0  0  0  0
 21 25  1  0  0  0  0
 21 26  1  0  0  0  0
 23 29  1  0  0  0  0
 23 30  1  0  0  0  0
 18 24  1  0  0  0  0
  3  4  1  0  0  0  0
  3  5  1  0  0  0  0
  3  6  1  0  0  0  0
 11 14  1  0  0  0  0
 11 15  1  0  0  0  0
 11 16  1  0  0  0  0
 35 38  1  0  0  0  0
 35 39  1  0  0  0  0
 35 40  1  0  0  0  0
 42 44  1  0  0  0  0
 42 45  1  0  0  0  0
 42 46  1  0  0  0  0
  8 13  1  0  0  0  0
 32 37  1  0  0  0  0
 31 36  1  0  0  0  0
 41 43  1  0  0  0  0
  7 12  1  0  0  0  0
M  END
$$$$

  -OEChem-05262214473D

 46 46  0     1  0  0  0  0  0999 V2000
   -0.6012   -3.2995    3.8205 C   0  0  0  0  0  0  0  0  0  0  0  0
   -0.6574   -4.4683    3.4568 O   0  0  0  0  0  0  0  0  0  0  0  0
   -0.4935   -2.9859    5.2760 C   0  0  0  0  0  0  0  0  0  0  0  0
   -1.4789   -2.8689    5.7550 H   0  0  0  0  0  0  0  0  0  0  0  0
    0.0123   -3.7847    5.8419 H   0  0  0  0  0  0  0  0  0  0  0  0
    0.0585   -2.0642    5.5199 H   0  0  0  0  0  0  0  0  0  0  0  0
   -0.6261   -2.1849    2.9917 N   0  0  0  0  0  0  0  0  0  0  0  0
   -0.7237   -2.2601    1.5650 C   0  0  2  0  0  0  0  0  0  0  0  0
    0.1695   -1.1513    1.0687 C   0  0  0  0  0  0  0  0  0  0  0  0
    0.3193   -0.1267    1.7365 O   0  0  0  0  0  0  0  0  0  0  0  0
   -2.1397   -2.0663    1.0750 C   0  0  0  0  0  0  0  0  0  0  0  0
   -0.5717   -1.2606    3.4238 H   0  0  0  0  0  0  0  0  0  0  0  0
   -0.3076   -3.2111    1.2363 H   0  0  0  0  0  0  0  0  0  0  0  0
   -2.5584   -1.1089    1.4061 H   0  0  0  0  0  0  0  0  0  0  0  0
   -2.1682   -2.0790   -0.0197 H   0  0  0  0  0  0  0  0  0  0  0  0
   -2.7965   -2.8601    1.4459 H   0  0  0  0  0  0  0  0  0  0  0  0
    0.7724   -1.3745   -0.1593 N   0  0  0  0  0  0  0  0  0  0  0  0
    1.6644   -0.4046   -0.7812 C   0  0  2  0  0  0  0  0  0  0  0  0
    0.8166    0.4953   -1.6290 C   0  0  0  0  0  0  0  0  0  0  0  0
   -0.2099    0.0576   -2.1355 O   0  0  0  0  0  0  0  0  0  0  0  0
    2.6195   -1.2417   -1.6241 C   0  0  0  0  0  0  0  0  0  0  0  0
    2.1758   -2.2356   -0.5535 C   0  0  0  0  0  0  0  0  0  0  0  0
    0.7499   -2.6270   -0.9105 C   0  0  0  0  0  0  0  0  0  0  0  0
    2.1745    0.2007   -0.0258 H   0  0  0  0  0  0  0  0  0  0  0  0
    3.6296   -0.8175   -1.5784 H   0  0  0  0  0  0  0  0  0  0  0  0
    2.3218   -1.3211   -2.6742 H   0  0  0  0  0  0  0  0  0  0  0  0
    2.8084   -3.1304   -0.5781 H   0  0  0  0  0  0  0  0  0  0  0  0
    2.2249   -1.8085    0.4522 H   0  0  0  0  0  0  0  0  0  0  0  0
    0.5944   -2.7143   -1.9893 H   0  0  0  0  0  0  0  0  0  0  0  0
    0.4645   -3.5695   -0.4308 H   0  0  0  0  0  0  0  0  0  0  0  0
    1.5721    1.8626   -1.6146 N   0  0  0  0  0  0  0  0  0  0  0  0
    1.0016    3.0360   -2.2365 C   0  0  2  0  0  0  0  0  0  0  0  0
   -0.2365    3.4336   -1.4437 C   0  0  0  0  0  0  0  0  0  0  0  0
   -0.8593    2.6470   -0.7334 O   0  0  0  0  0  0  0  0  0  0  0  0
    0.6536    2.7761   -3.6939 C   0  0  0  0  0  0  0  0  0  0  0  0
    2.5309    1.9090   -1.2831 H   0  0  0  0  0  0  0  0  0  0  0  0
    1.7532    3.8297   -2.1634 H   0  0  0  0  0  0  0  0  0  0  0  0
   -0.0981    1.9838   -3.7872 H   0  0  0  0  0  0  0  0  0  0  0  0
    0.2481    3.6742   -4.1713 H   0  0  0  0  0  0  0  0  0  0  0  0
    1.5396    2.4615   -4.2560 H   0  0  0  0  0  0  0  0  0  0  0  0
   -0.5893    4.7588   -1.6567 N   0  0  0  0  0  0  0  0  0  0  0  0
   -1.7357    5.3713   -1.0269 C   0  0  0  0  0  0  0  0  0  0  0  0
   -0.0044    5.3430   -2.2470 H   0  0  0  0  0  0  0  0  0  0  0  0
   -2.6101    5.2805   -1.6882 H   0  0  0  0  0  0  0  0  0  0  0  0
   -1.9437    4.8651   -0.0727 H   0  0  0  0  0  0  0  0  0  0  0  0
   -1.5266    6.4349   -0.8398 H   0  0  0  0  0  0  0  0  0  0  0  0
 18 19  1  0  0  0  0
 19 31  1  0  0  0  0
 19 20  2  0  0  0  0
  8  9  1  0  0  0  0
  9 17  1  0  0  0  0
  9 10  2  0  0  0  0
  1  3  1  0  0  0  0
  1  7  1  0  0  0  0
  1  2  2  0  0  0  0
 32 33  1  0  0  0  0
 33 41  1  0  0  0  0
 33 34  2  0  0  0  0
 21 22  1  0  0  0  0
 22 23  1  0  0  0  0
 18 21  1  0  0  0  0
 17 23  1  0  0  0  0
 17 18  1  0  0  0  0
  8 11  1  0  0  0  0
 32 35  1  0  0  0  0
 41 42  1  0  0  0  0
  7  8  1  0  0  0  0
 31 32  1  0  0  0  0
 22 27  1  0  0  0  0
 22 28  1  0  0  0  0
 21 25  1  0  0  0  0
 21 26  1  0  0  0  0
 23 29  1  0  0  0  0
 23 30  1  0  0  0  0
 18 24  1  0  0  0  0
  3  4  1  0  0  0  0
  3  5  1  0  0  0  0
  3  6  1  0  0  0  0
 11 14  1  0  0  0  0
 11 15  1  0  0  0  0
 11 16  1  0  0  0  0
 35 38  1  0  0  0  0
 35 39  1  0  0  0  0
 35 40  1  0  0  0  0
 42 44  1  0  0  0  0
 42 45  1  0  0  0  0
 42 46  1  0  0  0  0
  8 13  1  0  0  0  0
 32 37  1  0  0  0  0
 31 36  1  0  0  0  0
 41 43  1  0  0  0  0
  7 12  1  0  0  0  0
M  END
$$$$

  -OEChem-05262214473D

 46 46  0     1  0  0  0  0  0999 V2000
   -0.6012   -3.2995    3.8205 C   0  0  0  0  0  0  0  0  0  0  0  0
   -0.6574   -4.4683    3.4568 O   0  0  0  0  0  0  0  0  0  0  0  0
   -0.4935   -2.9859    5.2760 C   0  0  0  0  0  0  0  0  0  0  0  0
   -1.4789   -2.8689    5.7550 H   0  0  0  0  0  0  0  0  0  0  0  0
    0.0123   -3.7847    5.8419 H   0  0  0  0  0  0  0  0  0  0  0  0
    0.0585   -2.0642    5.5199 H   0  0  0  0  0  0  0  0  0  0  0  0
   -0.6261   -2.1849    2.9917 N   0  0  0  0  0  0  0  0  0  0  0  0
   -0.7237   -2.2601    1.5650 C   0  0  2  0  0  0  0  0  0  0  0  0
    0.1695   -1.1513    1.0687 C   0  0  0  0  0  0  0  0  0  0  0  0
    0.3193   -0.1267    1.7365 O   0  0  0  0  0  0  0  0  0  0  0  0
   -2.1397   -2.0663    1.0750 C   0  0  0  0  0  0  0  0  0  0  0  0
   -0.5717   -1.2606    3.4238 H   0  0  0  0  0  0  0  0  0  0  0  0
   -0.3076   -3.2111    1.2363 H   0  0  0  0  0  0  0  0  0  0  0  0
   -2.5584   -1.1089    1.4061 H   0  0  0  0  0  0  0  0  0  0  0  0
   -2.1682   -2.0790   -0.0197 H   0  0  0  0  0  0  0  0  0  0  0  0
   -2.7965   -2.8601    1.4459 H   0  0  0  0  0  0  0  0  0  0  0  0
    0.7724   -1.3745   -0.1593 N   0  0  0  0  0  0  0  0  0  0  0  0
    1.6644   -0.4046   -0.7812 C   0  0  2  0  0  0  0  0  0  0  0  0
    0.8166    0.4953   -1.6290 C   0  0  0  0  0  0  0  0  0  0  0  0
   -0.3293    0.1610   -1.9064 O   0  0  0  0  0  0  0  0  0  0  0  0
    2.6195   -1.2417   -1.6241 C   0  0  0  0  0  0  0  0  0  0  0  0
    2.1758   -2.2356   -0.5535 C   0  0  0  0  0  0  0  0  0  0  0  0
    0.7499   -2.6270   -0.9105 C   0  0  0  0  0  0  0  0  0  0  0  0
    2.1745    0.2007   -0.0258 H   0  0  0  0  0  0  0  0  0  0  0  0
    3.6296   -0.8175   -1.5784 H   0  0  0  0  0  0  0  0  0  0  0  0
    2.3218   -1.3211   -2.6742 H   0  0  0  0  0  0  0  0  0  0  0  0
    2.8084   -3.1304   -0.5781 H   0  0  0  0  0  0  0  0  0  0  0  0
    2.2249   -1.8085    0.4522 H   0  0  0  0  0  0  0  0  0  0  0  0
    0.5944   -2.7143   -1.9893 H   0  0  0  0  0  0  0  0  0  0  0  0
    0.4645   -3.5695   -0.4308 H   0  0  0  0  0  0  0  0  0  0  0  0
    1.7413    1.7155   -1.9401 N   0  0  0  0  0  0  0  0  0  0  0  0
    1.2388    2.8696   -2.6504 C   0  0  2  0  0  0  0  0  0  0  0  0
    0.2148    3.5608   -1.7599 C   0  0  0  0  0  0  0  0  0  0  0  0
   -0.3815    2.9856   -0.8519 O   0  0  0  0  0  0  0  0  0  0  0  0
    0.6215    2.4737   -3.9827 C   0  0  0  0  0  0  0  0  0  0  0  0
    2.7392    1.6540   -1.7621 H   0  0  0  0  0  0  0  0  0  0  0  0
    2.0921    3.5371   -2.8129 H   0  0  0  0  0  0  0  0  0  0  0  0
   -0.2351    1.8049   -3.8401 H   0  0  0  0  0  0  0  0  0  0  0  0
    0.2671    3.3520   -4.5323 H   0  0  0  0  0  0  0  0  0  0  0  0
    1.3510    1.9503   -4.6101 H   0  0  0  0  0  0  0  0  0  0  0  0
    0.0134    4.8842   -2.1263 N   0  0  0  0  0  0  0  0  0  0  0  0
   -0.9192    5.7493   -1.4422 C   0  0  0  0  0  0  0  0  0  0  0  0
    0.5653    5.2837   -2.8797 H   0  0  0  0  0  0  0  0  0  0  0  0
   -1.8955    5.7094   -1.9475 H   0  0  0  0  0  0  0  0  0  0  0  0
   -1.0320    5.4156   -0.4001 H   0  0  0  0  0  0  0  0  0  0  0  0
   -0.5404    6.7819   -1.4577 H   0  0  0  0  0  0  0  0  0  0  0  0
 18 19  1  0  0  0  0
 19 31  1  0  0  0  0
 19 20  2  0  0  0  0
  8  9  1  0  0  0  0
  9 17  1  0  0  0  0
  9 10  2  0  0  0  0
  1  3  1  0  0  0  0
  1  7  1  0  0  0  0
  1  2  2  0  0  0  0
 32 33  1  0  0  0  0
 33 41  1  0  0  0  0
 33 34  2  0  0  0  0
 21 22  1  0  0  0  0
 22 23  1  0  0  0  0
 18 21  1  0  0  0  0
 17 23  1  0  0  0  0
 17 18  1  0  0  0  0
  8 11  1  0  0  0  0
 32 35  1  0  0  0  0
 41 42  1  0  0  0  0
  7  8  1  0  0  0  0
 31 32  1  0  0  0  0
 22 27  1  0  0  0  0
 22 28  1  0  0  0  0
 21 25  1  0  0  0  0
 21 26  1  0  0  0  0
 23 29  1  0  0  0  0
 23 30  1  0  0  0  0
 18 24  1  0  0  0  0
  3  4  1  0  0  0  0
  3  5  1  0  0  0  0
  3  6  1  0  0  0  0
 11 14  1  0  0  0  0
 11 15  1  0  0  0  0
 11 16  1  0  0  0  0
 35 38  1  0  0  0  0
 35 39  1  0  0  0  0
 35 40  1  0  0  0  0
 42 44  1  0  0  0  0
 42 45  1  0  0  0  0
 42 46  1  0  0  0  0
  8 13  1  0  0  0  0
 32 37  1  0  0  0  0
 31 36  1  0  0  0  0
 41 43  1  0  0  0  0
  7 12  1  0  0  0  0
M  END
$$$$

  -OEChem-05262214473D

 46 46  0     1  0  0  0  0  0999 V2000
   -0.6012   -3.2995    3.8205 C   0  0  0  0  0  0  0  0  0  0  0  0
   -0.6574   -4.4683    3.4568 O   0  0  0  0  0  0  0  0  0  0  0  0
   -0.4935   -2.9859    5.2760 C   0  0  0  0  0  0  0  0  0  0  0  0
   -1.4789   -2.8689    5.7550 H   0  0  0  0  0  0  0  0  0  0  0  0
    0.0123   -3.7847    5.8419 H   0  0  0  0  0  0  0  0  0  0  0  0
    0.0585   -2.0642    5.5199 H   0  0  0  0  0  0  0  0  0  0  0  0
   -0.6261   -2.1849    2.9917 N   0  0  0  0  0  0  0  0  0  0  0  0
   -0.7237   -2.2601    1.5650 C   0  0  2  0  0  0  0  0  0  0  0  0
    0.1695   -1.1513    1.0687 C   0  0  0  0  0  0  0  0  0  0  0  0
    0.3193   -0.1267    1.7365 O   0  0  0  0  0  0  0  0  0  0  0  0
   -2.1397   -2.0663    1.0750 C   0  0  0  0  0  0  0  0  0  0  0  0
   -0.5717   -1.2606    3.4238 H   0  0  0  0  0  0  0  0  0  0  0  0
   -0.3076   -3.2111    1.2363 H   0  0  0  0  0  0  0  0  0  0  0  0
   -2.5584   -1.1089    1.4061 H   0  0  0  0  0  0  0  0  0  0  0  0
   -2.1682   -2.0790   -0.0197 H   0  0  0  0  0  0  0  0  0  0  0  0
   -2.7965   -2.8601    1.4459 H   0  0  0  0  0  0  0  0  0  0  0  0
    0.7724   -1.3745   -0.1593 N   0  0  0  0  0  0  0  0  0  0  0  0
    1.6644   -0.4046   -0.7812 C   0  0  2  0  0  0  0  0  0  0  0  0
    0.8166    0.4953   -1.6290 C   0  0  0  0  0  0  0  0  0  0  0  0
   -0.3939    0.3119   -1.6816 O   0  0  0  0  0  0  0  0  0  0  0  0
    2.6195   -1.2417   -1.6241 C   0  0  0  0  0  0  0  0  0  0  0  0
    2.1758   -2.2356   -0.5535 C   0  0  0  0  0  0  0  0  0  0  0  0
    0.7499   -2.6270   -0.9105 C   0  0  0  0  0  0  0  0  0  0  0  0
    2.1745    0.2007   -0.0258 H   0  0  0  0  0  0  0  0  0  0  0  0
    3.6296   -0.8175   -1.5784 H   0  0  0  0  0  0  0  0  0  0  0  0
    2.3218   -1.3211   -2.6742 H   0  0  0  0  0  0  0  0  0  0  0  0
    2.8084   -3.1304   -0.5781 H   0  0  0  0  0  0  0  0  0  0  0  0
    2.2249   -1.8085    0.4522 H   0  0  0  0  0  0  0  0  0  0  0  0
    0.5944   -2.7143   -1.9893 H   0  0  0  0  0  0  0  0  0  0  0  0
    0.4645   -3.5695   -0.4308 H   0  0  0  0  0  0  0  0  0  0  0  0
    1.8326    1.5009   -2.2592 N   0  0  0  0  0  0  0  0  0  0  0  0
    1.3793    2.6134   -3.0627 C   0  0  2  0  0  0  0  0  0  0  0  0
    0.6202    3.5714   -2.1541 C   0  0  0  0  0  0  0  0  0  0  0  0
    0.1112    3.2253   -1.0901 O   0  0  0  0  0  0  0  0  0  0  0  0
    0.5014    2.1441   -4.2124 C   0  0  0  0  0  0  0  0  0  0  0  0
    2.8287    1.3072   -2.2198 H   0  0  0  0  0  0  0  0  0  0  0  0
    2.2757    3.1097   -3.4502 H   0  0  0  0  0  0  0  0  0  0  0  0
   -0.4018    1.6444   -3.8437 H   0  0  0  0  0  0  0  0  0  0  0  0
    0.1822    2.9852   -4.8368 H   0  0  0  0  0  0  0  0  0  0  0  0
    1.0391    1.4323   -4.8480 H   0  0  0  0  0  0  0  0  0  0  0  0
    0.5410    4.8484   -2.6919 N   0  0  0  0  0  0  0  0  0  0  0  0
   -0.1397    5.9341   -2.0256 C   0  0  0  0  0  0  0  0  0  0  0  0
    1.0087    5.0504   -3.5706 H   0  0  0  0  0  0  0  0  0  0  0  0
   -1.1827    5.9812   -2.3718 H   0  0  0  0  0  0  0  0  0  0  0  0
   -0.1215    5.7660   -0.9386 H   0  0  0  0  0  0  0  0  0  0  0  0
    0.3670    6.8823   -2.2585 H   0  0  0  0  0  0  0  0  0  0  0  0
 18 19  1  0  0  0  0
 19 31  1  0  0  0  0
 19 20  2  0  0  0  0
  8  9  1  0  0  0  0
  9 17  1  0  0  0  0
  9 10  2  0  0  0  0
  1  3  1  0  0  0  0
  1  7  1  0  0  0  0
  1  2  2  0  0  0  0
 32 33  1  0  0  0  0
 33 41  1  0  0  0  0
 33 34  2  0  0  0  0
 21 22  1  0  0  0  0
 22 23  1  0  0  0  0
 18 21  1  0  0  0  0
 17 23  1  0  0  0  0
 17 18  1  0  0  0  0
  8 11  1  0  0  0  0
 32 35  1  0  0  0  0
 41 42  1  0  0  0  0
  7  8  1  0  0  0  0
 31 32  1  0  0  0  0
 22 27  1  0  0  0  0
 22 28  1  0  0  0  0
 21 25  1  0  0  0  0
 21 26  1  0  0  0  0
 23 29  1  0  0  0  0
 23 30  1  0  0  0  0
 18 24  1  0  0  0  0
  3  4  1  0  0  0  0
  3  5  1  0  0  0  0
  3  6  1  0  0  0  0
 11 14  1  0  0  0  0
 11 15  1  0  0  0  0
 11 16  1  0  0  0  0
 35 38  1  0  0  0  0
 35 39  1  0  0  0  0
 35 40  1  0  0  0  0
 42 44  1  0  0  0  0
 42 45  1  0  0  0  0
 42 46  1  0  0  0  0
  8 13  1  0  0  0  0
 32 37  1  0  0  0  0
 31 36  1  0  0  0  0
 41 43  1  0  0  0  0
  7 12  1  0  0  0  0
M  END
$$$$

  -OEChem-05262214473D

 46 46  0     1  0  0  0  0  0999 V2000
   -0.6012   -3.2995    3.8205 C   0  0  0  0  0  0  0  0  0  0  0  0
   -0.6574   -4.4683    3.4568 O   0  0  0  0  0  0  0  0  0  0  0  0
   -0.4935   -2.9859    5.2760 C   0  0  0  0  0  0  0  0  0  0  0  0
   -1.4789   -2.8689    5.7550 H   0  0  0  0  0  0  0  0  0  0  0  0
    0.0123   -3.7847    5.8419 H   0  0  0  0  0  0  0  0  0  0  0  0
    0.0585   -2.0642    5.5199 H   0  0  0  0  0  0  0  0  0  0  0  0
   -0.6261   -2.1849    2.9917 N   0  0  0  0  0  0  0  0  0  0  0  0
   -0.7237   -2.2601    1.5650 C   0  0  2  0  0  0  0  0  0  0  0  0
    0.1695   -1.1513    1.0687 C   0  0  0  0  0  0  0  0  0  0  0  0
    0.3193   -0.1267    1.7365 O   0  0  0  0  0  0  0  0  0  0  0  0
   -2.1397   -2.0663    1.0750 C   0  0  0  0  0  0  0  0  0  0  0  0
   -0.5717   -1.2606    3.4238 H   0  0  0  0  0  0  0  0  0  0  0  0
   -0.3076   -3.2111    1.2363 H   0  0  0  0  0  0  0  0  0  0  0  0
   -2.5584   -1.1089    1.4061 H   0  0  0  0  0  0  0  0  0  0  0  0
   -2.1682   -2.0790   -0.0197 H   0  0  0  0  0  0  0  0  0  0  0  0
   -2.7965   -2.8601    1.4459 H   0  0  0  0  0  0  0  0  0  0  0  0
    0.7724   -1.3745   -0.1593 N   0  0  0  0  0  0  0  0  0  0  0  0
    1.6644   -0.4046   -0.7812 C   0  0  2  0  0  0  0  0  0  0  0  0
    0.8166    0.4953   -1.6290 C   0  0  0  0  0  0  0  0  0  0  0  0
   -0.3993    0.5000   -1.4765 O   0  0  0  0  0  0  0  0  0  0  0  0
    2.6195   -1.2417   -1.6241 C   0  0  0  0  0  0  0  0  0  0  0  0
    2.1758   -2.2356   -0.5535 C   0  0  0  0  0  0  0  0  0  0  0  0
    0.7499   -2.6270   -0.9105 C   0  0  0  0  0  0  0  0  0  0  0  0
    2.1745    0.2007   -0.0258 H   0  0  0  0  0  0  0  0  0  0  0  0
    3.6296   -0.8175   -1.5784 H   0  0  0  0  0  0  0  0  0  0  0  0
    2.3218   -1.3211   -2.6742 H   0  0  0  0  0  0  0  0  0  0  0  0
    2.8084   -3.1304   -0.5781 H   0  0  0  0  0  0  0  0  0  0  0  0
    2.2249   -1.8085    0.4522 H   0  0  0  0  0  0  0  0  0  0  0  0
    0.5944   -2.7143   -1.9893 H   0  0  0  0  0  0  0  0  0  0  0  0
    0.4645   -3.5695   -0.4308 H   0  0  0  0  0  0  0  0  0  0  0  0
    1.8398    1.2336   -2.5502 N   0  0  0  0  0  0  0  0  0  0  0  0
    1.4134    2.2851   -3.4453 C   0  0  2  0  0  0  0  0  0  0  0  0
    0.9521    3.4646   -2.5994 C   0  0  0  0  0  0  0  0  0  0  0  0
    0.5851    3.3498   -1.4318 O   0  0  0  0  0  0  0  0  0  0  0  0
    0.3014    1.8097   -4.3674 C   0  0  0  0  0  0  0  0  0  0  0  0
    2.7933    0.8921   -2.6250 H   0  0  0  0  0  0  0  0  0  0  0  0
    2.2915    2.5768   -4.0317 H   0  0  0  0  0  0  0  0  0  0  0  0
   -0.5869    1.5132   -3.7978 H   0  0  0  0  0  0  0  0  0  0  0  0
   -0.0008    2.5987   -5.0641 H   0  0  0  0  0  0  0  0  0  0  0  0
    0.6251    0.9429   -4.9536 H   0  0  0  0  0  0  0  0  0  0  0  0
    0.9574    4.6538   -3.3149 N   0  0  0  0  0  0  0  0  0  0  0  0
    0.5497    5.9131   -2.7372 C   0  0  0  0  0  0  0  0  0  0  0  0
    1.2954    4.6591   -4.2728 H   0  0  0  0  0  0  0  0  0  0  0  0
   -0.5204    6.0772   -2.9322 H   0  0  0  0  0  0  0  0  0  0  0  0
    0.7255    5.8924   -1.6515 H   0  0  0  0  0  0  0  0  0  0  0  0
    1.1337    6.7292   -3.1877 H   0  0  0  0  0  0  0  0  0  0  0  0
 18 19  1  0  0  0  0
 19 31  1  0  0  0  0
 19 20  2  0  0  0  0
  8  9  1  0  0  0  0
  9 17  1  0  0  0  0
  9 10  2  0  0  0  0
  1  3  1  0  0  0  0
  1  7  1  0  0  0  0
  1  2  2  0  0  0  0
 32 33  1  0  0  0  0
 33 41  1  0  0  0  0
 33 34  2  0  0  0  0
 21 22  1  0  0  0  0
 22 23  1  0  0  0  0
 18 21  1  0  0  0  0
 17 23  1  0  0  0  0
 17 18  1  0  0  0  0
  8 11  1  0  0  0  0
 32 35  1  0  0  0  0
 41 42  1  0  0  0  0
  7  8  1  0  0  0  0
 31 32  1  0  0  0  0
 22 27  1  0  0  0  0
 22 28  1  0  0  0  0
 21 25  1  0  0  0  0
 21 26  1  0  0  0  0
 23 29  1  0  0  0  0
 23 30  1  0  0  0  0
 18 24  1  0  0  0  0
  3  4  1  0  0  0  0
  3  5  1  0  0  0  0
  3  6  1  0  0  0  0
 11 14  1  0  0  0  0
 11 15  1  0  0  0  0
 11 16  1  0  0  0  0
 35 38  1  0  0  0  0
 35 39  1  0  0  0  0
 35 40  1  0  0  0  0
 42 44  1  0  0  0  0
 42 45  1  0  0  0  0
 42 46  1  0  0  0  0
  8 13  1  0  0  0  0
 32 37  1  0  0  0  0
 31 36  1  0  0  0  0
 41 43  1  0  0  0  0
  7 12  1  0  0  0  0
M  END
$$$$

  -OEChem-05262214473D

 46 46  0     1  0  0  0  0  0999 V2000
   -0.6012   -3.2995    3.8205 C   0  0  0  0  0  0  0  0  0  0  0  0
   -0.6574   -4.4683    3.4568 O   0  0  0  0  0  0  0  0  0  0  0  0
   -0.4935   -2.9859    5.2760 C   0  0  0  0  0  0  0  0  0  0  0  0
   -1.4789   -2.8689    5.7550 H   0  0  0  0  0  0  0  0  0  0  0  0
    0.0123   -3.7847    5.8419 H   0  0  0  0  0  0  0  0  0  0  0  0
    0.0585   -2.0642    5.5199 H   0  0  0  0  0  0  0  0  0  0  0  0
   -0.6261   -2.1849    2.9917 N   0  0  0  0  0  0  0  0  0  0  0  0
   -0.7237   -2.2601    1.5650 C   0  0  2  0  0  0  0  0  0  0  0  0
    0.1695   -1.1513    1.0687 C   0  0  0  0  0  0  0  0  0  0  0  0
    0.3193   -0.1267    1.7365 O   0  0  0  0  0  0  0  0  0  0  0  0
   -2.1397   -2.0663    1.0750 C   0  0  0  0  0  0  0  0  0  0  0  0
   -0.5717   -1.2606    3.4238 H   0  0  0  0  0  0  0  0  0  0  0  0
   -0.3076   -3.2111    1.2363 H   0  0  0  0  0  0  0  0  0  0  0  0
   -2.5584   -1.1089    1.4061 H   0  0  0  0  0  0  0  0  0  0  0  0
   -2.1682   -2.0790   -0.0197 H   0  0  0  0  0  0  0  0  0  0  0  0
   -2.7965   -2.8601    1.4459 H   0  0  0  0  0  0  0  0  0  0  0  0
    0.7724   -1.3745   -0.1593 N   0  0  0  0  0  0  0  0  0  0  0  0
    1.6644   -0.4046   -0.7812 C   0  0  2  0  0  0  0  0  0  0  0  0
    0.8166    0.4953   -1.6290 C   0  0  0  0  0  0  0  0  0  0  0  0
   -0.3451    0.7125   -1.3051 O   0  0  0  0  0  0  0  0  0  0  0  0
    2.6195   -1.2417   -1.6241 C   0  0  0  0  0  0  0  0  0  0  0  0
    2.1758   -2.2356   -0.5535 C   0  0  0  0  0  0  0  0  0  0  0  0
    0.7499   -2.6270   -0.9105 C   0  0  0  0  0  0  0  0  0  0  0  0
    2.1745    0.2007   -0.0258 H   0  0  0  0  0  0  0  0  0  0  0  0
    3.6296   -0.8175   -1.5784 H   0  0  0  0  0  0  0  0  0  0  0  0
    2.3218   -1.3211   -2.6742 H   0  0  0  0  0  0  0  0  0  0  0  0
    2.8084   -3.1304   -0.5781 H   0  0  0  0  0  0  0  0  0  0  0  0
    2.2249   -1.8085    0.4522 H   0  0  0  0  0  0  0  0  0  0  0  0
    0.5944   -2.7143   -1.9893 H   0  0  0  0  0  0  0  0  0  0  0  0
    0.4645   -3.5695   -0.4308 H   0  0  0  0  0  0  0  0  0  0  0  0
    1.7625    0.9317   -2.7932 N   0  0  0  0  0  0  0  0  0  0  0  0
    1.3388    1.9070   -3.7721 C   0  0  2  0  0  0  0  0  0  0  0  0
    1.1878    3.2477   -3.0654 C   0  0  0  0  0  0  0  0  0  0  0  0
    1.0081    3.3507   -1.8538 O   0  0  0  0  0  0  0  0  0  0  0  0
    0.0352    1.4933   -4.4371 C   0  0  0  0  0  0  0  0  0  0  0  0
    2.6354    0.4370   -2.9502 H   0  0  0  0  0  0  0  0  0  0  0  0
    2.1384    1.9746   -4.5178 H   0  0  0  0  0  0  0  0  0  0  0  0
   -0.7778    1.4203   -3.7056 H   0  0  0  0  0  0  0  0  0  0  0  0
   -0.2695    2.2189   -5.1985 H   0  0  0  0  0  0  0  0  0  0  0  0
    0.1371    0.5152   -4.9195 H   0  0  0  0  0  0  0  0  0  0  0  0
    1.2344    4.3136   -3.9530 N   0  0  0  0  0  0  0  0  0  0  0  0
    1.1019    5.6878   -3.5286 C   0  0  0  0  0  0  0  0  0  0  0  0
    1.4060    4.1363   -4.9383 H   0  0  0  0  0  0  0  0  0  0  0  0
    0.0463    5.9910   -3.5904 H   0  0  0  0  0  0  0  0  0  0  0  0
    1.4514    5.7861   -2.4902 H   0  0  0  0  0  0  0  0  0  0  0  0
    1.7075    6.3332   -4.1819 H   0  0  0  0  0  0  0  0  0  0  0  0
 18 19  1  0  0  0  0
 19 31  1  0  0  0  0
 19 20  2  0  0  0  0
  8  9  1  0  0  0  0
  9 17  1  0  0  0  0
  9 10  2  0  0  0  0
  1  3  1  0  0  0  0
  1  7  1  0  0  0  0
  1  2  2  0  0  0  0
 32 33  1  0  0  0  0
 33 41  1  0  0  0  0
 33 34  2  0  0  0  0
 21 22  1  0  0  0  0
 22 23  1  0  0  0  0
 18 21  1  0  0  0  0
 17 23  1  0  0  0  0
 17 18  1  0  0  0  0
  8 11  1  0  0  0  0
 32 35  1  0  0  0  0
 41 42  1  0  0  0  0
  7  8  1  0  0  0  0
 31 32  1  0  0  0  0
 22 27  1  0  0  0  0
 22 28  1  0  0  0  0
 21 25  1  0  0  0  0
 21 26  1  0  0  0  0
 23 29  1  0  0  0  0
 23 30  1  0  0  0  0
 18 24  1  0  0  0  0
  3  4  1  0  0  0  0
  3  5  1  0  0  0  0
  3  6  1  0  0  0  0
 11 14  1  0  0  0  0
 11 15  1  0  0  0  0
 11 16  1  0  0  0  0
 35 38  1  0  0  0  0
 35 39  1  0  0  0  0
 35 40  1  0  0  0  0
 42 44  1  0  0  0  0
 42 45  1  0  0  0  0
 42 46  1  0  0  0  0
  8 13  1  0  0  0  0
 32 37  1  0  0  0  0
 31 36  1  0  0  0  0
 41 43  1  0  0  0  0
  7 12  1  0  0  0  0
M  END
$$$$

  -OEChem-05262214473D

 46 46  0     1  0  0  0  0  0999 V2000
   -0.6012   -3.2995    3.8205 C   0  0  0  0  0  0  0  0  0  0  0  0
   -0.6574   -4.4683    3.4568 O   0  0  0  0  0  0  0  0  0  0  0  0
   -0.4935   -2.9859    5.2760 C   0  0  0  0  0  0  0  0  0  0  0  0
   -1.4789   -2.8689    5.7550 H   0  0  0  0  0  0  0  0  0  0  0  0
    0.0123   -3.7847    5.8419 H   0  0  0  0  0  0  0  0  0  0  0  0
    0.0585   -2.0642    5.5199 H   0  0  0  0  0  0  0  0  0  0  0  0
   -0.6261   -2.1849    2.9917 N   0  0  0  0  0  0  0  0  0  0  0  0
   -0.7237   -2.2601    1.5650 C   0  0  2  0  0  0  0  0  0  0  0  0
    0.1695   -1.1513    1.0687 C   0  0  0  0  0  0  0  0  0  0  0  0
    0.3193   -0.1267    1.7365 O   0  0  0  0  0  0  0  0  0  0  0  0
   -2.1397   -2.0663    1.0750 C   0  0  0  0  0  0  0  0  0  0  0  0
   -0.5717   -1.2606    3.4238 H   0  0  0  0  0  0  0  0  0  0  0  0
   -0.3076   -3.2111    1.2363 H   0  0  0  0  0  0  0  0  0  0  0  0
   -2.5584   -1.1089    1.4061 H   0  0  0  0  0  0  0  0  0  0  0  0
   -2.1682   -2.0790   -0.0197 H   0  0  0  0  0  0  0  0  0  0  0  0
   -2.7965   -2.8601    1.4459 H   0  0  0  0  0  0  0  0  0  0  0  0
    0.7724   -1.3745   -0.1593 N   0  0  0  0  0  0  0  0  0  0  0  0
    1.6644   -0.4046   -0.7812 C   0  0  2  0  0  0  0  0  0  0  0  0
    0.8166    0.4953   -1.6290 C   0  0  0  0  0  0  0  0  0  0  0  0
   -0.2351    0.9349   -1.1791 O   0  0  0  0  0  0  0  0  0  0  0  0
    2.6195   -1.2417   -1.6241 C   0  0  0  0  0  0  0  0  0  0  0  0
    2.1758   -2.2356   -0.5535 C   0  0  0  0  0  0  0  0  0  0  0  0
    0.7499   -2.6270   -0.9105 C   0  0  0  0  0  0  0  0  0  0  0  0
    2.1745    0.2007   -0.0258 H   0  0  0  0  0  0  0  0  0  0  0  0
    3.6296   -0.8175   -1.5784 H   0  0  0  0  0  0  0  0  0  0  0  0
    2.3218   -1.3211   -2.6742 H   0  0  0  0  0  0  0  0  0  0  0  0
    2.8084   -3.1304   -0.5781 H   0  0  0  0  0  0  0  0  0  0  0  0
    2.2249   -1.8085    0.4522 H   0  0  0  0  0  0  0  0  0  0  0  0
    0.5944   -2.7143   -1.9893 H   0  0  0  0  0  0  0  0  0  0  0  0
    0.4645   -3.5695   -0.4308 H   0  0  0  0  0  0  0  0  0  0  0  0
    1.6058    0.6159   -2.9718 N   0  0  0  0  0  0  0  0  0  0  0  0
    1.1607    1.5049   -4.0209 C   0  0  2  0  0  0  0  0  0  0  0  0
    1.3114    2.9354   -3.5205 C   0  0  0  0  0  0  0  0  0  0  0  0
    1.3511    3.2280   -2.3272 O   0  0  0  0  0  0  0  0  0  0  0  0
   -0.2791    1.2164   -4.4168 C   0  0  0  0  0  0  0  0  0  0  0  0
    2.3657   -0.0271   -3.1731 H   0  0  0  0  0  0  0  0  0  0  0  0
    1.8269    1.3442   -4.8755 H   0  0  0  0  0  0  0  0  0  0  0  0
   -0.9614    1.3720   -3.5732 H   0  0  0  0  0  0  0  0  0  0  0  0
   -0.6055    1.8717   -5.2311 H   0  0  0  0  0  0  0  0  0  0  0  0
   -0.3916    0.1785   -4.7482 H   0  0  0  0  0  0  0  0  0  0  0  0
    1.3530    3.8512   -4.5625 N   0  0  0  0  0  0  0  0  0  0  0  0
    1.4794    5.2735   -4.3459 C   0  0  0  0  0  0  0  0  0  0  0  0
    1.3329    3.5178   -5.5218 H   0  0  0  0  0  0  0  0  0  0  0  0
    0.4789    5.7285   -4.3016 H   0  0  0  0  0  0  0  0  0  0  0  0
    2.0066    5.4544   -3.3976 H   0  0  0  0  0  0  0  0  0  0  0  0
    2.0493    5.7211   -5.1735 H   0  0  0  0  0  0  0  0  0  0  0  0
 18 19  1  0  0  0  0
 19 31  1  0  0  0  0
 19 20  2  0  0  0  0
  8  9  1  0  0  0  0
  9 17  1  0  0  0  0
  9 10  2  0  0  0  0
  1  3  1  0  0  0  0
  1  7  1  0  0  0  0
  1  2  2  0  0  0  0
 32 33  1  0  0  0  0
 33 41  1  0  0  0  0
 33 34  2  0  0  0  0
 21 22  1  0  0  0  0
 22 23  1  0  0  0  0
 18 21  1  0  0  0  0
 17 23  1  0  0  0  0
 17 18  1  0  0  0  0
  8 11  1  0  0  0  0
 32 35  1  0  0  0  0
 41 42  1  0  0  0  0
  7  8  1  0  0  0  0
 31 32  1  0  0  0  0
 22 27  1  0  0  0  0
 22 28  1  0  0  0  0
 21 25  1  0  0  0  0
 21 26  1  0  0  0  0
 23 29  1  0  0  0  0
 23 30  1  0  0  0  0
 18 24  1  0  0  0  0
  3  4  1  0  0  0  0
  3  5  1  0  0  0  0
  3  6  1  0  0  0  0
 11 14  1  0  0  0  0
 11 15  1  0  0  0  0
 11 16  1  0  0  0  0
 35 38  1  0  0  0  0
 35 39  1  0  0  0  0
 35 40  1  0  0  0  0
 42 44  1  0  0  0  0
 42 45  1  0  0  0  0
 42 46  1  0  0  0  0
  8 13  1  0  0  0  0
 32 37  1  0  0  0  0
 31 36  1  0  0  0  0
 41 43  1  0  0  0  0
  7 12  1  0  0  0  0
M  END
$$$$

  -OEChem-05262214473D

 46 46  0     1  0  0  0  0  0999 V2000
   -0.6012   -3.2995    3.8205 C   0  0  0  0  0  0  0  0  0  0  0  0
   -0.6574   -4.4683    3.4568 O   0  0  0  0  0  0  0  0  0  0  0  0
   -0.4935   -2.9859    5.2760 C   0  0  0  0  0  0  0  0  0  0  0  0
   -1.4789   -2.8689    5.7550 H   0  0  0  0  0  0  0  0  0  0  0  0
    0.0123   -3.7847    5.8419 H   0  0  0  0  0  0  0  0  0  0  0  0
    0.0585   -2.0642    5.5199 H   0  0  0  0  0  0  0  0  0  0  0  0
   -0.6261   -2.1849    2.9917 N   0  0  0  0  0  0  0  0  0  0  0  0
   -0.7237   -2.2601    1.5650 C   0  0  2  0  0  0  0  0  0  0  0  0
    0.1695   -1.1513    1.0687 C   0  0  0  0  0  0  0  0  0  0  0  0
    0.3193   -0.1267    1.7365 O   0  0  0  0  0  0  0  0  0  0  0  0
   -2.1397   -2.0663    1.0750 C   0  0  0  0  0  0  0  0  0  0  0  0
   -0.5717   -1.2606    3.4238 H   0  0  0  0  0  0  0  0  0  0  0  0
   -0.3076   -3.2111    1.2363 H   0  0  0  0  0  0  0  0  0  0  0  0
   -2.5584   -1.1089    1.4061 H   0  0  0  0  0  0  0  0  0  0  0  0
   -2.1682   -2.0790   -0.0197 H   0  0  0  0  0  0  0  0  0  0  0  0
   -2.7965   -2.8601    1.4459 H   0  0  0  0  0  0  0  0  0  0  0  0
    0.7724   -1.3745   -0.1593 N   0  0  0  0  0  0  0  0  0  0  0  0
    1.6644   -0.4046   -0.7812 C   0  0  2  0  0  0  0  0  0  0  0  0
    0.8166    0.4953   -1.6290 C   0  0  0  0  0  0  0  0  0  0  0  0
   -0.0767    1.1520   -1.1070 O   0  0  0  0  0  0  0  0  0  0  0  0
    2.6195   -1.2417   -1.6241 C   0  0  0  0  0  0  0  0  0  0  0  0
    2.1758   -2.2356   -0.5535 C   0  0  0  0  0  0  0  0  0  0  0  0
    0.7499   -2.6270   -0.9105 C   0  0  0  0  0  0  0  0  0  0  0  0
    2.1745    0.2007   -0.0258 H   0  0  0  0  0  0  0  0  0  0  0  0
    3.6296   -0.8175   -1.5784 H   0  0  0  0  0  0  0  0  0  0  0  0
    2.3218   -1.3211   -2.6742 H   0  0  0  0  0  0  0  0  0  0  0  0
    2.8084   -3.1304   -0.5781 H   0  0  0  0  0  0  0  0  0  0  0  0
    2.2249   -1.8085    0.4522 H   0  0  0  0  0  0  0  0  0  0  0  0
    0.5944   -2.7143   -1.9893 H   0  0  0  0  0  0  0  0  0  0  0  0
    0.4645   -3.5695   -0.4308 H   0  0  0  0  0  0  0  0  0  0  0  0
    1.3805    0.3076   -3.0738 N   0  0  0  0  0  0  0  0  0  0  0  0
    0.8911    1.1061   -4.1746 C   0  0  2  0  0  0  0  0  0  0  0  0
    1.3144    2.5491   -3.9335 C   0  0  0  0  0  0  0  0  0  0  0  0
    1.5910    2.9899   -2.8198 O   0  0  0  0  0  0  0  0  0  0  0  0
   -0.6200    0.9980   -4.3078 C   0  0  0  0  0  0  0  0  0  0  0  0
    2.0026   -0.4685   -3.2786 H   0  0  0  0  0  0  0  0  0  0  0  0
    1.3781    0.7285   -5.0803 H   0  0  0  0  0  0  0  0  0  0  0  0
   -1.1253    1.3717   -3.4097 H   0  0  0  0  0  0  0  0  0  0  0  0
   -0.9859    1.5807   -5.1595 H   0  0  0  0  0  0  0  0  0  0  0  0
   -0.9250   -0.0442   -4.4513 H   0  0  0  0  0  0  0  0  0  0  0  0
    1.3052    3.2979   -5.1021 N   0  0  0  0  0  0  0  0  0  0  0  0
    1.6564    4.6985   -5.1333 C   0  0  0  0  0  0  0  0  0  0  0  0
    1.0811    2.8456   -5.9835 H   0  0  0  0  0  0  0  0  0  0  0  0
    0.7478    5.3075   -5.0174 H   0  0  0  0  0  0  0  0  0  0  0  0
    2.3535    4.9200   -4.3118 H   0  0  0  0  0  0  0  0  0  0  0  0
    2.1358    4.9347   -6.0948 H   0  0  0  0  0  0  0  0  0  0  0  0
 18 19  1  0  0  0  0
 19 31  1  0  0  0  0
 19 20  2  0  0  0  0
  8  9  1  0  0  0  0
  9 17  1  0  0  0  0
  9 10  2  0  0  0  0
  1  3  1  0  0  0  0
  1  7  1  0  0  0  0
  1  2  2  0  0  0  0
 32 33  1  0  0  0  0
 33 41  1  0  0  0  0
 33 34  2  0  0  0  0
 21 22  1  0  0  0  0
 22 23  1  0  0  0  0
 18 21  1  0  0  0  0
 17 23  1  0  0  0  0
 17 18  1  0  0  0  0
  8 11  1  0  0  0  0
 32 35  1  0  0  0  0
 41 42  1  0  0  0  0
  7  8  1  0  0  0  0
 31 32  1  0  0  0  0
 22 27  1  0  0  0  0
 22 28  1  0  0  0  0
 21 25  1  0  0  0  0
 21 26  1  0  0  0  0
 23 29  1  0  0  0  0
 23 30  1  0  0  0  0
 18 24  1  0  0  0  0
  3  4  1  0  0  0  0
  3  5  1  0  0  0  0
  3  6  1  0  0  0  0
 11 14  1  0  0  0  0
 11 15  1  0  0  0  0
 11 16  1  0  0  0  0
 35 38  1  0  0  0  0
 35 39  1  0  0  0  0
 35 40  1  0  0  0  0
 42 44  1  0  0  0  0
 42 45  1  0  0  0  0
 42 46  1  0  0  0  0
  8 13  1  0  0  0  0
 32 37  1  0  0  0  0
 31 36  1  0  0  0  0
 41 43  1  0  0  0  0
  7 12  1  0  0  0  0
M  END
$$$$

  -OEChem-05262214473D

 46 46  0     1  0  0  0  0  0999 V2000
   -0.6012   -3.2995    3.8205 C   0  0  0  0  0  0  0  0  0  0  0  0
   -0.6574   -4.4683    3.4568 O   0  0  0  0  0  0  0  0  0  0  0  0
   -0.4935   -2.9859    5.2760 C   0  0  0  0  0  0  0  0  0  0  0  0
   -1.4789   -2.8689    5.7550 H   0  0  0  0  0  0  0  0  0  0  0  0
    0.0123   -3.7847    5.8419 H   0  0  0  0  0  0  0  0  0  0  0  0
    0.0585   -2.0642    5.5199 H   0  0  0  0  0  0  0  0  0  0  0  0
   -0.6261   -2.1849    2.9917 N   0  0  0  0  0  0  0  0  0  0  0  0
   -0.7237   -2.2601    1.5650 C   0  0  2  0  0  0  0  0  0  0  0  0
    0.1695   -1.1513    1.0687 C   0  0  0  0  0  0  0  0  0  0  0  0
    0.3193   -0.1267    1.7365 O   0  0  0  0  0  0  0  0  0  0  0  0
   -2.1397   -2.0663    1.0750 C   0  0  0  0  0  0  0  0  0  0  0  0
   -0.5717   -1.2606    3.4238 H   0  0  0  0  0  0  0  0  0  0  0  0
   -0.3076   -3.2111    1.2363 H   0  0  0  0  0  0  0  0  0  0  0  0
   -2.5584   -1.1089    1.4061 H   0  0  0  0  0  0  0  0  0  0  0  0
   -2.1682   -2.0790   -0.0197 H   0  0  0  0  0  0  0  0  0  0  0  0
   -2.7965   -2.8601    1.4459 H   0  0  0  0  0  0  0  0  0  0  0  0
    0.7724   -1.3745   -0.1593 N   0  0  0  0  0  0  0  0  0  0  0  0
    1.6644   -0.4046   -0.7812 C   0  0  2  0  0  0  0  0  0  0  0  0
    0.8166    0.4953   -1.6290 C   0  0  0  0  0  0  0  0  0  0  0  0
    0.1194    1.3492   -1.0938 O   0  0  0  0  0  0  0  0  0  0  0  0
    2.6195   -1.2417   -1.6241 C   0  0  0  0  0  0  0  0  0  0  0  0
    2.1758   -2.2356   -0.5535 C   0  0  0  0  0  0  0  0  0  0  0  0
    0.7499   -2.6270   -0.9105 C   0  0  0  0  0  0  0  0  0  0  0  0
    2.1745    0.2007   -0.0258 H   0  0  0  0  0  0  0  0  0  0  0  0
    3.6296   -0.8175   -1.5784 H   0  0  0  0  0  0  0  0  0  0  0  0
    2.3218   -1.3211   -2.6742 H   0  0  0  0  0  0  0  0  0  0  0  0
    2.8084   -3.1304   -0.5781 H   0  0  0  0  0  0  0  0  0  0  0  0
    2.2249   -1.8085    0.4522 H   0  0  0  0  0  0  0  0  0  0  0  0
    0.5944   -2.7143   -1.9893 H   0  0  0  0  0  0  0  0  0  0  0  0
    0.4645   -3.5695   -0.4308 H   0  0  0  0  0  0  0  0  0  0  0  0
    1.1019    0.0279   -3.0921 N   0  0  0  0  0  0  0  0  0  0  0  0
    0.5484    0.7379   -4.2228 C   0  0  2  0  0  0  0  0  0  0  0  0
    1.1965    2.1151   -4.2764 C   0  0  0  0  0  0  0  0  0  0  0  0
    1.7113    2.6527   -3.2981 O   0  0  0  0  0  0  0  0  0  0  0  0
   -0.9643    0.8528   -4.1175 C   0  0  0  0  0  0  0  0  0  0  0  0
    1.5710   -0.8572   -3.2595 H   0  0  0  0  0  0  0  0  0  0  0  0
    0.8227    0.1695   -5.1182 H   0  0  0  0  0  0  0  0  0  0  0  0
   -1.2582    1.4192   -3.2263 H   0  0  0  0  0  0  0  0  0  0  0  0
   -1.3849    1.3658   -4.9887 H   0  0  0  0  0  0  0  0  0  0  0  0
   -1.4266   -0.1379   -4.0491 H   0  0  0  0  0  0  0  0  0  0  0  0
    1.0942    2.6914   -5.5348 N   0  0  0  0  0  0  0  0  0  0  0  0
    1.6208    4.0018   -5.8373 C   0  0  0  0  0  0  0  0  0  0  0  0
    0.6678    2.1656   -6.2920 H   0  0  0  0  0  0  0  0  0  0  0  0
    0.8347    4.7568   -5.6890 H   0  0  0  0  0  0  0  0  0  0  0  0
    2.4682    4.2192   -5.1704 H   0  0  0  0  0  0  0  0  0  0  0  0
    1.9612    4.0276   -6.8830 H   0  0  0  0  0  0  0  0  0  0  0  0
 18 19  1  0  0  0  0
 19 31  1  0  0  0  0
 19 20  2  0  0  0  0
  8  9  1  0  0  0  0
  9 17  1  0  0  0  0
  9 10  2  0  0  0  0
  1  3  1  0  0  0  0
  1  7  1  0  0  0  0
  1  2  2  0  0  0  0
 32 33  1  0  0  0  0
 33 41  1  0  0  0  0
 33 34  2  0  0  0  0
 21 22  1  0  0  0  0
 22 23  1  0  0  0  0
 18 21  1  0  0  0  0
 17 23  1  0  0  0  0
 17 18  1  0  0  0  0
  8 11  1  0  0  0  0
 32 35  1  0  0  0  0
 41 42  1  0  0  0  0
  7  8  1  0  0  0  0
 31 32  1  0  0  0  0
 22 27  1  0  0  0  0
 22 28  1  0  0  0  0
 21 25  1  0  0  0  0
 21 26  1  0  0  0  0
 23 29  1  0  0  0  0
 23 30  1  0  0  0  0
 18 24  1  0  0  0  0
  3  4  1  0  0  0  0
  3  5  1  0  0  0  0
  3  6  1  0  0  0  0
 11 14  1  0  0  0  0
 11 15  1  0  0  0  0
 11 16  1  0  0  0  0
 35 38  1  0  0  0  0
 35 39  1  0  0  0  0
 35 40  1  0  0  0  0
 42 44  1  0  0  0  0
 42 45  1  0  0  0  0
 42 46  1  0  0  0  0
  8 13  1  0  0  0  0
 32 37  1  0  0  0  0
 31 36  1  0  0  0  0
 41 43  1  0  0  0  0
  7 12  1  0  0  0  0
M  END
$$$$

  -OEChem-05262214473D

 46 46  0     1  0  0  0  0  0999 V2000
   -0.6012   -3.2995    3.8205 C   0  0  0  0  0  0  0  0  0  0  0  0
   -0.6574   -4.4683    3.4568 O   0  0  0  0  0  0  0  0  0  0  0  0
   -0.4935   -2.9859    5.2760 C   0  0  0  0  0  0  0  0  0  0  0  0
   -1.4789   -2.8689    5.7550 H   0  0  0  0  0  0  0  0  0  0  0  0
    0.0123   -3.7847    5.8419 H   0  0  0  0  0  0  0  0  0  0  0  0
    0.0585   -2.0642    5.5199 H   0  0  0  0  0  0  0  0  0  0  0  0
   -0.6261   -2.1849    2.9917 N   0  0  0  0  0  0  0  0  0  0  0  0
   -0.7237   -2.2601    1.5650 C   0  0  2  0  0  0  0  0  0  0  0  0
    0.1695   -1.1513    1.0687 C   0  0  0  0  0  0  0  0  0  0  0  0
    0.3193   -0.1267    1.7365 O   0  0  0  0  0  0  0  0  0  0  0  0
   -2.1397   -2.0663    1.0750 C   0  0  0  0  0  0  0  0  0  0  0  0
   -0.5717   -1.2606    3.4238 H   0  0  0  0  0  0  0  0  0  0  0  0
   -0.3076   -3.2111    1.2363 H   0  0  0  0  0  0  0  0  0  0  0  0
   -2.5584   -1.1089    1.4061 H   0  0  0  0  0  0  0  0  0  0  0  0
   -2.1682   -2.0790   -0.0197 H   0  0  0  0  0  0  0  0  0  0  0  0
   -2.7965   -2.8601    1.4459 H   0  0  0  0  0  0  0  0  0  0  0  0
    0.7724   -1.3745   -0.1593 N   0  0  0  0  0  0  0  0  0  0  0  0
    1.6644   -0.4046   -0.7812 C   0  0  2  0  0  0  0  0  0  0  0  0
    0.8166    0.4953   -1.6290 C   0  0  0  0  0  0  0  0  0  0  0  0
    0.3396    1.5128   -1.1403 O   0  0  0  0  0  0  0  0  0  0  0  0
    2.6195   -1.2417   -1.6241 C   0  0  0  0  0  0  0  0  0  0  0  0
    2.1758   -2.2356   -0.5535 C   0  0  0  0  0  0  0  0  0  0  0  0
    0.7499   -2.6270   -0.9105 C   0  0  0  0  0  0  0  0  0  0  0  0
    2.1745    0.2007   -0.0258 H   0  0  0  0  0  0  0  0  0  0  0  0
    3.6296   -0.8175   -1.5784 H   0  0  0  0  0  0  0  0  0  0  0  0
    2.3218   -1.3211   -2.6742 H   0  0  0  0  0  0  0  0  0  0  0  0
    2.8084   -3.1304   -0.5781 H   0  0  0  0  0  0  0  0  0  0  0  0
    2.2249   -1.8085    0.4522 H   0  0  0  0  0  0  0  0  0  0  0  0
    0.5944   -2.7143   -1.9893 H   0  0  0  0  0  0  0  0  0  0  0  0
    0.4645   -3.5695   -0.4308 H   0  0  0  0  0  0  0  0  0  0  0  0
    0.7890   -0.2042   -3.0256 N   0  0  0  0  0  0  0  0  0  0  0  0
    0.1561    0.4253   -4.1623 C   0  0  2  0  0  0  0  0  0  0  0  0
    0.9659    1.6629   -4.5258 C   0  0  0  0  0  0  0  0  0  0  0  0
    1.7039    2.2393   -3.7294 O   0  0  0  0  0  0  0  0  0  0  0  0
   -1.2886    0.7908   -3.8590 C   0  0  0  0  0  0  0  0  0  0  0  0
    1.1001   -1.1667   -3.1171 H   0  0  0  0  0  0  0  0  0  0  0  0
    0.1984   -0.2947   -4.9868 H   0  0  0  0  0  0  0  0  0  0  0  0
   -1.3512    1.5114   -3.0354 H   0  0  0  0  0  0  0  0  0  0  0  0
   -1.7751    1.2416   -4.7303 H   0  0  0  0  0  0  0  0  0  0  0  0
   -1.8623   -0.0960   -3.5689 H   0  0  0  0  0  0  0  0  0  0  0  0
    0.7344    2.0732   -5.8312 N   0  0  0  0  0  0  0  0  0  0  0  0
    1.3752    3.2311   -6.4098 C   0  0  0  0  0  0  0  0  0  0  0  0
    0.1210    1.5242   -6.4263 H   0  0  0  0  0  0  0  0  0  0  0  0
    0.7336    4.1137   -6.2705 H   0  0  0  0  0  0  0  0  0  0  0  0
    2.3431    3.3998   -5.9151 H   0  0  0  0  0  0  0  0  0  0  0  0
    1.5372    3.0616   -7.4845 H   0  0  0  0  0  0  0  0  0  0  0  0
 18 19  1  0  0  0  0
 19 31  1  0  0  0  0
 19 20  2  0  0  0  0
  8  9  1  0  0  0  0
  9 17  1  0  0  0  0
  9 10  2  0  0  0  0
  1  3  1  0  0  0  0
  1  7  1  0  0  0  0
  1  2  2  0  0  0  0
 32 33  1  0  0  0  0
 33 41  1  0  0  0  0
 33 34  2  0  0  0  0
 21 22  1  0  0  0  0
 22 23  1  0  0  0  0
 18 21  1  0  0  0  0
 17 23  1  0  0  0  0
 17 18  1  0  0  0  0
  8 11  1  0  0  0  0
 32 35  1  0  0  0  0
 41 42  1  0  0  0  0
  7  8  1  0  0  0  0
 31 32  1  0  0  0  0
 22 27  1  0  0  0  0
 22 28  1  0  0  0  0
 21 25  1  0  0  0  0
 21 26  1  0  0  0  0
 23 29  1  0  0  0  0
 23 30  1  0  0  0  0
 18 24  1  0  0  0  0
  3  4  1  0  0  0  0
  3  5  1  0  0  0  0
  3  6  1  0  0  0  0
 11 14  1  0  0  0  0
 11 15  1  0  0  0  0
 11 16  1  0  0  0  0
 35 38  1  0  0  0  0
 35 39  1  0  0  0  0
 35 40  1  0  0  0  0
 42 44  1  0  0  0  0
 42 45  1  0  0  0  0
 42 46  1  0  0  0  0
  8 13  1  0  0  0  0
 32 37  1  0  0  0  0
 31 36  1  0  0  0  0
 41 43  1  0  0  0  0
  7 12  1  0  0  0  0
M  END
$$$$

  -OEChem-05262214473D

 46 46  0     1  0  0  0  0  0999 V2000
   -0.6012   -3.2995    3.8205 C   0  0  0  0  0  0  0  0  0  0  0  0
   -0.6574   -4.4683    3.4568 O   0  0  0  0  0  0  0  0  0  0  0  0
   -0.4935   -2.9859    5.2760 C   0  0  0  0  0  0  0  0  0  0  0  0
   -1.4789   -2.8689    5.7550 H   0  0  0  0  0  0  0  0  0  0  0  0
    0.0123   -3.7847    5.8419 H   0  0  0  0  0  0  0  0  0  0  0  0
    0.0585   -2.0642    5.5199 H   0  0  0  0  0  0  0  0  0  0  0  0
   -0.6261   -2.1849    2.9917 N   0  0  0  0  0  0  0  0  0  0  0  0
   -0.7237   -2.2601    1.5650 C   0  0  2  0  0  0  0  0  0  0  0  0
    0.1695   -1.1513    1.0687 C   0  0  0  0  0  0  0  0  0  0  0  0
    0.3193   -0.1267    1.7365 O   0  0  0  0  0  0  0  0  0  0  0  0
   -2.1397   -2.0663    1.0750 C   0  0  0  0  0  0  0  0  0  0  0  0
   -0.5717   -1.2606    3.4238 H   0  0  0  0  0  0  0  0  0  0  0  0
   -0.3076   -3.2111    1.2363 H   0  0  0  0  0  0  0  0  0  0  0  0
   -2.5584   -1.1089    1.4061 H   0  0  0  0  0  0  0  0  0  0  0  0
   -2.1682   -2.0790   -0.0197 H   0  0  0  0  0  0  0  0  0  0  0  0
   -2.7965   -2.8601    1.4459 H   0  0  0  0  0  0  0  0  0  0  0  0
    0.7724   -1.3745   -0.1593 N   0  0  0  0  0  0  0  0  0  0  0  0
    1.6644   -0.4046   -0.7812 C   0  0  2  0  0  0  0  0  0  0  0  0
    0.8166    0.4953   -1.6290 C   0  0  0  0  0  0  0  0  0  0  0  0
    0.5691    1.6318   -1.2434 O   0  0  0  0  0  0  0  0  0  0  0  0
    2.6195   -1.2417   -1.6241 C   0  0  0  0  0  0  0  0  0  0  0  0
    2.1758   -2.2356   -0.5535 C   0  0  0  0  0  0  0  0  0  0  0  0
    0.7499   -2.6270   -0.9105 C   0  0  0  0  0  0  0  0  0  0  0  0
    2.1745    0.2007   -0.0258 H   0  0  0  0  0  0  0  0  0  0  0  0
    3.6296   -0.8175   -1.5784 H   0  0  0  0  0  0  0  0  0  0  0  0
    2.3218   -1.3211   -2.6742 H   0  0  0  0  0  0  0  0  0  0  0  0
    2.8084   -3.1304   -0.5781 H   0  0  0  0  0  0  0  0  0  0  0  0
    2.2249   -1.8085    0.4522 H   0  0  0  0  0  0  0  0  0  0  0  0
    0.5944   -2.7143   -1.9893 H   0  0  0  0  0  0  0  0  0  0  0  0
    0.4645   -3.5695   -0.4308 H   0  0  0  0  0  0  0  0  0  0  0  0
    0.4631   -0.3729   -2.8788 N   0  0  0  0  0  0  0  0  0  0  0  0
   -0.2593    0.1897   -3.9971 C   0  0  2  0  0  0  0  0  0  0  0  0
    0.6382    1.2234   -4.6646 C   0  0  0  0  0  0  0  0  0  0  0  0
    1.5692    1.7781   -4.0844 O   0  0  0  0  0  0  0  0  0  0  0  0
   -1.5708    0.8163   -3.5499 C   0  0  0  0  0  0  0  0  0  0  0  0
    0.6220   -1.3758   -2.8611 H   0  0  0  0  0  0  0  0  0  0  0  0
   -0.4520   -0.6325   -4.6949 H   0  0  0  0  0  0  0  0  0  0  0  0
   -1.3978    1.6421   -2.8501 H   0  0  0  0  0  0  0  0  0  0  0  0
   -2.1301    1.2166   -4.4018 H   0  0  0  0  0  0  0  0  0  0  0  0
   -2.2025    0.0785   -3.0435 H   0  0  0  0  0  0  0  0  0  0  0  0
    0.2503    1.4854   -5.9711 N   0  0  0  0  0  0  0  0  0  0  0  0
    0.9361    2.4388   -6.8117 C   0  0  0  0  0  0  0  0  0  0  0  0
   -0.5218    0.9649   -6.3771 H   0  0  0  0  0  0  0  0  0  0  0  0
    0.4516    3.4223   -6.7224 H   0  0  0  0  0  0  0  0  0  0  0  0
    1.9866    2.5176   -6.4950 H   0  0  0  0  0  0  0  0  0  0  0  0
    0.8929    2.1026   -7.8582 H   0  0  0  0  0  0  0  0  0  0  0  0
 18 19  1  0  0  0  0
 19 31  1  0  0  0  0
 19 20  2  0  0  0  0
  8  9  1  0  0  0  0
  9 17  1  0  0  0  0
  9 10  2  0  0  0  0
  1  3  1  0  0  0  0
  1  7  1  0  0  0  0
  1  2  2  0  0  0  0
 32 33  1  0  0  0  0
 33 41  1  0  0  0  0
 33 34  2  0  0  0  0
 21 22  1  0  0  0  0
 22 23  1  0  0  0  0
 18 21  1  0  0  0  0
 17 23  1  0  0  0  0
 17 18  1  0  0  0  0
  8 11  1  0  0  0  0
 32 35  1  0  0  0  0
 41 42  1  0  0  0  0
  7  8  1  0  0  0  0
 31 32  1  0  0  0  0
 22 27  1  0  0  0  0
 22 28  1  0  0  0  0
 21 25  1  0  0  0  0
 21 26  1  0  0  0  0
 23 29  1  0  0  0  0
 23 30  1  0  0  0  0
 18 24  1  0  0  0  0
  3  4  1  0  0  0  0
  3  5  1  0  0  0  0
  3  6  1  0  0  0  0
 11 14  1  0  0  0  0
 11 15  1  0  0  0  0
 11 16  1  0  0  0  0
 35 38  1  0  0  0  0
 35 39  1  0  0  0  0
 35 40  1  0  0  0  0
 42 44  1  0  0  0  0
 42 45  1  0  0  0  0
 42 46  1  0  0  0  0
  8 13  1  0  0  0  0
 32 37  1  0  0  0  0
 31 36  1  0  0  0  0
 41 43  1  0  0  0  0
  7 12  1  0  0  0  0
M  END
$$$$

  -OEChem-05262214473D

 46 46  0     1  0  0  0  0  0999 V2000
   -0.6012   -3.2995    3.8205 C   0  0  0  0  0  0  0  0  0  0  0  0
   -0.6574   -4.4683    3.4568 O   0  0  0  0  0  0  0  0  0  0  0  0
   -0.4935   -2.9859    5.2760 C   0  0  0  0  0  0  0  0  0  0  0  0
   -1.4789   -2.8689    5.7550 H   0  0  0  0  0  0  0  0  0  0  0  0
    0.0123   -3.7847    5.8419 H   0  0  0  0  0  0  0  0  0  0  0  0
    0.0585   -2.0642    5.5199 H   0  0  0  0  0  0  0  0  0  0  0  0
   -0.6261   -2.1849    2.9917 N   0  0  0  0  0  0  0  0  0  0  0  0
   -0.7237   -2.2601    1.5650 C   0  0  2  0  0  0  0  0  0  0  0  0
    0.1695   -1.1513    1.0687 C   0  0  0  0  0  0  0  0  0  0  0  0
    0.3193   -0.1267    1.7365 O   0  0  0  0  0  0  0  0  0  0  0  0
   -2.1397   -2.0663    1.0750 C   0  0  0  0  0  0  0  0  0  0  0  0
   -0.5717   -1.2606    3.4238 H   0  0  0  0  0  0  0  0  0  0  0  0
   -0.3076   -3.2111    1.2363 H   0  0  0  0  0  0  0  0  0  0  0  0
   -2.5584   -1.1089    1.4061 H   0  0  0  0  0  0  0  0  0  0  0  0
   -2.1682   -2.0790   -0.0197 H   0  0  0  0  0  0  0  0  0  0  0  0
   -2.7965   -2.8601    1.4459 H   0  0  0  0  0  0  0  0  0  0  0  0
    0.7724   -1.3745   -0.1593 N   0  0  0  0  0  0  0  0  0  0  0  0
    1.6644   -0.4046   -0.7812 C   0  0  2  0  0  0  0  0  0  0  0  0
    0.8166    0.4953   -1.6290 C   0  0  0  0  0  0  0  0  0  0  0  0
    0.7922    1.6981   -1.3961 O   0  0  0  0  0  0  0  0  0  0  0  0
    2.6195   -1.2417   -1.6241 C   0  0  0  0  0  0  0  0  0  0  0  0
    2.1758   -2.2356   -0.5535 C   0  0  0  0  0  0  0  0  0  0  0  0
    0.7499   -2.6270   -0.9105 C   0  0  0  0  0  0  0  0  0  0  0  0
    2.1745    0.2007   -0.0258 H   0  0  0  0  0  0  0  0  0  0  0  0
    3.6296   -0.8175   -1.5784 H   0  0  0  0  0  0  0  0  0  0  0  0
    2.3218   -1.3211   -2.6742 H   0  0  0  0  0  0  0  0  0  0  0  0
    2.8084   -3.1304   -0.5781 H   0  0  0  0  0  0  0  0  0  0  0  0
    2.2249   -1.8085    0.4522 H   0  0  0  0  0  0  0  0  0  0  0  0
    0.5944   -2.7143   -1.9893 H   0  0  0  0  0  0  0  0  0  0  0  0
    0.4645   -3.5695   -0.4308 H   0  0  0  0  0  0  0  0  0  0  0  0
    0.1465   -0.4666   -2.6616 N   0  0  0  0  0  0  0  0  0  0  0  0
   -0.6693    0.0470   -3.7385 C   0  0  2  0  0  0  0  0  0  0  0  0
    0.2357    0.8265   -4.6835 C   0  0  0  0  0  0  0  0  0  0  0  0
    1.3164    1.3003   -4.3388 O   0  0  0  0  0  0  0  0  0  0  0  0
   -1.7916    0.9274   -3.2111 C   0  0  0  0  0  0  0  0  0  0  0  0
    0.1695   -1.4704   -2.5089 H   0  0  0  0  0  0  0  0  0  0  0  0
   -1.0844   -0.8208   -4.2625 H   0  0  0  0  0  0  0  0  0  0  0  0
   -1.3949    1.8022   -2.6830 H   0  0  0  0  0  0  0  0  0  0  0  0
   -2.4256    1.2925   -4.0258 H   0  0  0  0  0  0  0  0  0  0  0  0
   -2.4239    0.3737   -2.5087 H   0  0  0  0  0  0  0  0  0  0  0  0
   -0.3251    0.9679   -5.9451 N   0  0  0  0  0  0  0  0  0  0  0  0
    0.3336    1.6790   -7.0158 C   0  0  0  0  0  0  0  0  0  0  0  0
   -1.2169    0.5260   -6.1478 H   0  0  0  0  0  0  0  0  0  0  0  0
    0.0077    2.7296   -7.0139 H   0  0  0  0  0  0  0  0  0  0  0  0
    1.4230    1.6328   -6.8707 H   0  0  0  0  0  0  0  0  0  0  0  0
    0.0720    1.2158   -7.9787 H   0  0  0  0  0  0  0  0  0  0  0  0
 18 19  1  0  0  0  0
 19 31  1  0  0  0  0
 19 20  2  0  0  0  0
  8  9  1  0  0  0  0
  9 17  1  0  0  0  0
  9 10  2  0  0  0  0
  1  3  1  0  0  0  0
  1  7  1  0  0  0  0
  1  2  2  0  0  0  0
 32 33  1  0  0  0  0
 33 41  1  0  0  0  0
 33 34  2  0  0  0  0
 21 22  1  0  0  0  0
 22 23  1  0  0  0  0
 18 21  1  0  0  0  0
 17 23  1  0  0  0  0
 17 18  1  0  0  0  0
  8 11  1  0  0  0  0
 32 35  1  0  0  0  0
 41 42  1  0  0  0  0
  7  8  1  0  0  0  0
 31 32  1  0  0  0  0
 22 27  1  0  0  0  0
 22 28  1  0  0  0  0
 21 25  1  0  0  0  0
 21 26  1  0  0  0  0
 23 29  1  0  0  0  0
 23 30  1  0  0  0  0
 18 24  1  0  0  0  0
  3  4  1  0  0  0  0
  3  5  1  0  0  0  0
  3  6  1  0  0  0  0
 11 14  1  0  0  0  0
 11 15  1  0  0  0  0
 11 16  1  0  0  0  0
 35 38  1  0  0  0  0
 35 39  1  0  0  0  0
 35 40  1  0  0  0  0
 42 44  1  0  0  0  0
 42 45  1  0  0  0  0
 42 46  1  0  0  0  0
  8 13  1  0  0  0  0
 32 37  1  0  0  0  0
 31 36  1  0  0  0  0
 41 43  1  0  0  0  0
  7 12  1  0  0  0  0
M  END
$$$$

  -OEChem-05262214473D

 46 46  0     1  0  0  0  0  0999 V2000
   -0.6012   -3.2995    3.8205 C   0  0  0  0  0  0  0  0  0  0  0  0
   -0.6574   -4.4683    3.4568 O   0  0  0  0  0  0  0  0  0  0  0  0
   -0.4935   -2.9859    5.2760 C   0  0  0  0  0  0  0  0  0  0  0  0
   -1.4789   -2.8689    5.7550 H   0  0  0  0  0  0  0  0  0  0  0  0
    0.0123   -3.7847    5.8419 H   0  0  0  0  0  0  0  0  0  0  0  0
    0.0585   -2.0642    5.5199 H   0  0  0  0  0  0  0  0  0  0  0  0
   -0.6261   -2.1849    2.9917 N   0  0  0  0  0  0  0  0  0  0  0  0
   -0.7237   -2.2601    1.5650 C   0  0  2  0  0  0  0  0  0  0  0  0
    0.1695   -1.1513    1.0687 C   0  0  0  0  0  0  0  0  0  0  0  0
    0.3193   -0.1267    1.7365 O   0  0  0  0  0  0  0  0  0  0  0  0
   -2.1397   -2.0663    1.0750 C   0  0  0  0  0  0  0  0  0  0  0  0
   -0.5717   -1.2606    3.4238 H   0  0  0  0  0  0  0  0  0  0  0  0
   -0.3076   -3.2111    1.2363 H   0  0  0  0  0  0  0  0  0  0  0  0
   -2.5584   -1.1089    1.4061 H   0  0  0  0  0  0  0  0  0  0  0  0
   -2.1682   -2.0790   -0.0197 H   0  0  0  0  0  0  0  0  0  0  0  0
   -2.7965   -2.8601    1.4459 H   0  0  0  0  0  0  0  0  0  0  0  0
    0.7724   -1.3745   -0.1593 N   0  0  0  0  0  0  0  0  0  0  0  0
    1.6644   -0.4046   -0.7812 C   0  0  2  0  0  0  0  0  0  0  0  0
    0.8166    0.4953   -1.6290 C   0  0  0  0  0  0  0  0  0  0  0  0
    0.9936    1.7072   -1.5879 O   0  0  0  0  0  0  0  0  0  0  0  0
    2.6195   -1.2417   -1.6241 C   0  0  0  0  0  0  0  0  0  0  0  0
    2.1758   -2.2356   -0.5535 C   0  0  0  0  0  0  0  0  0  0  0  0
    0.7499   -2.6270   -0.9105 C   0  0  0  0  0  0  0  0  0  0  0  0
    2.1745    0.2007   -0.0258 H   0  0  0  0  0  0  0  0  0  0  0  0
    3.6296   -0.8175   -1.5784 H   0  0  0  0  0  0  0  0  0  0  0  0
    2.3218   -1.3211   -2.6742 H   0  0  0  0  0  0  0  0  0  0  0  0
    2.8084   -3.1304   -0.5781 H   0  0  0  0  0  0  0  0  0  0  0  0
    2.2249   -1.8085    0.4522 H   0  0  0  0  0  0  0  0  0  0  0  0
    0.5944   -2.7143   -1.9893 H   0  0  0  0  0  0  0  0  0  0  0  0
    0.4645   -3.5695   -0.4308 H   0  0  0  0  0  0  0  0  0  0  0  0
   -0.1393   -0.4790   -2.3890 N   0  0  0  0  0  0  0  0  0  0  0  0
   -1.0460    0.0071   -3.4042 C   0  0  2  0  0  0  0  0  0  0  0  0
   -0.2140    0.4993   -4.5811 C   0  0  0  0  0  0  0  0  0  0  0  0
    0.9628    0.8385   -4.4753 O   0  0  0  0  0  0  0  0  0  0  0  0
   -1.9359    1.1166   -2.8659 C   0  0  0  0  0  0  0  0  0  0  0  0
   -0.2268   -1.4439   -2.0846 H   0  0  0  0  0  0  0  0  0  0  0  0
   -1.6556   -0.8469   -3.7189 H   0  0  0  0  0  0  0  0  0  0  0  0
   -1.3428    1.9809   -2.5455 H   0  0  0  0  0  0  0  0  0  0  0  0
   -2.6415    1.4641   -3.6277 H   0  0  0  0  0  0  0  0  0  0  0  0
   -2.5115    0.7695   -2.0010 H   0  0  0  0  0  0  0  0  0  0  0  0
   -0.9526    0.5561   -5.7547 N   0  0  0  0  0  0  0  0  0  0  0  0
   -0.3913    1.0033   -7.0081 C   0  0  0  0  0  0  0  0  0  0  0  0
   -1.9170    0.2374   -5.7542 H   0  0  0  0  0  0  0  0  0  0  0  0
   -0.5677    2.0827   -7.1251 H   0  0  0  0  0  0  0  0  0  0  0  0
    0.6907    0.8057   -7.0165 H   0  0  0  0  0  0  0  0  0  0  0  0
   -0.8694    0.4618   -7.8377 H   0  0  0  0  0  0  0  0  0  0  0  0
 18 19  1  0  0  0  0
 19 31  1  0  0  0  0
 19 20  2  0  0  0  0
  8  9  1  0  0  0  0
  9 17  1  0  0  0  0
  9 10  2  0  0  0  0
  1  3  1  0  0  0  0
  1  7  1  0  0  0  0
  1  2  2  0  0  0  0
 32 33  1  0  0  0  0
 33 41  1  0  0  0  0
 33 34  2  0  0  0  0
 21 22  1  0  0  0  0
 22 23  1  0  0  0  0
 18 21  1  0  0  0  0
 17 23  1  0  0  0  0
 17 18  1  0  0  0  0
  8 11  1  0  0  0  0
 32 35  1  0  0  0  0
 41 42  1  0  0  0  0
  7  8  1  0  0  0  0
 31 32  1  0  0  0  0
 22 27  1  0  0  0  0
 22 28  1  0  0  0  0
 21 25  1  0  0  0  0
 21 26  1  0  0  0  0
 23 29  1  0  0  0  0
 23 30  1  0  0  0  0
 18 24  1  0  0  0  0
  3  4  1  0  0  0  0
  3  5  1  0  0  0  0
  3  6  1  0  0  0  0
 11 14  1  0  0  0  0
 11 15  1  0  0  0  0
 11 16  1  0  0  0  0
 35 38  1  0  0  0  0
 35 39  1  0  0  0  0
 35 40  1  0  0  0  0
 42 44  1  0  0  0  0
 42 45  1  0  0  0  0
 42 46  1  0  0  0  0
  8 13  1  0  0  0  0
 32 37  1  0  0  0  0
 31 36  1  0  0  0  0
 41 43  1  0  0  0  0
  7 12  1  0  0  0  0
M  END
$$$$

  -OEChem-05262214473D

 46 46  0     1  0  0  0  0  0999 V2000
   -0.6012   -3.2995    3.8205 C   0  0  0  0  0  0  0  0  0  0  0  0
   -0.6574   -4.4683    3.4568 O   0  0  0  0  0  0  0  0  0  0  0  0
   -0.4935   -2.9859    5.2760 C   0  0  0  0  0  0  0  0  0  0  0  0
   -1.4789   -2.8689    5.7550 H   0  0  0  0  0  0  0  0  0  0  0  0
    0.0123   -3.7847    5.8419 H   0  0  0  0  0  0  0  0  0  0  0  0
    0.0585   -2.0642    5.5199 H   0  0  0  0  0  0  0  0  0  0  0  0
   -0.6261   -2.1849    2.9917 N   0  0  0  0  0  0  0  0  0  0  0  0
   -0.7237   -2.2601    1.5650 C   0  0  2  0  0  0  0  0  0  0  0  0
    0.1695   -1.1513    1.0687 C   0  0  0  0  0  0  0  0  0  0  0  0
    0.3193   -0.1267    1.7365 O   0  0  0  0  0  0  0  0  0  0  0  0
   -2.1397   -2.0663    1.0750 C   0  0  0  0  0  0  0  0  0  0  0  0
   -0.5717   -1.2606    3.4238 H   0  0  0  0  0  0  0  0  0  0  0  0
   -0.3076   -3.2111    1.2363 H   0  0  0  0  0  0  0  0  0  0  0  0
   -2.5584   -1.1089    1.4061 H   0  0  0  0  0  0  0  0  0  0  0  0
   -2.1682   -2.0790   -0.0197 H   0  0  0  0  0  0  0  0  0  0  0  0
   -2.7965   -2.8601    1.4459 H   0  0  0  0  0  0  0  0  0  0  0  0
    0.7724   -1.3745   -0.1593 N   0  0  0  0  0  0  0  0  0  0  0  0
    1.6644   -0.4046   -0.7812 C   0  0  2  0  0  0  0  0  0  0  0  0
    0.8166    0.4953   -1.6290 C   0  0  0  0  0  0  0  0  0  0  0  0
    1.1597    1.6584   -1.8059 O   0  0  0  0  0  0  0  0  0  0  0  0
    2.6195   -1.2417   -1.6241 C   0  0  0  0  0  0  0  0  0  0  0  0
    2.1758   -2.2356   -0.5535 C   0  0  0  0  0  0  0  0  0  0  0  0
    0.7499   -2.6270   -0.9105 C   0  0  0  0  0  0  0  0  0  0  0  0
    2.1745    0.2007   -0.0258 H   0  0  0  0  0  0  0  0  0  0  0  0
    3.6296   -0.8175   -1.5784 H   0  0  0  0  0  0  0  0  0  0  0  0
    2.3218   -1.3211   -2.6742 H   0  0  0  0  0  0  0  0  0  0  0  0
    2.8084   -3.1304   -0.5781 H   0  0  0  0  0  0  0  0  0  0  0  0
    2.2249   -1.8085    0.4522 H   0  0  0  0  0  0  0  0  0  0  0  0
    0.5944   -2.7143   -1.9893 H   0  0  0  0  0  0  0  0  0  0  0  0
    0.4645   -3.5695   -0.4308 H   0  0  0  0  0  0  0  0  0  0  0  0
   -0.3749   -0.4093   -2.0794 N   0  0  0  0  0  0  0  0  0  0  0  0
   -1.3638    0.0726   -3.0168 C   0  0  2  0  0  0  0  0  0  0  0  0
   -0.6804    0.2640   -4.3644 C   0  0  0  0  0  0  0  0  0  0  0  0
    0.5324    0.4242   -4.4847 O   0  0  0  0  0  0  0  0  0  0  0  0
   -1.9940    1.3710   -2.5377 C   0  0  0  0  0  0  0  0  0  0  0  0
   -0.5398   -1.2983   -1.6170 H   0  0  0  0  0  0  0  0  0  0  0  0
   -2.1267   -0.7089   -3.1013 H   0  0  0  0  0  0  0  0  0  0  0  0
   -1.2448    2.1660   -2.4469 H   0  0  0  0  0  0  0  0  0  0  0  0
   -2.7631    1.7197   -3.2348 H   0  0  0  0  0  0  0  0  0  0  0  0
   -2.4592    1.2390   -1.5548 H   0  0  0  0  0  0  0  0  0  0  0  0
   -1.5893    0.2781   -5.4131 N   0  0  0  0  0  0  0  0  0  0  0  0
   -1.1892    0.4579   -6.7892 C   0  0  0  0  0  0  0  0  0  0  0  0
   -2.5743    0.1186   -5.2229 H   0  0  0  0  0  0  0  0  0  0  0  0
   -1.2355    1.5259   -7.0485 H   0  0  0  0  0  0  0  0  0  0  0  0
   -0.1603    0.0926   -6.9225 H   0  0  0  0  0  0  0  0  0  0  0  0
   -1.8671   -0.1082   -7.4450 H   0  0  0  0  0  0  0  0  0  0  0  0
 18 19  1  0  0  0  0
 19 31  1  0  0  0  0
 19 20  2  0  0  0  0
  8  9  1  0  0  0  0
  9 17  1  0  0  0  0
  9 10  2  0  0  0  0
  1  3  1  0  0  0  0
  1  7  1  0  0  0  0
  1  2  2  0  0  0  0
 32 33  1  0  0  0  0
 33 41  1  0  0  0  0
 33 34  2  0  0  0  0
 21 22  1  0  0  0  0
 22 23  1  0  0  0  0
 18 21  1  0  0  0  0
 17 23  1  0  0  0  0
 17 18  1  0  0  0  0
  8 11  1  0  0  0  0
 32 35  1  0  0  0  0
 41 42  1  0  0  0  0
  7  8  1  0  0  0  0
 31 32  1  0  0  0  0
 22 27  1  0  0  0  0
 22 28  1  0  0  0  0
 21 25  1  0  0  0  0
 21 26  1  0  0  0  0
 23 29  1  0  0  0  0
 23 30  1  0  0  0  0
 18 24  1  0  0  0  0
  3  4  1  0  0  0  0
  3  5  1  0  0  0  0
  3  6  1  0  0  0  0
 11 14  1  0  0  0  0
 11 15  1  0  0  0  0
 11 16  1  0  0  0  0
 35 38  1  0  0  0  0
 35 39  1  0  0  0  0
 35 40  1  0  0  0  0
 42 44  1  0  0  0  0
 42 45  1  0  0  0  0
 42 46  1  0  0  0  0
  8 13  1  0  0  0  0
 32 37  1  0  0  0  0
 31 36  1  0  0  0  0
 41 43  1  0  0  0  0
  7 12  1  0  0  0  0
M  END
$$$$

  -OEChem-05262214473D

 46 46  0     1  0  0  0  0  0999 V2000
   -0.6012   -3.2995    3.8205 C   0  0  0  0  0  0  0  0  0  0  0  0
   -0.6574   -4.4683    3.4568 O   0  0  0  0  0  0  0  0  0  0  0  0
   -0.4935   -2.9859    5.2760 C   0  0  0  0  0  0  0  0  0  0  0  0
   -1.4789   -2.8689    5.7550 H   0  0  0  0  0  0  0  0  0  0  0  0
    0.0123   -3.7847    5.8419 H   0  0  0  0  0  0  0  0  0  0  0  0
    0.0585   -2.0642    5.5199 H   0  0  0  0  0  0  0  0  0  0  0  0
   -0.6261   -2.1849    2.9917 N   0  0  0  0  0  0  0  0  0  0  0  0
   -0.7237   -2.2601    1.5650 C   0  0  2  0  0  0  0  0  0  0  0  0
    0.1695   -1.1513    1.0687 C   0  0  0  0  0  0  0  0  0  0  0  0
    0.3193   -0.1267    1.7365 O   0  0  0  0  0  0  0  0  0  0  0  0
   -2.1397   -2.0663    1.0750 C   0  0  0  0  0  0  0  0  0  0  0  0
   -0.5717   -1.2606    3.4238 H   0  0  0  0  0  0  0  0  0  0  0  0
   -0.3076   -3.2111    1.2363 H   0  0  0  0  0  0  0  0  0  0  0  0
   -2.5584   -1.1089    1.4061 H   0  0  0  0  0  0  0  0  0  0  0  0
   -2.1682   -2.0790   -0.0197 H   0  0  0  0  0  0  0  0  0  0  0  0
   -2.7965   -2.8601    1.4459 H   0  0  0  0  0  0  0  0  0  0  0  0
    0.7724   -1.3745   -0.1593 N   0  0  0  0  0  0  0  0  0  0  0  0
    1.6644   -0.4046   -0.7812 C   0  0  2  0  0  0  0  0  0  0  0  0
    0.8166    0.4953   -1.6290 C   0  0  0  0  0  0  0  0  0  0  0  0
    1.2791    1.5550   -2.0350 O   0  0  0  0  0  0  0  0  0  0  0  0
    2.6195   -1.2417   -1.6241 C   0  0  0  0  0  0  0  0  0  0  0  0
    2.1758   -2.2356   -0.5535 C   0  0  0  0  0  0  0  0  0  0  0  0
    0.7499   -2.6270   -0.9105 C   0  0  0  0  0  0  0  0  0  0  0  0
    2.1745    0.2007   -0.0258 H   0  0  0  0  0  0  0  0  0  0  0  0
    3.6296   -0.8175   -1.5784 H   0  0  0  0  0  0  0  0  0  0  0  0
    2.3218   -1.3211   -2.6742 H   0  0  0  0  0  0  0  0  0  0  0  0
    2.8084   -3.1304   -0.5781 H   0  0  0  0  0  0  0  0  0  0  0  0
    2.2249   -1.8085    0.4522 H   0  0  0  0  0  0  0  0  0  0  0  0
    0.5944   -2.7143   -1.9893 H   0  0  0  0  0  0  0  0  0  0  0  0
    0.4645   -3.5695   -0.4308 H   0  0  0  0  0  0  0  0  0  0  0  0
   -0.5441   -0.2621   -1.7539 N   0  0  0  0  0  0  0  0  0  0  0  0
   -1.6010    0.2391   -2.6029 C   0  0  2  0  0  0  0  0  0  0  0  0
   -1.1317    0.1368   -4.0482 C   0  0  0  0  0  0  0  0  0  0  0  0
    0.0546    0.0857   -4.3662 O   0  0  0  0  0  0  0  0  0  0  0  0
   -1.9619    1.6734   -2.2489 C   0  0  0  0  0  0  0  0  0  0  0  0
   -0.7481   -1.0434   -1.1380 H   0  0  0  0  0  0  0  0  0  0  0  0
   -2.4656   -0.4163   -2.4518 H   0  0  0  0  0  0  0  0  0  0  0  0
   -1.1079    2.3449   -2.3940 H   0  0  0  0  0  0  0  0  0  0  0  0
   -2.7821    2.0419   -2.8738 H   0  0  0  0  0  0  0  0  0  0  0  0
   -2.2707    1.7502   -1.2007 H   0  0  0  0  0  0  0  0  0  0  0  0
   -2.1920    0.1527   -4.9435 N   0  0  0  0  0  0  0  0  0  0  0  0
   -2.0058    0.0799   -6.3739 C   0  0  0  0  0  0  0  0  0  0  0  0
   -3.1440    0.1779   -4.5902 H   0  0  0  0  0  0  0  0  0  0  0  0
   -1.9501    1.0970   -6.7891 H   0  0  0  0  0  0  0  0  0  0  0  0
   -1.0721   -0.4579   -6.5950 H   0  0  0  0  0  0  0  0  0  0  0  0
   -2.8533   -0.4552   -6.8271 H   0  0  0  0  0  0  0  0  0  0  0  0
 18 19  1  0  0  0  0
 19 31  1  0  0  0  0
 19 20  2  0  0  0  0
  8  9  1  0  0  0  0
  9 17  1  0  0  0  0
  9 10  2  0  0  0  0
  1  3  1  0  0  0  0
  1  7  1  0  0  0  0
  1  2  2  0  0  0  0
 32 33  1  0  0  0  0
 33 41  1  0  0  0  0
 33 34  2  0  0  0  0
 21 22  1  0  0  0  0
 22 23  1  0  0  0  0
 18 21  1  0  0  0  0
 17 23  1  0  0  0  0
 17 18  1  0  0  0  0
  8 11  1  0  0  0  0
 32 35  1  0  0  0  0
 41 42  1  0  0  0  0
  7  8  1  0  0  0  0
 31 32  1  0  0  0  0
 22 27  1  0  0  0  0
 22 28  1  0  0  0  0
 21 25  1  0  0  0  0
 21 26  1  0  0  0  0
 23 29  1  0  0  0  0
 23 30  1  0  0  0  0
 18 24  1  0  0  0  0
  3  4  1  0  0  0  0
  3  5  1  0  0  0  0
  3  6  1  0  0  0  0
 11 14  1  0  0  0  0
 11 15  1  0  0  0  0
 11 16  1  0  0  0  0
 35 38  1  0  0  0  0
 35 39  1  0  0  0  0
 35 40  1  0  0  0  0
 42 44  1  0  0  0  0
 42 45  1  0  0  0  0
 42 46  1  0  0  0  0
  8 13  1  0  0  0  0
 32 37  1  0  0  0  0
 31 36  1  0  0  0  0
 41 43  1  0  0  0  0
  7 12  1  0  0  0  0
M  END
$$$$

  -OEChem-05262214473D

 46 46  0     1  0  0  0  0  0999 V2000
   -0.6012   -3.2995    3.8205 C   0  0  0  0  0  0  0  0  0  0  0  0
   -0.6574   -4.4683    3.4568 O   0  0  0  0  0  0  0  0  0  0  0  0
   -0.4935   -2.9859    5.2760 C   0  0  0  0  0  0  0  0  0  0  0  0
   -1.4789   -2.8689    5.7550 H   0  0  0  0  0  0  0  0  0  0  0  0
    0.0123   -3.7847    5.8419 H   0  0  0  0  0  0  0  0  0  0  0  0
    0.0585   -2.0642    5.5199 H   0  0  0  0  0  0  0  0  0  0  0  0
   -0.6261   -2.1849    2.9917 N   0  0  0  0  0  0  0  0  0  0  0  0
   -0.7237   -2.2601    1.5650 C   0  0  2  0  0  0  0  0  0  0  0  0
    0.1695   -1.1513    1.0687 C   0  0  0  0  0  0  0  0  0  0  0  0
    0.3193   -0.1267    1.7365 O   0  0  0  0  0  0  0  0  0  0  0  0
   -2.1397   -2.0663    1.0750 C   0  0  0  0  0  0  0  0  0  0  0  0
   -0.5717   -1.2606    3.4238 H   0  0  0  0  0  0  0  0  0  0  0  0
   -0.3076   -3.2111    1.2363 H   0  0  0  0  0  0  0  0  0  0  0  0
   -2.5584   -1.1089    1.4061 H   0  0  0  0  0  0  0  0  0  0  0  0
   -2.1682   -2.0790   -0.0197 H   0  0  0  0  0  0  0  0  0  0  0  0
   -2.7965   -2.8601    1.4459 H   0  0  0  0  0  0  0  0  0  0  0  0
    0.7724   -1.3745   -0.1593 N   0  0  0  0  0  0  0  0  0  0  0  0
    1.6644   -0.4046   -0.7812 C   0  0  2  0  0  0  0  0  0  0  0  0
    0.8166    0.4953   -1.6290 C   0  0  0  0  0  0  0  0  0  0  0  0
    1.3437    1.4041   -2.2598 O   0  0  0  0  0  0  0  0  0  0  0  0
    2.6195   -1.2417   -1.6241 C   0  0  0  0  0  0  0  0  0  0  0  0
    2.1758   -2.2356   -0.5535 C   0  0  0  0  0  0  0  0  0  0  0  0
    0.7499   -2.6270   -0.9105 C   0  0  0  0  0  0  0  0  0  0  0  0
    2.1745    0.2007   -0.0258 H   0  0  0  0  0  0  0  0  0  0  0  0
    3.6296   -0.8175   -1.5784 H   0  0  0  0  0  0  0  0  0  0  0  0
    2.3218   -1.3211   -2.6742 H   0  0  0  0  0  0  0  0  0  0  0  0
    2.8084   -3.1304   -0.5781 H   0  0  0  0  0  0  0  0  0  0  0  0
    2.2249   -1.8085    0.4522 H   0  0  0  0  0  0  0  0  0  0  0  0
    0.5944   -2.7143   -1.9893 H   0  0  0  0  0  0  0  0  0  0  0  0
    0.4645   -3.5695   -0.4308 H   0  0  0  0  0  0  0  0  0  0  0  0
   -0.6354   -0.0475   -1.4348 N   0  0  0  0  0  0  0  0  0  0  0  0
   -1.7414    0.4952   -2.1906 C   0  0  2  0  0  0  0  0  0  0  0  0
   -1.5371    0.1262   -3.6540 C   0  0  0  0  0  0  0  0  0  0  0  0
   -0.4381   -0.1540   -4.1280 O   0  0  0  0  0  0  0  0  0  0  0  0
   -1.8418    2.0030   -2.0191 C   0  0  0  0  0  0  0  0  0  0  0  0
   -0.8376   -0.6965   -0.6803 H   0  0  0  0  0  0  0  0  0  0  0  0
   -2.6493    0.0110   -1.8145 H   0  0  0  0  0  0  0  0  0  0  0  0
   -0.9411    2.5054   -2.3904 H   0  0  0  0  0  0  0  0  0  0  0  0
   -2.6972    2.4088   -2.5693 H   0  0  0  0  0  0  0  0  0  0  0  0
   -1.9588    2.2681   -0.9628 H   0  0  0  0  0  0  0  0  0  0  0  0
   -2.7196    0.1885   -4.3779 N   0  0  0  0  0  0  0  0  0  0  0  0
   -2.7853   -0.1049   -5.7905 C   0  0  0  0  0  0  0  0  0  0  0  0
   -3.5874    0.4112   -3.8992 H   0  0  0  0  0  0  0  0  0  0  0  0
   -2.6628    0.8252   -6.3649 H   0  0  0  0  0  0  0  0  0  0  0  0
   -1.9825   -0.8083   -6.0565 H   0  0  0  0  0  0  0  0  0  0  0  0
   -3.7606   -0.5556   -6.0263 H   0  0  0  0  0  0  0  0  0  0  0  0
 18 19  1  0  0  0  0
 19 31  1  0  0  0  0
 19 20  2  0  0  0  0
  8  9  1  0  0  0  0
  9 17  1  0  0  0  0
  9 10  2  0  0  0  0
  1  3  1  0  0  0  0
  1  7  1  0  0  0  0
  1  2  2  0  0  0  0
 32 33  1  0  0  0  0
 33 41  1  0  0  0  0
 33 34  2  0  0  0  0
 21 22  1  0  0  0  0
 22 23  1  0  0  0  0
 18 21  1  0  0  0  0
 17 23  1  0  0  0  0
 17 18  1  0  0  0  0
  8 11  1  0  0  0  0
 32 35  1  0  0  0  0
 41 42  1  0  0  0  0
  7  8  1  0  0  0  0
 31 32  1  0  0  0  0
 22 27  1  0  0  0  0
 22 28  1  0  0  0  0
 21 25  1  0  0  0  0
 21 26  1  0  0  0  0
 23 29  1  0  0  0  0
 23 30  1  0  0  0  0
 18 24  1  0  0  0  0
  3  4  1  0  0  0  0
  3  5  1  0  0  0  0
  3  6  1  0  0  0  0
 11 14  1  0  0  0  0
 11 15  1  0  0  0  0
 11 16  1  0  0  0  0
 35 38  1  0  0  0  0
 35 39  1  0  0  0  0
 35 40  1  0  0  0  0
 42 44  1  0  0  0  0
 42 45  1  0  0  0  0
 42 46  1  0  0  0  0
  8 13  1  0  0  0  0
 32 37  1  0  0  0  0
 31 36  1  0  0  0  0
 41 43  1  0  0  0  0
  7 12  1  0  0  0  0
M  END
$$$$

  -OEChem-05262214473D

 46 46  0     1  0  0  0  0  0999 V2000
   -0.6012   -3.2995    3.8205 C   0  0  0  0  0  0  0  0  0  0  0  0
   -0.6574   -4.4683    3.4568 O   0  0  0  0  0  0  0  0  0  0  0  0
   -0.4935   -2.9859    5.2760 C   0  0  0  0  0  0  0  0  0  0  0  0
   -1.4789   -2.8689    5.7550 H   0  0  0  0  0  0  0  0  0  0  0  0
    0.0123   -3.7847    5.8419 H   0  0  0  0  0  0  0  0  0  0  0  0
    0.0585   -2.0642    5.5199 H   0  0  0  0  0  0  0  0  0  0  0  0
   -0.6261   -2.1849    2.9917 N   0  0  0  0  0  0  0  0  0  0  0  0
   -0.7237   -2.2601    1.5650 C   0  0  2  0  0  0  0  0  0  0  0  0
    0.1695   -1.1513    1.0687 C   0  0  0  0  0  0  0  0  0  0  0  0
    0.3193   -0.1267    1.7365 O   0  0  0  0  0  0  0  0  0  0  0  0
   -2.1397   -2.0663    1.0750 C   0  0  0  0  0  0  0  0  0  0  0  0
   -0.5717   -1.2606    3.4238 H   0  0  0  0  0  0  0  0  0  0  0  0
   -0.3076   -3.2111    1.2363 H   0  0  0  0  0  0  0  0  0  0  0  0
   -2.5584   -1.1089    1.4061 H   0  0  0  0  0  0  0  0  0  0  0  0
   -2.1682   -2.0790   -0.0197 H   0  0  0  0  0  0  0  0  0  0  0  0
   -2.7965   -2.8601    1.4459 H   0  0  0  0  0  0  0  0  0  0  0  0
    0.7724   -1.3745   -0.1593 N   0  0  0  0  0  0  0  0  0  0  0  0
    1.6644   -0.4046   -0.7812 C   0  0  2  0  0  0  0  0  0  0  0  0
    0.8166    0.4953   -1.6290 C   0  0  0  0  0  0  0  0  0  0  0  0
    1.3491    1.2160   -2.4649 O   0  0  0  0  0  0  0  0  0  0  0  0
    2.6195   -1.2417   -1.6241 C   0  0  0  0  0  0  0  0  0  0  0  0
    2.1758   -2.2356   -0.5535 C   0  0  0  0  0  0  0  0  0  0  0  0
    0.7499   -2.6270   -0.9105 C   0  0  0  0  0  0  0  0  0  0  0  0
    2.1745    0.2007   -0.0258 H   0  0  0  0  0  0  0  0  0  0  0  0
    3.6296   -0.8175   -1.5784 H   0  0  0  0  0  0  0  0  0  0  0  0
    2.3218   -1.3211   -2.6742 H   0  0  0  0  0  0  0  0  0  0  0  0
    2.8084   -3.1304   -0.5781 H   0  0  0  0  0  0  0  0  0  0  0  0
    2.2249   -1.8085    0.4522 H   0  0  0  0  0  0  0  0  0  0  0  0
    0.5944   -2.7143   -1.9893 H   0  0  0  0  0  0  0  0  0  0  0  0
    0.4645   -3.5695   -0.4308 H   0  0  0  0  0  0  0  0  0  0  0  0
   -0.6426    0.2198   -1.1438 N   0  0  0  0  0  0  0  0  0  0  0  0
   -1.7755    0.8235   -1.8080 C   0  0  2  0  0  0  0  0  0  0  0  0
   -1.8690    0.2330   -3.2087 C   0  0  0  0  0  0  0  0  0  0  0  0
   -0.9120   -0.2785   -3.7863 O   0  0  0  0  0  0  0  0  0  0  0  0
   -1.6418    2.3374   -1.8641 C   0  0  0  0  0  0  0  0  0  0  0  0
   -0.8022   -0.2814   -0.2751 H   0  0  0  0  0  0  0  0  0  0  0  0
   -2.6650    0.5440   -1.2330 H   0  0  0  0  0  0  0  0  0  0  0  0
   -0.7560    2.6366   -2.4362 H   0  0  0  0  0  0  0  0  0  0  0  0
   -2.5141    2.7953   -2.3420 H   0  0  0  0  0  0  0  0  0  0  0  0
   -1.5447    2.7576   -0.8573 H   0  0  0  0  0  0  0  0  0  0  0  0
   -3.1361    0.3831   -3.7548 N   0  0  0  0  0  0  0  0  0  0  0  0
   -3.4747   -0.0840   -5.0789 C   0  0  0  0  0  0  0  0  0  0  0  0
   -3.8741    0.8025   -3.1971 H   0  0  0  0  0  0  0  0  0  0  0  0
   -3.3252    0.7292   -5.8045 H   0  0  0  0  0  0  0  0  0  0  0  0
   -2.8295   -0.9347   -5.3436 H   0  0  0  0  0  0  0  0  0  0  0  0
   -4.5274   -0.4025   -5.0971 H   0  0  0  0  0  0  0  0  0  0  0  0
 18 19  1  0  0  0  0
 19 31  1  0  0  0  0
 19 20  2  0  0  0  0
  8  9  1  0  0  0  0
  9 17  1  0  0  0  0
  9 10  2  0  0  0  0
  1  3  1  0  0  0  0
  1  7  1  0  0  0  0
  1  2  2  0  0  0  0
 32 33  1  0  0  0  0
 33 41  1  0  0  0  0
 33 34  2  0  0  0  0
 21 22  1  0  0  0  0
 22 23  1  0  0  0  0
 18 21  1  0  0  0  0
 17 23  1  0  0  0  0
 17 18  1  0  0  0  0
  8 11  1  0  0  0  0
 32 35  1  0  0  0  0
 41 42  1  0  0  0  0
  7  8  1  0  0  0  0
 31 32  1  0  0  0  0
 22 27  1  0  0  0  0
 22 28  1  0  0  0  0
 21 25  1  0  0  0  0
 21 26  1  0  0  0  0
 23 29  1  0  0  0  0
 23 30  1  0  0  0  0
 18 24  1  0  0  0  0
  3  4  1  0  0  0  0
  3  5  1  0  0  0  0
  3  6  1  0  0  0  0
 11 14  1  0  0  0  0
 11 15  1  0  0  0  0
 11 16  1  0  0  0  0
 35 38  1  0  0  0  0
 35 39  1  0  0  0  0
 35 40  1  0  0  0  0
 42 44  1  0  0  0  0
 42 45  1  0  0  0  0
 42 46  1  0  0  0  0
  8 13  1  0  0  0  0
 32 37  1  0  0  0  0
 31 36  1  0  0  0  0
 41 43  1  0  0  0  0
  7 12  1  0  0  0  0
M  END
$$$$

  -OEChem-05262214473D

 46 46  0     1  0  0  0  0  0999 V2000
   -0.6012   -3.2995    3.8205 C   0  0  0  0  0  0  0  0  0  0  0  0
   -0.6574   -4.4683    3.4568 O   0  0  0  0  0  0  0  0  0  0  0  0
   -0.4935   -2.9859    5.2760 C   0  0  0  0  0  0  0  0  0  0  0  0
   -1.4789   -2.8689    5.7550 H   0  0  0  0  0  0  0  0  0  0  0  0
    0.0123   -3.7847    5.8419 H   0  0  0  0  0  0  0  0  0  0  0  0
    0.0585   -2.0642    5.5199 H   0  0  0  0  0  0  0  0  0  0  0  0
   -0.6261   -2.1849    2.9917 N   0  0  0  0  0  0  0  0  0  0  0  0
   -0.7237   -2.2601    1.5650 C   0  0  2  0  0  0  0  0  0  0  0  0
    0.1695   -1.1513    1.0687 C   0  0  0  0  0  0  0  0  0  0  0  0
    0.3193   -0.1267    1.7365 O   0  0  0  0  0  0  0  0  0  0  0  0
   -2.1397   -2.0663    1.0750 C   0  0  0  0  0  0  0  0  0  0  0  0
   -0.5717   -1.2606    3.4238 H   0  0  0  0  0  0  0  0  0  0  0  0
   -0.3076   -3.2111    1.2363 H   0  0  0  0  0  0  0  0  0  0  0  0
   -2.5584   -1.1089    1.4061 H   0  0  0  0  0  0  0  0  0  0  0  0
   -2.1682   -2.0790   -0.0197 H   0  0  0  0  0  0  0  0  0  0  0  0
   -2.7965   -2.8601    1.4459 H   0  0  0  0  0  0  0  0  0  0  0  0
    0.7724   -1.3745   -0.1593 N   0  0  0  0  0  0  0  0  0  0  0  0
    1.6644   -0.4046   -0.7812 C   0  0  2  0  0  0  0  0  0  0  0  0
    0.8166    0.4953   -1.6290 C   0  0  0  0  0  0  0  0  0  0  0  0
    1.2950    1.0035   -2.6363 O   0  0  0  0  0  0  0  0  0  0  0  0
    2.6195   -1.2417   -1.6241 C   0  0  0  0  0  0  0  0  0  0  0  0
    2.1758   -2.2356   -0.5535 C   0  0  0  0  0  0  0  0  0  0  0  0
    0.7499   -2.6270   -0.9105 C   0  0  0  0  0  0  0  0  0  0  0  0
    2.1745    0.2007   -0.0258 H   0  0  0  0  0  0  0  0  0  0  0  0
    3.6296   -0.8175   -1.5784 H   0  0  0  0  0  0  0  0  0  0  0  0
    2.3218   -1.3211   -2.6742 H   0  0  0  0  0  0  0  0  0  0  0  0
    2.8084   -3.1304   -0.5781 H   0  0  0  0  0  0  0  0  0  0  0  0
    2.2249   -1.8085    0.4522 H   0  0  0  0  0  0  0  0  0  0  0  0
    0.5944   -2.7143   -1.9893 H   0  0  0  0  0  0  0  0  0  0  0  0
    0.4645   -3.5695   -0.4308 H   0  0  0  0  0  0  0  0  0  0  0  0
   -0.5653    0.5217   -0.9007 N   0  0  0  0  0  0  0  0  0  0  0  0
   -1.7009    1.2016   -1.4812 C   0  0  2  0  0  0  0  0  0  0  0  0
   -2.1048    0.4499   -2.7427 C   0  0  0  0  0  0  0  0  0  0  0  0
   -1.3350   -0.2795   -3.3643 O   0  0  0  0  0  0  0  0  0  0  0  0
   -1.3756    2.6538   -1.7944 C   0  0  0  0  0  0  0  0  0  0  0  0
   -0.6443    0.1737    0.0501 H   0  0  0  0  0  0  0  0  0  0  0  0
   -2.5120    1.1462   -0.7469 H   0  0  0  0  0  0  0  0  0  0  0  0
   -0.5651    2.7295   -2.5285 H   0  0  0  0  0  0  0  0  0  0  0  0
   -2.2455    3.1751   -2.2076 H   0  0  0  0  0  0  0  0  0  0  0  0
   -1.0567    3.1853   -0.8913 H   0  0  0  0  0  0  0  0  0  0  0  0
   -3.4130    0.7233   -3.1168 N   0  0  0  0  0  0  0  0  0  0  0  0
   -4.0269    0.1414   -4.2875 C   0  0  0  0  0  0  0  0  0  0  0  0
   -3.9847    1.3253   -2.5316 H   0  0  0  0  0  0  0  0  0  0  0  0
   -3.8919    0.8153   -5.1463 H   0  0  0  0  0  0  0  0  0  0  0  0
   -3.5554   -0.8284   -4.5049 H   0  0  0  0  0  0  0  0  0  0  0  0
   -5.1012   -0.0065   -4.1029 H   0  0  0  0  0  0  0  0  0  0  0  0
 18 19  1  0  0  0  0
 19 31  1  0  0  0  0
 19 20  2  0  0  0  0
  8  9  1  0  0  0  0
  9 17  1  0  0  0  0
  9 10  2  0  0  0  0
  1  3  1  0  0  0  0
  1  7  1  0  0  0  0
  1  2  2  0  0  0  0
 32 33  1  0  0  0  0
 33 41  1  0  0  0  0
 33 34  2  0  0  0  0
 21 22  1  0  0  0  0
 22 23  1  0  0  0  0
 18 21  1  0  0  0  0
 17 23  1  0  0  0  0
 17 18  1  0  0  0  0
  8 11  1  0  0  0  0
 32 35  1  0  0  0  0
 41 42  1  0  0  0  0
  7  8  1  0  0  0  0
 31 32  1  0  0  0  0
 22 27  1  0  0  0  0
 22 28  1  0  0  0  0
 21 25  1  0  0  0  0
 21 26  1  0  0  0  0
 23 29  1  0  0  0  0
 23 30  1  0  0  0  0
 18 24  1  0  0  0  0
  3  4  1  0  0  0  0
  3  5  1  0  0  0  0
  3  6  1  0  0  0  0
 11 14  1  0  0  0  0
 11 15  1  0  0  0  0
 11 16  1  0  0  0  0
 35 38  1  0  0  0  0
 35 39  1  0  0  0  0
 35 40  1  0  0  0  0
 42 44  1  0  0  0  0
 42 45  1  0  0  0  0
 42 46  1  0  0  0  0
  8 13  1  0  0  0  0
 32 37  1  0  0  0  0
 31 36  1  0  0  0  0
 41 43  1  0  0  0  0
  7 12  1  0  0  0  0
M  END
$$$$

  -OEChem-05262214473D

 46 46  0     1  0  0  0  0  0999 V2000
   -0.6012   -3.2995    3.8205 C   0  0  0  0  0  0  0  0  0  0  0  0
   -0.6574   -4.4683    3.4568 O   0  0  0  0  0  0  0  0  0  0  0  0
   -0.4935   -2.9859    5.2760 C   0  0  0  0  0  0  0  0  0  0  0  0
   -1.4789   -2.8689    5.7550 H   0  0  0  0  0  0  0  0  0  0  0  0
    0.0123   -3.7847    5.8419 H   0  0  0  0  0  0  0  0  0  0  0  0
    0.0585   -2.0642    5.5199 H   0  0  0  0  0  0  0  0  0  0  0  0
   -0.6261   -2.1849    2.9917 N   0  0  0  0  0  0  0  0  0  0  0  0
   -0.7237   -2.2601    1.5650 C   0  0  2  0  0  0  0  0  0  0  0  0
    0.1695   -1.1513    1.0687 C   0  0  0  0  0  0  0  0  0  0  0  0
    0.3193   -0.1267    1.7365 O   0  0  0  0  0  0  0  0  0  0  0  0
   -2.1397   -2.0663    1.0750 C   0  0  0  0  0  0  0  0  0  0  0  0
   -0.5717   -1.2606    3.4238 H   0  0  0  0  0  0  0  0  0  0  0  0
   -0.3076   -3.2111    1.2363 H   0  0  0  0  0  0  0  0  0  0  0  0
   -2.5584   -1.1089    1.4061 H   0  0  0  0  0  0  0  0  0  0  0  0
   -2.1682   -2.0790   -0.0197 H   0  0  0  0  0  0  0  0  0  0  0  0
   -2.7965   -2.8601    1.4459 H   0  0  0  0  0  0  0  0  0  0  0  0
    0.7724   -1.3745   -0.1593 N   0  0  0  0  0  0  0  0  0  0  0  0
    1.6644   -0.4046   -0.7812 C   0  0  2  0  0  0  0  0  0  0  0  0
    0.8166    0.4953   -1.6290 C   0  0  0  0  0  0  0  0  0  0  0  0
    1.1849    0.7811   -2.7623 O   0  0  0  0  0  0  0  0  0  0  0  0
    2.6195   -1.2417   -1.6241 C   0  0  0  0  0  0  0  0  0  0  0  0
    2.1758   -2.2356   -0.5535 C   0  0  0  0  0  0  0  0  0  0  0  0
    0.7499   -2.6270   -0.9105 C   0  0  0  0  0  0  0  0  0  0  0  0
    2.1745    0.2007   -0.0258 H   0  0  0  0  0  0  0  0  0  0  0  0
    3.6296   -0.8175   -1.5784 H   0  0  0  0  0  0  0  0  0  0  0  0
    2.3218   -1.3211   -2.6742 H   0  0  0  0  0  0  0  0  0  0  0  0
    2.8084   -3.1304   -0.5781 H   0  0  0  0  0  0  0  0  0  0  0  0
    2.2249   -1.8085    0.4522 H   0  0  0  0  0  0  0  0  0  0  0  0
    0.5944   -2.7143   -1.9893 H   0  0  0  0  0  0  0  0  0  0  0  0
    0.4645   -3.5695   -0.4308 H   0  0  0  0  0  0  0  0  0  0  0  0
   -0.4086    0.8375   -0.7221 N   0  0  0  0  0  0  0  0  0  0  0  0
   -1.5228    1.6038   -1.2324 C   0  0  2  0  0  0  0  0  0  0  0  0
   -2.2284    0.7622   -2.2876 C   0  0  0  0  0  0  0  0  0  0  0  0
   -1.6781   -0.1567   -2.8909 O   0  0  0  0  0  0  0  0  0  0  0  0
   -1.0613    2.9307   -1.8148 C   0  0  0  0  0  0  0  0  0  0  0  0
   -0.3746    0.6378    0.2730 H   0  0  0  0  0  0  0  0  0  0  0  0
   -2.2004    1.7766   -0.3892 H   0  0  0  0  0  0  0  0  0  0  0  0
   -0.3815    2.7777   -2.6609 H   0  0  0  0  0  0  0  0  0  0  0  0
   -1.9095    3.5223   -2.1750 H   0  0  0  0  0  0  0  0  0  0  0  0
   -0.5280    3.5220   -1.0626 H   0  0  0  0  0  0  0  0  0  0  0  0
   -3.5316    1.1857   -2.5072 N   0  0  0  0  0  0  0  0  0  0  0  0
   -4.4044    0.5557   -3.4702 C   0  0  0  0  0  0  0  0  0  0  0  0
   -3.9116    1.9438   -1.9481 H   0  0  0  0  0  0  0  0  0  0  0  0
   -4.3245    1.0779   -4.4351 H   0  0  0  0  0  0  0  0  0  0  0  0
   -4.1107   -0.4967   -3.5976 H   0  0  0  0  0  0  0  0  0  0  0  0
   -5.4430    0.6056   -3.1113 H   0  0  0  0  0  0  0  0  0  0  0  0
 18 19  1  0  0  0  0
 19 31  1  0  0  0  0
 19 20  2  0  0  0  0
  8  9  1  0  0  0  0
  9 17  1  0  0  0  0
  9 10  2  0  0  0  0
  1  3  1  0  0  0  0
  1  7  1  0  0  0  0
  1  2  2  0  0  0  0
 32 33  1  0  0  0  0
 33 41  1  0  0  0  0
 33 34  2  0  0  0  0
 21 22  1  0  0  0  0
 22 23  1  0  0  0  0
 18 21  1  0  0  0  0
 17 23  1  0  0  0  0
 17 18  1  0  0  0  0
  8 11  1  0  0  0  0
 32 35  1  0  0  0  0
 41 42  1  0  0  0  0
  7  8  1  0  0  0  0
 31 32  1  0  0  0  0
 22 27  1  0  0  0  0
 22 28  1  0  0  0  0
 21 25  1  0  0  0  0
 21 26  1  0  0  0  0
 23 29  1  0  0  0  0
 23 30  1  0  0  0  0
 18 24  1  0  0  0  0
  3  4  1  0  0  0  0
  3  5  1  0  0  0  0
  3  6  1  0  0  0  0
 11 14  1  0  0  0  0
 11 15  1  0  0  0  0
 11 16  1  0  0  0  0
 35 38  1  0  0  0  0
 35 39  1  0  0  0  0
 35 40  1  0  0  0  0
 42 44  1  0  0  0  0
 42 45  1  0  0  0  0
 42 46  1  0  0  0  0
  8 13  1  0  0  0  0
 32 37  1  0  0  0  0
 31 36  1  0  0  0  0
 41 43  1  0  0  0  0
  7 12  1  0  0  0  0
M  END
$$$$

  -OEChem-05262214473D

 46 46  0     1  0  0  0  0  0999 V2000
   -0.6012   -3.2995    3.8205 C   0  0  0  0  0  0  0  0  0  0  0  0
   -0.6574   -4.4683    3.4568 O   0  0  0  0  0  0  0  0  0  0  0  0
   -0.4935   -2.9859    5.2760 C   0  0  0  0  0  0  0  0  0  0  0  0
   -1.4789   -2.8689    5.7550 H   0  0  0  0  0  0  0  0  0  0  0  0
    0.0123   -3.7847    5.8419 H   0  0  0  0  0  0  0  0  0  0  0  0
    0.0585   -2.0642    5.5199 H   0  0  0  0  0  0  0  0  0  0  0  0
   -0.6261   -2.1849    2.9917 N   0  0  0  0  0  0  0  0  0  0  0  0
   -0.7237   -2.2601    1.5650 C   0  0  2  0  0  0  0  0  0  0  0  0
    0.1695   -1.1513    1.0687 C   0  0  0  0  0  0  0  0  0  0  0  0
    0.3193   -0.1267    1.7365 O   0  0  0  0  0  0  0  0  0  0  0  0
   -2.1397   -2.0663    1.0750 C   0  0  0  0  0  0  0  0  0  0  0  0
   -0.5717   -1.2606    3.4238 H   0  0  0  0  0  0  0  0  0  0  0  0
   -0.3076   -3.2111    1.2363 H   0  0  0  0  0  0  0  0  0  0  0  0
   -2.5584   -1.1089    1.4061 H   0  0  0  0  0  0  0  0  0  0  0  0
   -2.1682   -2.0790   -0.0197 H   0  0  0  0  0  0  0  0  0  0  0  0
   -2.7965   -2.8601    1.4459 H   0  0  0  0  0  0  0  0  0  0  0  0
    0.7724   -1.3745   -0.1593 N   0  0  0  0  0  0  0  0  0  0  0  0
    1.6644   -0.4046   -0.7812 C   0  0  2  0  0  0  0  0  0  0  0  0
    0.8166    0.4953   -1.6290 C   0  0  0  0  0  0  0  0  0  0  0  0
    1.0265    0.5640   -2.8344 O   0  0  0  0  0  0  0  0  0  0  0  0
    2.6195   -1.2417   -1.6241 C   0  0  0  0  0  0  0  0  0  0  0  0
    2.1758   -2.2356   -0.5535 C   0  0  0  0  0  0  0  0  0  0  0  0
    0.7499   -2.6270   -0.9105 C   0  0  0  0  0  0  0  0  0  0  0  0
    2.1745    0.2007   -0.0258 H   0  0  0  0  0  0  0  0  0  0  0  0
    3.6296   -0.8175   -1.5784 H   0  0  0  0  0  0  0  0  0  0  0  0
    2.3218   -1.3211   -2.6742 H   0  0  0  0  0  0  0  0  0  0  0  0
    2.8084   -3.1304   -0.5781 H   0  0  0  0  0  0  0  0  0  0  0  0
    2.2249   -1.8085    0.4522 H   0  0  0  0  0  0  0  0  0  0  0  0
    0.5944   -2.7143   -1.9893 H   0  0  0  0  0  0  0  0  0  0  0  0
    0.4645   -3.5695   -0.4308 H   0  0  0  0  0  0  0  0  0  0  0  0
   -0.1833    1.1458   -0.6202 N   0  0  0  0  0  0  0  0  0  0  0  0
   -1.2532    2.0025   -1.0787 C   0  0  2  0  0  0  0  0  0  0  0  0
   -2.2313    1.1485   -1.8746 C   0  0  0  0  0  0  0  0  0  0  0  0
   -1.9180    0.0814   -2.3982 O   0  0  0  0  0  0  0  0  0  0  0  0
   -0.7204    3.1491   -1.9238 C   0  0  0  0  0  0  0  0  0  0  0  0
   -0.0116    1.0792    0.3785 H   0  0  0  0  0  0  0  0  0  0  0  0
   -1.7516    2.3923   -0.1844 H   0  0  0  0  0  0  0  0  0  0  0  0
   -0.2176    2.7781   -2.8244 H   0  0  0  0  0  0  0  0  0  0  0  0
   -1.5290    3.8132   -2.2466 H   0  0  0  0  0  0  0  0  0  0  0  0
    0.0053    3.7447   -1.3595 H   0  0  0  0  0  0  0  0  0  0  0  0
   -3.4838    1.7390   -1.9677 N   0  0  0  0  0  0  0  0  0  0  0  0
   -4.5814    1.1307   -2.6828 C   0  0  0  0  0  0  0  0  0  0  0  0
   -3.6598    2.6160   -1.4863 H   0  0  0  0  0  0  0  0  0  0  0  0
   -4.5933    1.4988   -3.7193 H   0  0  0  0  0  0  0  0  0  0  0  0
   -4.4575    0.0377   -2.6834 H   0  0  0  0  0  0  0  0  0  0  0  0
   -5.5295    1.3920   -2.1900 H   0  0  0  0  0  0  0  0  0  0  0  0
 18 19  1  0  0  0  0
 19 31  1  0  0  0  0
 19 20  2  0  0  0  0
  8  9  1  0  0  0  0
  9 17  1  0  0  0  0
  9 10  2  0  0  0  0
  1  3  1  0  0  0  0
  1  7  1  0  0  0  0
  1  2  2  0  0  0  0
 32 33  1  0  0  0  0
 33 41  1  0  0  0  0
 33 34  2  0  0  0  0
 21 22  1  0  0  0  0
 22 23  1  0  0  0  0
 18 21  1  0  0  0  0
 17 23  1  0  0  0  0
 17 18  1  0  0  0  0
  8 11  1  0  0  0  0
 32 35  1  0  0  0  0
 41 42  1  0  0  0  0
  7  8  1  0  0  0  0
 31 32  1  0  0  0  0
 22 27  1  0  0  0  0
 22 28  1  0  0  0  0
 21 25  1  0  0  0  0
 21 26  1  0  0  0  0
 23 29  1  0  0  0  0
 23 30  1  0  0  0  0
 18 24  1  0  0  0  0
  3  4  1  0  0  0  0
  3  5  1  0  0  0  0
  3  6  1  0  0  0  0
 11 14  1  0  0  0  0
 11 15  1  0  0  0  0
 11 16  1  0  0  0  0
 35 38  1  0  0  0  0
 35 39  1  0  0  0  0
 35 40  1  0  0  0  0
 42 44  1  0  0  0  0
 42 45  1  0  0  0  0
 42 46  1  0  0  0  0
  8 13  1  0  0  0  0
 32 37  1  0  0  0  0
 31 36  1  0  0  0  0
 41 43  1  0  0  0  0
  7 12  1  0  0  0  0
M  END
$$$$

  -OEChem-05262214473D

 46 46  0     1  0  0  0  0  0999 V2000
   -0.6012   -3.2995    3.8205 C   0  0  0  0  0  0  0  0  0  0  0  0
   -0.6574   -4.4683    3.4568 O   0  0  0  0  0  0  0  0  0  0  0  0
   -0.4935   -2.9859    5.2760 C   0  0  0  0  0  0  0  0  0  0  0  0
   -1.4789   -2.8689    5.7550 H   0  0  0  0  0  0  0  0  0  0  0  0
    0.0123   -3.7847    5.8419 H   0  0  0  0  0  0  0  0  0  0  0  0
    0.0585   -2.0642    5.5199 H   0  0  0  0  0  0  0  0  0  0  0  0
   -0.6261   -2.1849    2.9917 N   0  0  0  0  0  0  0  0  0  0  0  0
   -0.7237   -2.2601    1.5650 C   0  0  2  0  0  0  0  0  0  0  0  0
    0.1695   -1.1513    1.0687 C   0  0  0  0  0  0  0  0  0  0  0  0
    0.3193   -0.1267    1.7365 O   0  0  0  0  0  0  0  0  0  0  0  0
   -2.1397   -2.0663    1.0750 C   0  0  0  0  0  0  0  0  0  0  0  0
   -0.5717   -1.2606    3.4238 H   0  0  0  0  0  0  0  0  0  0  0  0
   -0.3076   -3.2111    1.2363 H   0  0  0  0  0  0  0  0  0  0  0  0
   -2.5584   -1.1089    1.4061 H   0  0  0  0  0  0  0  0  0  0  0  0
   -2.1682   -2.0790   -0.0197 H   0  0  0  0  0  0  0  0  0  0  0  0
   -2.7965   -2.8601    1.4459 H   0  0  0  0  0  0  0  0  0  0  0  0
    0.7724   -1.3745   -0.1593 N   0  0  0  0  0  0  0  0  0  0  0  0
    1.6644   -0.4046   -0.7812 C   0  0  2  0  0  0  0  0  0  0  0  0
    0.8166    0.4953   -1.6290 C   0  0  0  0  0  0  0  0  0  0  0  0
    0.8304    0.3668   -2.8476 O   0  0  0  0  0  0  0  0  0  0  0  0
    2.6195   -1.2417   -1.6241 C   0  0  0  0  0  0  0  0  0  0  0  0
    2.1758   -2.2356   -0.5535 C   0  0  0  0  0  0  0  0  0  0  0  0
    0.7499   -2.6270   -0.9105 C   0  0  0  0  0  0  0  0  0  0  0  0
    2.1745    0.2007   -0.0258 H   0  0  0  0  0  0  0  0  0  0  0  0
    3.6296   -0.8175   -1.5784 H   0  0  0  0  0  0  0  0  0  0  0  0
    2.3218   -1.3211   -2.6742 H   0  0  0  0  0  0  0  0  0  0  0  0
    2.8084   -3.1304   -0.5781 H   0  0  0  0  0  0  0  0  0  0  0  0
    2.2249   -1.8085    0.4522 H   0  0  0  0  0  0  0  0  0  0  0  0
    0.5944   -2.7143   -1.9893 H   0  0  0  0  0  0  0  0  0  0  0  0
    0.4645   -3.5695   -0.4308 H   0  0  0  0  0  0  0  0  0  0  0  0
    0.0953    1.4255   -0.6019 N   0  0  0  0  0  0  0  0  0  0  0  0
   -0.9106    2.3708   -1.0305 C   0  0  2  0  0  0  0  0  0  0  0  0
   -2.1135    1.5825   -1.5317 C   0  0  0  0  0  0  0  0  0  0  0  0
   -2.0383    0.4186   -1.9200 O   0  0  0  0  0  0  0  0  0  0  0  0
   -0.3761    3.2943   -2.1140 C   0  0  0  0  0  0  0  0  0  0  0  0
    0.4201    1.4679    0.3594 H   0  0  0  0  0  0  0  0  0  0  0  0
   -1.1962    2.9512   -0.1465 H   0  0  0  0  0  0  0  0  0  0  0  0
   -0.0847    2.7306   -3.0078 H   0  0  0  0  0  0  0  0  0  0  0  0
   -1.1301    4.0281   -2.4174 H   0  0  0  0  0  0  0  0  0  0  0  0
    0.5069    3.8384   -1.7617 H   0  0  0  0  0  0  0  0  0  0  0  0
   -3.2728    2.3455   -1.5350 N   0  0  0  0  0  0  0  0  0  0  0  0
   -4.5458    1.8273   -1.9788 C   0  0  0  0  0  0  0  0  0  0  0  0
   -3.2465    3.2960   -1.1778 H   0  0  0  0  0  0  0  0  0  0  0  0
   -4.6802    2.0496   -3.0477 H   0  0  0  0  0  0  0  0  0  0  0  0
   -4.5723    0.7385   -1.8247 H   0  0  0  0  0  0  0  0  0  0  0  0
   -5.3548    2.2991   -1.4018 H   0  0  0  0  0  0  0  0  0  0  0  0
 18 19  1  0  0  0  0
 19 31  1  0  0  0  0
 19 20  2  0  0  0  0
  8  9  1  0  0  0  0
  9 17  1  0  0  0  0
  9 10  2  0  0  0  0
  1  3  1  0  0  0  0
  1  7  1  0  0  0  0
  1  2  2  0  0  0  0
 32 33  1  0  0  0  0
 33 41  1  0  0  0  0
 33 34  2  0  0  0  0
 21 22  1  0  0  0  0
 22 23  1  0  0  0  0
 18 21  1  0  0  0  0
 17 23  1  0  0  0  0
 17 18  1  0  0  0  0
  8 11  1  0  0  0  0
 32 35  1  0  0  0  0
 41 42  1  0  0  0  0
  7  8  1  0  0  0  0
 31 32  1  0  0  0  0
 22 27  1  0  0  0  0
 22 28  1  0  0  0  0
 21 25  1  0  0  0  0
 21 26  1  0  0  0  0
 23 29  1  0  0  0  0
 23 30  1  0  0  0  0
 18 24  1  0  0  0  0
  3  4  1  0  0  0  0
  3  5  1  0  0  0  0
  3  6  1  0  0  0  0
 11 14  1  0  0  0  0
 11 15  1  0  0  0  0
 11 16  1  0  0  0  0
 35 38  1  0  0  0  0
 35 39  1  0  0  0  0
 35 40  1  0  0  0  0
 42 44  1  0  0  0  0
 42 45  1  0  0  0  0
 42 46  1  0  0  0  0
  8 13  1  0  0  0  0
 32 37  1  0  0  0  0
 31 36  1  0  0  0  0
 41 43  1  0  0  0  0
  7 12  1  0  0  0  0
M  END
$$$$

  -OEChem-05262214473D

 46 46  0     1  0  0  0  0  0999 V2000
   -0.6012   -3.2995    3.8205 C   0  0  0  0  0  0  0  0  0  0  0  0
   -0.6574   -4.4683    3.4568 O   0  0  0  0  0  0  0  0  0  0  0  0
   -0.4935   -2.9859    5.2760 C   0  0  0  0  0  0  0  0  0  0  0  0
   -1.4789   -2.8689    5.7550 H   0  0  0  0  0  0  0  0  0  0  0  0
    0.0123   -3.7847    5.8419 H   0  0  0  0  0  0  0  0  0  0  0  0
    0.0585   -2.0642    5.5199 H   0  0  0  0  0  0  0  0  0  0  0  0
   -0.6261   -2.1849    2.9917 N   0  0  0  0  0  0  0  0  0  0  0  0
   -0.7237   -2.2601    1.5650 C   0  0  2  0  0  0  0  0  0  0  0  0
    0.1695   -1.1513    1.0687 C   0  0  0  0  0  0  0  0  0  0  0  0
    0.3193   -0.1267    1.7365 O   0  0  0  0  0  0  0  0  0  0  0  0
   -2.1397   -2.0663    1.0750 C   0  0  0  0  0  0  0  0  0  0  0  0
   -0.5717   -1.2606    3.4238 H   0  0  0  0  0  0  0  0  0  0  0  0
   -0.3076   -3.2111    1.2363 H   0  0  0  0  0  0  0  0  0  0  0  0
   -2.5584   -1.1089    1.4061 H   0  0  0  0  0  0  0  0  0  0  0  0
   -2.1682   -2.0790   -0.0197 H   0  0  0  0  0  0  0  0  0  0  0  0
   -2.7965   -2.8601    1.4459 H   0  0  0  0  0  0  0  0  0  0  0  0
    0.7724   -1.3745   -0.1593 N   0  0  0  0  0  0  0  0  0  0  0  0
    1.6644   -0.4046   -0.7812 C   0  0  2  0  0  0  0  0  0  0  0  0
    0.8166    0.4953   -1.6290 C   0  0  0  0  0  0  0  0  0  0  0  0
    0.6102    0.2032   -2.8011 O   0  0  0  0  0  0  0  0  0  0  0  0
    2.6195   -1.2417   -1.6241 C   0  0  0  0  0  0  0  0  0  0  0  0
    2.1758   -2.2356   -0.5535 C   0  0  0  0  0  0  0  0  0  0  0  0
    0.7499   -2.6270   -0.9105 C   0  0  0  0  0  0  0  0  0  0  0  0
    2.1745    0.2007   -0.0258 H   0  0  0  0  0  0  0  0  0  0  0  0
    3.6296   -0.8175   -1.5784 H   0  0  0  0  0  0  0  0  0  0  0  0
    2.3218   -1.3211   -2.6742 H   0  0  0  0  0  0  0  0  0  0  0  0
    2.8084   -3.1304   -0.5781 H   0  0  0  0  0  0  0  0  0  0  0  0
    2.2249   -1.8085    0.4522 H   0  0  0  0  0  0  0  0  0  0  0  0
    0.5944   -2.7143   -1.9893 H   0  0  0  0  0  0  0  0  0  0  0  0
    0.4645   -3.5695   -0.4308 H   0  0  0  0  0  0  0  0  0  0  0  0
    0.4082    1.6576   -0.6684 N   0  0  0  0  0  0  0  0  0  0  0  0
   -0.5182    2.6833   -1.0910 C   0  0  2  0  0  0  0  0  0  0  0  0
   -1.8828    2.0347   -1.2823 C   0  0  0  0  0  0  0  0  0  0  0  0
   -2.0308    0.8319   -1.4887 O   0  0  0  0  0  0  0  0  0  0  0  0
   -0.0518    3.3563   -2.3725 C   0  0  0  0  0  0  0  0  0  0  0  0
    0.8910    1.7773    0.2170 H   0  0  0  0  0  0  0  0  0  0  0  0
   -0.5720    3.4155   -0.2779 H   0  0  0  0  0  0  0  0  0  0  0  0
    0.0082    2.6383   -3.1986 H   0  0  0  0  0  0  0  0  0  0  0  0
   -0.7398    4.1523   -2.6758 H   0  0  0  0  0  0  0  0  0  0  0  0
    0.9427    3.7965   -2.2419 H   0  0  0  0  0  0  0  0  0  0  0  0
   -2.9130    2.9637   -1.2386 N   0  0  0  0  0  0  0  0  0  0  0  0
   -4.3001    2.5981   -1.4064 C   0  0  0  0  0  0  0  0  0  0  0  0
   -2.6998    3.9375   -1.0436 H   0  0  0  0  0  0  0  0  0  0  0  0
   -4.5792    2.6926   -2.4662 H   0  0  0  0  0  0  0  0  0  0  0  0
   -4.4471    1.5579   -1.0800 H   0  0  0  0  0  0  0  0  0  0  0  0
   -4.9309    3.2651   -0.8003 H   0  0  0  0  0  0  0  0  0  0  0  0
 18 19  1  0  0  0  0
 19 31  1  0  0  0  0
 19 20  2  0  0  0  0
  8  9  1  0  0  0  0
  9 17  1  0  0  0  0
  9 10  2  0  0  0  0
  1  3  1  0  0  0  0
  1  7  1  0  0  0  0
  1  2  2  0  0  0  0
 32 33  1  0  0  0  0
 33 41  1  0  0  0  0
 33 34  2  0  0  0  0
 21 22  1  0  0  0  0
 22 23  1  0  0  0  0
 18 21  1  0  0  0  0
 17 23  1  0  0  0  0
 17 18  1  0  0  0  0
  8 11  1  0  0  0  0
 32 35  1  0  0  0  0
 41 42  1  0  0  0  0
  7  8  1  0  0  0  0
 31 32  1  0  0  0  0
 22 27  1  0  0  0  0
 22 28  1  0  0  0  0
 21 25  1  0  0  0  0
 21 26  1  0  0  0  0
 23 29  1  0  0  0  0
 23 30  1  0  0  0  0
 18 24  1  0  0  0  0
  3  4  1  0  0  0  0
  3  5  1  0  0  0  0
  3  6  1  0  0  0  0
 11 14  1  0  0  0  0
 11 15  1  0  0  0  0
 11 16  1  0  0  0  0
 35 38  1  0  0  0  0
 35 39  1  0  0  0  0
 35 40  1  0  0  0  0
 42 44  1  0  0  0  0
 42 45  1  0  0  0  0
 42 46  1  0  0  0  0
  8 13  1  0  0  0  0
 32 37  1  0  0  0  0
 31 36  1  0  0  0  0
 41 43  1  0  0  0  0
  7 12  1  0  0  0  0
M  END
$$$$

  -OEChem-05262214473D

 46 46  0     1  0  0  0  0  0999 V2000
   -0.6012   -3.2995    3.8205 C   0  0  0  0  0  0  0  0  0  0  0  0
   -0.6574   -4.4683    3.4568 O   0  0  0  0  0  0  0  0  0  0  0  0
   -0.4935   -2.9859    5.2760 C   0  0  0  0  0  0  0  0  0  0  0  0
   -1.4789   -2.8689    5.7550 H   0  0  0  0  0  0  0  0  0  0  0  0
    0.0123   -3.7847    5.8419 H   0  0  0  0  0  0  0  0  0  0  0  0
    0.0585   -2.0642    5.5199 H   0  0  0  0  0  0  0  0  0  0  0  0
   -0.6261   -2.1849    2.9917 N   0  0  0  0  0  0  0  0  0  0  0  0
   -0.7237   -2.2601    1.5650 C   0  0  2  0  0  0  0  0  0  0  0  0
    0.1695   -1.1513    1.0687 C   0  0  0  0  0  0  0  0  0  0  0  0
    0.3193   -0.1267    1.7365 O   0  0  0  0  0  0  0  0  0  0  0  0
   -2.1397   -2.0663    1.0750 C   0  0  0  0  0  0  0  0  0  0  0  0
   -0.5717   -1.2606    3.4238 H   0  0  0  0  0  0  0  0  0  0  0  0
   -0.3076   -3.2111    1.2363 H   0  0  0  0  0  0  0  0  0  0  0  0
   -2.5584   -1.1089    1.4061 H   0  0  0  0  0  0  0  0  0  0  0  0
   -2.1682   -2.0790   -0.0197 H   0  0  0  0  0  0  0  0  0  0  0  0
   -2.7965   -2.8601    1.4459 H   0  0  0  0  0  0  0  0  0  0  0  0
    0.7724   -1.3745   -0.1593 N   0  0  0  0  0  0  0  0  0  0  0  0
    1.6644   -0.4046   -0.7812 C   0  0  2  0  0  0  0  0  0  0  0  0
    0.8166    0.4953   -1.6290 C   0  0  0  0  0  0  0  0  0  0  0  0
    0.3807    0.0841   -2.6980 O   0  0  0  0  0  0  0  0  0  0  0  0
    2.6195   -1.2417   -1.6241 C   0  0  0  0  0  0  0  0  0  0  0  0
    2.1758   -2.2356   -0.5535 C   0  0  0  0  0  0  0  0  0  0  0  0
    0.7499   -2.6270   -0.9105 C   0  0  0  0  0  0  0  0  0  0  0  0
    2.1745    0.2007   -0.0258 H   0  0  0  0  0  0  0  0  0  0  0  0
    3.6296   -0.8175   -1.5784 H   0  0  0  0  0  0  0  0  0  0  0  0
    2.3218   -1.3211   -2.6742 H   0  0  0  0  0  0  0  0  0  0  0  0
    2.8084   -3.1304   -0.5781 H   0  0  0  0  0  0  0  0  0  0  0  0
    2.2249   -1.8085    0.4522 H   0  0  0  0  0  0  0  0  0  0  0  0
    0.5944   -2.7143   -1.9893 H   0  0  0  0  0  0  0  0  0  0  0  0
    0.4645   -3.5695   -0.4308 H   0  0  0  0  0  0  0  0  0  0  0  0
    0.7341    1.8263   -0.8152 N   0  0  0  0  0  0  0  0  0  0  0  0
   -0.1029    2.9190   -1.2562 C   0  0  2  0  0  0  0  0  0  0  0  0
   -1.5551    2.4742   -1.1435 C   0  0  0  0  0  0  0  0  0  0  0  0
   -1.8961    1.2932   -1.1337 O   0  0  0  0  0  0  0  0  0  0  0  0
    0.2304    3.3308   -2.6817 C   0  0  0  0  0  0  0  0  0  0  0  0
    1.3691    1.9865   -0.0390 H   0  0  0  0  0  0  0  0  0  0  0  0
    0.0785    3.7532   -0.5698 H   0  0  0  0  0  0  0  0  0  0  0  0
    0.0549    2.5077   -3.3839 H   0  0  0  0  0  0  0  0  0  0  0  0
   -0.3849    4.1773   -3.0043 H   0  0  0  0  0  0  0  0  0  0  0  0
    1.2828    3.6220   -2.7673 H   0  0  0  0  0  0  0  0  0  0  0  0
   -2.4289    3.5515   -1.0986 N   0  0  0  0  0  0  0  0  0  0  0  0
   -3.8611    3.3904   -1.0044 C   0  0  0  0  0  0  0  0  0  0  0  0
   -2.0569    4.4967   -1.0928 H   0  0  0  0  0  0  0  0  0  0  0  0
   -4.2971    3.3841   -2.0142 H   0  0  0  0  0  0  0  0  0  0  0  0
   -4.0906    2.4401   -0.5001 H   0  0  0  0  0  0  0  0  0  0  0  0
   -4.2865    4.2241   -0.4266 H   0  0  0  0  0  0  0  0  0  0  0  0
 18 19  1  0  0  0  0
 19 31  1  0  0  0  0
 19 20  2  0  0  0  0
  8  9  1  0  0  0  0
  9 17  1  0  0  0  0
  9 10  2  0  0  0  0
  1  3  1  0  0  0  0
  1  7  1  0  0  0  0
  1  2  2  0  0  0  0
 32 33  1  0  0  0  0
 33 41  1  0  0  0  0
 33 34  2  0  0  0  0
 21 22  1  0  0  0  0
 22 23  1  0  0  0  0
 18 21  1  0  0  0  0
 17 23  1  0  0  0  0
 17 18  1  0  0  0  0
  8 11  1  0  0  0  0
 32 35  1  0  0  0  0
 41 42  1  0  0  0  0
  7  8  1  0  0  0  0
 31 32  1  0  0  0  0
 22 27  1  0  0  0  0
 22 28  1  0  0  0  0
 21 25  1  0  0  0  0
 21 26  1  0  0  0  0
 23 29  1  0  0  0  0
 23 30  1  0  0  0  0
 18 24  1  0  0  0  0
  3  4  1  0  0  0  0
  3  5  1  0  0  0  0
  3  6  1  0  0  0  0
 11 14  1  0  0  0  0
 11 15  1  0  0  0  0
 11 16  1  0  0  0  0
 35 38  1  0  0  0  0
 35 39  1  0  0  0  0
 35 40  1  0  0  0  0
 42 44  1  0  0  0  0
 42 45  1  0  0  0  0
 42 46  1  0  0  0  0
  8 13  1  0  0  0  0
 32 37  1  0  0  0  0
 31 36  1  0  0  0  0
 41 43  1  0  0  0  0
  7 12  1  0  0  0  0
M  END
$$$$

  -OEChem-05262214473D

 46 46  0     1  0  0  0  0  0999 V2000
   -0.6012   -3.2995    3.8205 C   0  0  0  0  0  0  0  0  0  0  0  0
   -0.6574   -4.4683    3.4568 O   0  0  0  0  0  0  0  0  0  0  0  0
   -0.4935   -2.9859    5.2760 C   0  0  0  0  0  0  0  0  0  0  0  0
   -1.4789   -2.8689    5.7550 H   0  0  0  0  0  0  0  0  0  0  0  0
    0.0123   -3.7847    5.8419 H   0  0  0  0  0  0  0  0  0  0  0  0
    0.0585   -2.0642    5.5199 H   0  0  0  0  0  0  0  0  0  0  0  0
   -0.6261   -2.1849    2.9917 N   0  0  0  0  0  0  0  0  0  0  0  0
   -0.7237   -2.2601    1.5650 C   0  0  2  0  0  0  0  0  0  0  0  0
    0.1695   -1.1513    1.0687 C   0  0  0  0  0  0  0  0  0  0  0  0
    0.3193   -0.1267    1.7365 O   0  0  0  0  0  0  0  0  0  0  0  0
   -2.1397   -2.0663    1.0750 C   0  0  0  0  0  0  0  0  0  0  0  0
   -0.5717   -1.2606    3.4238 H   0  0  0  0  0  0  0  0  0  0  0  0
   -0.3076   -3.2111    1.2363 H   0  0  0  0  0  0  0  0  0  0  0  0
   -2.5584   -1.1089    1.4061 H   0  0  0  0  0  0  0  0  0  0  0  0
   -2.1682   -2.0790   -0.0197 H   0  0  0  0  0  0  0  0  0  0  0  0
   -2.7965   -2.8601    1.4459 H   0  0  0  0  0  0  0  0  0  0  0  0
    0.7724   -1.3745   -0.1593 N   0  0  0  0  0  0  0  0  0  0  0  0
    1.6644   -0.4046   -0.7812 C   0  0  2  0  0  0  0  0  0  0  0  0
    0.8166    0.4953   -1.6290 C   0  0  0  0  0  0  0  0  0  0  0  0
    0.1577    0.0178   -2.5453 O   0  0  0  0  0  0  0  0  0  0  0  0
    2.6195   -1.2417   -1.6241 C   0  0  0  0  0  0  0  0  0  0  0  0
    2.1758   -2.2356   -0.5535 C   0  0  0  0  0  0  0  0  0  0  0  0
    0.7499   -2.6270   -0.9105 C   0  0  0  0  0  0  0  0  0  0  0  0
    2.1745    0.2007   -0.0258 H   0  0  0  0  0  0  0  0  0  0  0  0
    3.6296   -0.8175   -1.5784 H   0  0  0  0  0  0  0  0  0  0  0  0
    2.3218   -1.3211   -2.6742 H   0  0  0  0  0  0  0  0  0  0  0  0
    2.8084   -3.1304   -0.5781 H   0  0  0  0  0  0  0  0  0  0  0  0
    2.2249   -1.8085    0.4522 H   0  0  0  0  0  0  0  0  0  0  0  0
    0.5944   -2.7143   -1.9893 H   0  0  0  0  0  0  0  0  0  0  0  0
    0.4645   -3.5695   -0.4308 H   0  0  0  0  0  0  0  0  0  0  0  0
    1.0507    1.9200   -1.0324 N   0  0  0  0  0  0  0  0  0  0  0  0
    0.3071    3.0616   -1.5148 C   0  0  2  0  0  0  0  0  0  0  0  0
   -1.1527    2.8711   -1.1246 C   0  0  0  0  0  0  0  0  0  0  0  0
   -1.6433    1.7710   -0.8793 O   0  0  0  0  0  0  0  0  0  0  0  0
    0.4512    3.2197   -3.0204 C   0  0  0  0  0  0  0  0  0  0  0  0
    1.8216    2.0810   -0.3912 H   0  0  0  0  0  0  0  0  0  0  0  0
    0.7109    3.9416   -1.0023 H   0  0  0  0  0  0  0  0  0  0  0  0
    0.0520    2.3476   -3.5510 H   0  0  0  0  0  0  0  0  0  0  0  0
   -0.0894    4.1014   -3.3803 H   0  0  0  0  0  0  0  0  0  0  0  0
    1.5042    3.3268   -3.3021 H   0  0  0  0  0  0  0  0  0  0  0  0
   -1.8535    4.0690   -1.1247 N   0  0  0  0  0  0  0  0  0  0  0  0
   -3.2586    4.1502   -0.8003 C   0  0  0  0  0  0  0  0  0  0  0  0
   -1.3618    4.9356   -1.3220 H   0  0  0  0  0  0  0  0  0  0  0  0
   -3.8533    4.0768   -1.7228 H   0  0  0  0  0  0  0  0  0  0  0  0
   -3.5270    3.3249   -0.1245 H   0  0  0  0  0  0  0  0  0  0  0  0
   -3.4657    5.1109   -0.3061 H   0  0  0  0  0  0  0  0  0  0  0  0
 18 19  1  0  0  0  0
 19 31  1  0  0  0  0
 19 20  2  0  0  0  0
  8  9  1  0  0  0  0
  9 17  1  0  0  0  0
  9 10  2  0  0  0  0
  1  3  1  0  0  0  0
  1  7  1  0  0  0  0
  1  2  2  0  0  0  0
 32 33  1  0  0  0  0
 33 41  1  0  0  0  0
 33 34  2  0  0  0  0
 21 22  1  0  0  0  0
 22 23  1  0  0  0  0
 18 21  1  0  0  0  0
 17 23  1  0  0  0  0
 17 18  1  0  0  0  0
  8 11  1  0  0  0  0
 32 35  1  0  0  0  0
 41 42  1  0  0  0  0
  7  8  1  0  0  0  0
 31 32  1  0  0  0  0
 22 27  1  0  0  0  0
 22 28  1  0  0  0  0
 21 25  1  0  0  0  0
 21 26  1  0  0  0  0
 23 29  1  0  0  0  0
 23 30  1  0  0  0  0
 18 24  1  0  0  0  0
  3  4  1  0  0  0  0
  3  5  1  0  0  0  0
  3  6  1  0  0  0  0
 11 14  1  0  0  0  0
 11 15  1  0  0  0  0
 11 16  1  0  0  0  0
 35 38  1  0  0  0  0
 35 39  1  0  0  0  0
 35 40  1  0  0  0  0
 42 44  1  0  0  0  0
 42 45  1  0  0  0  0
 42 46  1  0  0  0  0
  8 13  1  0  0  0  0
 32 37  1  0  0  0  0
 31 36  1  0  0  0  0
 41 43  1  0  0  0  0
  7 12  1  0  0  0  0
M  END
$$$$

  -OEChem-05262214473D

 46 46  0     1  0  0  0  0  0999 V2000
   -0.6012   -3.2995    3.8205 C   0  0  0  0  0  0  0  0  0  0  0  0
   -0.6574   -4.4683    3.4568 O   0  0  0  0  0  0  0  0  0  0  0  0
   -0.4935   -2.9859    5.2760 C   0  0  0  0  0  0  0  0  0  0  0  0
   -1.4789   -2.8689    5.7550 H   0  0  0  0  0  0  0  0  0  0  0  0
    0.0123   -3.7847    5.8419 H   0  0  0  0  0  0  0  0  0  0  0  0
    0.0585   -2.0642    5.5199 H   0  0  0  0  0  0  0  0  0  0  0  0
   -0.6261   -2.1849    2.9917 N   0  0  0  0  0  0  0  0  0  0  0  0
   -0.7237   -2.2601    1.5650 C   0  0  2  0  0  0  0  0  0  0  0  0
    0.1695   -1.1513    1.0687 C   0  0  0  0  0  0  0  0  0  0  0  0
    0.3193   -0.1267    1.7365 O   0  0  0  0  0  0  0  0  0  0  0  0
   -2.1397   -2.0663    1.0750 C   0  0  0  0  0  0  0  0  0  0  0  0
   -0.5717   -1.2606    3.4238 H   0  0  0  0  0  0  0  0  0  0  0  0
   -0.3076   -3.2111    1.2363 H   0  0  0  0  0  0  0  0  0  0  0  0
   -2.5584   -1.1089    1.4061 H   0  0  0  0  0  0  0  0  0  0  0  0
   -2.1682   -2.0790   -0.0197 H   0  0  0  0  0  0  0  0  0  0  0  0
   -2.7965   -2.8601    1.4459 H   0  0  0  0  0  0  0  0  0  0  0  0
    0.7724   -1.3745   -0.1593 N   0  0  0  0  0  0  0  0  0  0  0  0
    1.6644   -0.4046   -0.7812 C   0  0  2  0  0  0  0  0  0  0  0  0
    0.8166    0.4953   -1.6290 C   0  0  0  0  0  0  0  0  0  0  0  0
   -0.0438    0.0088   -2.3534 O   0  0  0  0  0  0  0  0  0  0  0  0
    2.6195   -1.2417   -1.6241 C   0  0  0  0  0  0  0  0  0  0  0  0
    2.1758   -2.2356   -0.5535 C   0  0  0  0  0  0  0  0  0  0  0  0
    0.7499   -2.6270   -0.9105 C   0  0  0  0  0  0  0  0  0  0  0  0
    2.1745    0.2007   -0.0258 H   0  0  0  0  0  0  0  0  0  0  0  0
    3.6296   -0.8175   -1.5784 H   0  0  0  0  0  0  0  0  0  0  0  0
    2.3218   -1.3211   -2.6742 H   0  0  0  0  0  0  0  0  0  0  0  0
    2.8084   -3.1304   -0.5781 H   0  0  0  0  0  0  0  0  0  0  0  0
    2.2249   -1.8085    0.4522 H   0  0  0  0  0  0  0  0  0  0  0  0
    0.5944   -2.7143   -1.9893 H   0  0  0  0  0  0  0  0  0  0  0  0
    0.4645   -3.5695   -0.4308 H   0  0  0  0  0  0  0  0  0  0  0  0
    1.3365    1.9324   -1.3050 N   0  0  0  0  0  0  0  0  0  0  0  0
    0.6838    3.1016   -1.8492 C   0  0  2  0  0  0  0  0  0  0  0  0
   -0.7029    3.1983   -1.2271 C   0  0  0  0  0  0  0  0  0  0  0  0
   -1.2897    2.2328   -0.7428 O   0  0  0  0  0  0  0  0  0  0  0  0
    0.5955    3.0305   -3.3657 C   0  0  0  0  0  0  0  0  0  0  0  0
    2.2179    2.0546   -0.8155 H   0  0  0  0  0  0  0  0  0  0  0  0
    1.2821    3.9677   -1.5458 H   0  0  0  0  0  0  0  0  0  0  0  0
   -0.0002    2.1689   -3.6886 H   0  0  0  0  0  0  0  0  0  0  0  0
    0.1266    3.9298   -3.7784 H   0  0  0  0  0  0  0  0  0  0  0  0
    1.5918    2.9310   -3.8099 H   0  0  0  0  0  0  0  0  0  0  0  0
   -1.2261    4.4808   -1.3150 N   0  0  0  0  0  0  0  0  0  0  0  0
   -2.5337    4.8259   -0.8080 C   0  0  0  0  0  0  0  0  0  0  0  0
   -0.6617    5.2242   -1.7157 H   0  0  0  0  0  0  0  0  0  0  0  0
   -3.2778    4.7236   -1.6116 H   0  0  0  0  0  0  0  0  0  0  0  0
   -2.7948    4.1520    0.0213 H   0  0  0  0  0  0  0  0  0  0  0  0
   -2.5243    5.8649   -0.4471 H   0  0  0  0  0  0  0  0  0  0  0  0
 18 19  1  0  0  0  0
 19 31  1  0  0  0  0
 19 20  2  0  0  0  0
  8  9  1  0  0  0  0
  9 17  1  0  0  0  0
  9 10  2  0  0  0  0
  1  3  1  0  0  0  0
  1  7  1  0  0  0  0
  1  2  2  0  0  0  0
 32 33  1  0  0  0  0
 33 41  1  0  0  0  0
 33 34  2  0  0  0  0
 21 22  1  0  0  0  0
 22 23  1  0  0  0  0
 18 21  1  0  0  0  0
 17 23  1  0  0  0  0
 17 18  1  0  0  0  0
  8 11  1  0  0  0  0
 32 35  1  0  0  0  0
 41 42  1  0  0  0  0
  7  8  1  0  0  0  0
 31 32  1  0  0  0  0
 22 27  1  0  0  0  0
 22 28  1  0  0  0  0
 21 25  1  0  0  0  0
 21 26  1  0  0  0  0
 23 29  1  0  0  0  0
 23 30  1  0  0  0  0
 18 24  1  0  0  0  0
  3  4  1  0  0  0  0
  3  5  1  0  0  0  0
  3  6  1  0  0  0  0
 11 14  1  0  0  0  0
 11 15  1  0  0  0  0
 11 16  1  0  0  0  0
 35 38  1  0  0  0  0
 35 39  1  0  0  0  0
 35 40  1  0  0  0  0
 42 44  1  0  0  0  0
 42 45  1  0  0  0  0
 42 46  1  0  0  0  0
  8 13  1  0  0  0  0
 32 37  1  0  0  0  0
 31 36  1  0  0  0  0
 41 43  1  0  0  0  0
  7 12  1  0  0  0  0
M  END
$$$$

  -OEChem-05262214473D

 46 46  0     1  0  0  0  0  0999 V2000
   -0.6012   -3.2995    3.8205 C   0  0  0  0  0  0  0  0  0  0  0  0
   -0.6574   -4.4683    3.4568 O   0  0  0  0  0  0  0  0  0  0  0  0
   -0.4935   -2.9859    5.2760 C   0  0  0  0  0  0  0  0  0  0  0  0
   -1.4789   -2.8689    5.7550 H   0  0  0  0  0  0  0  0  0  0  0  0
    0.0123   -3.7847    5.8419 H   0  0  0  0  0  0  0  0  0  0  0  0
    0.0585   -2.0642    5.5199 H   0  0  0  0  0  0  0  0  0  0  0  0
   -0.6261   -2.1849    2.9917 N   0  0  0  0  0  0  0  0  0  0  0  0
   -0.7237   -2.2601    1.5650 C   0  0  2  0  0  0  0  0  0  0  0  0
    0.1695   -1.1513    1.0687 C   0  0  0  0  0  0  0  0  0  0  0  0
    0.3193   -0.1267    1.7365 O   0  0  0  0  0  0  0  0  0  0  0  0
   -2.1397   -2.0663    1.0750 C   0  0  0  0  0  0  0  0  0  0  0  0
   -0.5717   -1.2606    3.4238 H   0  0  0  0  0  0  0  0  0  0  0  0
   -0.3076   -3.2111    1.2363 H   0  0  0  0  0  0  0  0  0  0  0  0
   -2.5584   -1.1089    1.4061 H   0  0  0  0  0  0  0  0  0  0  0  0
   -2.1682   -2.0790   -0.0197 H   0  0  0  0  0  0  0  0  0  0  0  0
   -2.7965   -2.8601    1.4459 H   0  0  0  0  0  0  0  0  0  0  0  0
    0.7724   -1.3745   -0.1593 N   0  0  0  0  0  0  0  0  0  0  0  0
    1.6644   -0.4046   -0.7812 C   0  0  2  0  0  0  0  0  0  0  0  0
    0.8166    0.4953   -1.6290 C   0  0  0  0  0  0  0  0  0  0  0  0
   -0.2099    0.0576   -2.1355 O   0  0  0  0  0  0  0  0  0  0  0  0
    2.6195   -1.2417   -1.6241 C   0  0  0  0  0  0  0  0  0  0  0  0
    2.1758   -2.2356   -0.5535 C   0  0  0  0  0  0  0  0  0  0  0  0
    0.7499   -2.6270   -0.9105 C   0  0  0  0  0  0  0  0  0  0  0  0
    2.1745    0.2007   -0.0258 H   0  0  0  0  0  0  0  0  0  0  0  0
    3.6296   -0.8175   -1.5784 H   0  0  0  0  0  0  0  0  0  0  0  0
    2.3218   -1.3211   -2.6742 H   0  0  0  0  0  0  0  0  0  0  0  0
    2.8084   -3.1304   -0.5781 H   0  0  0  0  0  0  0  0  0  0  0  0
    2.2249   -1.8085    0.4522 H   0  0  0  0  0  0  0  0  0  0  0  0
    0.5944   -2.7143   -1.9893 H   0  0  0  0  0  0  0  0  0  0  0  0
    0.4645   -3.5695   -0.4308 H   0  0  0  0  0  0  0  0  0  0  0  0
    1.5721    1.8626   -1.6146 N   0  0  0  0  0  0  0  0  0  0  0  0
    1.0016    3.0360   -2.2365 C   0  0  2  0  0  0  0  0  0  0  0  0
   -0.2365    3.4336   -1.4437 C   0  0  0  0  0  0  0  0  0  0  0  0
   -0.8593    2.6470   -0.7334 O   0  0  0  0  0  0  0  0  0  0  0  0
    0.6536    2.7761   -3.6939 C   0  0  0  0  0  0  0  0  0  0  0  0
    2.5309    1.9090   -1.2831 H   0  0  0  0  0  0  0  0  0  0  0  0
    1.7532    3.8297   -2.1634 H   0  0  0  0  0  0  0  0  0  0  0  0
   -0.0981    1.9838   -3.7872 H   0  0  0  0  0  0  0  0  0  0  0  0
    0.2481    3.6742   -4.1713 H   0  0  0  0  0  0  0  0  0  0  0  0
    1.5396    2.4615   -4.2560 H   0  0  0  0  0  0  0  0  0  0  0  0
   -0.5893    4.7588   -1.6567 N   0  0  0  0  0  0  0  0  0  0  0  0
   -1.7357    5.3713   -1.0269 C   0  0  0  0  0  0  0  0  0  0  0  0
   -0.0044    5.3430   -2.2470 H   0  0  0  0  0  0  0  0  0  0  0  0
   -2.6101    5.2805   -1.6882 H   0  0  0  0  0  0  0  0  0  0  0  0
   -1.9437    4.8651   -0.0727 H   0  0  0  0  0  0  0  0  0  0  0  0
   -1.5266    6.4349   -0.8398 H   0  0  0  0  0  0  0  0  0  0  0  0
 18 19  1  0  0  0  0
 19 31  1  0  0  0  0
 19 20  2  0  0  0  0
  8  9  1  0  0  0  0
  9 17  1  0  0  0  0
  9 10  2  0  0  0  0
  1  3  1  0  0  0  0
  1  7  1  0  0  0  0
  1  2  2  0  0  0  0
 32 33  1  0  0  0  0
 33 41  1  0  0  0  0
 33 34  2  0  0  0  0
 21 22  1  0  0  0  0
 22 23  1  0  0  0  0
 18 21  1  0  0  0  0
 17 23  1  0  0  0  0
 17 18  1  0  0  0  0
  8 11  1  0  0  0  0
 32 35  1  0  0  0  0
 41 42  1  0  0  0  0
  7  8  1  0  0  0  0
 31 32  1  0  0  0  0
 22 27  1  0  0  0  0
 22 28  1  0  0  0  0
 21 25  1  0  0  0  0
 21 26  1  0  0  0  0
 23 29  1  0  0  0  0
 23 30  1  0  0  0  0
 18 24  1  0  0  0  0
  3  4  1  0  0  0  0
  3  5  1  0  0  0  0
  3  6  1  0  0  0  0
 11 14  1  0  0  0  0
 11 15  1  0  0  0  0
 11 16  1  0  0  0  0
 35 38  1  0  0  0  0
 35 39  1  0  0  0  0
 35 40  1  0  0  0  0
 42 44  1  0  0  0  0
 42 45  1  0  0  0  0
 42 46  1  0  0  0  0
  8 13  1  0  0  0  0
 32 37  1  0  0  0  0
 31 36  1  0  0  0  0
 41 43  1  0  0  0  0
  7 12  1  0  0  0  0
M  END
$$$$

  -OEChem-05262214473D

 46 46  0     1  0  0  0  0  0999 V2000
   -0.6012   -3.2995    3.8205 C   0  0  0  0  0  0  0  0  0  0  0  0
   -0.6574   -4.4683    3.4568 O   0  0  0  0  0  0  0  0  0  0  0  0
   -0.4935   -2.9859    5.2760 C   0  0  0  0  0  0  0  0  0  0  0  0
   -1.4789   -2.8689    5.7550 H   0  0  0  0  0  0  0  0  0  0  0  0
    0.0123   -3.7847    5.8419 H   0  0  0  0  0  0  0  0  0  0  0  0
    0.0585   -2.0642    5.5199 H   0  0  0  0  0  0  0  0  0  0  0  0
   -0.6261   -2.1849    2.9917 N   0  0  0  0  0  0  0  0  0  0  0  0
   -0.7237   -2.2601    1.5650 C   0  0  2  0  0  0  0  0  0  0  0  0
    0.1695   -1.1513    1.0687 C   0  0  0  0  0  0  0  0  0  0  0  0
    0.3193   -0.1267    1.7365 O   0  0  0  0  0  0  0  0  0  0  0  0
   -2.1397   -2.0663    1.0750 C   0  0  0  0  0  0  0  0  0  0  0  0
   -0.5717   -1.2606    3.4238 H   0  0  0  0  0  0  0  0  0  0  0  0
   -0.3076   -3.2111    1.2363 H   0  0  0  0  0  0  0  0  0  0  0  0
   -2.5584   -1.1089    1.4061 H   0  0  0  0  0  0  0  0  0  0  0  0
   -2.1682   -2.0790   -0.0197 H   0  0  0  0  0  0  0  0  0  0  0  0
   -2.7965   -2.8601    1.4459 H   0  0  0  0  0  0  0  0  0  0  0  0
    0.7724   -1.3745   -0.1593 N   0  0  0  0  0  0  0  0  0  0  0  0
    1.6644   -0.4046   -0.7812 C   0  0  2  0  0  0  0  0  0  0  0  0
    0.8166    0.4953   -1.6290 C   0  0  0  0  0  0  0  0  0  0  0  0
   -0.3293    0.1610   -1.9064 O   0  0  0  0  0  0  0  0  0  0  0  0
    2.6195   -1.2417   -1.6241 C   0  0  0  0  0  0  0  0  0  0  0  0
    2.1758   -2.2356   -0.5535 C   0  0  0  0  0  0  0  0  0  0  0  0
    0.7499   -2.6270   -0.9105 C   0  0  0  0  0  0  0  0  0  0  0  0
    2.1745    0.2007   -0.0258 H   0  0  0  0  0  0  0  0  0  0  0  0
    3.6296   -0.8175   -1.5784 H   0  0  0  0  0  0  0  0  0  0  0  0
    2.3218   -1.3211   -2.6742 H   0  0  0  0  0  0  0  0  0  0  0  0
    2.8084   -3.1304   -0.5781 H   0  0  0  0  0  0  0  0  0  0  0  0
    2.2249   -1.8085    0.4522 H   0  0  0  0  0  0  0  0  0  0  0  0
    0.5944   -2.7143   -1.9893 H   0  0  0  0  0  0  0  0  0  0  0  0
    0.4645   -3.5695   -0.4308 H   0  0  0  0  0  0  0  0  0  0  0  0
    1.7413    1.7155   -1.9401 N   0  0  0  0  0  0  0  0  0  0  0  0
    1.2388    2.8696   -2.6504 C   0  0  2  0  0  0  0  0  0  0  0  0
    0.2148    3.5608   -1.7599 C   0  0  0  0  0  0  0  0  0  0  0  0
   -0.3815    2.9856   -0.8519 O   0  0  0  0  0  0  0  0  0  0  0  0
    0.6215    2.4737   -3.9827 C   0  0  0  0  0  0  0  0  0  0  0  0
    2.7392    1.6540   -1.7621 H   0  0  0  0  0  0  0  0  0  0  0  0
    2.0921    3.5371   -2.8129 H   0  0  0  0  0  0  0  0  0  0  0  0
   -0.2351    1.8049   -3.8401 H   0  0  0  0  0  0  0  0  0  0  0  0
    0.2671    3.3520   -4.5323 H   0  0  0  0  0  0  0  0  0  0  0  0
    1.3510    1.9503   -4.6101 H   0  0  0  0  0  0  0  0  0  0  0  0
    0.0134    4.8842   -2.1263 N   0  0  0  0  0  0  0  0  0  0  0  0
   -0.9192    5.7493   -1.4422 C   0  0  0  0  0  0  0  0  0  0  0  0
    0.5653    5.2837   -2.8797 H   0  0  0  0  0  0  0  0  0  0  0  0
   -1.8955    5.7094   -1.9475 H   0  0  0  0  0  0  0  0  0  0  0  0
   -1.0320    5.4156   -0.4001 H   0  0  0  0  0  0  0  0  0  0  0  0
   -0.5404    6.7819   -1.4577 H   0  0  0  0  0  0  0  0  0  0  0  0
 18 19  1  0  0  0  0
 19 31  1  0  0  0  0
 19 20  2  0  0  0  0
  8  9  1  0  0  0  0
  9 17  1  0  0  0  0
  9 10  2  0  0  0  0
  1  3  1  0  0  0  0
  1  7  1  0  0  0  0
  1  2  2  0  0  0  0
 32 33  1  0  0  0  0
 33 41  1  0  0  0  0
 33 34  2  0  0  0  0
 21 22  1  0  0  0  0
 22 23  1  0  0  0  0
 18 21  1  0  0  0  0
 17 23  1  0  0  0  0
 17 18  1  0  0  0  0
  8 11  1  0  0  0  0
 32 35  1  0  0  0  0
 41 42  1  0  0  0  0
  7  8  1  0  0  0  0
 31 32  1  0  0  0  0
 22 27  1  0  0  0  0
 22 28  1  0  0  0  0
 21 25  1  0  0  0  0
 21 26  1  0  0  0  0
 23 29  1  0  0  0  0
 23 30  1  0  0  0  0
 18 24  1  0  0  0  0
  3  4  1  0  0  0  0
  3  5  1  0  0  0  0
  3  6  1  0  0  0  0
 11 14  1  0  0  0  0
 11 15  1  0  0  0  0
 11 16  1  0  0  0  0
 35 38  1  0  0  0  0
 35 39  1  0  0  0  0
 35 40  1  0  0  0  0
 42 44  1  0  0  0  0
 42 45  1  0  0  0  0
 42 46  1  0  0  0  0
  8 13  1  0  0  0  0
 32 37  1  0  0  0  0
 31 36  1  0  0  0  0
 41 43  1  0  0  0  0
  7 12  1  0  0  0  0
M  END
$$$$

  -OEChem-05262214473D

 46 46  0     1  0  0  0  0  0999 V2000
   -0.6012   -3.2995    3.8205 C   0  0  0  0  0  0  0  0  0  0  0  0
   -0.6574   -4.4683    3.4568 O   0  0  0  0  0  0  0  0  0  0  0  0
   -0.4935   -2.9859    5.2760 C   0  0  0  0  0  0  0  0  0  0  0  0
   -1.4789   -2.8689    5.7550 H   0  0  0  0  0  0  0  0  0  0  0  0
    0.0123   -3.7847    5.8419 H   0  0  0  0  0  0  0  0  0  0  0  0
    0.0585   -2.0642    5.5199 H   0  0  0  0  0  0  0  0  0  0  0  0
   -0.6261   -2.1849    2.9917 N   0  0  0  0  0  0  0  0  0  0  0  0
   -0.7237   -2.2601    1.5650 C   0  0  2  0  0  0  0  0  0  0  0  0
    0.1695   -1.1513    1.0687 C   0  0  0  0  0  0  0  0  0  0  0  0
    0.3193   -0.1267    1.7365 O   0  0  0  0  0  0  0  0  0  0  0  0
   -2.1397   -2.0663    1.0750 C   0  0  0  0  0  0  0  0  0  0  0  0
   -0.5717   -1.2606    3.4238 H   0  0  0  0  0  0  0  0  0  0  0  0
   -0.3076   -3.2111    1.2363 H   0  0  0  0  0  0  0  0  0  0  0  0
   -2.5584   -1.1089    1.4061 H   0  0  0  0  0  0  0  0  0  0  0  0
   -2.1682   -2.0790   -0.0197 H   0  0  0  0  0  0  0  0  0  0  0  0
   -2.7965   -2.8601    1.4459 H   0  0  0  0  0  0  0  0  0  0  0  0
    0.7724   -1.3745   -0.1593 N   0  0  0  0  0  0  0  0  0  0  0  0
    1.6644   -0.4046   -0.7812 C   0  0  2  0  0  0  0  0  0  0  0  0
    0.8166    0.4953   -1.6290 C   0  0  0  0  0  0  0  0  0  0  0  0
   -0.3939    0.3119   -1.6816 O   0  0  0  0  0  0  0  0  0  0  0  0
    2.6195   -1.2417   -1.6241 C   0  0  0  0  0  0  0  0  0  0  0  0
    2.1758   -2.2356   -0.5535 C   0  0  0  0  0  0  0  0  0  0  0  0
    0.7499   -2.6270   -0.9105 C   0  0  0  0  0  0  0  0  0  0  0  0
    2.1745    0.2007   -0.0258 H   0  0  0  0  0  0  0  0  0  0  0  0
    3.6296   -0.8175   -1.5784 H   0  0  0  0  0  0  0  0  0  0  0  0
    2.3218   -1.3211   -2.6742 H   0  0  0  0  0  0  0  0  0  0  0  0
    2.8084   -3.1304   -0.5781 H   0  0  0  0  0  0  0  0  0  0  0  0
    2.2249   -1.8085    0.4522 H   0  0  0  0  0  0  0  0  0  0  0  0
    0.5944   -2.7143   -1.9893 H   0  0  0  0  0  0  0  0  0  0  0  0
    0.4645   -3.5695   -0.4308 H   0  0  0  0  0  0  0  0  0  0  0  0
    1.8326    1.5009   -2.2592 N   0  0  0  0  0  0  0  0  0  0  0  0
    1.3793    2.6134   -3.0627 C   0  0  2  0  0  0  0  0  0  0  0  0
    0.6202    3.5714   -2.1541 C   0  0  0  0  0  0  0  0  0  0  0  0
    0.1112    3.2253   -1.0901 O   0  0  0  0  0  0  0  0  0  0  0  0
    0.5014    2.1441   -4.2124 C   0  0  0  0  0  0  0  0  0  0  0  0
    2.8287    1.3072   -2.2198 H   0  0  0  0  0  0  0  0  0  0  0  0
    2.2757    3.1097   -3.4502 H   0  0  0  0  0  0  0  0  0  0  0  0
   -0.4018    1.6444   -3.8437 H   0  0  0  0  0  0  0  0  0  0  0  0
    0.1822    2.9852   -4.8368 H   0  0  0  0  0  0  0  0  0  0  0  0
    1.0391    1.4323   -4.8480 H   0  0  0  0  0  0  0  0  0  0  0  0
    0.5410    4.8484   -2.6919 N   0  0  0  0  0  0  0  0  0  0  0  0
   -0.1397    5.9341   -2.0256 C   0  0  0  0  0  0  0  0  0  0  0  0
    1.0087    5.0504   -3.5706 H   0  0  0  0  0  0  0  0  0  0  0  0
   -1.1827    5.9812   -2.3718 H   0  0  0  0  0  0  0  0  0  0  0  0
   -0.1215    5.7660   -0.9386 H   0  0  0  0  0  0  0  0  0  0  0  0
    0.3670    6.8823   -2.2585 H   0  0  0  0  0  0  0  0  0  0  0  0
 18 19  1  0  0  0  0
 19 31  1  0  0  0  0
 19 20  2  0  0  0  0
  8  9  1  0  0  0  0
  9 17  1  0  0  0  0
  9 10  2  0  0  0  0
  1  3  1  0  0  0  0
  1  7  1  0  0  0  0
  1  2  2  0  0  0  0
 32 33  1  0  0  0  0
 33 41  1  0  0  0  0
 33 34  2  0  0  0  0
 21 22  1  0  0  0  0
 22 23  1  0  0  0  0
 18 21  1  0  0  0  0
 17 23  1  0  0  0  0
 17 18  1  0  0  0  0
  8 11  1  0  0  0  0
 32 35  1  0  0  0  0
 41 42  1  0  0  0  0
  7  8  1  0  0  0  0
 31 32  1  0  0  0  0
 22 27  1  0  0  0  0
 22 28  1  0  0  0  0
 21 25  1  0  0  0  0
 21 26  1  0  0  0  0
 23 29  1  0  0  0  0
 23 30  1  0  0  0  0
 18 24  1  0  0  0  0
  3  4  1  0  0  0  0
  3  5  1  0  0  0  0
  3  6  1  0  0  0  0
 11 14  1  0  0  0  0
 11 15  1  0  0  0  0
 11 16  1  0  0  0  0
 35 38  1  0  0  0  0
 35 39  1  0  0  0  0
 35 40  1  0  0  0  0
 42 44  1  0  0  0  0
 42 45  1  0  0  0  0
 42 46  1  0  0  0  0
  8 13  1  0  0  0  0
 32 37  1  0  0  0  0
 31 36  1  0  0  0  0
 41 43  1  0  0  0  0
  7 12  1  0  0  0  0
M  END
$$$$

  -OEChem-05262214473D

 46 46  0     1  0  0  0  0  0999 V2000
   -0.6012   -3.2995    3.8205 C   0  0  0  0  0  0  0  0  0  0  0  0
   -0.6574   -4.4683    3.4568 O   0  0  0  0  0  0  0  0  0  0  0  0
   -0.4935   -2.9859    5.2760 C   0  0  0  0  0  0  0  0  0  0  0  0
   -1.4789   -2.8689    5.7550 H   0  0  0  0  0  0  0  0  0  0  0  0
    0.0123   -3.7847    5.8419 H   0  0  0  0  0  0  0  0  0  0  0  0
    0.0585   -2.0642    5.5199 H   0  0  0  0  0  0  0  0  0  0  0  0
   -0.6261   -2.1849    2.9917 N   0  0  0  0  0  0  0  0  0  0  0  0
   -0.7237   -2.2601    1.5650 C   0  0  2  0  0  0  0  0  0  0  0  0
    0.1695   -1.1513    1.0687 C   0  0  0  0  0  0  0  0  0  0  0  0
    0.3193   -0.1267    1.7365 O   0  0  0  0  0  0  0  0  0  0  0  0
   -2.1397   -2.0663    1.0750 C   0  0  0  0  0  0  0  0  0  0  0  0
   -0.5717   -1.2606    3.4238 H   0  0  0  0  0  0  0  0  0  0  0  0
   -0.3076   -3.2111    1.2363 H   0  0  0  0  0  0  0  0  0  0  0  0
   -2.5584   -1.1089    1.4061 H   0  0  0  0  0  0  0  0  0  0  0  0
   -2.1682   -2.0790   -0.0197 H   0  0  0  0  0  0  0  0  0  0  0  0
   -2.7965   -2.8601    1.4459 H   0  0  0  0  0  0  0  0  0  0  0  0
    0.7724   -1.3745   -0.1593 N   0  0  0  0  0  0  0  0  0  0  0  0
    1.6644   -0.4046   -0.7812 C   0  0  2  0  0  0  0  0  0  0  0  0
    0.8166    0.4953   -1.6290 C   0  0  0  0  0  0  0  0  0  0  0  0
   -0.3993    0.5000   -1.4765 O   0  0  0  0  0  0  0  0  0  0  0  0
    2.6195   -1.2417   -1.6241 C   0  0  0  0  0  0  0  0  0  0  0  0
    2.1758   -2.2356   -0.5535 C   0  0  0  0  0  0  0  0  0  0  0  0
    0.7499   -2.6270   -0.9105 C   0  0  0  0  0  0  0  0  0  0  0  0
    2.1745    0.2007   -0.0258 H   0  0  0  0  0  0  0  0  0  0  0  0
    3.6296   -0.8175   -1.5784 H   0  0  0  0  0  0  0  0  0  0  0  0
    2.3218   -1.3211   -2.6742 H   0  0  0  0  0  0  0  0  0  0  0  0
    2.8084   -3.1304   -0.5781 H   0  0  0  0  0  0  0  0  0  0  0  0
    2.2249   -1.8085    0.4522 H   0  0  0  0  0  0  0  0  0  0  0  0
    0.5944   -2.7143   -1.9893 H   0  0  0  0  0  0  0  0  0  0  0  0
    0.4645   -3.5695   -0.4308 H   0  0  0  0  0  0  0  0  0  0  0  0
    1.8398    1.2336   -2.5502 N   0  0  0  0  0  0  0  0  0  0  0  0
    1.4134    2.2851   -3.4453 C   0  0  2  0  0  0  0  0  0  0  0  0
    0.9521    3.4646   -2.5994 C   0  0  0  0  0  0  0  0  0  0  0  0
    0.5851    3.3498   -1.4318 O   0  0  0  0  0  0  0  0  0  0  0  0
    0.3014    1.8097   -4.3674 C   0  0  0  0  0  0  0  0  0  0  0  0
    2.7933    0.8921   -2.6250 H   0  0  0  0  0  0  0  0  0  0  0  0
    2.2915    2.5768   -4.0317 H   0  0  0  0  0  0  0  0  0  0  0  0
   -0.5869    1.5132   -3.7978 H   0  0  0  0  0  0  0  0  0  0  0  0
   -0.0008    2.5987   -5.0641 H   0  0  0  0  0  0  0  0  0  0  0  0
    0.6251    0.9429   -4.9536 H   0  0  0  0  0  0  0  0  0  0  0  0
    0.9574    4.6538   -3.3149 N   0  0  0  0  0  0  0  0  0  0  0  0
    0.5497    5.9131   -2.7372 C   0  0  0  0  0  0  0  0  0  0  0  0
    1.2954    4.6591   -4.2728 H   0  0  0  0  0  0  0  0  0  0  0  0
   -0.5204    6.0772   -2.9322 H   0  0  0  0  0  0  0  0  0  0  0  0
    0.7255    5.8924   -1.6515 H   0  0  0  0  0  0  0  0  0  0  0  0
    1.1337    6.7292   -3.1877 H   0  0  0  0  0  0  0  0  0  0  0  0
 18 19  1  0  0  0  0
 19 31  1  0  0  0  0
 19 20  2  0  0  0  0
  8  9  1  0  0  0  0
  9 17  1  0  0  0  0
  9 10  2  0  0  0  0
  1  3  1  0  0  0  0
  1  7  1  0  0  0  0
  1  2  2  0  0  0  0
 32 33  1  0  0  0  0
 33 41  1  0  0  0  0
 33 34  2  0  0  0  0
 21 22  1  0  0  0  0
 22 23  1  0  0  0  0
 18 21  1  0  0  0  0
 17 23  1  0  0  0  0
 17 18  1  0  0  0  0
  8 11  1  0  0  0  0
 32 35  1  0  0  0  0
 41 42  1  0  0  0  0
  7  8  1  0  0  0  0
 31 32  1  0  0  0  0
 22 27  1  0  0  0  0
 22 28  1  0  0  0  0
 21 25  1  0  0  0  0
 21 26  1  0  0  0  0
 23 29  1  0  0  0  0
 23 30  1  0  0  0  0
 18 24  1  0  0  0  0
  3  4  1  0  0  0  0
  3  5  1  0  0  0  0
  3  6  1  0  0  0  0
 11 14  1  0  0  0  0
 11 15  1  0  0  0  0
 11 16  1  0  0  0  0
 35 38  1  0  0  0  0
 35 39  1  0  0  0  0
 35 40  1  0  0  0  0
 42 44  1  0  0  0  0
 42 45  1  0  0  0  0
 42 46  1  0  0  0  0
  8 13  1  0  0  0  0
 32 37  1  0  0  0  0
 31 36  1  0  0  0  0
 41 43  1  0  0  0  0
  7 12  1  0  0  0  0
M  END
$$$$

  -OEChem-05262214473D

 46 46  0     1  0  0  0  0  0999 V2000
   -0.6012   -3.2995    3.8205 C   0  0  0  0  0  0  0  0  0  0  0  0
   -0.6574   -4.4683    3.4568 O   0  0  0  0  0  0  0  0  0  0  0  0
   -0.4935   -2.9859    5.2760 C   0  0  0  0  0  0  0  0  0  0  0  0
   -1.4789   -2.8689    5.7550 H   0  0  0  0  0  0  0  0  0  0  0  0
    0.0123   -3.7847    5.8419 H   0  0  0  0  0  0  0  0  0  0  0  0
    0.0585   -2.0642    5.5199 H   0  0  0  0  0  0  0  0  0  0  0  0
   -0.6261   -2.1849    2.9917 N   0  0  0  0  0  0  0  0  0  0  0  0
   -0.7237   -2.2601    1.5650 C   0  0  2  0  0  0  0  0  0  0  0  0
    0.1695   -1.1513    1.0687 C   0  0  0  0  0  0  0  0  0  0  0  0
    0.3193   -0.1267    1.7365 O   0  0  0  0  0  0  0  0  0  0  0  0
   -2.1397   -2.0663    1.0750 C   0  0  0  0  0  0  0  0  0  0  0  0
   -0.5717   -1.2606    3.4238 H   0  0  0  0  0  0  0  0  0  0  0  0
   -0.3076   -3.2111    1.2363 H   0  0  0  0  0  0  0  0  0  0  0  0
   -2.5584   -1.1089    1.4061 H   0  0  0  0  0  0  0  0  0  0  0  0
   -2.1682   -2.0790   -0.0197 H   0  0  0  0  0  0  0  0  0  0  0  0
   -2.7965   -2.8601    1.4459 H   0  0  0  0  0  0  0  0  0  0  0  0
    0.7724   -1.3745   -0.1593 N   0  0  0  0  0  0  0  0  0  0  0  0
    1.6644   -0.4046   -0.7812 C   0  0  2  0  0  0  0  0  0  0  0  0
    0.8166    0.4953   -1.6290 C   0  0  0  0  0  0  0  0  0  0  0  0
   -0.3451    0.7125   -1.3051 O   0  0  0  0  0  0  0  0  0  0  0  0
    2.6195   -1.2417   -1.6241 C   0  0  0  0  0  0  0  0  0  0  0  0
    2.1758   -2.2356   -0.5535 C   0  0  0  0  0  0  0  0  0  0  0  0
    0.7499   -2.6270   -0.9105 C   0  0  0  0  0  0  0  0  0  0  0  0
    2.1745    0.2007   -0.0258 H   0  0  0  0  0  0  0  0  0  0  0  0
    3.6296   -0.8175   -1.5784 H   0  0  0  0  0  0  0  0  0  0  0  0
    2.3218   -1.3211   -2.6742 H   0  0  0  0  0  0  0  0  0  0  0  0
    2.8084   -3.1304   -0.5781 H   0  0  0  0  0  0  0  0  0  0  0  0
    2.2249   -1.8085    0.4522 H   0  0  0  0  0  0  0  0  0  0  0  0
    0.5944   -2.7143   -1.9893 H   0  0  0  0  0  0  0  0  0  0  0  0
    0.4645   -3.5695   -0.4308 H   0  0  0  0  0  0  0  0  0  0  0  0
    1.7625    0.9317   -2.7932 N   0  0  0  0  0  0  0  0  0  0  0  0
    1.3388    1.9070   -3.7721 C   0  0  2  0  0  0  0  0  0  0  0  0
    1.1878    3.2477   -3.0654 C   0  0  0  0  0  0  0  0  0  0  0  0
    1.0081    3.3507   -1.8538 O   0  0  0  0  0  0  0  0  0  0  0  0
    0.0352    1.4933   -4.4371 C   0  0  0  0  0  0  0  0  0  0  0  0
    2.6354    0.4370   -2.9502 H   0  0  0  0  0  0  0  0  0  0  0  0
    2.1384    1.9746   -4.5178 H   0  0  0  0  0  0  0  0  0  0  0  0
   -0.7778    1.4203   -3.7056 H   0  0  0  0  0  0  0  0  0  0  0  0
   -0.2695    2.2189   -5.1985 H   0  0  0  0  0  0  0  0  0  0  0  0
    0.1371    0.5152   -4.9195 H   0  0  0  0  0  0  0  0  0  0  0  0
    1.2344    4.3136   -3.9530 N   0  0  0  0  0  0  0  0  0  0  0  0
    1.1019    5.6878   -3.5286 C   0  0  0  0  0  0  0  0  0  0  0  0
    1.4060    4.1363   -4.9383 H   0  0  0  0  0  0  0  0  0  0  0  0
    0.0463    5.9910   -3.5904 H   0  0  0  0  0  0  0  0  0  0  0  0
    1.4514    5.7861   -2.4902 H   0  0  0  0  0  0  0  0  0  0  0  0
    1.7075    6.3332   -4.1819 H   0  0  0  0  0  0  0  0  0  0  0  0
 18 19  1  0  0  0  0
 19 31  1  0  0  0  0
 19 20  2  0  0  0  0
  8  9  1  0  0  0  0
  9 17  1  0  0  0  0
  9 10  2  0  0  0  0
  1  3  1  0  0  0  0
  1  7  1  0  0  0  0
  1  2  2  0  0  0  0
 32 33  1  0  0  0  0
 33 41  1  0  0  0  0
 33 34  2  0  0  0  0
 21 22  1  0  0  0  0
 22 23  1  0  0  0  0
 18 21  1  0  0  0  0
 17 23  1  0  0  0  0
 17 18  1  0  0  0  0
  8 11  1  0  0  0  0
 32 35  1  0  0  0  0
 41 42  1  0  0  0  0
  7  8  1  0  0  0  0
 31 32  1  0  0  0  0
 22 27  1  0  0  0  0
 22 28  1  0  0  0  0
 21 25  1  0  0  0  0
 21 26  1  0  0  0  0
 23 29  1  0  0  0  0
 23 30  1  0  0  0  0
 18 24  1  0  0  0  0
  3  4  1  0  0  0  0
  3  5  1  0  0  0  0
  3  6  1  0  0  0  0
 11 14  1  0  0  0  0
 11 15  1  0  0  0  0
 11 16  1  0  0  0  0
 35 38  1  0  0  0  0
 35 39  1  0  0  0  0
 35 40  1  0  0  0  0
 42 44  1  0  0  0  0
 42 45  1  0  0  0  0
 42 46  1  0  0  0  0
  8 13  1  0  0  0  0
 32 37  1  0  0  0  0
 31 36  1  0  0  0  0
 41 43  1  0  0  0  0
  7 12  1  0  0  0  0
M  END
$$$$

  -OEChem-05262214473D

 46 46  0     1  0  0  0  0  0999 V2000
   -0.6012   -3.2995    3.8205 C   0  0  0  0  0  0  0  0  0  0  0  0
   -0.6574   -4.4683    3.4568 O   0  0  0  0  0  0  0  0  0  0  0  0
   -0.4935   -2.9859    5.2760 C   0  0  0  0  0  0  0  0  0  0  0  0
   -1.4789   -2.8689    5.7550 H   0  0  0  0  0  0  0  0  0  0  0  0
    0.0123   -3.7847    5.8419 H   0  0  0  0  0  0  0  0  0  0  0  0
    0.0585   -2.0642    5.5199 H   0  0  0  0  0  0  0  0  0  0  0  0
   -0.6261   -2.1849    2.9917 N   0  0  0  0  0  0  0  0  0  0  0  0
   -0.7237   -2.2601    1.5650 C   0  0  2  0  0  0  0  0  0  0  0  0
    0.1695   -1.1513    1.0687 C   0  0  0  0  0  0  0  0  0  0  0  0
    0.3193   -0.1267    1.7365 O   0  0  0  0  0  0  0  0  0  0  0  0
   -2.1397   -2.0663    1.0750 C   0  0  0  0  0  0  0  0  0  0  0  0
   -0.5717   -1.2606    3.4238 H   0  0  0  0  0  0  0  0  0  0  0  0
   -0.3076   -3.2111    1.2363 H   0  0  0  0  0  0  0  0  0  0  0  0
   -2.5584   -1.1089    1.4061 H   0  0  0  0  0  0  0  0  0  0  0  0
   -2.1682   -2.0790   -0.0197 H   0  0  0  0  0  0  0  0  0  0  0  0
   -2.7965   -2.8601    1.4459 H   0  0  0  0  0  0  0  0  0  0  0  0
    0.7724   -1.3745   -0.1593 N   0  0  0  0  0  0  0  0  0  0  0  0
    1.6644   -0.4046   -0.7812 C   0  0  2  0  0  0  0  0  0  0  0  0
    0.8166    0.4953   -1.6290 C   0  0  0  0  0  0  0  0  0  0  0  0
   -0.2351    0.9349   -1.1791 O   0  0  0  0  0  0  0  0  0  0  0  0
    2.6195   -1.2417   -1.6241 C   0  0  0  0  0  0  0  0  0  0  0  0
    2.1758   -2.2356   -0.5535 C   0  0  0  0  0  0  0  0  0  0  0  0
    0.7499   -2.6270   -0.9105 C   0  0  0  0  0  0  0  0  0  0  0  0
    2.1745    0.2007   -0.0258 H   0  0  0  0  0  0  0  0  0  0  0  0
    3.6296   -0.8175   -1.5784 H   0  0  0  0  0  0  0  0  0  0  0  0
    2.3218   -1.3211   -2.6742 H   0  0  0  0  0  0  0  0  0  0  0  0
    2.8084   -3.1304   -0.5781 H   0  0  0  0  0  0  0  0  0  0  0  0
    2.2249   -1.8085    0.4522 H   0  0  0  0  0  0  0  0  0  0  0  0
    0.5944   -2.7143   -1.9893 H   0  0  0  0  0  0  0  0  0  0  0  0
    0.4645   -3.5695   -0.4308 H   0  0  0  0  0  0  0  0  0  0  0  0
    1.6058    0.6159   -2.9718 N   0  0  0  0  0  0  0  0  0  0  0  0
    1.1607    1.5049   -4.0209 C   0  0  2  0  0  0  0  0  0  0  0  0
    1.3114    2.9354   -3.5205 C   0  0  0  0  0  0  0  0  0  0  0  0
    1.3511    3.2280   -2.3272 O   0  0  0  0  0  0  0  0  0  0  0  0
   -0.2791    1.2164   -4.4168 C   0  0  0  0  0  0  0  0  0  0  0  0
    2.3657   -0.0271   -3.1731 H   0  0  0  0  0  0  0  0  0  0  0  0
    1.8269    1.3442   -4.8755 H   0  0  0  0  0  0  0  0  0  0  0  0
   -0.9614    1.3720   -3.5732 H   0  0  0  0  0  0  0  0  0  0  0  0
   -0.6055    1.8717   -5.2311 H   0  0  0  0  0  0  0  0  0  0  0  0
   -0.3916    0.1785   -4.7482 H   0  0  0  0  0  0  0  0  0  0  0  0
    1.3530    3.8512   -4.5625 N   0  0  0  0  0  0  0  0  0  0  0  0
    1.4794    5.2735   -4.3459 C   0  0  0  0  0  0  0  0  0  0  0  0
    1.3329    3.5178   -5.5218 H   0  0  0  0  0  0  0  0  0  0  0  0
    0.4789    5.7285   -4.3016 H   0  0  0  0  0  0  0  0  0  0  0  0
    2.0066    5.4544   -3.3976 H   0  0  0  0  0  0  0  0  0  0  0  0
    2.0493    5.7211   -5.1735 H   0  0  0  0  0  0  0  0  0  0  0  0
 18 19  1  0  0  0  0
 19 31  1  0  0  0  0
 19 20  2  0  0  0  0
  8  9  1  0  0  0  0
  9 17  1  0  0  0  0
  9 10  2  0  0  0  0
  1  3  1  0  0  0  0
  1  7  1  0  0  0  0
  1  2  2  0  0  0  0
 32 33  1  0  0  0  0
 33 41  1  0  0  0  0
 33 34  2  0  0  0  0
 21 22  1  0  0  0  0
 22 23  1  0  0  0  0
 18 21  1  0  0  0  0
 17 23  1  0  0  0  0
 17 18  1  0  0  0  0
  8 11  1  0  0  0  0
 32 35  1  0  0  0  0
 41 42  1  0  0  0  0
  7  8  1  0  0  0  0
 31 32  1  0  0  0  0
 22 27  1  0  0  0  0
 22 28  1  0  0  0  0
 21 25  1  0  0  0  0
 21 26  1  0  0  0  0
 23 29  1  0  0  0  0
 23 30  1  0  0  0  0
 18 24  1  0  0  0  0
  3  4  1  0  0  0  0
  3  5  1  0  0  0  0
  3  6  1  0  0  0  0
 11 14  1  0  0  0  0
 11 15  1  0  0  0  0
 11 16  1  0  0  0  0
 35 38  1  0  0  0  0
 35 39  1  0  0  0  0
 35 40  1  0  0  0  0
 42 44  1  0  0  0  0
 42 45  1  0  0  0  0
 42 46  1  0  0  0  0
  8 13  1  0  0  0  0
 32 37  1  0  0  0  0
 31 36  1  0  0  0  0
 41 43  1  0  0  0  0
  7 12  1  0  0  0  0
M  END
$$$$

  -OEChem-05262214473D

 46 46  0     1  0  0  0  0  0999 V2000
   -0.6012   -3.2995    3.8205 C   0  0  0  0  0  0  0  0  0  0  0  0
   -0.6574   -4.4683    3.4568 O   0  0  0  0  0  0  0  0  0  0  0  0
   -0.4935   -2.9859    5.2760 C   0  0  0  0  0  0  0  0  0  0  0  0
   -1.4789   -2.8689    5.7550 H   0  0  0  0  0  0  0  0  0  0  0  0
    0.0123   -3.7847    5.8419 H   0  0  0  0  0  0  0  0  0  0  0  0
    0.0585   -2.0642    5.5199 H   0  0  0  0  0  0  0  0  0  0  0  0
   -0.6261   -2.1849    2.9917 N   0  0  0  0  0  0  0  0  0  0  0  0
   -0.7237   -2.2601    1.5650 C   0  0  2  0  0  0  0  0  0  0  0  0
    0.1695   -1.1513    1.0687 C   0  0  0  0  0  0  0  0  0  0  0  0
    0.3193   -0.1267    1.7365 O   0  0  0  0  0  0  0  0  0  0  0  0
   -2.1397   -2.0663    1.0750 C   0  0  0  0  0  0  0  0  0  0  0  0
   -0.5717   -1.2606    3.4238 H   0  0  0  0  0  0  0  0  0  0  0  0
   -0.3076   -3.2111    1.2363 H   0  0  0  0  0  0  0  0  0  0  0  0
   -2.5584   -1.1089    1.4061 H   0  0  0  0  0  0  0  0  0  0  0  0
   -2.1682   -2.0790   -0.0197 H   0  0  0  0  0  0  0  0  0  0  0  0
   -2.7965   -2.8601    1.4459 H   0  0  0  0  0  0  0  0  0  0  0  0
    0.7724   -1.3745   -0.1593 N   0  0  0  0  0  0  0  0  0  0  0  0
    1.6644   -0.4046   -0.7812 C   0  0  2  0  0  0  0  0  0  0  0  0
    0.8166    0.4953   -1.6290 C   0  0  0  0  0  0  0  0  0  0  0  0
   -0.0767    1.1520   -1.1070 O   0  0  0  0  0  0  0  0  0  0  0  0
    2.6195   -1.2417   -1.6241 C   0  0  0  0  0  0  0  0  0  0  0  0
    2.1758   -2.2356   -0.5535 C   0  0  0  0  0  0  0  0  0  0  0  0
    0.7499   -2.6270   -0.9105 C   0  0  0  0  0  0  0  0  0  0  0  0
    2.1745    0.2007   -0.0258 H   0  0  0  0  0  0  0  0  0  0  0  0
    3.6296   -0.8175   -1.5784 H   0  0  0  0  0  0  0  0  0  0  0  0
    2.3218   -1.3211   -2.6742 H   0  0  0  0  0  0  0  0  0  0  0  0
    2.8084   -3.1304   -0.5781 H   0  0  0  0  0  0  0  0  0  0  0  0
    2.2249   -1.8085    0.4522 H   0  0  0  0  0  0  0  0  0  0  0  0
    0.5944   -2.7143   -1.9893 H   0  0  0  0  0  0  0  0  0  0  0  0
    0.4645   -3.5695   -0.4308 H   0  0  0  0  0  0  0  0  0  0  0  0
    1.3805    0.3076   -3.0738 N   0  0  0  0  0  0  0  0  0  0  0  0
    0.8911    1.1061   -4.1746 C   0  0  2  0  0  0  0  0  0  0  0  0
    1.3144    2.5491   -3.9335 C   0  0  0  0  0  0  0  0  0  0  0  0
    1.5910    2.9899   -2.8198 O   0  0  0  0  0  0  0  0  0  0  0  0
   -0.6200    0.9980   -4.3078 C   0  0  0  0  0  0  0  0  0  0  0  0
    2.0026   -0.4685   -3.2786 H   0  0  0  0  0  0  0  0  0  0  0  0
    1.3781    0.7285   -5.0803 H   0  0  0  0  0  0  0  0  0  0  0  0
   -1.1253    1.3717   -3.4097 H   0  0  0  0  0  0  0  0  0  0  0  0
   -0.9859    1.5807   -5.1595 H   0  0  0  0  0  0  0  0  0  0  0  0
   -0.9250   -0.0442   -4.4513 H   0  0  0  0  0  0  0  0  0  0  0  0
    1.3052    3.2979   -5.1021 N   0  0  0  0  0  0  0  0  0  0  0  0
    1.6564    4.6985   -5.1333 C   0  0  0  0  0  0  0  0  0  0  0  0
    1.0811    2.8456   -5.9835 H   0  0  0  0  0  0  0  0  0  0  0  0
    0.7478    5.3075   -5.0174 H   0  0  0  0  0  0  0  0  0  0  0  0
    2.3535    4.9200   -4.3118 H   0  0  0  0  0  0  0  0  0  0  0  0
    2.1358    4.9347   -6.0948 H   0  0  0  0  0  0  0  0  0  0  0  0
 18 19  1  0  0  0  0
 19 31  1  0  0  0  0
 19 20  2  0  0  0  0
  8  9  1  0  0  0  0
  9 17  1  0  0  0  0
  9 10  2  0  0  0  0
  1  3  1  0  0  0  0
  1  7  1  0  0  0  0
  1  2  2  0  0  0  0
 32 33  1  0  0  0  0
 33 41  1  0  0  0  0
 33 34  2  0  0  0  0
 21 22  1  0  0  0  0
 22 23  1  0  0  0  0
 18 21  1  0  0  0  0
 17 23  1  0  0  0  0
 17 18  1  0  0  0  0
  8 11  1  0  0  0  0
 32 35  1  0  0  0  0
 41 42  1  0  0  0  0
  7  8  1  0  0  0  0
 31 32  1  0  0  0  0
 22 27  1  0  0  0  0
 22 28  1  0  0  0  0
 21 25  1  0  0  0  0
 21 26  1  0  0  0  0
 23 29  1  0  0  0  0
 23 30  1  0  0  0  0
 18 24  1  0  0  0  0
  3  4  1  0  0  0  0
  3  5  1  0  0  0  0
  3  6  1  0  0  0  0
 11 14  1  0  0  0  0
 11 15  1  0  0  0  0
 11 16  1  0  0  0  0
 35 38  1  0  0  0  0
 35 39  1  0  0  0  0
 35 40  1  0  0  0  0
 42 44  1  0  0  0  0
 42 45  1  0  0  0  0
 42 46  1  0  0  0  0
  8 13  1  0  0  0  0
 32 37  1  0  0  0  0
 31 36  1  0  0  0  0
 41 43  1  0  0  0  0
  7 12  1  0  0  0  0
M  END
$$$$

  -OEChem-05262214473D

 46 46  0     1  0  0  0  0  0999 V2000
   -0.6012   -3.2995    3.8205 C   0  0  0  0  0  0  0  0  0  0  0  0
   -0.6574   -4.4683    3.4568 O   0  0  0  0  0  0  0  0  0  0  0  0
   -0.4935   -2.9859    5.2760 C   0  0  0  0  0  0  0  0  0  0  0  0
   -1.4789   -2.8689    5.7550 H   0  0  0  0  0  0  0  0  0  0  0  0
    0.0123   -3.7847    5.8419 H   0  0  0  0  0  0  0  0  0  0  0  0
    0.0585   -2.0642    5.5199 H   0  0  0  0  0  0  0  0  0  0  0  0
   -0.6261   -2.1849    2.9917 N   0  0  0  0  0  0  0  0  0  0  0  0
   -0.7237   -2.2601    1.5650 C   0  0  2  0  0  0  0  0  0  0  0  0
    0.1695   -1.1513    1.0687 C   0  0  0  0  0  0  0  0  0  0  0  0
    0.3193   -0.1267    1.7365 O   0  0  0  0  0  0  0  0  0  0  0  0
   -2.1397   -2.0663    1.0750 C   0  0  0  0  0  0  0  0  0  0  0  0
   -0.5717   -1.2606    3.4238 H   0  0  0  0  0  0  0  0  0  0  0  0
   -0.3076   -3.2111    1.2363 H   0  0  0  0  0  0  0  0  0  0  0  0
   -2.5584   -1.1089    1.4061 H   0  0  0  0  0  0  0  0  0  0  0  0
   -2.1682   -2.0790   -0.0197 H   0  0  0  0  0  0  0  0  0  0  0  0
   -2.7965   -2.8601    1.4459 H   0  0  0  0  0  0  0  0  0  0  0  0
    0.7724   -1.3745   -0.1593 N   0  0  0  0  0  0  0  0  0  0  0  0
    1.6644   -0.4046   -0.7812 C   0  0  2  0  0  0  0  0  0  0  0  0
    0.8166    0.4953   -1.6290 C   0  0  0  0  0  0  0  0  0  0  0  0
    0.1194    1.3492   -1.0938 O   0  0  0  0  0  0  0  0  0  0  0  0
    2.6195   -1.2417   -1.6241 C   0  0  0  0  0  0  0  0  0  0  0  0
    2.1758   -2.2356   -0.5535 C   0  0  0  0  0  0  0  0  0  0  0  0
    0.7499   -2.6270   -0.9105 C   0  0  0  0  0  0  0  0  0  0  0  0
    2.1745    0.2007   -0.0258 H   0  0  0  0  0  0  0  0  0  0  0  0
    3.6296   -0.8175   -1.5784 H   0  0  0  0  0  0  0  0  0  0  0  0
    2.3218   -1.3211   -2.6742 H   0  0  0  0  0  0  0  0  0  0  0  0
    2.8084   -3.1304   -0.5781 H   0  0  0  0  0  0  0  0  0  0  0  0
    2.2249   -1.8085    0.4522 H   0  0  0  0  0  0  0  0  0  0  0  0
    0.5944   -2.7143   -1.9893 H   0  0  0  0  0  0  0  0  0  0  0  0
    0.4645   -3.5695   -0.4308 H   0  0  0  0  0  0  0  0  0  0  0  0
    1.1019    0.0279   -3.0921 N   0  0  0  0  0  0  0  0  0  0  0  0
    0.5484    0.7379   -4.2228 C   0  0  2  0  0  0  0  0  0  0  0  0
    1.1965    2.1151   -4.2764 C   0  0  0  0  0  0  0  0  0  0  0  0
    1.7113    2.6527   -3.2981 O   0  0  0  0  0  0  0  0  0  0  0  0
   -0.9643    0.8528   -4.1175 C   0  0  0  0  0  0  0  0  0  0  0  0
    1.5710   -0.8572   -3.2595 H   0  0  0  0  0  0  0  0  0  0  0  0
    0.8227    0.1695   -5.1182 H   0  0  0  0  0  0  0  0  0  0  0  0
   -1.2582    1.4192   -3.2263 H   0  0  0  0  0  0  0  0  0  0  0  0
   -1.3849    1.3658   -4.9887 H   0  0  0  0  0  0  0  0  0  0  0  0
   -1.4266   -0.1379   -4.0491 H   0  0  0  0  0  0  0  0  0  0  0  0
    1.0942    2.6914   -5.5348 N   0  0  0  0  0  0  0  0  0  0  0  0
    1.6208    4.0018   -5.8373 C   0  0  0  0  0  0  0  0  0  0  0  0
    0.6678    2.1656   -6.2920 H   0  0  0  0  0  0  0  0  0  0  0  0
    0.8347    4.7568   -5.6890 H   0  0  0  0  0  0  0  0  0  0  0  0
    2.4682    4.2192   -5.1704 H   0  0  0  0  0  0  0  0  0  0  0  0
    1.9612    4.0276   -6.8830 H   0  0  0  0  0  0  0  0  0  0  0  0
 18 19  1  0  0  0  0
 19 31  1  0  0  0  0
 19 20  2  0  0  0  0
  8  9  1  0  0  0  0
  9 17  1  0  0  0  0
  9 10  2  0  0  0  0
  1  3  1  0  0  0  0
  1  7  1  0  0  0  0
  1  2  2  0  0  0  0
 32 33  1  0  0  0  0
 33 41  1  0  0  0  0
 33 34  2  0  0  0  0
 21 22  1  0  0  0  0
 22 23  1  0  0  0  0
 18 21  1  0  0  0  0
 17 23  1  0  0  0  0
 17 18  1  0  0  0  0
  8 11  1  0  0  0  0
 32 35  1  0  0  0  0
 41 42  1  0  0  0  0
  7  8  1  0  0  0  0
 31 32  1  0  0  0  0
 22 27  1  0  0  0  0
 22 28  1  0  0  0  0
 21 25  1  0  0  0  0
 21 26  1  0  0  0  0
 23 29  1  0  0  0  0
 23 30  1  0  0  0  0
 18 24  1  0  0  0  0
  3  4  1  0  0  0  0
  3  5  1  0  0  0  0
  3  6  1  0  0  0  0
 11 14  1  0  0  0  0
 11 15  1  0  0  0  0
 11 16  1  0  0  0  0
 35 38  1  0  0  0  0
 35 39  1  0  0  0  0
 35 40  1  0  0  0  0
 42 44  1  0  0  0  0
 42 45  1  0  0  0  0
 42 46  1  0  0  0  0
  8 13  1  0  0  0  0
 32 37  1  0  0  0  0
 31 36  1  0  0  0  0
 41 43  1  0  0  0  0
  7 12  1  0  0  0  0
M  END
$$$$

  -OEChem-05262214473D

 46 46  0     1  0  0  0  0  0999 V2000
   -0.6012   -3.2995    3.8205 C   0  0  0  0  0  0  0  0  0  0  0  0
   -0.6574   -4.4683    3.4568 O   0  0  0  0  0  0  0  0  0  0  0  0
   -0.4935   -2.9859    5.2760 C   0  0  0  0  0  0  0  0  0  0  0  0
   -1.4789   -2.8689    5.7550 H   0  0  0  0  0  0  0  0  0  0  0  0
    0.0123   -3.7847    5.8419 H   0  0  0  0  0  0  0  0  0  0  0  0
    0.0585   -2.0642    5.5199 H   0  0  0  0  0  0  0  0  0  0  0  0
   -0.6261   -2.1849    2.9917 N   0  0  0  0  0  0  0  0  0  0  0  0
   -0.7237   -2.2601    1.5650 C   0  0  2  0  0  0  0  0  0  0  0  0
    0.1695   -1.1513    1.0687 C   0  0  0  0  0  0  0  0  0  0  0  0
    0.3193   -0.1267    1.7365 O   0  0  0  0  0  0  0  0  0  0  0  0
   -2.1397   -2.0663    1.0750 C   0  0  0  0  0  0  0  0  0  0  0  0
   -0.5717   -1.2606    3.4238 H   0  0  0  0  0  0  0  0  0  0  0  0
   -0.3076   -3.2111    1.2363 H   0  0  0  0  0  0  0  0  0  0  0  0
   -2.5584   -1.1089    1.4061 H   0  0  0  0  0  0  0  0  0  0  0  0
   -2.1682   -2.0790   -0.0197 H   0  0  0  0  0  0  0  0  0  0  0  0
   -2.7965   -2.8601    1.4459 H   0  0  0  0  0  0  0  0  0  0  0  0
    0.7724   -1.3745   -0.1593 N   0  0  0  0  0  0  0  0  0  0  0  0
    1.6644   -0.4046   -0.7812 C   0  0  2  0  0  0  0  0  0  0  0  0
    0.8166    0.4953   -1.6290 C   0  0  0  0  0  0  0  0  0  0  0  0
    0.3396    1.5128   -1.1403 O   0  0  0  0  0  0  0  0  0  0  0  0
    2.6195   -1.2417   -1.6241 C   0  0  0  0  0  0  0  0  0  0  0  0
    2.1758   -2.2356   -0.5535 C   0  0  0  0  0  0  0  0  0  0  0  0
    0.7499   -2.6270   -0.9105 C   0  0  0  0  0  0  0  0  0  0  0  0
    2.1745    0.2007   -0.0258 H   0  0  0  0  0  0  0  0  0  0  0  0
    3.6296   -0.8175   -1.5784 H   0  0  0  0  0  0  0  0  0  0  0  0
    2.3218   -1.3211   -2.6742 H   0  0  0  0  0  0  0  0  0  0  0  0
    2.8084   -3.1304   -0.5781 H   0  0  0  0  0  0  0  0  0  0  0  0
    2.2249   -1.8085    0.4522 H   0  0  0  0  0  0  0  0  0  0  0  0
    0.5944   -2.7143   -1.9893 H   0  0  0  0  0  0  0  0  0  0  0  0
    0.4645   -3.5695   -0.4308 H   0  0  0  0  0  0  0  0  0  0  0  0
    0.7890   -0.2042   -3.0256 N   0  0  0  0  0  0  0  0  0  0  0  0
    0.1561    0.4253   -4.1623 C   0  0  2  0  0  0  0  0  0  0  0  0
    0.9659    1.6629   -4.5258 C   0  0  0  0  0  0  0  0  0  0  0  0
    1.7039    2.2393   -3.7294 O   0  0  0  0  0  0  0  0  0  0  0  0
   -1.2886    0.7908   -3.8590 C   0  0  0  0  0  0  0  0  0  0  0  0
    1.1001   -1.1667   -3.1171 H   0  0  0  0  0  0  0  0  0  0  0  0
    0.1984   -0.2947   -4.9868 H   0  0  0  0  0  0  0  0  0  0  0  0
   -1.3512    1.5114   -3.0354 H   0  0  0  0  0  0  0  0  0  0  0  0
   -1.7751    1.2416   -4.7303 H   0  0  0  0  0  0  0  0  0  0  0  0
   -1.8623   -0.0960   -3.5689 H   0  0  0  0  0  0  0  0  0  0  0  0
    0.7344    2.0732   -5.8312 N   0  0  0  0  0  0  0  0  0  0  0  0
    1.3752    3.2311   -6.4098 C   0  0  0  0  0  0  0  0  0  0  0  0
    0.1210    1.5242   -6.4263 H   0  0  0  0  0  0  0  0  0  0  0  0
    0.7336    4.1137   -6.2705 H   0  0  0  0  0  0  0  0  0  0  0  0
    2.3431    3.3998   -5.9151 H   0  0  0  0  0  0  0  0  0  0  0  0
    1.5372    3.0616   -7.4845 H   0  0  0  0  0  0  0  0  0  0  0  0
 18 19  1  0  0  0  0
 19 31  1  0  0  0  0
 19 20  2  0  0  0  0
  8  9  1  0  0  0  0
  9 17  1  0  0  0  0
  9 10  2  0  0  0  0
  1  3  1  0  0  0  0
  1  7  1  0  0  0  0
  1  2  2  0  0  0  0
 32 33  1  0  0  0  0
 33 41  1  0  0  0  0
 33 34  2  0  0  0  0
 21 22  1  0  0  0  0
 22 23  1  0  0  0  0
 18 21  1  0  0  0  0
 17 23  1  0  0  0  0
 17 18  1  0  0  0  0
  8 11  1  0  0  0  0
 32 35  1  0  0  0  0
 41 42  1  0  0  0  0
  7  8  1  0  0  0  0
 31 32  1  0  0  0  0
 22 27  1  0  0  0  0
 22 28  1  0  0  0  0
 21 25  1  0  0  0  0
 21 26  1  0  0  0  0
 23 29  1  0  0  0  0
 23 30  1  0  0  0  0
 18 24  1  0  0  0  0
  3  4  1  0  0  0  0
  3  5  1  0  0  0  0
  3  6  1  0  0  0  0
 11 14  1  0  0  0  0
 11 15  1  0  0  0  0
 11 16  1  0  0  0  0
 35 38  1  0  0  0  0
 35 39  1  0  0  0  0
 35 40  1  0  0  0  0
 42 44  1  0  0  0  0
 42 45  1  0  0  0  0
 42 46  1  0  0  0  0
  8 13  1  0  0  0  0
 32 37  1  0  0  0  0
 31 36  1  0  0  0  0
 41 43  1  0  0  0  0
  7 12  1  0  0  0  0
M  END
$$$$

  -OEChem-05262214473D

 46 46  0     1  0  0  0  0  0999 V2000
   -0.6012   -3.2995    3.8205 C   0  0  0  0  0  0  0  0  0  0  0  0
   -0.6574   -4.4683    3.4568 O   0  0  0  0  0  0  0  0  0  0  0  0
   -0.4935   -2.9859    5.2760 C   0  0  0  0  0  0  0  0  0  0  0  0
   -1.4789   -2.8689    5.7550 H   0  0  0  0  0  0  0  0  0  0  0  0
    0.0123   -3.7847    5.8419 H   0  0  0  0  0  0  0  0  0  0  0  0
    0.0585   -2.0642    5.5199 H   0  0  0  0  0  0  0  0  0  0  0  0
   -0.6261   -2.1849    2.9917 N   0  0  0  0  0  0  0  0  0  0  0  0
   -0.7237   -2.2601    1.5650 C   0  0  2  0  0  0  0  0  0  0  0  0
    0.1695   -1.1513    1.0687 C   0  0  0  0  0  0  0  0  0  0  0  0
    0.3193   -0.1267    1.7365 O   0  0  0  0  0  0  0  0  0  0  0  0
   -2.1397   -2.0663    1.0750 C   0  0  0  0  0  0  0  0  0  0  0  0
   -0.5717   -1.2606    3.4238 H   0  0  0  0  0  0  0  0  0  0  0  0
   -0.3076   -3.2111    1.2363 H   0  0  0  0  0  0  0  0  0  0  0  0
   -2.5584   -1.1089    1.4061 H   0  0  0  0  0  0  0  0  0  0  0  0
   -2.1682   -2.0790   -0.0197 H   0  0  0  0  0  0  0  0  0  0  0  0
   -2.7965   -2.8601    1.4459 H   0  0  0  0  0  0  0  0  0  0  0  0
    0.7724   -1.3745   -0.1593 N   0  0  0  0  0  0  0  0  0  0  0  0
    1.6644   -0.4046   -0.7812 C   0  0  2  0  0  0  0  0  0  0  0  0
    0.8166    0.4953   -1.6290 C   0  0  0  0  0  0  0  0  0  0  0  0
    0.5691    1.6318   -1.2434 O   0  0  0  0  0  0  0  0  0  0  0  0
    2.6195   -1.2417   -1.6241 C   0  0  0  0  0  0  0  0  0  0  0  0
    2.1758   -2.2356   -0.5535 C   0  0  0  0  0  0  0  0  0  0  0  0
    0.7499   -2.6270   -0.9105 C   0  0  0  0  0  0  0  0  0  0  0  0
    2.1745    0.2007   -0.0258 H   0  0  0  0  0  0  0  0  0  0  0  0
    3.6296   -0.8175   -1.5784 H   0  0  0  0  0  0  0  0  0  0  0  0
    2.3218   -1.3211   -2.6742 H   0  0  0  0  0  0  0  0  0  0  0  0
    2.8084   -3.1304   -0.5781 H   0  0  0  0  0  0  0  0  0  0  0  0
    2.2249   -1.8085    0.4522 H   0  0  0  0  0  0  0  0  0  0  0  0
    0.5944   -2.7143   -1.9893 H   0  0  0  0  0  0  0  0  0  0  0  0
    0.4645   -3.5695   -0.4308 H   0  0  0  0  0  0  0  0  0  0  0  0
    0.4631   -0.3729   -2.8788 N   0  0  0  0  0  0  0  0  0  0  0  0
   -0.2593    0.1897   -3.9971 C   0  0  2  0  0  0  0  0  0  0  0  0
    0.6382    1.2234   -4.6646 C   0  0  0  0  0  0  0  0  0  0  0  0
    1.5692    1.7781   -4.0844 O   0  0  0  0  0  0  0  0  0  0  0  0
   -1.5708    0.8163   -3.5499 C   0  0  0  0  0  0  0  0  0  0  0  0
    0.6220   -1.3758   -2.8611 H   0  0  0  0  0  0  0  0  0  0  0  0
   -0.4520   -0.6325   -4.6949 H   0  0  0  0  0  0  0  0  0  0  0  0
   -1.3978    1.6421   -2.8501 H   0  0  0  0  0  0  0  0  0  0  0  0
   -2.1301    1.2166   -4.4018 H   0  0  0  0  0  0  0  0  0  0  0  0
   -2.2025    0.0785   -3.0435 H   0  0  0  0  0  0  0  0  0  0  0  0
    0.2503    1.4854   -5.9711 N   0  0  0  0  0  0  0  0  0  0  0  0
    0.9361    2.4388   -6.8117 C   0  0  0  0  0  0  0  0  0  0  0  0
   -0.5218    0.9649   -6.3771 H   0  0  0  0  0  0  0  0  0  0  0  0
    0.4516    3.4223   -6.7224 H   0  0  0  0  0  0  0  0  0  0  0  0
    1.9866    2.5176   -6.4950 H   0  0  0  0  0  0  0  0  0  0  0  0
    0.8929    2.1026   -7.8582 H   0  0  0  0  0  0  0  0  0  0  0  0
 18 19  1  0  0  0  0
 19 31  1  0  0  0  0
 19 20  2  0  0  0  0
  8  9  1  0  0  0  0
  9 17  1  0  0  0  0
  9 10  2  0  0  0  0
  1  3  1  0  0  0  0
  1  7  1  0  0  0  0
  1  2  2  0  0  0  0
 32 33  1  0  0  0  0
 33 41  1  0  0  0  0
 33 34  2  0  0  0  0
 21 22  1  0  0  0  0
 22 23  1  0  0  0  0
 18 21  1  0  0  0  0
 17 23  1  0  0  0  0
 17 18  1  0  0  0  0
  8 11  1  0  0  0  0
 32 35  1  0  0  0  0
 41 42  1  0  0  0  0
  7  8  1  0  0  0  0
 31 32  1  0  0  0  0
 22 27  1  0  0  0  0
 22 28  1  0  0  0  0
 21 25  1  0  0  0  0
 21 26  1  0  0  0  0
 23 29  1  0  0  0  0
 23 30  1  0  0  0  0
 18 24  1  0  0  0  0
  3  4  1  0  0  0  0
  3  5  1  0  0  0  0
  3  6  1  0  0  0  0
 11 14  1  0  0  0  0
 11 15  1  0  0  0  0
 11 16  1  0  0  0  0
 35 38  1  0  0  0  0
 35 39  1  0  0  0  0
 35 40  1  0  0  0  0
 42 44  1  0  0  0  0
 42 45  1  0  0  0  0
 42 46  1  0  0  0  0
  8 13  1  0  0  0  0
 32 37  1  0  0  0  0
 31 36  1  0  0  0  0
 41 43  1  0  0  0  0
  7 12  1  0  0  0  0
M  END
$$$$

  -OEChem-05262214473D

 46 46  0     1  0  0  0  0  0999 V2000
   -0.6012   -3.2995    3.8205 C   0  0  0  0  0  0  0  0  0  0  0  0
   -0.6574   -4.4683    3.4568 O   0  0  0  0  0  0  0  0  0  0  0  0
   -0.4935   -2.9859    5.2760 C   0  0  0  0  0  0  0  0  0  0  0  0
   -1.4789   -2.8689    5.7550 H   0  0  0  0  0  0  0  0  0  0  0  0
    0.0123   -3.7847    5.8419 H   0  0  0  0  0  0  0  0  0  0  0  0
    0.0585   -2.0642    5.5199 H   0  0  0  0  0  0  0  0  0  0  0  0
   -0.6261   -2.1849    2.9917 N   0  0  0  0  0  0  0  0  0  0  0  0
   -0.7237   -2.2601    1.5650 C   0  0  2  0  0  0  0  0  0  0  0  0
    0.1695   -1.1513    1.0687 C   0  0  0  0  0  0  0  0  0  0  0  0
    0.3193   -0.1267    1.7365 O   0  0  0  0  0  0  0  0  0  0  0  0
   -2.1397   -2.0663    1.0750 C   0  0  0  0  0  0  0  0  0  0  0  0
   -0.5717   -1.2606    3.4238 H   0  0  0  0  0  0  0  0  0  0  0  0
   -0.3076   -3.2111    1.2363 H   0  0  0  0  0  0  0  0  0  0  0  0
   -2.5584   -1.1089    1.4061 H   0  0  0  0  0  0  0  0  0  0  0  0
   -2.1682   -2.0790   -0.0197 H   0  0  0  0  0  0  0  0  0  0  0  0
   -2.7965   -2.8601    1.4459 H   0  0  0  0  0  0  0  0  0  0  0  0
    0.7724   -1.3745   -0.1593 N   0  0  0  0  0  0  0  0  0  0  0  0
    1.6644   -0.4046   -0.7812 C   0  0  2  0  0  0  0  0  0  0  0  0
    0.8166    0.4953   -1.6290 C   0  0  0  0  0  0  0  0  0  0  0  0
    0.7922    1.6981   -1.3961 O   0  0  0  0  0  0  0  0  0  0  0  0
    2.6195   -1.2417   -1.6241 C   0  0  0  0  0  0  0  0  0  0  0  0
    2.1758   -2.2356   -0.5535 C   0  0  0  0  0  0  0  0  0  0  0  0
    0.7499   -2.6270   -0.9105 C   0  0  0  0  0  0  0  0  0  0  0  0
    2.1745    0.2007   -0.0258 H   0  0  0  0  0  0  0  0  0  0  0  0
    3.6296   -0.8175   -1.5784 H   0  0  0  0  0  0  0  0  0  0  0  0
    2.3218   -1.3211   -2.6742 H   0  0  0  0  0  0  0  0  0  0  0  0
    2.8084   -3.1304   -0.5781 H   0  0  0  0  0  0  0  0  0  0  0  0
    2.2249   -1.8085    0.4522 H   0  0  0  0  0  0  0  0  0  0  0  0
    0.5944   -2.7143   -1.9893 H   0  0  0  0  0  0  0  0  0  0  0  0
    0.4645   -3.5695   -0.4308 H   0  0  0  0  0  0  0  0  0  0  0  0
    0.1465   -0.4666   -2.6616 N   0  0  0  0  0  0  0  0  0  0  0  0
   -0.6693    0.0470   -3.7385 C   0  0  2  0  0  0  0  0  0  0  0  0
    0.2357    0.8265   -4.6835 C   0  0  0  0  0  0  0  0  0  0  0  0
    1.3164    1.3003   -4.3388 O   0  0  0  0  0  0  0  0  0  0  0  0
   -1.7916    0.9274   -3.2111 C   0  0  0  0  0  0  0  0  0  0  0  0
    0.1695   -1.4704   -2.5089 H   0  0  0  0  0  0  0  0  0  0  0  0
   -1.0844   -0.8208   -4.2624 H   0  0  0  0  0  0  0  0  0  0  0  0
   -1.3949    1.8022   -2.6830 H   0  0  0  0  0  0  0  0  0  0  0  0
   -2.4256    1.2925   -4.0258 H   0  0  0  0  0  0  0  0  0  0  0  0
   -2.4239    0.3737   -2.5087 H   0  0  0  0  0  0  0  0  0  0  0  0
   -0.3251    0.9679   -5.9451 N   0  0  0  0  0  0  0  0  0  0  0  0
    0.3336    1.6790   -7.0158 C   0  0  0  0  0  0  0  0  0  0  0  0
   -1.2169    0.5260   -6.1478 H   0  0  0  0  0  0  0  0  0  0  0  0
    0.0077    2.7296   -7.0139 H   0  0  0  0  0  0  0  0  0  0  0  0
    1.4230    1.6328   -6.8707 H   0  0  0  0  0  0  0  0  0  0  0  0
    0.0720    1.2158   -7.9787 H   0  0  0  0  0  0  0  0  0  0  0  0
 18 19  1  0  0  0  0
 19 31  1  0  0  0  0
 19 20  2  0  0  0  0
  8  9  1  0  0  0  0
  9 17  1  0  0  0  0
  9 10  2  0  0  0  0
  1  3  1  0  0  0  0
  1  7  1  0  0  0  0
  1  2  2  0  0  0  0
 32 33  1  0  0  0  0
 33 41  1  0  0  0  0
 33 34  2  0  0  0  0
 21 22  1  0  0  0  0
 22 23  1  0  0  0  0
 18 21  1  0  0  0  0
 17 23  1  0  0  0  0
 17 18  1  0  0  0  0
  8 11  1  0  0  0  0
 32 35  1  0  0  0  0
 41 42  1  0  0  0  0
  7  8  1  0  0  0  0
 31 32  1  0  0  0  0
 22 27  1  0  0  0  0
 22 28  1  0  0  0  0
 21 25  1  0  0  0  0
 21 26  1  0  0  0  0
 23 29  1  0  0  0  0
 23 30  1  0  0  0  0
 18 24  1  0  0  0  0
  3  4  1  0  0  0  0
  3  5  1  0  0  0  0
  3  6  1  0  0  0  0
 11 14  1  0  0  0  0
 11 15  1  0  0  0  0
 11 16  1  0  0  0  0
 35 38  1  0  0  0  0
 35 39  1  0  0  0  0
 35 40  1  0  0  0  0
 42 44  1  0  0  0  0
 42 45  1  0  0  0  0
 42 46  1  0  0  0  0
  8 13  1  0  0  0  0
 32 37  1  0  0  0  0
 31 36  1  0  0  0  0
 41 43  1  0  0  0  0
  7 12  1  0  0  0  0
M  END
$$$$

  -OEChem-05262214473D

 46 46  0     1  0  0  0  0  0999 V2000
   -0.6012   -3.2995    3.8205 C   0  0  0  0  0  0  0  0  0  0  0  0
   -0.6574   -4.4683    3.4568 O   0  0  0  0  0  0  0  0  0  0  0  0
   -0.4935   -2.9859    5.2760 C   0  0  0  0  0  0  0  0  0  0  0  0
   -1.4789   -2.8689    5.7550 H   0  0  0  0  0  0  0  0  0  0  0  0
    0.0123   -3.7847    5.8419 H   0  0  0  0  0  0  0  0  0  0  0  0
    0.0585   -2.0642    5.5199 H   0  0  0  0  0  0  0  0  0  0  0  0
   -0.6261   -2.1849    2.9917 N   0  0  0  0  0  0  0  0  0  0  0  0
   -0.7237   -2.2601    1.5650 C   0  0  2  0  0  0  0  0  0  0  0  0
    0.1695   -1.1513    1.0687 C   0  0  0  0  0  0  0  0  0  0  0  0
    0.3193   -0.1267    1.7365 O   0  0  0  0  0  0  0  0  0  0  0  0
   -2.1397   -2.0663    1.0750 C   0  0  0  0  0  0  0  0  0  0  0  0
   -0.5717   -1.2606    3.4238 H   0  0  0  0  0  0  0  0  0  0  0  0
   -0.3076   -3.2111    1.2363 H   0  0  0  0  0  0  0  0  0  0  0  0
   -2.5584   -1.1089    1.4061 H   0  0  0  0  0  0  0  0  0  0  0  0
   -2.1682   -2.0790   -0.0197 H   0  0  0  0  0  0  0  0  0  0  0  0
   -2.7965   -2.8601    1.4459 H   0  0  0  0  0  0  0  0  0  0  0  0
    0.7724   -1.3745   -0.1593 N   0  0  0  0  0  0  0  0  0  0  0  0
    1.6644   -0.4046   -0.7812 C   0  0  2  0  0  0  0  0  0  0  0  0
    0.8166    0.4953   -1.6290 C   0  0  0  0  0  0  0  0  0  0  0  0
    0.9936    1.7072   -1.5879 O   0  0  0  0  0  0  0  0  0  0  0  0
    2.6195   -1.2417   -1.6241 C   0  0  0  0  0  0  0  0  0  0  0  0
    2.1758   -2.2356   -0.5535 C   0  0  0  0  0  0  0  0  0  0  0  0
    0.7499   -2.6270   -0.9105 C   0  0  0  0  0  0  0  0  0  0  0  0
    2.1745    0.2007   -0.0258 H   0  0  0  0  0  0  0  0  0  0  0  0
    3.6296   -0.8175   -1.5784 H   0  0  0  0  0  0  0  0  0  0  0  0
    2.3218   -1.3211   -2.6742 H   0  0  0  0  0  0  0  0  0  0  0  0
    2.8084   -3.1304   -0.5781 H   0  0  0  0  0  0  0  0  0  0  0  0
    2.2249   -1.8085    0.4522 H   0  0  0  0  0  0  0  0  0  0  0  0
    0.5944   -2.7143   -1.9893 H   0  0  0  0  0  0  0  0  0  0  0  0
    0.4645   -3.5695   -0.4308 H   0  0  0  0  0  0  0  0  0  0  0  0
   -0.1393   -0.4790   -2.3890 N   0  0  0  0  0  0  0  0  0  0  0  0
   -1.0460    0.0071   -3.4042 C   0  0  2  0  0  0  0  0  0  0  0  0
   -0.2140    0.4993   -4.5811 C   0  0  0  0  0  0  0  0  0  0  0  0
    0.9628    0.8385   -4.4753 O   0  0  0  0  0  0  0  0  0  0  0  0
   -1.9359    1.1166   -2.8659 C   0  0  0  0  0  0  0  0  0  0  0  0
   -0.2268   -1.4439   -2.0846 H   0  0  0  0  0  0  0  0  0  0  0  0
   -1.6556   -0.8469   -3.7189 H   0  0  0  0  0  0  0  0  0  0  0  0
   -1.3428    1.9809   -2.5455 H   0  0  0  0  0  0  0  0  0  0  0  0
   -2.6415    1.4641   -3.6277 H   0  0  0  0  0  0  0  0  0  0  0  0
   -2.5115    0.7695   -2.0010 H   0  0  0  0  0  0  0  0  0  0  0  0
   -0.9526    0.5561   -5.7547 N   0  0  0  0  0  0  0  0  0  0  0  0
   -0.3913    1.0033   -7.0081 C   0  0  0  0  0  0  0  0  0  0  0  0
   -1.9170    0.2374   -5.7542 H   0  0  0  0  0  0  0  0  0  0  0  0
   -0.5677    2.0827   -7.1251 H   0  0  0  0  0  0  0  0  0  0  0  0
    0.6907    0.8057   -7.0165 H   0  0  0  0  0  0  0  0  0  0  0  0
   -0.8694    0.4618   -7.8377 H   0  0  0  0  0  0  0  0  0  0  0  0
 18 19  1  0  0  0  0
 19 31  1  0  0  0  0
 19 20  2  0  0  0  0
  8  9  1  0  0  0  0
  9 17  1  0  0  0  0
  9 10  2  0  0  0  0
  1  3  1  0  0  0  0
  1  7  1  0  0  0  0
  1  2  2  0  0  0  0
 32 33  1  0  0  0  0
 33 41  1  0  0  0  0
 33 34  2  0  0  0  0
 21 22  1  0  0  0  0
 22 23  1  0  0  0  0
 18 21  1  0  0  0  0
 17 23  1  0  0  0  0
 17 18  1  0  0  0  0
  8 11  1  0  0  0  0
 32 35  1  0  0  0  0
 41 42  1  0  0  0  0
  7  8  1  0  0  0  0
 31 32  1  0  0  0  0
 22 27  1  0  0  0  0
 22 28  1  0  0  0  0
 21 25  1  0  0  0  0
 21 26  1  0  0  0  0
 23 29  1  0  0  0  0
 23 30  1  0  0  0  0
 18 24  1  0  0  0  0
  3  4  1  0  0  0  0
  3  5  1  0  0  0  0
  3  6  1  0  0  0  0
 11 14  1  0  0  0  0
 11 15  1  0  0  0  0
 11 16  1  0  0  0  0
 35 38  1  0  0  0  0
 35 39  1  0  0  0  0
 35 40  1  0  0  0  0
 42 44  1  0  0  0  0
 42 45  1  0  0  0  0
 42 46  1  0  0  0  0
  8 13  1  0  0  0  0
 32 37  1  0  0  0  0
 31 36  1  0  0  0  0
 41 43  1  0  0  0  0
  7 12  1  0  0  0  0
M  END
$$$$

  -OEChem-05262214473D

 46 46  0     1  0  0  0  0  0999 V2000
   -0.6012   -3.2995    3.8205 C   0  0  0  0  0  0  0  0  0  0  0  0
   -0.6574   -4.4683    3.4568 O   0  0  0  0  0  0  0  0  0  0  0  0
   -0.4935   -2.9859    5.2760 C   0  0  0  0  0  0  0  0  0  0  0  0
   -1.4789   -2.8689    5.7550 H   0  0  0  0  0  0  0  0  0  0  0  0
    0.0123   -3.7847    5.8419 H   0  0  0  0  0  0  0  0  0  0  0  0
    0.0585   -2.0642    5.5199 H   0  0  0  0  0  0  0  0  0  0  0  0
   -0.6261   -2.1849    2.9917 N   0  0  0  0  0  0  0  0  0  0  0  0
   -0.7237   -2.2601    1.5650 C   0  0  2  0  0  0  0  0  0  0  0  0
    0.1695   -1.1513    1.0687 C   0  0  0  0  0  0  0  0  0  0  0  0
    0.3193   -0.1267    1.7365 O   0  0  0  0  0  0  0  0  0  0  0  0
   -2.1397   -2.0663    1.0750 C   0  0  0  0  0  0  0  0  0  0  0  0
   -0.5717   -1.2606    3.4238 H   0  0  0  0  0  0  0  0  0  0  0  0
   -0.3076   -3.2111    1.2363 H   0  0  0  0  0  0  0  0  0  0  0  0
   -2.5584   -1.1089    1.4061 H   0  0  0  0  0  0  0  0  0  0  0  0
   -2.1682   -2.0790   -0.0197 H   0  0  0  0  0  0  0  0  0  0  0  0
   -2.7965   -2.8601    1.4459 H   0  0  0  0  0  0  0  0  0  0  0  0
    0.7724   -1.3745   -0.1593 N   0  0  0  0  0  0  0  0  0  0  0  0
    1.6644   -0.4046   -0.7812 C   0  0  2  0  0  0  0  0  0  0  0  0
    0.8166    0.4953   -1.6290 C   0  0  0  0  0  0  0  0  0  0  0  0
    1.1597    1.6584   -1.8059 O   0  0  0  0  0  0  0  0  0  0  0  0
    2.6195   -1.2417   -1.6241 C   0  0  0  0  0  0  0  0  0  0  0  0
    2.1758   -2.2356   -0.5535 C   0  0  0  0  0  0  0  0  0  0  0  0
    0.7499   -2.6270   -0.9105 C   0  0  0  0  0  0  0  0  0  0  0  0
    2.1745    0.2007   -0.0258 H   0  0  0  0  0  0  0  0  0  0  0  0
    3.6296   -0.8175   -1.5784 H   0  0  0  0  0  0  0  0  0  0  0  0
    2.3218   -1.3211   -2.6742 H   0  0  0  0  0  0  0  0  0  0  0  0
    2.8084   -3.1304   -0.5781 H   0  0  0  0  0  0  0  0  0  0  0  0
    2.2249   -1.8085    0.4522 H   0  0  0  0  0  0  0  0  0  0  0  0
    0.5944   -2.7143   -1.9893 H   0  0  0  0  0  0  0  0  0  0  0  0
    0.4645   -3.5695   -0.4308 H   0  0  0  0  0  0  0  0  0  0  0  0
   -0.3749   -0.4093   -2.0794 N   0  0  0  0  0  0  0  0  0  0  0  0
   -1.3638    0.0726   -3.0168 C   0  0  2  0  0  0  0  0  0  0  0  0
   -0.6804    0.2640   -4.3644 C   0  0  0  0  0  0  0  0  0  0  0  0
    0.5324    0.4242   -4.4847 O   0  0  0  0  0  0  0  0  0  0  0  0
   -1.9940    1.3710   -2.5377 C   0  0  0  0  0  0  0  0  0  0  0  0
   -0.5398   -1.2983   -1.6170 H   0  0  0  0  0  0  0  0  0  0  0  0
   -2.1267   -0.7089   -3.1013 H   0  0  0  0  0  0  0  0  0  0  0  0
   -1.2448    2.1660   -2.4469 H   0  0  0  0  0  0  0  0  0  0  0  0
   -2.7631    1.7197   -3.2348 H   0  0  0  0  0  0  0  0  0  0  0  0
   -2.4592    1.2390   -1.5548 H   0  0  0  0  0  0  0  0  0  0  0  0
   -1.5893    0.2781   -5.4131 N   0  0  0  0  0  0  0  0  0  0  0  0
   -1.1892    0.4579   -6.7892 C   0  0  0  0  0  0  0  0  0  0  0  0
   -2.5743    0.1186   -5.2229 H   0  0  0  0  0  0  0  0  0  0  0  0
   -1.2355    1.5259   -7.0485 H   0  0  0  0  0  0  0  0  0  0  0  0
   -0.1603    0.0926   -6.9225 H   0  0  0  0  0  0  0  0  0  0  0  0
   -1.8671   -0.1082   -7.4450 H   0  0  0  0  0  0  0  0  0  0  0  0
 18 19  1  0  0  0  0
 19 31  1  0  0  0  0
 19 20  2  0  0  0  0
  8  9  1  0  0  0  0
  9 17  1  0  0  0  0
  9 10  2  0  0  0  0
  1  3  1  0  0  0  0
  1  7  1  0  0  0  0
  1  2  2  0  0  0  0
 32 33  1  0  0  0  0
 33 41  1  0  0  0  0
 33 34  2  0  0  0  0
 21 22  1  0  0  0  0
 22 23  1  0  0  0  0
 18 21  1  0  0  0  0
 17 23  1  0  0  0  0
 17 18  1  0  0  0  0
  8 11  1  0  0  0  0
 32 35  1  0  0  0  0
 41 42  1  0  0  0  0
  7  8  1  0  0  0  0
 31 32  1  0  0  0  0
 22 27  1  0  0  0  0
 22 28  1  0  0  0  0
 21 25  1  0  0  0  0
 21 26  1  0  0  0  0
 23 29  1  0  0  0  0
 23 30  1  0  0  0  0
 18 24  1  0  0  0  0
  3  4  1  0  0  0  0
  3  5  1  0  0  0  0
  3  6  1  0  0  0  0
 11 14  1  0  0  0  0
 11 15  1  0  0  0  0
 11 16  1  0  0  0  0
 35 38  1  0  0  0  0
 35 39  1  0  0  0  0
 35 40  1  0  0  0  0
 42 44  1  0  0  0  0
 42 45  1  0  0  0  0
 42 46  1  0  0  0  0
  8 13  1  0  0  0  0
 32 37  1  0  0  0  0
 31 36  1  0  0  0  0
 41 43  1  0  0  0  0
  7 12  1  0  0  0  0
M  END
$$$$

  -OEChem-05262214473D

 46 46  0     1  0  0  0  0  0999 V2000
   -0.6012   -3.2995    3.8205 C   0  0  0  0  0  0  0  0  0  0  0  0
   -0.6574   -4.4683    3.4568 O   0  0  0  0  0  0  0  0  0  0  0  0
   -0.4935   -2.9859    5.2760 C   0  0  0  0  0  0  0  0  0  0  0  0
   -1.4789   -2.8689    5.7550 H   0  0  0  0  0  0  0  0  0  0  0  0
    0.0123   -3.7847    5.8419 H   0  0  0  0  0  0  0  0  0  0  0  0
    0.0585   -2.0642    5.5199 H   0  0  0  0  0  0  0  0  0  0  0  0
   -0.6261   -2.1849    2.9917 N   0  0  0  0  0  0  0  0  0  0  0  0
   -0.7237   -2.2601    1.5650 C   0  0  2  0  0  0  0  0  0  0  0  0
    0.1695   -1.1513    1.0687 C   0  0  0  0  0  0  0  0  0  0  0  0
    0.3193   -0.1267    1.7365 O   0  0  0  0  0  0  0  0  0  0  0  0
   -2.1397   -2.0663    1.0750 C   0  0  0  0  0  0  0  0  0  0  0  0
   -0.5717   -1.2606    3.4238 H   0  0  0  0  0  0  0  0  0  0  0  0
   -0.3076   -3.2111    1.2363 H   0  0  0  0  0  0  0  0  0  0  0  0
   -2.5584   -1.1089    1.4061 H   0  0  0  0  0  0  0  0  0  0  0  0
   -2.1682   -2.0790   -0.0197 H   0  0  0  0  0  0  0  0  0  0  0  0
   -2.7965   -2.8601    1.4459 H   0  0  0  0  0  0  0  0  0  0  0  0
    0.7724   -1.3745   -0.1593 N   0  0  0  0  0  0  0  0  0  0  0  0
    1.6644   -0.4046   -0.7812 C   0  0  2  0  0  0  0  0  0  0  0  0
    0.8166    0.4953   -1.6290 C   0  0  0  0  0  0  0  0  0  0  0  0
    1.2791    1.5550   -2.0350 O   0  0  0  0  0  0  0  0  0  0  0  0
    2.6195   -1.2417   -1.6241 C   0  0  0  0  0  0  0  0  0  0  0  0
    2.1758   -2.2356   -0.5535 C   0  0  0  0  0  0  0  0  0  0  0  0
    0.7499   -2.6270   -0.9105 C   0  0  0  0  0  0  0  0  0  0  0  0
    2.1745    0.2007   -0.0258 H   0  0  0  0  0  0  0  0  0  0  0  0
    3.6296   -0.8175   -1.5784 H   0  0  0  0  0  0  0  0  0  0  0  0
    2.3218   -1.3211   -2.6742 H   0  0  0  0  0  0  0  0  0  0  0  0
    2.8084   -3.1304   -0.5781 H   0  0  0  0  0  0  0  0  0  0  0  0
    2.2249   -1.8085    0.4522 H   0  0  0  0  0  0  0  0  0  0  0  0
    0.5944   -2.7143   -1.9893 H   0  0  0  0  0  0  0  0  0  0  0  0
    0.4645   -3.5695   -0.4308 H   0  0  0  0  0  0  0  0  0  0  0  0
   -0.5441   -0.2621   -1.7539 N   0  0  0  0  0  0  0  0  0  0  0  0
   -1.6010    0.2391   -2.6029 C   0  0  2  0  0  0  0  0  0  0  0  0
   -1.1317    0.1368   -4.0482 C   0  0  0  0  0  0  0  0  0  0  0  0
    0.0546    0.0857   -4.3662 O   0  0  0  0  0  0  0  0  0  0  0  0
   -1.9619    1.6734   -2.2489 C   0  0  0  0  0  0  0  0  0  0  0  0
   -0.7481   -1.0434   -1.1380 H   0  0  0  0  0  0  0  0  0  0  0  0
   -2.4656   -0.4163   -2.4518 H   0  0  0  0  0  0  0  0  0  0  0  0
   -1.1079    2.3449   -2.3940 H   0  0  0  0  0  0  0  0  0  0  0  0
   -2.7821    2.0419   -2.8738 H   0  0  0  0  0  0  0  0  0  0  0  0
   -2.2707    1.7502   -1.2007 H   0  0  0  0  0  0  0  0  0  0  0  0
   -2.1920    0.1527   -4.9435 N   0  0  0  0  0  0  0  0  0  0  0  0
   -2.0058    0.0799   -6.3739 C   0  0  0  0  0  0  0  0  0  0  0  0
   -3.1440    0.1779   -4.5902 H   0  0  0  0  0  0  0  0  0  0  0  0
   -1.9501    1.0970   -6.7891 H   0  0  0  0  0  0  0  0  0  0  0  0
   -1.0721   -0.4579   -6.5950 H   0  0  0  0  0  0  0  0  0  0  0  0
   -2.8533   -0.4552   -6.8271 H   0  0  0  0  0  0  0  0  0  0  0  0
 18 19  1  0  0  0  0
 19 31  1  0  0  0  0
 19 20  2  0  0  0  0
  8  9  1  0  0  0  0
  9 17  1  0  0  0  0
  9 10  2  0  0  0  0
  1  3  1  0  0  0  0
  1  7  1  0  0  0  0
  1  2  2  0  0  0  0
 32 33  1  0  0  0  0
 33 41  1  0  0  0  0
 33 34  2  0  0  0  0
 21 22  1  0  0  0  0
 22 23  1  0  0  0  0
 18 21  1  0  0  0  0
 17 23  1  0  0  0  0
 17 18  1  0  0  0  0
  8 11  1  0  0  0  0
 32 35  1  0  0  0  0
 41 42  1  0  0  0  0
  7  8  1  0  0  0  0
 31 32  1  0  0  0  0
 22 27  1  0  0  0  0
 22 28  1  0  0  0  0
 21 25  1  0  0  0  0
 21 26  1  0  0  0  0
 23 29  1  0  0  0  0
 23 30  1  0  0  0  0
 18 24  1  0  0  0  0
  3  4  1  0  0  0  0
  3  5  1  0  0  0  0
  3  6  1  0  0  0  0
 11 14  1  0  0  0  0
 11 15  1  0  0  0  0
 11 16  1  0  0  0  0
 35 38  1  0  0  0  0
 35 39  1  0  0  0  0
 35 40  1  0  0  0  0
 42 44  1  0  0  0  0
 42 45  1  0  0  0  0
 42 46  1  0  0  0  0
  8 13  1  0  0  0  0
 32 37  1  0  0  0  0
 31 36  1  0  0  0  0
 41 43  1  0  0  0  0
  7 12  1  0  0  0  0
M  END
$$$$

  -OEChem-05262214473D

 46 46  0     1  0  0  0  0  0999 V2000
   -0.6012   -3.2995    3.8205 C   0  0  0  0  0  0  0  0  0  0  0  0
   -0.6574   -4.4683    3.4568 O   0  0  0  0  0  0  0  0  0  0  0  0
   -0.4935   -2.9859    5.2760 C   0  0  0  0  0  0  0  0  0  0  0  0
   -1.4789   -2.8689    5.7550 H   0  0  0  0  0  0  0  0  0  0  0  0
    0.0123   -3.7847    5.8419 H   0  0  0  0  0  0  0  0  0  0  0  0
    0.0585   -2.0642    5.5199 H   0  0  0  0  0  0  0  0  0  0  0  0
   -0.6261   -2.1849    2.9917 N   0  0  0  0  0  0  0  0  0  0  0  0
   -0.7237   -2.2601    1.5650 C   0  0  2  0  0  0  0  0  0  0  0  0
    0.1695   -1.1513    1.0687 C   0  0  0  0  0  0  0  0  0  0  0  0
    0.3193   -0.1267    1.7365 O   0  0  0  0  0  0  0  0  0  0  0  0
   -2.1397   -2.0663    1.0750 C   0  0  0  0  0  0  0  0  0  0  0  0
   -0.5717   -1.2606    3.4238 H   0  0  0  0  0  0  0  0  0  0  0  0
   -0.3076   -3.2111    1.2363 H   0  0  0  0  0  0  0  0  0  0  0  0
   -2.5584   -1.1089    1.4061 H   0  0  0  0  0  0  0  0  0  0  0  0
   -2.1682   -2.0790   -0.0197 H   0  0  0  0  0  0  0  0  0  0  0  0
   -2.7965   -2.8601    1.4459 H   0  0  0  0  0  0  0  0  0  0  0  0
    0.7724   -1.3745   -0.1593 N   0  0  0  0  0  0  0  0  0  0  0  0
    1.6644   -0.4046   -0.7812 C   0  0  2  0  0  0  0  0  0  0  0  0
    0.8166    0.4953   -1.6290 C   0  0  0  0  0  0  0  0  0  0  0  0
    1.3437    1.4041   -2.2598 O   0  0  0  0  0  0  0  0  0  0  0  0
    2.6195   -1.2417   -1.6241 C   0  0  0  0  0  0  0  0  0  0  0  0
    2.1758   -2.2356   -0.5535 C   0  0  0  0  0  0  0  0  0  0  0  0
    0.7499   -2.6270   -0.9105 C   0  0  0  0  0  0  0  0  0  0  0  0
    2.1745    0.2007   -0.0258 H   0  0  0  0  0  0  0  0  0  0  0  0
    3.6296   -0.8175   -1.5784 H   0  0  0  0  0  0  0  0  0  0  0  0
    2.3218   -1.3211   -2.6742 H   0  0  0  0  0  0  0  0  0  0  0  0
    2.8084   -3.1304   -0.5781 H   0  0  0  0  0  0  0  0  0  0  0  0
    2.2249   -1.8085    0.4522 H   0  0  0  0  0  0  0  0  0  0  0  0
    0.5944   -2.7143   -1.9893 H   0  0  0  0  0  0  0  0  0  0  0  0
    0.4645   -3.5695   -0.4308 H   0  0  0  0  0  0  0  0  0  0  0  0
   -0.6354   -0.0475   -1.4348 N   0  0  0  0  0  0  0  0  0  0  0  0
   -1.7414    0.4952   -2.1906 C   0  0  2  0  0  0  0  0  0  0  0  0
   -1.5371    0.1262   -3.6540 C   0  0  0  0  0  0  0  0  0  0  0  0
   -0.4381   -0.1540   -4.1280 O   0  0  0  0  0  0  0  0  0  0  0  0
   -1.8418    2.0030   -2.0191 C   0  0  0  0  0  0  0  0  0  0  0  0
   -0.8376   -0.6965   -0.6803 H   0  0  0  0  0  0  0  0  0  0  0  0
   -2.6493    0.0110   -1.8145 H   0  0  0  0  0  0  0  0  0  0  0  0
   -0.9411    2.5054   -2.3904 H   0  0  0  0  0  0  0  0  0  0  0  0
   -2.6972    2.4088   -2.5693 H   0  0  0  0  0  0  0  0  0  0  0  0
   -1.9588    2.2681   -0.9628 H   0  0  0  0  0  0  0  0  0  0  0  0
   -2.7196    0.1885   -4.3779 N   0  0  0  0  0  0  0  0  0  0  0  0
   -2.7853   -0.1049   -5.7905 C   0  0  0  0  0  0  0  0  0  0  0  0
   -3.5874    0.4112   -3.8992 H   0  0  0  0  0  0  0  0  0  0  0  0
   -2.6628    0.8252   -6.3649 H   0  0  0  0  0  0  0  0  0  0  0  0
   -1.9825   -0.8083   -6.0565 H   0  0  0  0  0  0  0  0  0  0  0  0
   -3.7606   -0.5556   -6.0263 H   0  0  0  0  0  0  0  0  0  0  0  0
 18 19  1  0  0  0  0
 19 31  1  0  0  0  0
 19 20  2  0  0  0  0
  8  9  1  0  0  0  0
  9 17  1  0  0  0  0
  9 10  2  0  0  0  0
  1  3  1  0  0  0  0
  1  7  1  0  0  0  0
  1  2  2  0  0  0  0
 32 33  1  0  0  0  0
 33 41  1  0  0  0  0
 33 34  2  0  0  0  0
 21 22  1  0  0  0  0
 22 23  1  0  0  0  0
 18 21  1  0  0  0  0
 17 23  1  0  0  0  0
 17 18  1  0  0  0  0
  8 11  1  0  0  0  0
 32 35  1  0  0  0  0
 41 42  1  0  0  0  0
  7  8  1  0  0  0  0
 31 32  1  0  0  0  0
 22 27  1  0  0  0  0
 22 28  1  0  0  0  0
 21 25  1  0  0  0  0
 21 26  1  0  0  0  0
 23 29  1  0  0  0  0
 23 30  1  0  0  0  0
 18 24  1  0  0  0  0
  3  4  1  0  0  0  0
  3  5  1  0  0  0  0
  3  6  1  0  0  0  0
 11 14  1  0  0  0  0
 11 15  1  0  0  0  0
 11 16  1  0  0  0  0
 35 38  1  0  0  0  0
 35 39  1  0  0  0  0
 35 40  1  0  0  0  0
 42 44  1  0  0  0  0
 42 45  1  0  0  0  0
 42 46  1  0  0  0  0
  8 13  1  0  0  0  0
 32 37  1  0  0  0  0
 31 36  1  0  0  0  0
 41 43  1  0  0  0  0
  7 12  1  0  0  0  0
M  END
$$$$

  -OEChem-05262214473D

 46 46  0     1  0  0  0  0  0999 V2000
   -0.6012   -3.2995    3.8205 C   0  0  0  0  0  0  0  0  0  0  0  0
   -0.6574   -4.4683    3.4568 O   0  0  0  0  0  0  0  0  0  0  0  0
   -0.4935   -2.9859    5.2760 C   0  0  0  0  0  0  0  0  0  0  0  0
   -1.4789   -2.8689    5.7550 H   0  0  0  0  0  0  0  0  0  0  0  0
    0.0123   -3.7847    5.8419 H   0  0  0  0  0  0  0  0  0  0  0  0
    0.0585   -2.0642    5.5199 H   0  0  0  0  0  0  0  0  0  0  0  0
   -0.6261   -2.1849    2.9917 N   0  0  0  0  0  0  0  0  0  0  0  0
   -0.7237   -2.2601    1.5650 C   0  0  2  0  0  0  0  0  0  0  0  0
    0.1695   -1.1513    1.0687 C   0  0  0  0  0  0  0  0  0  0  0  0
    0.3193   -0.1267    1.7365 O   0  0  0  0  0  0  0  0  0  0  0  0
   -2.1397   -2.0663    1.0750 C   0  0  0  0  0  0  0  0  0  0  0  0
   -0.5717   -1.2606    3.4238 H   0  0  0  0  0  0  0  0  0  0  0  0
   -0.3076   -3.2111    1.2363 H   0  0  0  0  0  0  0  0  0  0  0  0
   -2.5584   -1.1089    1.4061 H   0  0  0  0  0  0  0  0  0  0  0  0
   -2.1682   -2.0790   -0.0197 H   0  0  0  0  0  0  0  0  0  0  0  0
   -2.7965   -2.8601    1.4459 H   0  0  0  0  0  0  0  0  0  0  0  0
    0.7724   -1.3745   -0.1593 N   0  0  0  0  0  0  0  0  0  0  0  0
    1.6644   -0.4046   -0.7812 C   0  0  2  0  0  0  0  0  0  0  0  0
    0.8166    0.4953   -1.6290 C   0  0  0  0  0  0  0  0  0  0  0  0
    1.3491    1.2160   -2.4649 O   0  0  0  0  0  0  0  0  0  0  0  0
    2.6195   -1.2417   -1.6241 C   0  0  0  0  0  0  0  0  0  0  0  0
    2.1758   -2.2356   -0.5535 C   0  0  0  0  0  0  0  0  0  0  0  0
    0.7499   -2.6270   -0.9105 C   0  0  0  0  0  0  0  0  0  0  0  0
    2.1745    0.2007   -0.0258 H   0  0  0  0  0  0  0  0  0  0  0  0
    3.6296   -0.8175   -1.5784 H   0  0  0  0  0  0  0  0  0  0  0  0
    2.3218   -1.3211   -2.6742 H   0  0  0  0  0  0  0  0  0  0  0  0
    2.8084   -3.1304   -0.5781 H   0  0  0  0  0  0  0  0  0  0  0  0
    2.2249   -1.8085    0.4522 H   0  0  0  0  0  0  0  0  0  0  0  0
    0.5944   -2.7143   -1.9893 H   0  0  0  0  0  0  0  0  0  0  0  0
    0.4645   -3.5695   -0.4308 H   0  0  0  0  0  0  0  0  0  0  0  0
   -0.6426    0.2198   -1.1438 N   0  0  0  0  0  0  0  0  0  0  0  0
   -1.7755    0.8235   -1.8080 C   0  0  2  0  0  0  0  0  0  0  0  0
   -1.8690    0.2330   -3.2087 C   0  0  0  0  0  0  0  0  0  0  0  0
   -0.9120   -0.2785   -3.7863 O   0  0  0  0  0  0  0  0  0  0  0  0
   -1.6418    2.3374   -1.8641 C   0  0  0  0  0  0  0  0  0  0  0  0
   -0.8022   -0.2814   -0.2751 H   0  0  0  0  0  0  0  0  0  0  0  0
   -2.6650    0.5440   -1.2330 H   0  0  0  0  0  0  0  0  0  0  0  0
   -0.7560    2.6366   -2.4362 H   0  0  0  0  0  0  0  0  0  0  0  0
   -2.5141    2.7953   -2.3420 H   0  0  0  0  0  0  0  0  0  0  0  0
   -1.5447    2.7576   -0.8573 H   0  0  0  0  0  0  0  0  0  0  0  0
   -3.1361    0.3831   -3.7548 N   0  0  0  0  0  0  0  0  0  0  0  0
   -3.4747   -0.0840   -5.0789 C   0  0  0  0  0  0  0  0  0  0  0  0
   -3.8741    0.8025   -3.1971 H   0  0  0  0  0  0  0  0  0  0  0  0
   -3.3252    0.7292   -5.8045 H   0  0  0  0  0  0  0  0  0  0  0  0
   -2.8295   -0.9347   -5.3436 H   0  0  0  0  0  0  0  0  0  0  0  0
   -4.5274   -0.4025   -5.0971 H   0  0  0  0  0  0  0  0  0  0  0  0
 18 19  1  0  0  0  0
 19 31  1  0  0  0  0
 19 20  2  0  0  0  0
  8  9  1  0  0  0  0
  9 17  1  0  0  0  0
  9 10  2  0  0  0  0
  1  3  1  0  0  0  0
  1  7  1  0  0  0  0
  1  2  2  0  0  0  0
 32 33  1  0  0  0  0
 33 41  1  0  0  0  0
 33 34  2  0  0  0  0
 21 22  1  0  0  0  0
 22 23  1  0  0  0  0
 18 21  1  0  0  0  0
 17 23  1  0  0  0  0
 17 18  1  0  0  0  0
  8 11  1  0  0  0  0
 32 35  1  0  0  0  0
 41 42  1  0  0  0  0
  7  8  1  0  0  0  0
 31 32  1  0  0  0  0
 22 27  1  0  0  0  0
 22 28  1  0  0  0  0
 21 25  1  0  0  0  0
 21 26  1  0  0  0  0
 23 29  1  0  0  0  0
 23 30  1  0  0  0  0
 18 24  1  0  0  0  0
  3  4  1  0  0  0  0
  3  5  1  0  0  0  0
  3  6  1  0  0  0  0
 11 14  1  0  0  0  0
 11 15  1  0  0  0  0
 11 16  1  0  0  0  0
 35 38  1  0  0  0  0
 35 39  1  0  0  0  0
 35 40  1  0  0  0  0
 42 44  1  0  0  0  0
 42 45  1  0  0  0  0
 42 46  1  0  0  0  0
  8 13  1  0  0  0  0
 32 37  1  0  0  0  0
 31 36  1  0  0  0  0
 41 43  1  0  0  0  0
  7 12  1  0  0  0  0
M  END
$$$$

  -OEChem-05262214473D

 46 46  0     1  0  0  0  0  0999 V2000
   -0.6012   -3.2995    3.8205 C   0  0  0  0  0  0  0  0  0  0  0  0
   -0.6574   -4.4683    3.4568 O   0  0  0  0  0  0  0  0  0  0  0  0
   -0.4935   -2.9859    5.2760 C   0  0  0  0  0  0  0  0  0  0  0  0
   -1.4789   -2.8689    5.7550 H   0  0  0  0  0  0  0  0  0  0  0  0
    0.0123   -3.7847    5.8419 H   0  0  0  0  0  0  0  0  0  0  0  0
    0.0585   -2.0642    5.5199 H   0  0  0  0  0  0  0  0  0  0  0  0
   -0.6261   -2.1849    2.9917 N   0  0  0  0  0  0  0  0  0  0  0  0
   -0.7237   -2.2601    1.5650 C   0  0  2  0  0  0  0  0  0  0  0  0
    0.1695   -1.1513    1.0687 C   0  0  0  0  0  0  0  0  0  0  0  0
    0.3193   -0.1267    1.7365 O   0  0  0  0  0  0  0  0  0  0  0  0
   -2.1397   -2.0663    1.0750 C   0  0  0  0  0  0  0  0  0  0  0  0
   -0.5717   -1.2606    3.4238 H   0  0  0  0  0  0  0  0  0  0  0  0
   -0.3076   -3.2111    1.2363 H   0  0  0  0  0  0  0  0  0  0  0  0
   -2.5584   -1.1089    1.4061 H   0  0  0  0  0  0  0  0  0  0  0  0
   -2.1682   -2.0790   -0.0197 H   0  0  0  0  0  0  0  0  0  0  0  0
   -2.7965   -2.8601    1.4459 H   0  0  0  0  0  0  0  0  0  0  0  0
    0.7724   -1.3745   -0.1593 N   0  0  0  0  0  0  0  0  0  0  0  0
    1.6644   -0.4046   -0.7812 C   0  0  2  0  0  0  0  0  0  0  0  0
    0.8166    0.4953   -1.6290 C   0  0  0  0  0  0  0  0  0  0  0  0
    1.2950    1.0035   -2.6363 O   0  0  0  0  0  0  0  0  0  0  0  0
    2.6195   -1.2417   -1.6241 C   0  0  0  0  0  0  0  0  0  0  0  0
    2.1758   -2.2356   -0.5535 C   0  0  0  0  0  0  0  0  0  0  0  0
    0.7499   -2.6270   -0.9105 C   0  0  0  0  0  0  0  0  0  0  0  0
    2.1745    0.2007   -0.0258 H   0  0  0  0  0  0  0  0  0  0  0  0
    3.6296   -0.8175   -1.5784 H   0  0  0  0  0  0  0  0  0  0  0  0
    2.3218   -1.3211   -2.6742 H   0  0  0  0  0  0  0  0  0  0  0  0
    2.8084   -3.1304   -0.5781 H   0  0  0  0  0  0  0  0  0  0  0  0
    2.2249   -1.8085    0.4522 H   0  0  0  0  0  0  0  0  0  0  0  0
    0.5944   -2.7143   -1.9893 H   0  0  0  0  0  0  0  0  0  0  0  0
    0.4645   -3.5695   -0.4308 H   0  0  0  0  0  0  0  0  0  0  0  0
   -0.5653    0.5217   -0.9007 N   0  0  0  0  0  0  0  0  0  0  0  0
   -1.7009    1.2016   -1.4812 C   0  0  2  0  0  0  0  0  0  0  0  0
   -2.1048    0.4499   -2.7427 C   0  0  0  0  0  0  0  0  0  0  0  0
   -1.3350   -0.2795   -3.3643 O   0  0  0  0  0  0  0  0  0  0  0  0
   -1.3756    2.6538   -1.7944 C   0  0  0  0  0  0  0  0  0  0  0  0
   -0.6443    0.1737    0.0501 H   0  0  0  0  0  0  0  0  0  0  0  0
   -2.5119    1.1462   -0.7469 H   0  0  0  0  0  0  0  0  0  0  0  0
   -0.5651    2.7295   -2.5285 H   0  0  0  0  0  0  0  0  0  0  0  0
   -2.2455    3.1751   -2.2076 H   0  0  0  0  0  0  0  0  0  0  0  0
   -1.0567    3.1853   -0.8913 H   0  0  0  0  0  0  0  0  0  0  0  0
   -3.4130    0.7233   -3.1168 N   0  0  0  0  0  0  0  0  0  0  0  0
   -4.0269    0.1414   -4.2875 C   0  0  0  0  0  0  0  0  0  0  0  0
   -3.9847    1.3253   -2.5316 H   0  0  0  0  0  0  0  0  0  0  0  0
   -3.8919    0.8153   -5.1463 H   0  0  0  0  0  0  0  0  0  0  0  0
   -3.5554   -0.8284   -4.5049 H   0  0  0  0  0  0  0  0  0  0  0  0
   -5.1012   -0.0065   -4.1029 H   0  0  0  0  0  0  0  0  0  0  0  0
 18 19  1  0  0  0  0
 19 31  1  0  0  0  0
 19 20  2  0  0  0  0
  8  9  1  0  0  0  0
  9 17  1  0  0  0  0
  9 10  2  0  0  0  0
  1  3  1  0  0  0  0
  1  7  1  0  0  0  0
  1  2  2  0  0  0  0
 32 33  1  0  0  0  0
 33 41  1  0  0  0  0
 33 34  2  0  0  0  0
 21 22  1  0  0  0  0
 22 23  1  0  0  0  0
 18 21  1  0  0  0  0
 17 23  1  0  0  0  0
 17 18  1  0  0  0  0
  8 11  1  0  0  0  0
 32 35  1  0  0  0  0
 41 42  1  0  0  0  0
  7  8  1  0  0  0  0
 31 32  1  0  0  0  0
 22 27  1  0  0  0  0
 22 28  1  0  0  0  0
 21 25  1  0  0  0  0
 21 26  1  0  0  0  0
 23 29  1  0  0  0  0
 23 30  1  0  0  0  0
 18 24  1  0  0  0  0
  3  4  1  0  0  0  0
  3  5  1  0  0  0  0
  3  6  1  0  0  0  0
 11 14  1  0  0  0  0
 11 15  1  0  0  0  0
 11 16  1  0  0  0  0
 35 38  1  0  0  0  0
 35 39  1  0  0  0  0
 35 40  1  0  0  0  0
 42 44  1  0  0  0  0
 42 45  1  0  0  0  0
 42 46  1  0  0  0  0
  8 13  1  0  0  0  0
 32 37  1  0  0  0  0
 31 36  1  0  0  0  0
 41 43  1  0  0  0  0
  7 12  1  0  0  0  0
M  END
$$$$

  -OEChem-05262214473D

 46 46  0     1  0  0  0  0  0999 V2000
   -0.6012   -3.2995    3.8205 C   0  0  0  0  0  0  0  0  0  0  0  0
   -0.6574   -4.4683    3.4568 O   0  0  0  0  0  0  0  0  0  0  0  0
   -0.4935   -2.9859    5.2760 C   0  0  0  0  0  0  0  0  0  0  0  0
   -1.4789   -2.8689    5.7550 H   0  0  0  0  0  0  0  0  0  0  0  0
    0.0123   -3.7847    5.8419 H   0  0  0  0  0  0  0  0  0  0  0  0
    0.0585   -2.0642    5.5199 H   0  0  0  0  0  0  0  0  0  0  0  0
   -0.6261   -2.1849    2.9917 N   0  0  0  0  0  0  0  0  0  0  0  0
   -0.7237   -2.2601    1.5650 C   0  0  2  0  0  0  0  0  0  0  0  0
    0.1695   -1.1513    1.0687 C   0  0  0  0  0  0  0  0  0  0  0  0
    0.3193   -0.1267    1.7365 O   0  0  0  0  0  0  0  0  0  0  0  0
   -2.1397   -2.0663    1.0750 C   0  0  0  0  0  0  0  0  0  0  0  0
   -0.5717   -1.2606    3.4238 H   0  0  0  0  0  0  0  0  0  0  0  0
   -0.3076   -3.2111    1.2363 H   0  0  0  0  0  0  0  0  0  0  0  0
   -2.5584   -1.1089    1.4061 H   0  0  0  0  0  0  0  0  0  0  0  0
   -2.1682   -2.0790   -0.0197 H   0  0  0  0  0  0  0  0  0  0  0  0
   -2.7965   -2.8601    1.4459 H   0  0  0  0  0  0  0  0  0  0  0  0
    0.7724   -1.3745   -0.1593 N   0  0  0  0  0  0  0  0  0  0  0  0
    1.6644   -0.4046   -0.7812 C   0  0  2  0  0  0  0  0  0  0  0  0
    0.8166    0.4953   -1.6290 C   0  0  0  0  0  0  0  0  0  0  0  0
    1.1849    0.7811   -2.7623 O   0  0  0  0  0  0  0  0  0  0  0  0
    2.6195   -1.2417   -1.6241 C   0  0  0  0  0  0  0  0  0  0  0  0
    2.1758   -2.2356   -0.5535 C   0  0  0  0  0  0  0  0  0  0  0  0
    0.7499   -2.6270   -0.9105 C   0  0  0  0  0  0  0  0  0  0  0  0
    2.1745    0.2007   -0.0258 H   0  0  0  0  0  0  0  0  0  0  0  0
    3.6296   -0.8175   -1.5784 H   0  0  0  0  0  0  0  0  0  0  0  0
    2.3218   -1.3211   -2.6742 H   0  0  0  0  0  0  0  0  0  0  0  0
    2.8084   -3.1304   -0.5781 H   0  0  0  0  0  0  0  0  0  0  0  0
    2.2249   -1.8085    0.4522 H   0  0  0  0  0  0  0  0  0  0  0  0
    0.5944   -2.7143   -1.9893 H   0  0  0  0  0  0  0  0  0  0  0  0
    0.4645   -3.5695   -0.4308 H   0  0  0  0  0  0  0  0  0  0  0  0
   -0.4086    0.8375   -0.7221 N   0  0  0  0  0  0  0  0  0  0  0  0
   -1.5228    1.6038   -1.2324 C   0  0  2  0  0  0  0  0  0  0  0  0
   -2.2284    0.7622   -2.2876 C   0  0  0  0  0  0  0  0  0  0  0  0
   -1.6781   -0.1567   -2.8909 O   0  0  0  0  0  0  0  0  0  0  0  0
   -1.0613    2.9307   -1.8148 C   0  0  0  0  0  0  0  0  0  0  0  0
   -0.3746    0.6378    0.2730 H   0  0  0  0  0  0  0  0  0  0  0  0
   -2.2004    1.7766   -0.3892 H   0  0  0  0  0  0  0  0  0  0  0  0
   -0.3815    2.7777   -2.6609 H   0  0  0  0  0  0  0  0  0  0  0  0
   -1.9095    3.5223   -2.1750 H   0  0  0  0  0  0  0  0  0  0  0  0
   -0.5280    3.5220   -1.0626 H   0  0  0  0  0  0  0  0  0  0  0  0
   -3.5316    1.1857   -2.5072 N   0  0  0  0  0  0  0  0  0  0  0  0
   -4.4044    0.5557   -3.4702 C   0  0  0  0  0  0  0  0  0  0  0  0
   -3.9116    1.9438   -1.9481 H   0  0  0  0  0  0  0  0  0  0  0  0
   -4.3245    1.0779   -4.4351 H   0  0  0  0  0  0  0  0  0  0  0  0
   -4.1107   -0.4967   -3.5976 H   0  0  0  0  0  0  0  0  0  0  0  0
   -5.4430    0.6056   -3.1113 H   0  0  0  0  0  0  0  0  0  0  0  0
 18 19  1  0  0  0  0
 19 31  1  0  0  0  0
 19 20  2  0  0  0  0
  8  9  1  0  0  0  0
  9 17  1  0  0  0  0
  9 10  2  0  0  0  0
  1  3  1  0  0  0  0
  1  7  1  0  0  0  0
  1  2  2  0  0  0  0
 32 33  1  0  0  0  0
 33 41  1  0  0  0  0
 33 34  2  0  0  0  0
 21 22  1  0  0  0  0
 22 23  1  0  0  0  0
 18 21  1  0  0  0  0
 17 23  1  0  0  0  0
 17 18  1  0  0  0  0
  8 11  1  0  0  0  0
 32 35  1  0  0  0  0
 41 42  1  0  0  0  0
  7  8  1  0  0  0  0
 31 32  1  0  0  0  0
 22 27  1  0  0  0  0
 22 28  1  0  0  0  0
 21 25  1  0  0  0  0
 21 26  1  0  0  0  0
 23 29  1  0  0  0  0
 23 30  1  0  0  0  0
 18 24  1  0  0  0  0
  3  4  1  0  0  0  0
  3  5  1  0  0  0  0
  3  6  1  0  0  0  0
 11 14  1  0  0  0  0
 11 15  1  0  0  0  0
 11 16  1  0  0  0  0
 35 38  1  0  0  0  0
 35 39  1  0  0  0  0
 35 40  1  0  0  0  0
 42 44  1  0  0  0  0
 42 45  1  0  0  0  0
 42 46  1  0  0  0  0
  8 13  1  0  0  0  0
 32 37  1  0  0  0  0
 31 36  1  0  0  0  0
 41 43  1  0  0  0  0
  7 12  1  0  0  0  0
M  END
$$$$

  -OEChem-05262214473D

 46 46  0     1  0  0  0  0  0999 V2000
   -0.6012   -3.2995    3.8205 C   0  0  0  0  0  0  0  0  0  0  0  0
   -0.6574   -4.4683    3.4568 O   0  0  0  0  0  0  0  0  0  0  0  0
   -0.4935   -2.9859    5.2760 C   0  0  0  0  0  0  0  0  0  0  0  0
   -1.4789   -2.8689    5.7550 H   0  0  0  0  0  0  0  0  0  0  0  0
    0.0123   -3.7847    5.8419 H   0  0  0  0  0  0  0  0  0  0  0  0
    0.0585   -2.0642    5.5199 H   0  0  0  0  0  0  0  0  0  0  0  0
   -0.6261   -2.1849    2.9917 N   0  0  0  0  0  0  0  0  0  0  0  0
   -0.7237   -2.2601    1.5650 C   0  0  2  0  0  0  0  0  0  0  0  0
    0.1695   -1.1513    1.0687 C   0  0  0  0  0  0  0  0  0  0  0  0
    0.3193   -0.1267    1.7365 O   0  0  0  0  0  0  0  0  0  0  0  0
   -2.1397   -2.0663    1.0750 C   0  0  0  0  0  0  0  0  0  0  0  0
   -0.5717   -1.2606    3.4238 H   0  0  0  0  0  0  0  0  0  0  0  0
   -0.3076   -3.2111    1.2363 H   0  0  0  0  0  0  0  0  0  0  0  0
   -2.5584   -1.1089    1.4061 H   0  0  0  0  0  0  0  0  0  0  0  0
   -2.1682   -2.0790   -0.0197 H   0  0  0  0  0  0  0  0  0  0  0  0
   -2.7965   -2.8601    1.4459 H   0  0  0  0  0  0  0  0  0  0  0  0
    0.7724   -1.3745   -0.1593 N   0  0  0  0  0  0  0  0  0  0  0  0
    1.6644   -0.4046   -0.7812 C   0  0  2  0  0  0  0  0  0  0  0  0
    0.8166    0.4953   -1.6290 C   0  0  0  0  0  0  0  0  0  0  0  0
    1.0265    0.5640   -2.8344 O   0  0  0  0  0  0  0  0  0  0  0  0
    2.6195   -1.2417   -1.6241 C   0  0  0  0  0  0  0  0  0  0  0  0
    2.1758   -2.2356   -0.5535 C   0  0  0  0  0  0  0  0  0  0  0  0
    0.7499   -2.6270   -0.9105 C   0  0  0  0  0  0  0  0  0  0  0  0
    2.1745    0.2007   -0.0258 H   0  0  0  0  0  0  0  0  0  0  0  0
    3.6296   -0.8175   -1.5784 H   0  0  0  0  0  0  0  0  0  0  0  0
    2.3218   -1.3211   -2.6742 H   0  0  0  0  0  0  0  0  0  0  0  0
    2.8084   -3.1304   -0.5781 H   0  0  0  0  0  0  0  0  0  0  0  0
    2.2249   -1.8085    0.4522 H   0  0  0  0  0  0  0  0  0  0  0  0
    0.5944   -2.7143   -1.9893 H   0  0  0  0  0  0  0  0  0  0  0  0
    0.4645   -3.5695   -0.4308 H   0  0  0  0  0  0  0  0  0  0  0  0
   -0.1833    1.1458   -0.6202 N   0  0  0  0  0  0  0  0  0  0  0  0
   -1.2532    2.0025   -1.0787 C   0  0  2  0  0  0  0  0  0  0  0  0
   -2.2313    1.1485   -1.8746 C   0  0  0  0  0  0  0  0  0  0  0  0
   -1.9180    0.0814   -2.3982 O   0  0  0  0  0  0  0  0  0  0  0  0
   -0.7204    3.1491   -1.9238 C   0  0  0  0  0  0  0  0  0  0  0  0
   -0.0115    1.0792    0.3785 H   0  0  0  0  0  0  0  0  0  0  0  0
   -1.7516    2.3923   -0.1844 H   0  0  0  0  0  0  0  0  0  0  0  0
   -0.2176    2.7781   -2.8244 H   0  0  0  0  0  0  0  0  0  0  0  0
   -1.5290    3.8132   -2.2466 H   0  0  0  0  0  0  0  0  0  0  0  0
    0.0053    3.7447   -1.3595 H   0  0  0  0  0  0  0  0  0  0  0  0
   -3.4838    1.7390   -1.9677 N   0  0  0  0  0  0  0  0  0  0  0  0
   -4.5814    1.1307   -2.6828 C   0  0  0  0  0  0  0  0  0  0  0  0
   -3.6598    2.6160   -1.4863 H   0  0  0  0  0  0  0  0  0  0  0  0
   -4.5933    1.4989   -3.7193 H   0  0  0  0  0  0  0  0  0  0  0  0
   -4.4575    0.0377   -2.6834 H   0  0  0  0  0  0  0  0  0  0  0  0
   -5.5295    1.3920   -2.1900 H   0  0  0  0  0  0  0  0  0  0  0  0
 18 19  1  0  0  0  0
 19 31  1  0  0  0  0
 19 20  2  0  0  0  0
  8  9  1  0  0  0  0
  9 17  1  0  0  0  0
  9 10  2  0  0  0  0
  1  3  1  0  0  0  0
  1  7  1  0  0  0  0
  1  2  2  0  0  0  0
 32 33  1  0  0  0  0
 33 41  1  0  0  0  0
 33 34  2  0  0  0  0
 21 22  1  0  0  0  0
 22 23  1  0  0  0  0
 18 21  1  0  0  0  0
 17 23  1  0  0  0  0
 17 18  1  0  0  0  0
  8 11  1  0  0  0  0
 32 35  1  0  0  0  0
 41 42  1  0  0  0  0
  7  8  1  0  0  0  0
 31 32  1  0  0  0  0
 22 27  1  0  0  0  0
 22 28  1  0  0  0  0
 21 25  1  0  0  0  0
 21 26  1  0  0  0  0
 23 29  1  0  0  0  0
 23 30  1  0  0  0  0
 18 24  1  0  0  0  0
  3  4  1  0  0  0  0
  3  5  1  0  0  0  0
  3  6  1  0  0  0  0
 11 14  1  0  0  0  0
 11 15  1  0  0  0  0
 11 16  1  0  0  0  0
 35 38  1  0  0  0  0
 35 39  1  0  0  0  0
 35 40  1  0  0  0  0
 42 44  1  0  0  0  0
 42 45  1  0  0  0  0
 42 46  1  0  0  0  0
  8 13  1  0  0  0  0
 32 37  1  0  0  0  0
 31 36  1  0  0  0  0
 41 43  1  0  0  0  0
  7 12  1  0  0  0  0
M  END
$$$$

  -OEChem-05262214473D

 46 46  0     1  0  0  0  0  0999 V2000
   -0.6012   -3.2995    3.8205 C   0  0  0  0  0  0  0  0  0  0  0  0
   -0.6574   -4.4683    3.4568 O   0  0  0  0  0  0  0  0  0  0  0  0
   -0.4935   -2.9859    5.2760 C   0  0  0  0  0  0  0  0  0  0  0  0
   -1.4789   -2.8689    5.7550 H   0  0  0  0  0  0  0  0  0  0  0  0
    0.0123   -3.7847    5.8419 H   0  0  0  0  0  0  0  0  0  0  0  0
    0.0585   -2.0642    5.5199 H   0  0  0  0  0  0  0  0  0  0  0  0
   -0.6261   -2.1849    2.9917 N   0  0  0  0  0  0  0  0  0  0  0  0
   -0.7237   -2.2601    1.5650 C   0  0  2  0  0  0  0  0  0  0  0  0
    0.1695   -1.1513    1.0687 C   0  0  0  0  0  0  0  0  0  0  0  0
    0.3193   -0.1267    1.7365 O   0  0  0  0  0  0  0  0  0  0  0  0
   -2.1397   -2.0663    1.0750 C   0  0  0  0  0  0  0  0  0  0  0  0
   -0.5717   -1.2606    3.4238 H   0  0  0  0  0  0  0  0  0  0  0  0
   -0.3076   -3.2111    1.2363 H   0  0  0  0  0  0  0  0  0  0  0  0
   -2.5584   -1.1089    1.4061 H   0  0  0  0  0  0  0  0  0  0  0  0
   -2.1682   -2.0790   -0.0197 H   0  0  0  0  0  0  0  0  0  0  0  0
   -2.7965   -2.8601    1.4459 H   0  0  0  0  0  0  0  0  0  0  0  0
    0.7724   -1.3745   -0.1593 N   0  0  0  0  0  0  0  0  0  0  0  0
    1.6644   -0.4046   -0.7812 C   0  0  2  0  0  0  0  0  0  0  0  0
    0.8166    0.4953   -1.6290 C   0  0  0  0  0  0  0  0  0  0  0  0
    0.8304    0.3668   -2.8476 O   0  0  0  0  0  0  0  0  0  0  0  0
    2.6195   -1.2417   -1.6241 C   0  0  0  0  0  0  0  0  0  0  0  0
    2.1758   -2.2356   -0.5535 C   0  0  0  0  0  0  0  0  0  0  0  0
    0.7499   -2.6270   -0.9105 C   0  0  0  0  0  0  0  0  0  0  0  0
    2.1745    0.2007   -0.0258 H   0  0  0  0  0  0  0  0  0  0  0  0
    3.6296   -0.8175   -1.5784 H   0  0  0  0  0  0  0  0  0  0  0  0
    2.3218   -1.3211   -2.6742 H   0  0  0  0  0  0  0  0  0  0  0  0
    2.8084   -3.1304   -0.5781 H   0  0  0  0  0  0  0  0  0  0  0  0
    2.2249   -1.8085    0.4522 H   0  0  0  0  0  0  0  0  0  0  0  0
    0.5944   -2.7143   -1.9893 H   0  0  0  0  0  0  0  0  0  0  0  0
    0.4645   -3.5695   -0.4308 H   0  0  0  0  0  0  0  0  0  0  0  0
    0.0953    1.4255   -0.6019 N   0  0  0  0  0  0  0  0  0  0  0  0
   -0.9106    2.3708   -1.0305 C   0  0  2  0  0  0  0  0  0  0  0  0
   -2.1135    1.5825   -1.5317 C   0  0  0  0  0  0  0  0  0  0  0  0
   -2.0383    0.4186   -1.9200 O   0  0  0  0  0  0  0  0  0  0  0  0
   -0.3761    3.2943   -2.1140 C   0  0  0  0  0  0  0  0  0  0  0  0
    0.4201    1.4679    0.3594 H   0  0  0  0  0  0  0  0  0  0  0  0
   -1.1962    2.9512   -0.1465 H   0  0  0  0  0  0  0  0  0  0  0  0
   -0.0847    2.7306   -3.0078 H   0  0  0  0  0  0  0  0  0  0  0  0
   -1.1301    4.0281   -2.4174 H   0  0  0  0  0  0  0  0  0  0  0  0
    0.5069    3.8384   -1.7617 H   0  0  0  0  0  0  0  0  0  0  0  0
   -3.2728    2.3455   -1.5350 N   0  0  0  0  0  0  0  0  0  0  0  0
   -4.5458    1.8273   -1.9788 C   0  0  0  0  0  0  0  0  0  0  0  0
   -3.2465    3.2960   -1.1778 H   0  0  0  0  0  0  0  0  0  0  0  0
   -4.6802    2.0496   -3.0477 H   0  0  0  0  0  0  0  0  0  0  0  0
   -4.5723    0.7385   -1.8247 H   0  0  0  0  0  0  0  0  0  0  0  0
   -5.3548    2.2991   -1.4018 H   0  0  0  0  0  0  0  0  0  0  0  0
 18 19  1  0  0  0  0
 19 31  1  0  0  0  0
 19 20  2  0  0  0  0
  8  9  1  0  0  0  0
  9 17  1  0  0  0  0
  9 10  2  0  0  0  0
  1  3  1  0  0  0  0
  1  7  1  0  0  0  0
  1  2  2  0  0  0  0
 32 33  1  0  0  0  0
 33 41  1  0  0  0  0
 33 34  2  0  0  0  0
 21 22  1  0  0  0  0
 22 23  1  0  0  0  0
 18 21  1  0  0  0  0
 17 23  1  0  0  0  0
 17 18  1  0  0  0  0
  8 11  1  0  0  0  0
 32 35  1  0  0  0  0
 41 42  1  0  0  0  0
  7  8  1  0  0  0  0
 31 32  1  0  0  0  0
 22 27  1  0  0  0  0
 22 28  1  0  0  0  0
 21 25  1  0  0  0  0
 21 26  1  0  0  0  0
 23 29  1  0  0  0  0
 23 30  1  0  0  0  0
 18 24  1  0  0  0  0
  3  4  1  0  0  0  0
  3  5  1  0  0  0  0
  3  6  1  0  0  0  0
 11 14  1  0  0  0  0
 11 15  1  0  0  0  0
 11 16  1  0  0  0  0
 35 38  1  0  0  0  0
 35 39  1  0  0  0  0
 35 40  1  0  0  0  0
 42 44  1  0  0  0  0
 42 45  1  0  0  0  0
 42 46  1  0  0  0  0
  8 13  1  0  0  0  0
 32 37  1  0  0  0  0
 31 36  1  0  0  0  0
 41 43  1  0  0  0  0
  7 12  1  0  0  0  0
M  END
$$$$

  -OEChem-05262214473D

 46 46  0     1  0  0  0  0  0999 V2000
   -0.6012   -3.2995    3.8205 C   0  0  0  0  0  0  0  0  0  0  0  0
   -0.6574   -4.4683    3.4568 O   0  0  0  0  0  0  0  0  0  0  0  0
   -0.4935   -2.9859    5.2760 C   0  0  0  0  0  0  0  0  0  0  0  0
   -1.4789   -2.8689    5.7550 H   0  0  0  0  0  0  0  0  0  0  0  0
    0.0123   -3.7847    5.8419 H   0  0  0  0  0  0  0  0  0  0  0  0
    0.0585   -2.0642    5.5199 H   0  0  0  0  0  0  0  0  0  0  0  0
   -0.6261   -2.1849    2.9917 N   0  0  0  0  0  0  0  0  0  0  0  0
   -0.7237   -2.2601    1.5650 C   0  0  2  0  0  0  0  0  0  0  0  0
    0.1695   -1.1513    1.0687 C   0  0  0  0  0  0  0  0  0  0  0  0
    0.3193   -0.1267    1.7365 O   0  0  0  0  0  0  0  0  0  0  0  0
   -2.1397   -2.0663    1.0750 C   0  0  0  0  0  0  0  0  0  0  0  0
   -0.5717   -1.2606    3.4238 H   0  0  0  0  0  0  0  0  0  0  0  0
   -0.3076   -3.2111    1.2363 H   0  0  0  0  0  0  0  0  0  0  0  0
   -2.5584   -1.1089    1.4061 H   0  0  0  0  0  0  0  0  0  0  0  0
   -2.1682   -2.0790   -0.0197 H   0  0  0  0  0  0  0  0  0  0  0  0
   -2.7965   -2.8601    1.4459 H   0  0  0  0  0  0  0  0  0  0  0  0
    0.7724   -1.3745   -0.1593 N   0  0  0  0  0  0  0  0  0  0  0  0
    1.6644   -0.4046   -0.7812 C   0  0  2  0  0  0  0  0  0  0  0  0
    0.8166    0.4953   -1.6290 C   0  0  0  0  0  0  0  0  0  0  0  0
    0.6102    0.2032   -2.8011 O   0  0  0  0  0  0  0  0  0  0  0  0
    2.6195   -1.2417   -1.6241 C   0  0  0  0  0  0  0  0  0  0  0  0
    2.1758   -2.2356   -0.5535 C   0  0  0  0  0  0  0  0  0  0  0  0
    0.7499   -2.6270   -0.9105 C   0  0  0  0  0  0  0  0  0  0  0  0
    2.1745    0.2007   -0.0258 H   0  0  0  0  0  0  0  0  0  0  0  0
    3.6296   -0.8175   -1.5784 H   0  0  0  0  0  0  0  0  0  0  0  0
    2.3218   -1.3211   -2.6742 H   0  0  0  0  0  0  0  0  0  0  0  0
    2.8084   -3.1304   -0.5781 H   0  0  0  0  0  0  0  0  0  0  0  0
    2.2249   -1.8085    0.4522 H   0  0  0  0  0  0  0  0  0  0  0  0
    0.5944   -2.7143   -1.9893 H   0  0  0  0  0  0  0  0  0  0  0  0
    0.4645   -3.5695   -0.4308 H   0  0  0  0  0  0  0  0  0  0  0  0
    0.4082    1.6576   -0.6684 N   0  0  0  0  0  0  0  0  0  0  0  0
   -0.5182    2.6833   -1.0910 C   0  0  2  0  0  0  0  0  0  0  0  0
   -1.8828    2.0347   -1.2823 C   0  0  0  0  0  0  0  0  0  0  0  0
   -2.0308    0.8319   -1.4887 O   0  0  0  0  0  0  0  0  0  0  0  0
   -0.0518    3.3563   -2.3725 C   0  0  0  0  0  0  0  0  0  0  0  0
    0.8910    1.7773    0.2170 H   0  0  0  0  0  0  0  0  0  0  0  0
   -0.5720    3.4155   -0.2779 H   0  0  0  0  0  0  0  0  0  0  0  0
    0.0082    2.6383   -3.1986 H   0  0  0  0  0  0  0  0  0  0  0  0
   -0.7398    4.1523   -2.6758 H   0  0  0  0  0  0  0  0  0  0  0  0
    0.9427    3.7965   -2.2419 H   0  0  0  0  0  0  0  0  0  0  0  0
   -2.9130    2.9637   -1.2386 N   0  0  0  0  0  0  0  0  0  0  0  0
   -4.3001    2.5981   -1.4064 C   0  0  0  0  0  0  0  0  0  0  0  0
   -2.6998    3.9375   -1.0436 H   0  0  0  0  0  0  0  0  0  0  0  0
   -4.5792    2.6926   -2.4662 H   0  0  0  0  0  0  0  0  0  0  0  0
   -4.4471    1.5579   -1.0800 H   0  0  0  0  0  0  0  0  0  0  0  0
   -4.9309    3.2651   -0.8003 H   0  0  0  0  0  0  0  0  0  0  0  0
 18 19  1  0  0  0  0
 19 31  1  0  0  0  0
 19 20  2  0  0  0  0
  8  9  1  0  0  0  0
  9 17  1  0  0  0  0
  9 10  2  0  0  0  0
  1  3  1  0  0  0  0
  1  7  1  0  0  0  0
  1  2  2  0  0  0  0
 32 33  1  0  0  0  0
 33 41  1  0  0  0  0
 33 34  2  0  0  0  0
 21 22  1  0  0  0  0
 22 23  1  0  0  0  0
 18 21  1  0  0  0  0
 17 23  1  0  0  0  0
 17 18  1  0  0  0  0
  8 11  1  0  0  0  0
 32 35  1  0  0  0  0
 41 42  1  0  0  0  0
  7  8  1  0  0  0  0
 31 32  1  0  0  0  0
 22 27  1  0  0  0  0
 22 28  1  0  0  0  0
 21 25  1  0  0  0  0
 21 26  1  0  0  0  0
 23 29  1  0  0  0  0
 23 30  1  0  0  0  0
 18 24  1  0  0  0  0
  3  4  1  0  0  0  0
  3  5  1  0  0  0  0
  3  6  1  0  0  0  0
 11 14  1  0  0  0  0
 11 15  1  0  0  0  0
 11 16  1  0  0  0  0
 35 38  1  0  0  0  0
 35 39  1  0  0  0  0
 35 40  1  0  0  0  0
 42 44  1  0  0  0  0
 42 45  1  0  0  0  0
 42 46  1  0  0  0  0
  8 13  1  0  0  0  0
 32 37  1  0  0  0  0
 31 36  1  0  0  0  0
 41 43  1  0  0  0  0
  7 12  1  0  0  0  0
M  END
$$$$

  -OEChem-05262214473D

 46 46  0     1  0  0  0  0  0999 V2000
   -0.6012   -3.2995    3.8205 C   0  0  0  0  0  0  0  0  0  0  0  0
   -0.6574   -4.4683    3.4568 O   0  0  0  0  0  0  0  0  0  0  0  0
   -0.4935   -2.9859    5.2760 C   0  0  0  0  0  0  0  0  0  0  0  0
   -1.4789   -2.8689    5.7550 H   0  0  0  0  0  0  0  0  0  0  0  0
    0.0123   -3.7847    5.8419 H   0  0  0  0  0  0  0  0  0  0  0  0
    0.0585   -2.0642    5.5199 H   0  0  0  0  0  0  0  0  0  0  0  0
   -0.6261   -2.1849    2.9917 N   0  0  0  0  0  0  0  0  0  0  0  0
   -0.7237   -2.2601    1.5650 C   0  0  2  0  0  0  0  0  0  0  0  0
    0.1695   -1.1513    1.0687 C   0  0  0  0  0  0  0  0  0  0  0  0
    0.3193   -0.1267    1.7365 O   0  0  0  0  0  0  0  0  0  0  0  0
   -2.1397   -2.0663    1.0750 C   0  0  0  0  0  0  0  0  0  0  0  0
   -0.5717   -1.2606    3.4238 H   0  0  0  0  0  0  0  0  0  0  0  0
   -0.3076   -3.2111    1.2363 H   0  0  0  0  0  0  0  0  0  0  0  0
   -2.5584   -1.1089    1.4061 H   0  0  0  0  0  0  0  0  0  0  0  0
   -2.1682   -2.0790   -0.0197 H   0  0  0  0  0  0  0  0  0  0  0  0
   -2.7965   -2.8601    1.4459 H   0  0  0  0  0  0  0  0  0  0  0  0
    0.7724   -1.3745   -0.1593 N   0  0  0  0  0  0  0  0  0  0  0  0
    1.6644   -0.4046   -0.7812 C   0  0  2  0  0  0  0  0  0  0  0  0
    0.8166    0.4953   -1.6290 C   0  0  0  0  0  0  0  0  0  0  0  0
    0.3807    0.0841   -2.6980 O   0  0  0  0  0  0  0  0  0  0  0  0
    2.6195   -1.2417   -1.6241 C   0  0  0  0  0  0  0  0  0  0  0  0
    2.1758   -2.2356   -0.5535 C   0  0  0  0  0  0  0  0  0  0  0  0
    0.7499   -2.6270   -0.9105 C   0  0  0  0  0  0  0  0  0  0  0  0
    2.1745    0.2007   -0.0258 H   0  0  0  0  0  0  0  0  0  0  0  0
    3.6296   -0.8175   -1.5784 H   0  0  0  0  0  0  0  0  0  0  0  0
    2.3218   -1.3211   -2.6742 H   0  0  0  0  0  0  0  0  0  0  0  0
    2.8084   -3.1304   -0.5781 H   0  0  0  0  0  0  0  0  0  0  0  0
    2.2249   -1.8085    0.4522 H   0  0  0  0  0  0  0  0  0  0  0  0
    0.5944   -2.7143   -1.9893 H   0  0  0  0  0  0  0  0  0  0  0  0
    0.4645   -3.5695   -0.4308 H   0  0  0  0  0  0  0  0  0  0  0  0
    0.7341    1.8263   -0.8152 N   0  0  0  0  0  0  0  0  0  0  0  0
   -0.1029    2.9190   -1.2562 C   0  0  2  0  0  0  0  0  0  0  0  0
   -1.5551    2.4742   -1.1435 C   0  0  0  0  0  0  0  0  0  0  0  0
   -1.8961    1.2932   -1.1337 O   0  0  0  0  0  0  0  0  0  0  0  0
    0.2304    3.3308   -2.6817 C   0  0  0  0  0  0  0  0  0  0  0  0
    1.3691    1.9865   -0.0390 H   0  0  0  0  0  0  0  0  0  0  0  0
    0.0785    3.7532   -0.5698 H   0  0  0  0  0  0  0  0  0  0  0  0
    0.0549    2.5077   -3.3839 H   0  0  0  0  0  0  0  0  0  0  0  0
   -0.3849    4.1773   -3.0043 H   0  0  0  0  0  0  0  0  0  0  0  0
    1.2828    3.6220   -2.7673 H   0  0  0  0  0  0  0  0  0  0  0  0
   -2.4289    3.5515   -1.0986 N   0  0  0  0  0  0  0  0  0  0  0  0
   -3.8611    3.3904   -1.0044 C   0  0  0  0  0  0  0  0  0  0  0  0
   -2.0569    4.4967   -1.0928 H   0  0  0  0  0  0  0  0  0  0  0  0
   -4.2971    3.3841   -2.0142 H   0  0  0  0  0  0  0  0  0  0  0  0
   -4.0906    2.4401   -0.5001 H   0  0  0  0  0  0  0  0  0  0  0  0
   -4.2865    4.2241   -0.4266 H   0  0  0  0  0  0  0  0  0  0  0  0
 18 19  1  0  0  0  0
 19 31  1  0  0  0  0
 19 20  2  0  0  0  0
  8  9  1  0  0  0  0
  9 17  1  0  0  0  0
  9 10  2  0  0  0  0
  1  3  1  0  0  0  0
  1  7  1  0  0  0  0
  1  2  2  0  0  0  0
 32 33  1  0  0  0  0
 33 41  1  0  0  0  0
 33 34  2  0  0  0  0
 21 22  1  0  0  0  0
 22 23  1  0  0  0  0
 18 21  1  0  0  0  0
 17 23  1  0  0  0  0
 17 18  1  0  0  0  0
  8 11  1  0  0  0  0
 32 35  1  0  0  0  0
 41 42  1  0  0  0  0
  7  8  1  0  0  0  0
 31 32  1  0  0  0  0
 22 27  1  0  0  0  0
 22 28  1  0  0  0  0
 21 25  1  0  0  0  0
 21 26  1  0  0  0  0
 23 29  1  0  0  0  0
 23 30  1  0  0  0  0
 18 24  1  0  0  0  0
  3  4  1  0  0  0  0
  3  5  1  0  0  0  0
  3  6  1  0  0  0  0
 11 14  1  0  0  0  0
 11 15  1  0  0  0  0
 11 16  1  0  0  0  0
 35 38  1  0  0  0  0
 35 39  1  0  0  0  0
 35 40  1  0  0  0  0
 42 44  1  0  0  0  0
 42 45  1  0  0  0  0
 42 46  1  0  0  0  0
  8 13  1  0  0  0  0
 32 37  1  0  0  0  0
 31 36  1  0  0  0  0
 41 43  1  0  0  0  0
  7 12  1  0  0  0  0
M  END
$$$$

  -OEChem-05262214473D

 46 46  0     1  0  0  0  0  0999 V2000
   -0.6012   -3.2995    3.8205 C   0  0  0  0  0  0  0  0  0  0  0  0
   -0.6574   -4.4683    3.4568 O   0  0  0  0  0  0  0  0  0  0  0  0
   -0.4935   -2.9859    5.2760 C   0  0  0  0  0  0  0  0  0  0  0  0
   -1.4789   -2.8689    5.7550 H   0  0  0  0  0  0  0  0  0  0  0  0
    0.0123   -3.7847    5.8419 H   0  0  0  0  0  0  0  0  0  0  0  0
    0.0585   -2.0642    5.5199 H   0  0  0  0  0  0  0  0  0  0  0  0
   -0.6261   -2.1849    2.9917 N   0  0  0  0  0  0  0  0  0  0  0  0
   -0.7237   -2.2601    1.5650 C   0  0  2  0  0  0  0  0  0  0  0  0
    0.1695   -1.1513    1.0687 C   0  0  0  0  0  0  0  0  0  0  0  0
    0.3193   -0.1267    1.7365 O   0  0  0  0  0  0  0  0  0  0  0  0
   -2.1397   -2.0663    1.0750 C   0  0  0  0  0  0  0  0  0  0  0  0
   -0.5717   -1.2606    3.4238 H   0  0  0  0  0  0  0  0  0  0  0  0
   -0.3076   -3.2111    1.2363 H   0  0  0  0  0  0  0  0  0  0  0  0
   -2.5584   -1.1089    1.4061 H   0  0  0  0  0  0  0  0  0  0  0  0
   -2.1682   -2.0790   -0.0197 H   0  0  0  0  0  0  0  0  0  0  0  0
   -2.7965   -2.8601    1.4459 H   0  0  0  0  0  0  0  0  0  0  0  0
    0.7724   -1.3745   -0.1593 N   0  0  0  0  0  0  0  0  0  0  0  0
    1.6644   -0.4046   -0.7812 C   0  0  2  0  0  0  0  0  0  0  0  0
    0.8166    0.4953   -1.6290 C   0  0  0  0  0  0  0  0  0  0  0  0
    0.1577    0.0178   -2.5453 O   0  0  0  0  0  0  0  0  0  0  0  0
    2.6195   -1.2417   -1.6241 C   0  0  0  0  0  0  0  0  0  0  0  0
    2.1758   -2.2356   -0.5535 C   0  0  0  0  0  0  0  0  0  0  0  0
    0.7499   -2.6270   -0.9105 C   0  0  0  0  0  0  0  0  0  0  0  0
    2.1745    0.2007   -0.0258 H   0  0  0  0  0  0  0  0  0  0  0  0
    3.6296   -0.8175   -1.5784 H   0  0  0  0  0  0  0  0  0  0  0  0
    2.3218   -1.3211   -2.6742 H   0  0  0  0  0  0  0  0  0  0  0  0
    2.8084   -3.1304   -0.5781 H   0  0  0  0  0  0  0  0  0  0  0  0
    2.2249   -1.8085    0.4522 H   0  0  0  0  0  0  0  0  0  0  0  0
    0.5944   -2.7143   -1.9893 H   0  0  0  0  0  0  0  0  0  0  0  0
    0.4645   -3.5695   -0.4308 H   0  0  0  0  0  0  0  0  0  0  0  0
    1.0507    1.9200   -1.0324 N   0  0  0  0  0  0  0  0  0  0  0  0
    0.3071    3.0616   -1.5148 C   0  0  2  0  0  0  0  0  0  0  0  0
   -1.1527    2.8711   -1.1246 C   0  0  0  0  0  0  0  0  0  0  0  0
   -1.6433    1.7710   -0.8793 O   0  0  0  0  0  0  0  0  0  0  0  0
    0.4512    3.2197   -3.0204 C   0  0  0  0  0  0  0  0  0  0  0  0
    1.8216    2.0810   -0.3912 H   0  0  0  0  0  0  0  0  0  0  0  0
    0.7109    3.9416   -1.0023 H   0  0  0  0  0  0  0  0  0  0  0  0
    0.0520    2.3476   -3.5510 H   0  0  0  0  0  0  0  0  0  0  0  0
   -0.0894    4.1014   -3.3803 H   0  0  0  0  0  0  0  0  0  0  0  0
    1.5042    3.3268   -3.3021 H   0  0  0  0  0  0  0  0  0  0  0  0
   -1.8535    4.0690   -1.1247 N   0  0  0  0  0  0  0  0  0  0  0  0
   -3.2586    4.1502   -0.8003 C   0  0  0  0  0  0  0  0  0  0  0  0
   -1.3618    4.9356   -1.3220 H   0  0  0  0  0  0  0  0  0  0  0  0
   -3.8533    4.0768   -1.7228 H   0  0  0  0  0  0  0  0  0  0  0  0
   -3.5270    3.3249   -0.1245 H   0  0  0  0  0  0  0  0  0  0  0  0
   -3.4657    5.1109   -0.3061 H   0  0  0  0  0  0  0  0  0  0  0  0
 18 19  1  0  0  0  0
 19 31  1  0  0  0  0
 19 20  2  0  0  0  0
  8  9  1  0  0  0  0
  9 17  1  0  0  0  0
  9 10  2  0  0  0  0
  1  3  1  0  0  0  0
  1  7  1  0  0  0  0
  1  2  2  0  0  0  0
 32 33  1  0  0  0  0
 33 41  1  0  0  0  0
 33 34  2  0  0  0  0
 21 22  1  0  0  0  0
 22 23  1  0  0  0  0
 18 21  1  0  0  0  0
 17 23  1  0  0  0  0
 17 18  1  0  0  0  0
  8 11  1  0  0  0  0
 32 35  1  0  0  0  0
 41 42  1  0  0  0  0
  7  8  1  0  0  0  0
 31 32  1  0  0  0  0
 22 27  1  0  0  0  0
 22 28  1  0  0  0  0
 21 25  1  0  0  0  0
 21 26  1  0  0  0  0
 23 29  1  0  0  0  0
 23 30  1  0  0  0  0
 18 24  1  0  0  0  0
  3  4  1  0  0  0  0
  3  5  1  0  0  0  0
  3  6  1  0  0  0  0
 11 14  1  0  0  0  0
 11 15  1  0  0  0  0
 11 16  1  0  0  0  0
 35 38  1  0  0  0  0
 35 39  1  0  0  0  0
 35 40  1  0  0  0  0
 42 44  1  0  0  0  0
 42 45  1  0  0  0  0
 42 46  1  0  0  0  0
  8 13  1  0  0  0  0
 32 37  1  0  0  0  0
 31 36  1  0  0  0  0
 41 43  1  0  0  0  0
  7 12  1  0  0  0  0
M  END
$$$$

  -OEChem-05262214473D

 46 46  0     1  0  0  0  0  0999 V2000
   -0.6012   -3.2995    3.8205 C   0  0  0  0  0  0  0  0  0  0  0  0
   -0.6574   -4.4683    3.4568 O   0  0  0  0  0  0  0  0  0  0  0  0
   -0.4935   -2.9859    5.2760 C   0  0  0  0  0  0  0  0  0  0  0  0
   -1.4789   -2.8689    5.7550 H   0  0  0  0  0  0  0  0  0  0  0  0
    0.0123   -3.7847    5.8419 H   0  0  0  0  0  0  0  0  0  0  0  0
    0.0585   -2.0642    5.5199 H   0  0  0  0  0  0  0  0  0  0  0  0
   -0.6261   -2.1849    2.9917 N   0  0  0  0  0  0  0  0  0  0  0  0
   -0.7237   -2.2601    1.5650 C   0  0  2  0  0  0  0  0  0  0  0  0
    0.1695   -1.1513    1.0687 C   0  0  0  0  0  0  0  0  0  0  0  0
    0.3193   -0.1267    1.7365 O   0  0  0  0  0  0  0  0  0  0  0  0
   -2.1397   -2.0663    1.0750 C   0  0  0  0  0  0  0  0  0  0  0  0
   -0.5717   -1.2606    3.4238 H   0  0  0  0  0  0  0  0  0  0  0  0
   -0.3076   -3.2111    1.2363 H   0  0  0  0  0  0  0  0  0  0  0  0
   -2.5584   -1.1089    1.4061 H   0  0  0  0  0  0  0  0  0  0  0  0
   -2.1682   -2.0790   -0.0197 H   0  0  0  0  0  0  0  0  0  0  0  0
   -2.7965   -2.8601    1.4459 H   0  0  0  0  0  0  0  0  0  0  0  0
    0.7724   -1.3745   -0.1593 N   0  0  0  0  0  0  0  0  0  0  0  0
    1.6644   -0.4046   -0.7812 C   0  0  2  0  0  0  0  0  0  0  0  0
    0.8166    0.4953   -1.6290 C   0  0  0  0  0  0  0  0  0  0  0  0
   -0.0438    0.0088   -2.3534 O   0  0  0  0  0  0  0  0  0  0  0  0
    2.6195   -1.2417   -1.6241 C   0  0  0  0  0  0  0  0  0  0  0  0
    2.1758   -2.2356   -0.5535 C   0  0  0  0  0  0  0  0  0  0  0  0
    0.7499   -2.6270   -0.9105 C   0  0  0  0  0  0  0  0  0  0  0  0
    2.1745    0.2007   -0.0258 H   0  0  0  0  0  0  0  0  0  0  0  0
    3.6296   -0.8175   -1.5784 H   0  0  0  0  0  0  0  0  0  0  0  0
    2.3218   -1.3211   -2.6742 H   0  0  0  0  0  0  0  0  0  0  0  0
    2.8084   -3.1304   -0.5781 H   0  0  0  0  0  0  0  0  0  0  0  0
    2.2249   -1.8085    0.4522 H   0  0  0  0  0  0  0  0  0  0  0  0
    0.5944   -2.7143   -1.9893 H   0  0  0  0  0  0  0  0  0  0  0  0
    0.4645   -3.5695   -0.4308 H   0  0  0  0  0  0  0  0  0  0  0  0
    1.3365    1.9324   -1.3050 N   0  0  0  0  0  0  0  0  0  0  0  0
    0.6838    3.1016   -1.8492 C   0  0  2  0  0  0  0  0  0  0  0  0
   -0.7029    3.1983   -1.2271 C   0  0  0  0  0  0  0  0  0  0  0  0
   -1.2897    2.2328   -0.7428 O   0  0  0  0  0  0  0  0  0  0  0  0
    0.5955    3.0305   -3.3657 C   0  0  0  0  0  0  0  0  0  0  0  0
    2.2179    2.0546   -0.8155 H   0  0  0  0  0  0  0  0  0  0  0  0
    1.2821    3.9677   -1.5458 H   0  0  0  0  0  0  0  0  0  0  0  0
   -0.0002    2.1689   -3.6886 H   0  0  0  0  0  0  0  0  0  0  0  0
    0.1266    3.9298   -3.7784 H   0  0  0  0  0  0  0  0  0  0  0  0
    1.5918    2.9310   -3.8099 H   0  0  0  0  0  0  0  0  0  0  0  0
   -1.2261    4.4808   -1.3150 N   0  0  0  0  0  0  0  0  0  0  0  0
   -2.5337    4.8259   -0.8080 C   0  0  0  0  0  0  0  0  0  0  0  0
   -0.6617    5.2242   -1.7157 H   0  0  0  0  0  0  0  0  0  0  0  0
   -3.2778    4.7236   -1.6116 H   0  0  0  0  0  0  0  0  0  0  0  0
   -2.7948    4.1520    0.0213 H   0  0  0  0  0  0  0  0  0  0  0  0
   -2.5243    5.8649   -0.4471 H   0  0  0  0  0  0  0  0  0  0  0  0
 18 19  1  0  0  0  0
 19 31  1  0  0  0  0
 19 20  2  0  0  0  0
  8  9  1  0  0  0  0
  9 17  1  0  0  0  0
  9 10  2  0  0  0  0
  1  3  1  0  0  0  0
  1  7  1  0  0  0  0
  1  2  2  0  0  0  0
 32 33  1  0  0  0  0
 33 41  1  0  0  0  0
 33 34  2  0  0  0  0
 21 22  1  0  0  0  0
 22 23  1  0  0  0  0
 18 21  1  0  0  0  0
 17 23  1  0  0  0  0
 17 18  1  0  0  0  0
  8 11  1  0  0  0  0
 32 35  1  0  0  0  0
 41 42  1  0  0  0  0
  7  8  1  0  0  0  0
 31 32  1  0  0  0  0
 22 27  1  0  0  0  0
 22 28  1  0  0  0  0
 21 25  1  0  0  0  0
 21 26  1  0  0  0  0
 23 29  1  0  0  0  0
 23 30  1  0  0  0  0
 18 24  1  0  0  0  0
  3  4  1  0  0  0  0
  3  5  1  0  0  0  0
  3  6  1  0  0  0  0
 11 14  1  0  0  0  0
 11 15  1  0  0  0  0
 11 16  1  0  0  0  0
 35 38  1  0  0  0  0
 35 39  1  0  0  0  0
 35 40  1  0  0  0  0
 42 44  1  0  0  0  0
 42 45  1  0  0  0  0
 42 46  1  0  0  0  0
  8 13  1  0  0  0  0
 32 37  1  0  0  0  0
 31 36  1  0  0  0  0
 41 43  1  0  0  0  0
  7 12  1  0  0  0  0
M  END
$$$$

  -OEChem-05262214473D

 46 46  0     1  0  0  0  0  0999 V2000
   -0.6012   -3.2995    3.8205 C   0  0  0  0  0  0  0  0  0  0  0  0
   -0.6574   -4.4683    3.4568 O   0  0  0  0  0  0  0  0  0  0  0  0
   -0.4935   -2.9859    5.2760 C   0  0  0  0  0  0  0  0  0  0  0  0
   -1.4789   -2.8689    5.7550 H   0  0  0  0  0  0  0  0  0  0  0  0
    0.0123   -3.7847    5.8419 H   0  0  0  0  0  0  0  0  0  0  0  0
    0.0585   -2.0642    5.5199 H   0  0  0  0  0  0  0  0  0  0  0  0
   -0.6261   -2.1849    2.9917 N   0  0  0  0  0  0  0  0  0  0  0  0
   -0.7237   -2.2601    1.5650 C   0  0  2  0  0  0  0  0  0  0  0  0
    0.1695   -1.1513    1.0687 C   0  0  0  0  0  0  0  0  0  0  0  0
    0.3193   -0.1267    1.7365 O   0  0  0  0  0  0  0  0  0  0  0  0
   -2.1397   -2.0663    1.0750 C   0  0  0  0  0  0  0  0  0  0  0  0
   -0.5717   -1.2606    3.4238 H   0  0  0  0  0  0  0  0  0  0  0  0
   -0.3076   -3.2111    1.2363 H   0  0  0  0  0  0  0  0  0  0  0  0
   -2.5584   -1.1089    1.4061 H   0  0  0  0  0  0  0  0  0  0  0  0
   -2.1682   -2.0790   -0.0197 H   0  0  0  0  0  0  0  0  0  0  0  0
   -2.7965   -2.8601    1.4459 H   0  0  0  0  0  0  0  0  0  0  0  0
    0.7724   -1.3745   -0.1593 N   0  0  0  0  0  0  0  0  0  0  0  0
    1.6644   -0.4046   -0.7812 C   0  0  2  0  0  0  0  0  0  0  0  0
    0.8166    0.4953   -1.6290 C   0  0  0  0  0  0  0  0  0  0  0  0
   -0.2099    0.0576   -2.1355 O   0  0  0  0  0  0  0  0  0  0  0  0
    2.6195   -1.2417   -1.6241 C   0  0  0  0  0  0  0  0  0  0  0  0
    2.1758   -2.2356   -0.5535 C   0  0  0  0  0  0  0  0  0  0  0  0
    0.7499   -2.6270   -0.9105 C   0  0  0  0  0  0  0  0  0  0  0  0
    2.1745    0.2007   -0.0258 H   0  0  0  0  0  0  0  0  0  0  0  0
    3.6296   -0.8175   -1.5784 H   0  0  0  0  0  0  0  0  0  0  0  0
    2.3218   -1.3211   -2.6742 H   0  0  0  0  0  0  0  0  0  0  0  0
    2.8084   -3.1304   -0.5781 H   0  0  0  0  0  0  0  0  0  0  0  0
    2.2249   -1.8085    0.4522 H   0  0  0  0  0  0  0  0  0  0  0  0
    0.5944   -2.7143   -1.9893 H   0  0  0  0  0  0  0  0  0  0  0  0
    0.4645   -3.5695   -0.4308 H   0  0  0  0  0  0  0  0  0  0  0  0
    1.5721    1.8626   -1.6146 N   0  0  0  0  0  0  0  0  0  0  0  0
    1.0016    3.0360   -2.2365 C   0  0  2  0  0  0  0  0  0  0  0  0
   -0.2365    3.4336   -1.4437 C   0  0  0  0  0  0  0  0  0  0  0  0
   -0.8593    2.6470   -0.7334 O   0  0  0  0  0  0  0  0  0  0  0  0
    0.6536    2.7761   -3.6939 C   0  0  0  0  0  0  0  0  0  0  0  0
    2.5309    1.9090   -1.2831 H   0  0  0  0  0  0  0  0  0  0  0  0
    1.7532    3.8297   -2.1634 H   0  0  0  0  0  0  0  0  0  0  0  0
   -0.0981    1.9838   -3.7872 H   0  0  0  0  0  0  0  0  0  0  0  0
    0.2481    3.6742   -4.1713 H   0  0  0  0  0  0  0  0  0  0  0  0
    1.5396    2.4615   -4.2560 H   0  0  0  0  0  0  0  0  0  0  0  0
   -0.5893    4.7588   -1.6567 N   0  0  0  0  0  0  0  0  0  0  0  0
   -1.7357    5.3713   -1.0269 C   0  0  0  0  0  0  0  0  0  0  0  0
   -0.0044    5.3430   -2.2470 H   0  0  0  0  0  0  0  0  0  0  0  0
   -2.6101    5.2805   -1.6882 H   0  0  0  0  0  0  0  0  0  0  0  0
   -1.9437    4.8651   -0.0727 H   0  0  0  0  0  0  0  0  0  0  0  0
   -1.5266    6.4349   -0.8398 H   0  0  0  0  0  0  0  0  0  0  0  0
 18 19  1  0  0  0  0
 19 31  1  0  0  0  0
 19 20  2  0  0  0  0
  8  9  1  0  0  0  0
  9 17  1  0  0  0  0
  9 10  2  0  0  0  0
  1  3  1  0  0  0  0
  1  7  1  0  0  0  0
  1  2  2  0  0  0  0
 32 33  1  0  0  0  0
 33 41  1  0  0  0  0
 33 34  2  0  0  0  0
 21 22  1  0  0  0  0
 22 23  1  0  0  0  0
 18 21  1  0  0  0  0
 17 23  1  0  0  0  0
 17 18  1  0  0  0  0
  8 11  1  0  0  0  0
 32 35  1  0  0  0  0
 41 42  1  0  0  0  0
  7  8  1  0  0  0  0
 31 32  1  0  0  0  0
 22 27  1  0  0  0  0
 22 28  1  0  0  0  0
 21 25  1  0  0  0  0
 21 26  1  0  0  0  0
 23 29  1  0  0  0  0
 23 30  1  0  0  0  0
 18 24  1  0  0  0  0
  3  4  1  0  0  0  0
  3  5  1  0  0  0  0
  3  6  1  0  0  0  0
 11 14  1  0  0  0  0
 11 15  1  0  0  0  0
 11 16  1  0  0  0  0
 35 38  1  0  0  0  0
 35 39  1  0  0  0  0
 35 40  1  0  0  0  0
 42 44  1  0  0  0  0
 42 45  1  0  0  0  0
 42 46  1  0  0  0  0
  8 13  1  0  0  0  0
 32 37  1  0  0  0  0
 31 36  1  0  0  0  0
 41 43  1  0  0  0  0
  7 12  1  0  0  0  0
M  END
$$$$

  -OEChem-05262214473D

 46 46  0     1  0  0  0  0  0999 V2000
   -0.6012   -3.2995    3.8205 C   0  0  0  0  0  0  0  0  0  0  0  0
   -0.6574   -4.4683    3.4568 O   0  0  0  0  0  0  0  0  0  0  0  0
   -0.4935   -2.9859    5.2760 C   0  0  0  0  0  0  0  0  0  0  0  0
   -1.4789   -2.8689    5.7550 H   0  0  0  0  0  0  0  0  0  0  0  0
    0.0123   -3.7847    5.8419 H   0  0  0  0  0  0  0  0  0  0  0  0
    0.0585   -2.0642    5.5199 H   0  0  0  0  0  0  0  0  0  0  0  0
   -0.6261   -2.1849    2.9917 N   0  0  0  0  0  0  0  0  0  0  0  0
   -0.7237   -2.2601    1.5650 C   0  0  2  0  0  0  0  0  0  0  0  0
    0.1695   -1.1513    1.0687 C   0  0  0  0  0  0  0  0  0  0  0  0
    0.3193   -0.1267    1.7365 O   0  0  0  0  0  0  0  0  0  0  0  0
   -2.1397   -2.0663    1.0750 C   0  0  0  0  0  0  0  0  0  0  0  0
   -0.5717   -1.2606    3.4238 H   0  0  0  0  0  0  0  0  0  0  0  0
   -0.3076   -3.2111    1.2363 H   0  0  0  0  0  0  0  0  0  0  0  0
   -2.5584   -1.1089    1.4061 H   0  0  0  0  0  0  0  0  0  0  0  0
   -2.1682   -2.0790   -0.0197 H   0  0  0  0  0  0  0  0  0  0  0  0
   -2.7965   -2.8601    1.4459 H   0  0  0  0  0  0  0  0  0  0  0  0
    0.7724   -1.3745   -0.1593 N   0  0  0  0  0  0  0  0  0  0  0  0
    1.6644   -0.4046   -0.7812 C   0  0  2  0  0  0  0  0  0  0  0  0
    0.8166    0.4953   -1.6290 C   0  0  0  0  0  0  0  0  0  0  0  0
   -0.3293    0.1610   -1.9064 O   0  0  0  0  0  0  0  0  0  0  0  0
    2.6195   -1.2417   -1.6241 C   0  0  0  0  0  0  0  0  0  0  0  0
    2.1758   -2.2356   -0.5535 C   0  0  0  0  0  0  0  0  0  0  0  0
    0.7499   -2.6270   -0.9105 C   0  0  0  0  0  0  0  0  0  0  0  0
    2.1745    0.2007   -0.0258 H   0  0  0  0  0  0  0  0  0  0  0  0
    3.6296   -0.8175   -1.5784 H   0  0  0  0  0  0  0  0  0  0  0  0
    2.3218   -1.3211   -2.6742 H   0  0  0  0  0  0  0  0  0  0  0  0
    2.8084   -3.1304   -0.5781 H   0  0  0  0  0  0  0  0  0  0  0  0
    2.2249   -1.8085    0.4522 H   0  0  0  0  0  0  0  0  0  0  0  0
    0.5944   -2.7143   -1.9893 H   0  0  0  0  0  0  0  0  0  0  0  0
    0.4645   -3.5695   -0.4308 H   0  0  0  0  0  0  0  0  0  0  0  0
    1.7413    1.7155   -1.9401 N   0  0  0  0  0  0  0  0  0  0  0  0
    1.2388    2.8696   -2.6504 C   0  0  2  0  0  0  0  0  0  0  0  0
    0.2148    3.5608   -1.7599 C   0  0  0  0  0  0  0  0  0  0  0  0
   -0.3815    2.9856   -0.8519 O   0  0  0  0  0  0  0  0  0  0  0  0
    0.6215    2.4737   -3.9827 C   0  0  0  0  0  0  0  0  0  0  0  0
    2.7392    1.6540   -1.7621 H   0  0  0  0  0  0  0  0  0  0  0  0
    2.0921    3.5371   -2.8129 H   0  0  0  0  0  0  0  0  0  0  0  0
   -0.2351    1.8049   -3.8401 H   0  0  0  0  0  0  0  0  0  0  0  0
    0.2671    3.3520   -4.5323 H   0  0  0  0  0  0  0  0  0  0  0  0
    1.3510    1.9503   -4.6101 H   0  0  0  0  0  0  0  0  0  0  0  0
    0.0134    4.8842   -2.1263 N   0  0  0  0  0  0  0  0  0  0  0  0
   -0.9192    5.7493   -1.4422 C   0  0  0  0  0  0  0  0  0  0  0  0
    0.5653    5.2837   -2.8797 H   0  0  0  0  0  0  0  0  0  0  0  0
   -1.8955    5.7094   -1.9475 H   0  0  0  0  0  0  0  0  0  0  0  0
   -1.0320    5.4156   -0.4001 H   0  0  0  0  0  0  0  0  0  0  0  0
   -0.5404    6.7819   -1.4577 H   0  0  0  0  0  0  0  0  0  0  0  0
 18 19  1  0  0  0  0
 19 31  1  0  0  0  0
 19 20  2  0  0  0  0
  8  9  1  0  0  0  0
  9 17  1  0  0  0  0
  9 10  2  0  0  0  0
  1  3  1  0  0  0  0
  1  7  1  0  0  0  0
  1  2  2  0  0  0  0
 32 33  1  0  0  0  0
 33 41  1  0  0  0  0
 33 34  2  0  0  0  0
 21 22  1  0  0  0  0
 22 23  1  0  0  0  0
 18 21  1  0  0  0  0
 17 23  1  0  0  0  0
 17 18  1  0  0  0  0
  8 11  1  0  0  0  0
 32 35  1  0  0  0  0
 41 42  1  0  0  0  0
  7  8  1  0  0  0  0
 31 32  1  0  0  0  0
 22 27  1  0  0  0  0
 22 28  1  0  0  0  0
 21 25  1  0  0  0  0
 21 26  1  0  0  0  0
 23 29  1  0  0  0  0
 23 30  1  0  0  0  0
 18 24  1  0  0  0  0
  3  4  1  0  0  0  0
  3  5  1  0  0  0  0
  3  6  1  0  0  0  0
 11 14  1  0  0  0  0
 11 15  1  0  0  0  0
 11 16  1  0  0  0  0
 35 38  1  0  0  0  0
 35 39  1  0  0  0  0
 35 40  1  0  0  0  0
 42 44  1  0  0  0  0
 42 45  1  0  0  0  0
 42 46  1  0  0  0  0
  8 13  1  0  0  0  0
 32 37  1  0  0  0  0
 31 36  1  0  0  0  0
 41 43  1  0  0  0  0
  7 12  1  0  0  0  0
M  END
$$$$

  -OEChem-05262214473D

 46 46  0     1  0  0  0  0  0999 V2000
   -0.6012   -3.2995    3.8205 C   0  0  0  0  0  0  0  0  0  0  0  0
   -0.6574   -4.4683    3.4568 O   0  0  0  0  0  0  0  0  0  0  0  0
   -0.4935   -2.9859    5.2760 C   0  0  0  0  0  0  0  0  0  0  0  0
   -1.4789   -2.8689    5.7550 H   0  0  0  0  0  0  0  0  0  0  0  0
    0.0123   -3.7847    5.8419 H   0  0  0  0  0  0  0  0  0  0  0  0
    0.0585   -2.0642    5.5199 H   0  0  0  0  0  0  0  0  0  0  0  0
   -0.6261   -2.1849    2.9917 N   0  0  0  0  0  0  0  0  0  0  0  0
   -0.7237   -2.2601    1.5650 C   0  0  2  0  0  0  0  0  0  0  0  0
    0.1695   -1.1513    1.0687 C   0  0  0  0  0  0  0  0  0  0  0  0
    0.3193   -0.1267    1.7365 O   0  0  0  0  0  0  0  0  0  0  0  0
   -2.1397   -2.0663    1.0750 C   0  0  0  0  0  0  0  0  0  0  0  0
   -0.5717   -1.2606    3.4238 H   0  0  0  0  0  0  0  0  0  0  0  0
   -0.3076   -3.2111    1.2363 H   0  0  0  0  0  0  0  0  0  0  0  0
   -2.5584   -1.1089    1.4061 H   0  0  0  0  0  0  0  0  0  0  0  0
   -2.1682   -2.0790   -0.0197 H   0  0  0  0  0  0  0  0  0  0  0  0
   -2.7965   -2.8601    1.4459 H   0  0  0  0  0  0  0  0  0  0  0  0
    0.7724   -1.3745   -0.1593 N   0  0  0  0  0  0  0  0  0  0  0  0
    1.6644   -0.4046   -0.7812 C   0  0  2  0  0  0  0  0  0  0  0  0
    0.8166    0.4953   -1.6290 C   0  0  0  0  0  0  0  0  0  0  0  0
   -0.3939    0.3119   -1.6816 O   0  0  0  0  0  0  0  0  0  0  0  0
    2.6195   -1.2417   -1.6241 C   0  0  0  0  0  0  0  0  0  0  0  0
    2.1758   -2.2356   -0.5535 C   0  0  0  0  0  0  0  0  0  0  0  0
    0.7499   -2.6270   -0.9105 C   0  0  0  0  0  0  0  0  0  0  0  0
    2.1745    0.2007   -0.0258 H   0  0  0  0  0  0  0  0  0  0  0  0
    3.6296   -0.8175   -1.5784 H   0  0  0  0  0  0  0  0  0  0  0  0
    2.3218   -1.3211   -2.6742 H   0  0  0  0  0  0  0  0  0  0  0  0
    2.8084   -3.1304   -0.5781 H   0  0  0  0  0  0  0  0  0  0  0  0
    2.2249   -1.8085    0.4522 H   0  0  0  0  0  0  0  0  0  0  0  0
    0.5944   -2.7143   -1.9893 H   0  0  0  0  0  0  0  0  0  0  0  0
    0.4645   -3.5695   -0.4308 H   0  0  0  0  0  0  0  0  0  0  0  0
    1.8326    1.5009   -2.2592 N   0  0  0  0  0  0  0  0  0  0  0  0
    1.3793    2.6134   -3.0627 C   0  0  2  0  0  0  0  0  0  0  0  0
    0.6202    3.5714   -2.1541 C   0  0  0  0  0  0  0  0  0  0  0  0
    0.1112    3.2253   -1.0901 O   0  0  0  0  0  0  0  0  0  0  0  0
    0.5014    2.1441   -4.2124 C   0  0  0  0  0  0  0  0  0  0  0  0
    2.8287    1.3072   -2.2198 H   0  0  0  0  0  0  0  0  0  0  0  0
    2.2757    3.1097   -3.4502 H   0  0  0  0  0  0  0  0  0  0  0  0
   -0.4018    1.6444   -3.8437 H   0  0  0  0  0  0  0  0  0  0  0  0
    0.1822    2.9852   -4.8368 H   0  0  0  0  0  0  0  0  0  0  0  0
    1.0391    1.4323   -4.8480 H   0  0  0  0  0  0  0  0  0  0  0  0
    0.5410    4.8484   -2.6919 N   0  0  0  0  0  0  0  0  0  0  0  0
   -0.1397    5.9341   -2.0256 C   0  0  0  0  0  0  0  0  0  0  0  0
    1.0087    5.0504   -3.5706 H   0  0  0  0  0  0  0  0  0  0  0  0
   -1.1827    5.9812   -2.3718 H   0  0  0  0  0  0  0  0  0  0  0  0
   -0.1215    5.7660   -0.9386 H   0  0  0  0  0  0  0  0  0  0  0  0
    0.3670    6.8823   -2.2585 H   0  0  0  0  0  0  0  0  0  0  0  0
 18 19  1  0  0  0  0
 19 31  1  0  0  0  0
 19 20  2  0  0  0  0
  8  9  1  0  0  0  0
  9 17  1  0  0  0  0
  9 10  2  0  0  0  0
  1  3  1  0  0  0  0
  1  7  1  0  0  0  0
  1  2  2  0  0  0  0
 32 33  1  0  0  0  0
 33 41  1  0  0  0  0
 33 34  2  0  0  0  0
 21 22  1  0  0  0  0
 22 23  1  0  0  0  0
 18 21  1  0  0  0  0
 17 23  1  0  0  0  0
 17 18  1  0  0  0  0
  8 11  1  0  0  0  0
 32 35  1  0  0  0  0
 41 42  1  0  0  0  0
  7  8  1  0  0  0  0
 31 32  1  0  0  0  0
 22 27  1  0  0  0  0
 22 28  1  0  0  0  0
 21 25  1  0  0  0  0
 21 26  1  0  0  0  0
 23 29  1  0  0  0  0
 23 30  1  0  0  0  0
 18 24  1  0  0  0  0
  3  4  1  0  0  0  0
  3  5  1  0  0  0  0
  3  6  1  0  0  0  0
 11 14  1  0  0  0  0
 11 15  1  0  0  0  0
 11 16  1  0  0  0  0
 35 38  1  0  0  0  0
 35 39  1  0  0  0  0
 35 40  1  0  0  0  0
 42 44  1  0  0  0  0
 42 45  1  0  0  0  0
 42 46  1  0  0  0  0
  8 13  1  0  0  0  0
 32 37  1  0  0  0  0
 31 36  1  0  0  0  0
 41 43  1  0  0  0  0
  7 12  1  0  0  0  0
M  END
$$$$

  -OEChem-05262214473D

 46 46  0     1  0  0  0  0  0999 V2000
   -0.6012   -3.2995    3.8205 C   0  0  0  0  0  0  0  0  0  0  0  0
   -0.6574   -4.4683    3.4568 O   0  0  0  0  0  0  0  0  0  0  0  0
   -0.4935   -2.9859    5.2760 C   0  0  0  0  0  0  0  0  0  0  0  0
   -1.4789   -2.8689    5.7550 H   0  0  0  0  0  0  0  0  0  0  0  0
    0.0123   -3.7847    5.8419 H   0  0  0  0  0  0  0  0  0  0  0  0
    0.0585   -2.0642    5.5199 H   0  0  0  0  0  0  0  0  0  0  0  0
   -0.6261   -2.1849    2.9917 N   0  0  0  0  0  0  0  0  0  0  0  0
   -0.7237   -2.2601    1.5650 C   0  0  2  0  0  0  0  0  0  0  0  0
    0.1695   -1.1513    1.0687 C   0  0  0  0  0  0  0  0  0  0  0  0
    0.3193   -0.1267    1.7365 O   0  0  0  0  0  0  0  0  0  0  0  0
   -2.1397   -2.0663    1.0750 C   0  0  0  0  0  0  0  0  0  0  0  0
   -0.5717   -1.2606    3.4238 H   0  0  0  0  0  0  0  0  0  0  0  0
   -0.3076   -3.2111    1.2363 H   0  0  0  0  0  0  0  0  0  0  0  0
   -2.5584   -1.1089    1.4061 H   0  0  0  0  0  0  0  0  0  0  0  0
   -2.1682   -2.0790   -0.0197 H   0  0  0  0  0  0  0  0  0  0  0  0
   -2.7965   -2.8601    1.4459 H   0  0  0  0  0  0  0  0  0  0  0  0
    0.7724   -1.3745   -0.1593 N   0  0  0  0  0  0  0  0  0  0  0  0
    1.6644   -0.4046   -0.7812 C   0  0  2  0  0  0  0  0  0  0  0  0
    0.8166    0.4953   -1.6290 C   0  0  0  0  0  0  0  0  0  0  0  0
   -0.3993    0.5000   -1.4765 O   0  0  0  0  0  0  0  0  0  0  0  0
    2.6195   -1.2417   -1.6241 C   0  0  0  0  0  0  0  0  0  0  0  0
    2.1758   -2.2356   -0.5535 C   0  0  0  0  0  0  0  0  0  0  0  0
    0.7499   -2.6270   -0.9105 C   0  0  0  0  0  0  0  0  0  0  0  0
    2.1745    0.2007   -0.0258 H   0  0  0  0  0  0  0  0  0  0  0  0
    3.6296   -0.8175   -1.5784 H   0  0  0  0  0  0  0  0  0  0  0  0
    2.3218   -1.3211   -2.6742 H   0  0  0  0  0  0  0  0  0  0  0  0
    2.8084   -3.1304   -0.5781 H   0  0  0  0  0  0  0  0  0  0  0  0
    2.2249   -1.8085    0.4522 H   0  0  0  0  0  0  0  0  0  0  0  0
    0.5944   -2.7143   -1.9893 H   0  0  0  0  0  0  0  0  0  0  0  0
    0.4645   -3.5695   -0.4308 H   0  0  0  0  0  0  0  0  0  0  0  0
    1.8398    1.2336   -2.5502 N   0  0  0  0  0  0  0  0  0  0  0  0
    1.4134    2.2851   -3.4453 C   0  0  2  0  0  0  0  0  0  0  0  0
    0.9521    3.4646   -2.5994 C   0  0  0  0  0  0  0  0  0  0  0  0
    0.5851    3.3498   -1.4318 O   0  0  0  0  0  0  0  0  0  0  0  0
    0.3014    1.8097   -4.3674 C   0  0  0  0  0  0  0  0  0  0  0  0
    2.7933    0.8921   -2.6250 H   0  0  0  0  0  0  0  0  0  0  0  0
    2.2915    2.5768   -4.0317 H   0  0  0  0  0  0  0  0  0  0  0  0
   -0.5869    1.5132   -3.7978 H   0  0  0  0  0  0  0  0  0  0  0  0
   -0.0008    2.5987   -5.0641 H   0  0  0  0  0  0  0  0  0  0  0  0
    0.6251    0.9429   -4.9536 H   0  0  0  0  0  0  0  0  0  0  0  0
    0.9574    4.6538   -3.3149 N   0  0  0  0  0  0  0  0  0  0  0  0
    0.5497    5.9131   -2.7372 C   0  0  0  0  0  0  0  0  0  0  0  0
    1.2954    4.6591   -4.2728 H   0  0  0  0  0  0  0  0  0  0  0  0
   -0.5204    6.0772   -2.9322 H   0  0  0  0  0  0  0  0  0  0  0  0
    0.7255    5.8924   -1.6515 H   0  0  0  0  0  0  0  0  0  0  0  0
    1.1337    6.7292   -3.1877 H   0  0  0  0  0  0  0  0  0  0  0  0
 18 19  1  0  0  0  0
 19 31  1  0  0  0  0
 19 20  2  0  0  0  0
  8  9  1  0  0  0  0
  9 17  1  0  0  0  0
  9 10  2  0  0  0  0
  1  3  1  0  0  0  0
  1  7  1  0  0  0  0
  1  2  2  0  0  0  0
 32 33  1  0  0  0  0
 33 41  1  0  0  0  0
 33 34  2  0  0  0  0
 21 22  1  0  0  0  0
 22 23  1  0  0  0  0
 18 21  1  0  0  0  0
 17 23  1  0  0  0  0
 17 18  1  0  0  0  0
  8 11  1  0  0  0  0
 32 35  1  0  0  0  0
 41 42  1  0  0  0  0
  7  8  1  0  0  0  0
 31 32  1  0  0  0  0
 22 27  1  0  0  0  0
 22 28  1  0  0  0  0
 21 25  1  0  0  0  0
 21 26  1  0  0  0  0
 23 29  1  0  0  0  0
 23 30  1  0  0  0  0
 18 24  1  0  0  0  0
  3  4  1  0  0  0  0
  3  5  1  0  0  0  0
  3  6  1  0  0  0  0
 11 14  1  0  0  0  0
 11 15  1  0  0  0  0
 11 16  1  0  0  0  0
 35 38  1  0  0  0  0
 35 39  1  0  0  0  0
 35 40  1  0  0  0  0
 42 44  1  0  0  0  0
 42 45  1  0  0  0  0
 42 46  1  0  0  0  0
  8 13  1  0  0  0  0
 32 37  1  0  0  0  0
 31 36  1  0  0  0  0
 41 43  1  0  0  0  0
  7 12  1  0  0  0  0
M  END
$$$$

  -OEChem-05262214473D

 46 46  0     1  0  0  0  0  0999 V2000
   -0.6012   -3.2995    3.8205 C   0  0  0  0  0  0  0  0  0  0  0  0
   -0.6574   -4.4683    3.4568 O   0  0  0  0  0  0  0  0  0  0  0  0
   -0.4935   -2.9859    5.2760 C   0  0  0  0  0  0  0  0  0  0  0  0
   -1.4789   -2.8689    5.7550 H   0  0  0  0  0  0  0  0  0  0  0  0
    0.0123   -3.7847    5.8419 H   0  0  0  0  0  0  0  0  0  0  0  0
    0.0585   -2.0642    5.5199 H   0  0  0  0  0  0  0  0  0  0  0  0
   -0.6261   -2.1849    2.9917 N   0  0  0  0  0  0  0  0  0  0  0  0
   -0.7237   -2.2601    1.5650 C   0  0  2  0  0  0  0  0  0  0  0  0
    0.1695   -1.1513    1.0687 C   0  0  0  0  0  0  0  0  0  0  0  0
    0.3193   -0.1267    1.7365 O   0  0  0  0  0  0  0  0  0  0  0  0
   -2.1397   -2.0663    1.0750 C   0  0  0  0  0  0  0  0  0  0  0  0
   -0.5717   -1.2606    3.4238 H   0  0  0  0  0  0  0  0  0  0  0  0
   -0.3076   -3.2111    1.2363 H   0  0  0  0  0  0  0  0  0  0  0  0
   -2.5584   -1.1089    1.4061 H   0  0  0  0  0  0  0  0  0  0  0  0
   -2.1682   -2.0790   -0.0197 H   0  0  0  0  0  0  0  0  0  0  0  0
   -2.7965   -2.8601    1.4459 H   0  0  0  0  0  0  0  0  0  0  0  0
    0.7724   -1.3745   -0.1593 N   0  0  0  0  0  0  0  0  0  0  0  0
    1.6644   -0.4046   -0.7812 C   0  0  2  0  0  0  0  0  0  0  0  0
    0.8166    0.4953   -1.6290 C   0  0  0  0  0  0  0  0  0  0  0  0
   -0.3451    0.7125   -1.3051 O   0  0  0  0  0  0  0  0  0  0  0  0
    2.6195   -1.2417   -1.6241 C   0  0  0  0  0  0  0  0  0  0  0  0
    2.1758   -2.2356   -0.5535 C   0  0  0  0  0  0  0  0  0  0  0  0
    0.7499   -2.6270   -0.9105 C   0  0  0  0  0  0  0  0  0  0  0  0
    2.1745    0.2007   -0.0258 H   0  0  0  0  0  0  0  0  0  0  0  0
    3.6296   -0.8175   -1.5784 H   0  0  0  0  0  0  0  0  0  0  0  0
    2.3218   -1.3211   -2.6742 H   0  0  0  0  0  0  0  0  0  0  0  0
    2.8084   -3.1304   -0.5781 H   0  0  0  0  0  0  0  0  0  0  0  0
    2.2249   -1.8085    0.4522 H   0  0  0  0  0  0  0  0  0  0  0  0
    0.5944   -2.7143   -1.9893 H   0  0  0  0  0  0  0  0  0  0  0  0
    0.4645   -3.5695   -0.4308 H   0  0  0  0  0  0  0  0  0  0  0  0
    1.7625    0.9317   -2.7932 N   0  0  0  0  0  0  0  0  0  0  0  0
    1.3388    1.9070   -3.7721 C   0  0  2  0  0  0  0  0  0  0  0  0
    1.1878    3.2477   -3.0654 C   0  0  0  0  0  0  0  0  0  0  0  0
    1.0081    3.3507   -1.8538 O   0  0  0  0  0  0  0  0  0  0  0  0
    0.0352    1.4933   -4.4371 C   0  0  0  0  0  0  0  0  0  0  0  0
    2.6354    0.4370   -2.9502 H   0  0  0  0  0  0  0  0  0  0  0  0
    2.1384    1.9746   -4.5178 H   0  0  0  0  0  0  0  0  0  0  0  0
   -0.7778    1.4203   -3.7056 H   0  0  0  0  0  0  0  0  0  0  0  0
   -0.2695    2.2189   -5.1985 H   0  0  0  0  0  0  0  0  0  0  0  0
    0.1371    0.5152   -4.9195 H   0  0  0  0  0  0  0  0  0  0  0  0
    1.2344    4.3136   -3.9530 N   0  0  0  0  0  0  0  0  0  0  0  0
    1.1019    5.6878   -3.5286 C   0  0  0  0  0  0  0  0  0  0  0  0
    1.4060    4.1363   -4.9383 H   0  0  0  0  0  0  0  0  0  0  0  0
    0.0463    5.9910   -3.5904 H   0  0  0  0  0  0  0  0  0  0  0  0
    1.4514    5.7861   -2.4902 H   0  0  0  0  0  0  0  0  0  0  0  0
    1.7075    6.3332   -4.1819 H   0  0  0  0  0  0  0  0  0  0  0  0
 18 19  1  0  0  0  0
 19 31  1  0  0  0  0
 19 20  2  0  0  0  0
  8  9  1  0  0  0  0
  9 17  1  0  0  0  0
  9 10  2  0  0  0  0
  1  3  1  0  0  0  0
  1  7  1  0  0  0  0
  1  2  2  0  0  0  0
 32 33  1  0  0  0  0
 33 41  1  0  0  0  0
 33 34  2  0  0  0  0
 21 22  1  0  0  0  0
 22 23  1  0  0  0  0
 18 21  1  0  0  0  0
 17 23  1  0  0  0  0
 17 18  1  0  0  0  0
  8 11  1  0  0  0  0
 32 35  1  0  0  0  0
 41 42  1  0  0  0  0
  7  8  1  0  0  0  0
 31 32  1  0  0  0  0
 22 27  1  0  0  0  0
 22 28  1  0  0  0  0
 21 25  1  0  0  0  0
 21 26  1  0  0  0  0
 23 29  1  0  0  0  0
 23 30  1  0  0  0  0
 18 24  1  0  0  0  0
  3  4  1  0  0  0  0
  3  5  1  0  0  0  0
  3  6  1  0  0  0  0
 11 14  1  0  0  0  0
 11 15  1  0  0  0  0
 11 16  1  0  0  0  0
 35 38  1  0  0  0  0
 35 39  1  0  0  0  0
 35 40  1  0  0  0  0
 42 44  1  0  0  0  0
 42 45  1  0  0  0  0
 42 46  1  0  0  0  0
  8 13  1  0  0  0  0
 32 37  1  0  0  0  0
 31 36  1  0  0  0  0
 41 43  1  0  0  0  0
  7 12  1  0  0  0  0
M  END
$$$$

  -OEChem-05262214473D

 46 46  0     1  0  0  0  0  0999 V2000
   -0.6012   -3.2995    3.8205 C   0  0  0  0  0  0  0  0  0  0  0  0
   -0.6574   -4.4683    3.4568 O   0  0  0  0  0  0  0  0  0  0  0  0
   -0.4935   -2.9859    5.2760 C   0  0  0  0  0  0  0  0  0  0  0  0
   -1.4789   -2.8689    5.7550 H   0  0  0  0  0  0  0  0  0  0  0  0
    0.0123   -3.7847    5.8419 H   0  0  0  0  0  0  0  0  0  0  0  0
    0.0585   -2.0642    5.5199 H   0  0  0  0  0  0  0  0  0  0  0  0
   -0.6261   -2.1849    2.9917 N   0  0  0  0  0  0  0  0  0  0  0  0
   -0.7237   -2.2601    1.5650 C   0  0  2  0  0  0  0  0  0  0  0  0
    0.1695   -1.1513    1.0687 C   0  0  0  0  0  0  0  0  0  0  0  0
    0.3193   -0.1267    1.7365 O   0  0  0  0  0  0  0  0  0  0  0  0
   -2.1397   -2.0663    1.0750 C   0  0  0  0  0  0  0  0  0  0  0  0
   -0.5717   -1.2606    3.4238 H   0  0  0  0  0  0  0  0  0  0  0  0
   -0.3076   -3.2111    1.2363 H   0  0  0  0  0  0  0  0  0  0  0  0
   -2.5584   -1.1089    1.4061 H   0  0  0  0  0  0  0  0  0  0  0  0
   -2.1682   -2.0790   -0.0197 H   0  0  0  0  0  0  0  0  0  0  0  0
   -2.7965   -2.8601    1.4459 H   0  0  0  0  0  0  0  0  0  0  0  0
    0.7724   -1.3745   -0.1593 N   0  0  0  0  0  0  0  0  0  0  0  0
    1.6644   -0.4046   -0.7812 C   0  0  2  0  0  0  0  0  0  0  0  0
    0.8166    0.4953   -1.6290 C   0  0  0  0  0  0  0  0  0  0  0  0
   -0.2351    0.9349   -1.1791 O   0  0  0  0  0  0  0  0  0  0  0  0
    2.6195   -1.2417   -1.6241 C   0  0  0  0  0  0  0  0  0  0  0  0
    2.1758   -2.2356   -0.5535 C   0  0  0  0  0  0  0  0  0  0  0  0
    0.7499   -2.6270   -0.9105 C   0  0  0  0  0  0  0  0  0  0  0  0
    2.1745    0.2007   -0.0258 H   0  0  0  0  0  0  0  0  0  0  0  0
    3.6296   -0.8175   -1.5784 H   0  0  0  0  0  0  0  0  0  0  0  0
    2.3218   -1.3211   -2.6742 H   0  0  0  0  0  0  0  0  0  0  0  0
    2.8084   -3.1304   -0.5781 H   0  0  0  0  0  0  0  0  0  0  0  0
    2.2249   -1.8085    0.4522 H   0  0  0  0  0  0  0  0  0  0  0  0
    0.5944   -2.7143   -1.9893 H   0  0  0  0  0  0  0  0  0  0  0  0
    0.4645   -3.5695   -0.4308 H   0  0  0  0  0  0  0  0  0  0  0  0
    1.6058    0.6159   -2.9718 N   0  0  0  0  0  0  0  0  0  0  0  0
    1.1607    1.5049   -4.0209 C   0  0  2  0  0  0  0  0  0  0  0  0
    1.3114    2.9354   -3.5205 C   0  0  0  0  0  0  0  0  0  0  0  0
    1.3511    3.2280   -2.3272 O   0  0  0  0  0  0  0  0  0  0  0  0
   -0.2791    1.2164   -4.4168 C   0  0  0  0  0  0  0  0  0  0  0  0
    2.3657   -0.0271   -3.1731 H   0  0  0  0  0  0  0  0  0  0  0  0
    1.8269    1.3442   -4.8755 H   0  0  0  0  0  0  0  0  0  0  0  0
   -0.9614    1.3720   -3.5732 H   0  0  0  0  0  0  0  0  0  0  0  0
   -0.6055    1.8717   -5.2311 H   0  0  0  0  0  0  0  0  0  0  0  0
   -0.3916    0.1785   -4.7482 H   0  0  0  0  0  0  0  0  0  0  0  0
    1.3530    3.8512   -4.5625 N   0  0  0  0  0  0  0  0  0  0  0  0
    1.4794    5.2735   -4.3459 C   0  0  0  0  0  0  0  0  0  0  0  0
    1.3329    3.5178   -5.5218 H   0  0  0  0  0  0  0  0  0  0  0  0
    0.4789    5.7285   -4.3016 H   0  0  0  0  0  0  0  0  0  0  0  0
    2.0066    5.4544   -3.3976 H   0  0  0  0  0  0  0  0  0  0  0  0
    2.0493    5.7211   -5.1735 H   0  0  0  0  0  0  0  0  0  0  0  0
 18 19  1  0  0  0  0
 19 31  1  0  0  0  0
 19 20  2  0  0  0  0
  8  9  1  0  0  0  0
  9 17  1  0  0  0  0
  9 10  2  0  0  0  0
  1  3  1  0  0  0  0
  1  7  1  0  0  0  0
  1  2  2  0  0  0  0
 32 33  1  0  0  0  0
 33 41  1  0  0  0  0
 33 34  2  0  0  0  0
 21 22  1  0  0  0  0
 22 23  1  0  0  0  0
 18 21  1  0  0  0  0
 17 23  1  0  0  0  0
 17 18  1  0  0  0  0
  8 11  1  0  0  0  0
 32 35  1  0  0  0  0
 41 42  1  0  0  0  0
  7  8  1  0  0  0  0
 31 32  1  0  0  0  0
 22 27  1  0  0  0  0
 22 28  1  0  0  0  0
 21 25  1  0  0  0  0
 21 26  1  0  0  0  0
 23 29  1  0  0  0  0
 23 30  1  0  0  0  0
 18 24  1  0  0  0  0
  3  4  1  0  0  0  0
  3  5  1  0  0  0  0
  3  6  1  0  0  0  0
 11 14  1  0  0  0  0
 11 15  1  0  0  0  0
 11 16  1  0  0  0  0
 35 38  1  0  0  0  0
 35 39  1  0  0  0  0
 35 40  1  0  0  0  0
 42 44  1  0  0  0  0
 42 45  1  0  0  0  0
 42 46  1  0  0  0  0
  8 13  1  0  0  0  0
 32 37  1  0  0  0  0
 31 36  1  0  0  0  0
 41 43  1  0  0  0  0
  7 12  1  0  0  0  0
M  END
$$$$

  -OEChem-05262214473D

 46 46  0     1  0  0  0  0  0999 V2000
   -0.6012   -3.2995    3.8205 C   0  0  0  0  0  0  0  0  0  0  0  0
   -0.6574   -4.4683    3.4568 O   0  0  0  0  0  0  0  0  0  0  0  0
   -0.4935   -2.9859    5.2760 C   0  0  0  0  0  0  0  0  0  0  0  0
   -1.4789   -2.8689    5.7550 H   0  0  0  0  0  0  0  0  0  0  0  0
    0.0123   -3.7847    5.8419 H   0  0  0  0  0  0  0  0  0  0  0  0
    0.0585   -2.0642    5.5199 H   0  0  0  0  0  0  0  0  0  0  0  0
   -0.6261   -2.1849    2.9917 N   0  0  0  0  0  0  0  0  0  0  0  0
   -0.7237   -2.2601    1.5650 C   0  0  2  0  0  0  0  0  0  0  0  0
    0.1695   -1.1513    1.0687 C   0  0  0  0  0  0  0  0  0  0  0  0
    0.3193   -0.1267    1.7365 O   0  0  0  0  0  0  0  0  0  0  0  0
   -2.1397   -2.0663    1.0750 C   0  0  0  0  0  0  0  0  0  0  0  0
   -0.5717   -1.2606    3.4238 H   0  0  0  0  0  0  0  0  0  0  0  0
   -0.3076   -3.2111    1.2363 H   0  0  0  0  0  0  0  0  0  0  0  0
   -2.5584   -1.1089    1.4061 H   0  0  0  0  0  0  0  0  0  0  0  0
   -2.1682   -2.0790   -0.0197 H   0  0  0  0  0  0  0  0  0  0  0  0
   -2.7965   -2.8601    1.4459 H   0  0  0  0  0  0  0  0  0  0  0  0
    0.7724   -1.3745   -0.1593 N   0  0  0  0  0  0  0  0  0  0  0  0
    1.6644   -0.4046   -0.7812 C   0  0  2  0  0  0  0  0  0  0  0  0
    0.8166    0.4953   -1.6290 C   0  0  0  0  0  0  0  0  0  0  0  0
   -0.0767    1.1520   -1.1070 O   0  0  0  0  0  0  0  0  0  0  0  0
    2.6195   -1.2417   -1.6241 C   0  0  0  0  0  0  0  0  0  0  0  0
    2.1758   -2.2356   -0.5535 C   0  0  0  0  0  0  0  0  0  0  0  0
    0.7499   -2.6270   -0.9105 C   0  0  0  0  0  0  0  0  0  0  0  0
    2.1745    0.2007   -0.0258 H   0  0  0  0  0  0  0  0  0  0  0  0
    3.6296   -0.8175   -1.5784 H   0  0  0  0  0  0  0  0  0  0  0  0
    2.3218   -1.3211   -2.6742 H   0  0  0  0  0  0  0  0  0  0  0  0
    2.8084   -3.1304   -0.5781 H   0  0  0  0  0  0  0  0  0  0  0  0
    2.2249   -1.8085    0.4522 H   0  0  0  0  0  0  0  0  0  0  0  0
    0.5944   -2.7143   -1.9893 H   0  0  0  0  0  0  0  0  0  0  0  0
    0.4645   -3.5695   -0.4308 H   0  0  0  0  0  0  0  0  0  0  0  0
    1.3805    0.3076   -3.0738 N   0  0  0  0  0  0  0  0  0  0  0  0
    0.8911    1.1061   -4.1746 C   0  0  2  0  0  0  0  0  0  0  0  0
    1.3144    2.5491   -3.9335 C   0  0  0  0  0  0  0  0  0  0  0  0
    1.5910    2.9899   -2.8198 O   0  0  0  0  0  0  0  0  0  0  0  0
   -0.6200    0.9980   -4.3078 C   0  0  0  0  0  0  0  0  0  0  0  0
    2.0026   -0.4685   -3.2786 H   0  0  0  0  0  0  0  0  0  0  0  0
    1.3781    0.7285   -5.0803 H   0  0  0  0  0  0  0  0  0  0  0  0
   -1.1253    1.3717   -3.4097 H   0  0  0  0  0  0  0  0  0  0  0  0
   -0.9859    1.5807   -5.1595 H   0  0  0  0  0  0  0  0  0  0  0  0
   -0.9250   -0.0442   -4.4513 H   0  0  0  0  0  0  0  0  0  0  0  0
    1.3052    3.2979   -5.1021 N   0  0  0  0  0  0  0  0  0  0  0  0
    1.6564    4.6985   -5.1333 C   0  0  0  0  0  0  0  0  0  0  0  0
    1.0811    2.8456   -5.9835 H   0  0  0  0  0  0  0  0  0  0  0  0
    0.7478    5.3075   -5.0174 H   0  0  0  0  0  0  0  0  0  0  0  0
    2.3535    4.9200   -4.3118 H   0  0  0  0  0  0  0  0  0  0  0  0
    2.1358    4.9347   -6.0948 H   0  0  0  0  0  0  0  0  0  0  0  0
 18 19  1  0  0  0  0
 19 31  1  0  0  0  0
 19 20  2  0  0  0  0
  8  9  1  0  0  0  0
  9 17  1  0  0  0  0
  9 10  2  0  0  0  0
  1  3  1  0  0  0  0
  1  7  1  0  0  0  0
  1  2  2  0  0  0  0
 32 33  1  0  0  0  0
 33 41  1  0  0  0  0
 33 34  2  0  0  0  0
 21 22  1  0  0  0  0
 22 23  1  0  0  0  0
 18 21  1  0  0  0  0
 17 23  1  0  0  0  0
 17 18  1  0  0  0  0
  8 11  1  0  0  0  0
 32 35  1  0  0  0  0
 41 42  1  0  0  0  0
  7  8  1  0  0  0  0
 31 32  1  0  0  0  0
 22 27  1  0  0  0  0
 22 28  1  0  0  0  0
 21 25  1  0  0  0  0
 21 26  1  0  0  0  0
 23 29  1  0  0  0  0
 23 30  1  0  0  0  0
 18 24  1  0  0  0  0
  3  4  1  0  0  0  0
  3  5  1  0  0  0  0
  3  6  1  0  0  0  0
 11 14  1  0  0  0  0
 11 15  1  0  0  0  0
 11 16  1  0  0  0  0
 35 38  1  0  0  0  0
 35 39  1  0  0  0  0
 35 40  1  0  0  0  0
 42 44  1  0  0  0  0
 42 45  1  0  0  0  0
 42 46  1  0  0  0  0
  8 13  1  0  0  0  0
 32 37  1  0  0  0  0
 31 36  1  0  0  0  0
 41 43  1  0  0  0  0
  7 12  1  0  0  0  0
M  END
$$$$

  -OEChem-05262214473D

 46 46  0     1  0  0  0  0  0999 V2000
   -0.6012   -3.2995    3.8205 C   0  0  0  0  0  0  0  0  0  0  0  0
   -0.6574   -4.4683    3.4568 O   0  0  0  0  0  0  0  0  0  0  0  0
   -0.4935   -2.9859    5.2760 C   0  0  0  0  0  0  0  0  0  0  0  0
   -1.4789   -2.8689    5.7550 H   0  0  0  0  0  0  0  0  0  0  0  0
    0.0123   -3.7847    5.8419 H   0  0  0  0  0  0  0  0  0  0  0  0
    0.0585   -2.0642    5.5199 H   0  0  0  0  0  0  0  0  0  0  0  0
   -0.6261   -2.1849    2.9917 N   0  0  0  0  0  0  0  0  0  0  0  0
   -0.7237   -2.2601    1.5650 C   0  0  2  0  0  0  0  0  0  0  0  0
    0.1695   -1.1513    1.0687 C   0  0  0  0  0  0  0  0  0  0  0  0
    0.3193   -0.1267    1.7365 O   0  0  0  0  0  0  0  0  0  0  0  0
   -2.1397   -2.0663    1.0750 C   0  0  0  0  0  0  0  0  0  0  0  0
   -0.5717   -1.2606    3.4238 H   0  0  0  0  0  0  0  0  0  0  0  0
   -0.3076   -3.2111    1.2363 H   0  0  0  0  0  0  0  0  0  0  0  0
   -2.5584   -1.1089    1.4061 H   0  0  0  0  0  0  0  0  0  0  0  0
   -2.1682   -2.0790   -0.0197 H   0  0  0  0  0  0  0  0  0  0  0  0
   -2.7965   -2.8601    1.4459 H   0  0  0  0  0  0  0  0  0  0  0  0
    0.7724   -1.3745   -0.1593 N   0  0  0  0  0  0  0  0  0  0  0  0
    1.6644   -0.4046   -0.7812 C   0  0  2  0  0  0  0  0  0  0  0  0
    0.8166    0.4953   -1.6290 C   0  0  0  0  0  0  0  0  0  0  0  0
    0.1194    1.3492   -1.0938 O   0  0  0  0  0  0  0  0  0  0  0  0
    2.6195   -1.2417   -1.6241 C   0  0  0  0  0  0  0  0  0  0  0  0
    2.1758   -2.2356   -0.5535 C   0  0  0  0  0  0  0  0  0  0  0  0
    0.7499   -2.6270   -0.9105 C   0  0  0  0  0  0  0  0  0  0  0  0
    2.1745    0.2007   -0.0258 H   0  0  0  0  0  0  0  0  0  0  0  0
    3.6296   -0.8175   -1.5784 H   0  0  0  0  0  0  0  0  0  0  0  0
    2.3218   -1.3211   -2.6742 H   0  0  0  0  0  0  0  0  0  0  0  0
    2.8084   -3.1304   -0.5781 H   0  0  0  0  0  0  0  0  0  0  0  0
    2.2249   -1.8085    0.4522 H   0  0  0  0  0  0  0  0  0  0  0  0
    0.5944   -2.7143   -1.9893 H   0  0  0  0  0  0  0  0  0  0  0  0
    0.4645   -3.5695   -0.4308 H   0  0  0  0  0  0  0  0  0  0  0  0
    1.1019    0.0279   -3.0921 N   0  0  0  0  0  0  0  0  0  0  0  0
    0.5484    0.7379   -4.2228 C   0  0  2  0  0  0  0  0  0  0  0  0
    1.1965    2.1151   -4.2764 C   0  0  0  0  0  0  0  0  0  0  0  0
    1.7113    2.6527   -3.2981 O   0  0  0  0  0  0  0  0  0  0  0  0
   -0.9643    0.8528   -4.1175 C   0  0  0  0  0  0  0  0  0  0  0  0
    1.5710   -0.8572   -3.2595 H   0  0  0  0  0  0  0  0  0  0  0  0
    0.8227    0.1695   -5.1182 H   0  0  0  0  0  0  0  0  0  0  0  0
   -1.2582    1.4192   -3.2263 H   0  0  0  0  0  0  0  0  0  0  0  0
   -1.3849    1.3658   -4.9887 H   0  0  0  0  0  0  0  0  0  0  0  0
   -1.4266   -0.1379   -4.0491 H   0  0  0  0  0  0  0  0  0  0  0  0
    1.0942    2.6914   -5.5348 N   0  0  0  0  0  0  0  0  0  0  0  0
    1.6208    4.0018   -5.8373 C   0  0  0  0  0  0  0  0  0  0  0  0
    0.6678    2.1656   -6.2920 H   0  0  0  0  0  0  0  0  0  0  0  0
    0.8347    4.7568   -5.6890 H   0  0  0  0  0  0  0  0  0  0  0  0
    2.4682    4.2192   -5.1704 H   0  0  0  0  0  0  0  0  0  0  0  0
    1.9612    4.0276   -6.8830 H   0  0  0  0  0  0  0  0  0  0  0  0
 18 19  1  0  0  0  0
 19 31  1  0  0  0  0
 19 20  2  0  0  0  0
  8  9  1  0  0  0  0
  9 17  1  0  0  0  0
  9 10  2  0  0  0  0
  1  3  1  0  0  0  0
  1  7  1  0  0  0  0
  1  2  2  0  0  0  0
 32 33  1  0  0  0  0
 33 41  1  0  0  0  0
 33 34  2  0  0  0  0
 21 22  1  0  0  0  0
 22 23  1  0  0  0  0
 18 21  1  0  0  0  0
 17 23  1  0  0  0  0
 17 18  1  0  0  0  0
  8 11  1  0  0  0  0
 32 35  1  0  0  0  0
 41 42  1  0  0  0  0
  7  8  1  0  0  0  0
 31 32  1  0  0  0  0
 22 27  1  0  0  0  0
 22 28  1  0  0  0  0
 21 25  1  0  0  0  0
 21 26  1  0  0  0  0
 23 29  1  0  0  0  0
 23 30  1  0  0  0  0
 18 24  1  0  0  0  0
  3  4  1  0  0  0  0
  3  5  1  0  0  0  0
  3  6  1  0  0  0  0
 11 14  1  0  0  0  0
 11 15  1  0  0  0  0
 11 16  1  0  0  0  0
 35 38  1  0  0  0  0
 35 39  1  0  0  0  0
 35 40  1  0  0  0  0
 42 44  1  0  0  0  0
 42 45  1  0  0  0  0
 42 46  1  0  0  0  0
  8 13  1  0  0  0  0
 32 37  1  0  0  0  0
 31 36  1  0  0  0  0
 41 43  1  0  0  0  0
  7 12  1  0  0  0  0
M  END
$$$$

  -OEChem-05262214473D

 46 46  0     1  0  0  0  0  0999 V2000
   -0.6012   -3.2995    3.8205 C   0  0  0  0  0  0  0  0  0  0  0  0
   -0.6574   -4.4683    3.4568 O   0  0  0  0  0  0  0  0  0  0  0  0
   -0.4935   -2.9859    5.2760 C   0  0  0  0  0  0  0  0  0  0  0  0
   -1.4789   -2.8689    5.7550 H   0  0  0  0  0  0  0  0  0  0  0  0
    0.0123   -3.7847    5.8419 H   0  0  0  0  0  0  0  0  0  0  0  0
    0.0585   -2.0642    5.5199 H   0  0  0  0  0  0  0  0  0  0  0  0
   -0.6261   -2.1849    2.9917 N   0  0  0  0  0  0  0  0  0  0  0  0
   -0.7237   -2.2601    1.5650 C   0  0  2  0  0  0  0  0  0  0  0  0
    0.1695   -1.1513    1.0687 C   0  0  0  0  0  0  0  0  0  0  0  0
    0.3193   -0.1267    1.7365 O   0  0  0  0  0  0  0  0  0  0  0  0
   -2.1397   -2.0663    1.0750 C   0  0  0  0  0  0  0  0  0  0  0  0
   -0.5717   -1.2606    3.4238 H   0  0  0  0  0  0  0  0  0  0  0  0
   -0.3076   -3.2111    1.2363 H   0  0  0  0  0  0  0  0  0  0  0  0
   -2.5584   -1.1089    1.4061 H   0  0  0  0  0  0  0  0  0  0  0  0
   -2.1682   -2.0790   -0.0197 H   0  0  0  0  0  0  0  0  0  0  0  0
   -2.7965   -2.8601    1.4459 H   0  0  0  0  0  0  0  0  0  0  0  0
    0.7724   -1.3745   -0.1593 N   0  0  0  0  0  0  0  0  0  0  0  0
    1.6644   -0.4046   -0.7812 C   0  0  2  0  0  0  0  0  0  0  0  0
    0.8166    0.4953   -1.6290 C   0  0  0  0  0  0  0  0  0  0  0  0
    0.3396    1.5128   -1.1403 O   0  0  0  0  0  0  0  0  0  0  0  0
    2.6195   -1.2417   -1.6241 C   0  0  0  0  0  0  0  0  0  0  0  0
    2.1758   -2.2356   -0.5535 C   0  0  0  0  0  0  0  0  0  0  0  0
    0.7499   -2.6270   -0.9105 C   0  0  0  0  0  0  0  0  0  0  0  0
    2.1745    0.2007   -0.0258 H   0  0  0  0  0  0  0  0  0  0  0  0
    3.6296   -0.8175   -1.5784 H   0  0  0  0  0  0  0  0  0  0  0  0
    2.3218   -1.3211   -2.6742 H   0  0  0  0  0  0  0  0  0  0  0  0
    2.8084   -3.1304   -0.5781 H   0  0  0  0  0  0  0  0  0  0  0  0
    2.2249   -1.8085    0.4522 H   0  0  0  0  0  0  0  0  0  0  0  0
    0.5944   -2.7143   -1.9893 H   0  0  0  0  0  0  0  0  0  0  0  0
    0.4645   -3.5695   -0.4308 H   0  0  0  0  0  0  0  0  0  0  0  0
    0.7890   -0.2042   -3.0256 N   0  0  0  0  0  0  0  0  0  0  0  0
    0.1561    0.4253   -4.1623 C   0  0  2  0  0  0  0  0  0  0  0  0
    0.9659    1.6629   -4.5258 C   0  0  0  0  0  0  0  0  0  0  0  0
    1.7039    2.2393   -3.7294 O   0  0  0  0  0  0  0  0  0  0  0  0
   -1.2886    0.7908   -3.8590 C   0  0  0  0  0  0  0  0  0  0  0  0
    1.1000   -1.1667   -3.1171 H   0  0  0  0  0  0  0  0  0  0  0  0
    0.1984   -0.2947   -4.9868 H   0  0  0  0  0  0  0  0  0  0  0  0
   -1.3512    1.5114   -3.0354 H   0  0  0  0  0  0  0  0  0  0  0  0
   -1.7751    1.2416   -4.7303 H   0  0  0  0  0  0  0  0  0  0  0  0
   -1.8623   -0.0960   -3.5689 H   0  0  0  0  0  0  0  0  0  0  0  0
    0.7344    2.0732   -5.8312 N   0  0  0  0  0  0  0  0  0  0  0  0
    1.3752    3.2311   -6.4098 C   0  0  0  0  0  0  0  0  0  0  0  0
    0.1210    1.5242   -6.4263 H   0  0  0  0  0  0  0  0  0  0  0  0
    0.7336    4.1137   -6.2705 H   0  0  0  0  0  0  0  0  0  0  0  0
    2.3431    3.3998   -5.9151 H   0  0  0  0  0  0  0  0  0  0  0  0
    1.5372    3.0616   -7.4845 H   0  0  0  0  0  0  0  0  0  0  0  0
 18 19  1  0  0  0  0
 19 31  1  0  0  0  0
 19 20  2  0  0  0  0
  8  9  1  0  0  0  0
  9 17  1  0  0  0  0
  9 10  2  0  0  0  0
  1  3  1  0  0  0  0
  1  7  1  0  0  0  0
  1  2  2  0  0  0  0
 32 33  1  0  0  0  0
 33 41  1  0  0  0  0
 33 34  2  0  0  0  0
 21 22  1  0  0  0  0
 22 23  1  0  0  0  0
 18 21  1  0  0  0  0
 17 23  1  0  0  0  0
 17 18  1  0  0  0  0
  8 11  1  0  0  0  0
 32 35  1  0  0  0  0
 41 42  1  0  0  0  0
  7  8  1  0  0  0  0
 31 32  1  0  0  0  0
 22 27  1  0  0  0  0
 22 28  1  0  0  0  0
 21 25  1  0  0  0  0
 21 26  1  0  0  0  0
 23 29  1  0  0  0  0
 23 30  1  0  0  0  0
 18 24  1  0  0  0  0
  3  4  1  0  0  0  0
  3  5  1  0  0  0  0
  3  6  1  0  0  0  0
 11 14  1  0  0  0  0
 11 15  1  0  0  0  0
 11 16  1  0  0  0  0
 35 38  1  0  0  0  0
 35 39  1  0  0  0  0
 35 40  1  0  0  0  0
 42 44  1  0  0  0  0
 42 45  1  0  0  0  0
 42 46  1  0  0  0  0
  8 13  1  0  0  0  0
 32 37  1  0  0  0  0
 31 36  1  0  0  0  0
 41 43  1  0  0  0  0
  7 12  1  0  0  0  0
M  END
$$$$

  -OEChem-05262214473D

 46 46  0     1  0  0  0  0  0999 V2000
   -0.6012   -3.2995    3.8205 C   0  0  0  0  0  0  0  0  0  0  0  0
   -0.6574   -4.4683    3.4568 O   0  0  0  0  0  0  0  0  0  0  0  0
   -0.4935   -2.9859    5.2760 C   0  0  0  0  0  0  0  0  0  0  0  0
   -1.4789   -2.8689    5.7550 H   0  0  0  0  0  0  0  0  0  0  0  0
    0.0123   -3.7847    5.8419 H   0  0  0  0  0  0  0  0  0  0  0  0
    0.0585   -2.0642    5.5199 H   0  0  0  0  0  0  0  0  0  0  0  0
   -0.6261   -2.1849    2.9917 N   0  0  0  0  0  0  0  0  0  0  0  0
   -0.7237   -2.2601    1.5650 C   0  0  2  0  0  0  0  0  0  0  0  0
    0.1695   -1.1513    1.0687 C   0  0  0  0  0  0  0  0  0  0  0  0
    0.3193   -0.1267    1.7365 O   0  0  0  0  0  0  0  0  0  0  0  0
   -2.1397   -2.0663    1.0750 C   0  0  0  0  0  0  0  0  0  0  0  0
   -0.5717   -1.2606    3.4238 H   0  0  0  0  0  0  0  0  0  0  0  0
   -0.3076   -3.2111    1.2363 H   0  0  0  0  0  0  0  0  0  0  0  0
   -2.5584   -1.1089    1.4061 H   0  0  0  0  0  0  0  0  0  0  0  0
   -2.1682   -2.0790   -0.0197 H   0  0  0  0  0  0  0  0  0  0  0  0
   -2.7965   -2.8601    1.4459 H   0  0  0  0  0  0  0  0  0  0  0  0
    0.7724   -1.3745   -0.1593 N   0  0  0  0  0  0  0  0  0  0  0  0
    1.6644   -0.4046   -0.7812 C   0  0  2  0  0  0  0  0  0  0  0  0
    0.8166    0.4953   -1.6290 C   0  0  0  0  0  0  0  0  0  0  0  0
    0.5691    1.6318   -1.2434 O   0  0  0  0  0  0  0  0  0  0  0  0
    2.6195   -1.2417   -1.6241 C   0  0  0  0  0  0  0  0  0  0  0  0
    2.1758   -2.2356   -0.5535 C   0  0  0  0  0  0  0  0  0  0  0  0
    0.7499   -2.6270   -0.9105 C   0  0  0  0  0  0  0  0  0  0  0  0
    2.1745    0.2007   -0.0258 H   0  0  0  0  0  0  0  0  0  0  0  0
    3.6296   -0.8175   -1.5784 H   0  0  0  0  0  0  0  0  0  0  0  0
    2.3218   -1.3211   -2.6742 H   0  0  0  0  0  0  0  0  0  0  0  0
    2.8084   -3.1304   -0.5781 H   0  0  0  0  0  0  0  0  0  0  0  0
    2.2249   -1.8085    0.4522 H   0  0  0  0  0  0  0  0  0  0  0  0
    0.5944   -2.7143   -1.9893 H   0  0  0  0  0  0  0  0  0  0  0  0
    0.4645   -3.5695   -0.4308 H   0  0  0  0  0  0  0  0  0  0  0  0
    0.4631   -0.3729   -2.8788 N   0  0  0  0  0  0  0  0  0  0  0  0
   -0.2593    0.1897   -3.9971 C   0  0  2  0  0  0  0  0  0  0  0  0
    0.6382    1.2234   -4.6646 C   0  0  0  0  0  0  0  0  0  0  0  0
    1.5692    1.7781   -4.0844 O   0  0  0  0  0  0  0  0  0  0  0  0
   -1.5708    0.8163   -3.5499 C   0  0  0  0  0  0  0  0  0  0  0  0
    0.6220   -1.3758   -2.8611 H   0  0  0  0  0  0  0  0  0  0  0  0
   -0.4520   -0.6325   -4.6949 H   0  0  0  0  0  0  0  0  0  0  0  0
   -1.3978    1.6421   -2.8501 H   0  0  0  0  0  0  0  0  0  0  0  0
   -2.1301    1.2166   -4.4018 H   0  0  0  0  0  0  0  0  0  0  0  0
   -2.2025    0.0785   -3.0435 H   0  0  0  0  0  0  0  0  0  0  0  0
    0.2503    1.4854   -5.9711 N   0  0  0  0  0  0  0  0  0  0  0  0
    0.9361    2.4388   -6.8117 C   0  0  0  0  0  0  0  0  0  0  0  0
   -0.5218    0.9649   -6.3771 H   0  0  0  0  0  0  0  0  0  0  0  0
    0.4516    3.4223   -6.7224 H   0  0  0  0  0  0  0  0  0  0  0  0
    1.9866    2.5176   -6.4950 H   0  0  0  0  0  0  0  0  0  0  0  0
    0.8929    2.1026   -7.8582 H   0  0  0  0  0  0  0  0  0  0  0  0
 18 19  1  0  0  0  0
 19 31  1  0  0  0  0
 19 20  2  0  0  0  0
  8  9  1  0  0  0  0
  9 17  1  0  0  0  0
  9 10  2  0  0  0  0
  1  3  1  0  0  0  0
  1  7  1  0  0  0  0
  1  2  2  0  0  0  0
 32 33  1  0  0  0  0
 33 41  1  0  0  0  0
 33 34  2  0  0  0  0
 21 22  1  0  0  0  0
 22 23  1  0  0  0  0
 18 21  1  0  0  0  0
 17 23  1  0  0  0  0
 17 18  1  0  0  0  0
  8 11  1  0  0  0  0
 32 35  1  0  0  0  0
 41 42  1  0  0  0  0
  7  8  1  0  0  0  0
 31 32  1  0  0  0  0
 22 27  1  0  0  0  0
 22 28  1  0  0  0  0
 21 25  1  0  0  0  0
 21 26  1  0  0  0  0
 23 29  1  0  0  0  0
 23 30  1  0  0  0  0
 18 24  1  0  0  0  0
  3  4  1  0  0  0  0
  3  5  1  0  0  0  0
  3  6  1  0  0  0  0
 11 14  1  0  0  0  0
 11 15  1  0  0  0  0
 11 16  1  0  0  0  0
 35 38  1  0  0  0  0
 35 39  1  0  0  0  0
 35 40  1  0  0  0  0
 42 44  1  0  0  0  0
 42 45  1  0  0  0  0
 42 46  1  0  0  0  0
  8 13  1  0  0  0  0
 32 37  1  0  0  0  0
 31 36  1  0  0  0  0
 41 43  1  0  0  0  0
  7 12  1  0  0  0  0
M  END
$$$$

  -OEChem-05262214473D

 46 46  0     1  0  0  0  0  0999 V2000
   -0.6012   -3.2995    3.8205 C   0  0  0  0  0  0  0  0  0  0  0  0
   -0.6574   -4.4683    3.4568 O   0  0  0  0  0  0  0  0  0  0  0  0
   -0.4935   -2.9859    5.2760 C   0  0  0  0  0  0  0  0  0  0  0  0
   -1.4789   -2.8689    5.7550 H   0  0  0  0  0  0  0  0  0  0  0  0
    0.0123   -3.7847    5.8419 H   0  0  0  0  0  0  0  0  0  0  0  0
    0.0585   -2.0642    5.5199 H   0  0  0  0  0  0  0  0  0  0  0  0
   -0.6261   -2.1849    2.9917 N   0  0  0  0  0  0  0  0  0  0  0  0
   -0.7237   -2.2601    1.5650 C   0  0  2  0  0  0  0  0  0  0  0  0
    0.1695   -1.1513    1.0687 C   0  0  0  0  0  0  0  0  0  0  0  0
    0.3193   -0.1267    1.7365 O   0  0  0  0  0  0  0  0  0  0  0  0
   -2.1397   -2.0663    1.0750 C   0  0  0  0  0  0  0  0  0  0  0  0
   -0.5717   -1.2606    3.4238 H   0  0  0  0  0  0  0  0  0  0  0  0
   -0.3076   -3.2111    1.2363 H   0  0  0  0  0  0  0  0  0  0  0  0
   -2.5584   -1.1089    1.4061 H   0  0  0  0  0  0  0  0  0  0  0  0
   -2.1682   -2.0790   -0.0197 H   0  0  0  0  0  0  0  0  0  0  0  0
   -2.7965   -2.8601    1.4459 H   0  0  0  0  0  0  0  0  0  0  0  0
    0.7724   -1.3745   -0.1593 N   0  0  0  0  0  0  0  0  0  0  0  0
    1.6644   -0.4046   -0.7812 C   0  0  2  0  0  0  0  0  0  0  0  0
    0.8166    0.4953   -1.6290 C   0  0  0  0  0  0  0  0  0  0  0  0
    0.7922    1.6981   -1.3961 O   0  0  0  0  0  0  0  0  0  0  0  0
    2.6195   -1.2417   -1.6241 C   0  0  0  0  0  0  0  0  0  0  0  0
    2.1758   -2.2356   -0.5535 C   0  0  0  0  0  0  0  0  0  0  0  0
    0.7499   -2.6270   -0.9105 C   0  0  0  0  0  0  0  0  0  0  0  0
    2.1745    0.2007   -0.0258 H   0  0  0  0  0  0  0  0  0  0  0  0
    3.6296   -0.8175   -1.5784 H   0  0  0  0  0  0  0  0  0  0  0  0
    2.3218   -1.3211   -2.6742 H   0  0  0  0  0  0  0  0  0  0  0  0
    2.8084   -3.1304   -0.5781 H   0  0  0  0  0  0  0  0  0  0  0  0
    2.2249   -1.8085    0.4522 H   0  0  0  0  0  0  0  0  0  0  0  0
    0.5944   -2.7143   -1.9893 H   0  0  0  0  0  0  0  0  0  0  0  0
    0.4645   -3.5695   -0.4308 H   0  0  0  0  0  0  0  0  0  0  0  0
    0.1465   -0.4666   -2.6616 N   0  0  0  0  0  0  0  0  0  0  0  0
   -0.6693    0.0470   -3.7385 C   0  0  2  0  0  0  0  0  0  0  0  0
    0.2357    0.8265   -4.6835 C   0  0  0  0  0  0  0  0  0  0  0  0
    1.3164    1.3003   -4.3388 O   0  0  0  0  0  0  0  0  0  0  0  0
   -1.7916    0.9274   -3.2111 C   0  0  0  0  0  0  0  0  0  0  0  0
    0.1695   -1.4704   -2.5089 H   0  0  0  0  0  0  0  0  0  0  0  0
   -1.0844   -0.8208   -4.2624 H   0  0  0  0  0  0  0  0  0  0  0  0
   -1.3949    1.8022   -2.6830 H   0  0  0  0  0  0  0  0  0  0  0  0
   -2.4256    1.2925   -4.0258 H   0  0  0  0  0  0  0  0  0  0  0  0
   -2.4239    0.3737   -2.5087 H   0  0  0  0  0  0  0  0  0  0  0  0
   -0.3251    0.9679   -5.9451 N   0  0  0  0  0  0  0  0  0  0  0  0
    0.3336    1.6790   -7.0158 C   0  0  0  0  0  0  0  0  0  0  0  0
   -1.2169    0.5260   -6.1478 H   0  0  0  0  0  0  0  0  0  0  0  0
    0.0077    2.7296   -7.0139 H   0  0  0  0  0  0  0  0  0  0  0  0
    1.4230    1.6328   -6.8707 H   0  0  0  0  0  0  0  0  0  0  0  0
    0.0720    1.2158   -7.9787 H   0  0  0  0  0  0  0  0  0  0  0  0
 18 19  1  0  0  0  0
 19 31  1  0  0  0  0
 19 20  2  0  0  0  0
  8  9  1  0  0  0  0
  9 17  1  0  0  0  0
  9 10  2  0  0  0  0
  1  3  1  0  0  0  0
  1  7  1  0  0  0  0
  1  2  2  0  0  0  0
 32 33  1  0  0  0  0
 33 41  1  0  0  0  0
 33 34  2  0  0  0  0
 21 22  1  0  0  0  0
 22 23  1  0  0  0  0
 18 21  1  0  0  0  0
 17 23  1  0  0  0  0
 17 18  1  0  0  0  0
  8 11  1  0  0  0  0
 32 35  1  0  0  0  0
 41 42  1  0  0  0  0
  7  8  1  0  0  0  0
 31 32  1  0  0  0  0
 22 27  1  0  0  0  0
 22 28  1  0  0  0  0
 21 25  1  0  0  0  0
 21 26  1  0  0  0  0
 23 29  1  0  0  0  0
 23 30  1  0  0  0  0
 18 24  1  0  0  0  0
  3  4  1  0  0  0  0
  3  5  1  0  0  0  0
  3  6  1  0  0  0  0
 11 14  1  0  0  0  0
 11 15  1  0  0  0  0
 11 16  1  0  0  0  0
 35 38  1  0  0  0  0
 35 39  1  0  0  0  0
 35 40  1  0  0  0  0
 42 44  1  0  0  0  0
 42 45  1  0  0  0  0
 42 46  1  0  0  0  0
  8 13  1  0  0  0  0
 32 37  1  0  0  0  0
 31 36  1  0  0  0  0
 41 43  1  0  0  0  0
  7 12  1  0  0  0  0
M  END
$$$$

  -OEChem-05262214473D

 46 46  0     1  0  0  0  0  0999 V2000
   -0.6012   -3.2995    3.8205 C   0  0  0  0  0  0  0  0  0  0  0  0
   -0.6574   -4.4683    3.4568 O   0  0  0  0  0  0  0  0  0  0  0  0
   -0.4935   -2.9859    5.2760 C   0  0  0  0  0  0  0  0  0  0  0  0
   -1.4789   -2.8689    5.7550 H   0  0  0  0  0  0  0  0  0  0  0  0
    0.0123   -3.7847    5.8419 H   0  0  0  0  0  0  0  0  0  0  0  0
    0.0585   -2.0642    5.5199 H   0  0  0  0  0  0  0  0  0  0  0  0
   -0.6261   -2.1849    2.9917 N   0  0  0  0  0  0  0  0  0  0  0  0
   -0.7237   -2.2601    1.5650 C   0  0  2  0  0  0  0  0  0  0  0  0
    0.1695   -1.1513    1.0687 C   0  0  0  0  0  0  0  0  0  0  0  0
    0.3193   -0.1267    1.7365 O   0  0  0  0  0  0  0  0  0  0  0  0
   -2.1397   -2.0663    1.0750 C   0  0  0  0  0  0  0  0  0  0  0  0
   -0.5717   -1.2606    3.4238 H   0  0  0  0  0  0  0  0  0  0  0  0
   -0.3076   -3.2111    1.2363 H   0  0  0  0  0  0  0  0  0  0  0  0
   -2.5584   -1.1089    1.4061 H   0  0  0  0  0  0  0  0  0  0  0  0
   -2.1682   -2.0790   -0.0197 H   0  0  0  0  0  0  0  0  0  0  0  0
   -2.7965   -2.8601    1.4459 H   0  0  0  0  0  0  0  0  0  0  0  0
    0.7724   -1.3745   -0.1593 N   0  0  0  0  0  0  0  0  0  0  0  0
    1.6644   -0.4046   -0.7812 C   0  0  2  0  0  0  0  0  0  0  0  0
    0.8166    0.4953   -1.6290 C   0  0  0  0  0  0  0  0  0  0  0  0
    0.9936    1.7072   -1.5879 O   0  0  0  0  0  0  0  0  0  0  0  0
    2.6195   -1.2417   -1.6241 C   0  0  0  0  0  0  0  0  0  0  0  0
    2.1758   -2.2356   -0.5535 C   0  0  0  0  0  0  0  0  0  0  0  0
    0.7499   -2.6270   -0.9105 C   0  0  0  0  0  0  0  0  0  0  0  0
    2.1745    0.2007   -0.0258 H   0  0  0  0  0  0  0  0  0  0  0  0
    3.6296   -0.8175   -1.5784 H   0  0  0  0  0  0  0  0  0  0  0  0
    2.3218   -1.3211   -2.6742 H   0  0  0  0  0  0  0  0  0  0  0  0
    2.8084   -3.1304   -0.5781 H   0  0  0  0  0  0  0  0  0  0  0  0
    2.2249   -1.8085    0.4522 H   0  0  0  0  0  0  0  0  0  0  0  0
    0.5944   -2.7143   -1.9893 H   0  0  0  0  0  0  0  0  0  0  0  0
    0.4645   -3.5695   -0.4308 H   0  0  0  0  0  0  0  0  0  0  0  0
   -0.1393   -0.4790   -2.3890 N   0  0  0  0  0  0  0  0  0  0  0  0
   -1.0460    0.0071   -3.4042 C   0  0  2  0  0  0  0  0  0  0  0  0
   -0.2140    0.4993   -4.5811 C   0  0  0  0  0  0  0  0  0  0  0  0
    0.9628    0.8385   -4.4753 O   0  0  0  0  0  0  0  0  0  0  0  0
   -1.9359    1.1166   -2.8659 C   0  0  0  0  0  0  0  0  0  0  0  0
   -0.2268   -1.4439   -2.0846 H   0  0  0  0  0  0  0  0  0  0  0  0
   -1.6556   -0.8469   -3.7189 H   0  0  0  0  0  0  0  0  0  0  0  0
   -1.3428    1.9809   -2.5455 H   0  0  0  0  0  0  0  0  0  0  0  0
   -2.6415    1.4641   -3.6277 H   0  0  0  0  0  0  0  0  0  0  0  0
   -2.5115    0.7695   -2.0010 H   0  0  0  0  0  0  0  0  0  0  0  0
   -0.9526    0.5561   -5.7547 N   0  0  0  0  0  0  0  0  0  0  0  0
   -0.3913    1.0033   -7.0081 C   0  0  0  0  0  0  0  0  0  0  0  0
   -1.9170    0.2374   -5.7542 H   0  0  0  0  0  0  0  0  0  0  0  0
   -0.5677    2.0827   -7.1251 H   0  0  0  0  0  0  0  0  0  0  0  0
    0.6907    0.8057   -7.0165 H   0  0  0  0  0  0  0  0  0  0  0  0
   -0.8694    0.4618   -7.8377 H   0  0  0  0  0  0  0  0  0  0  0  0
 18 19  1  0  0  0  0
 19 31  1  0  0  0  0
 19 20  2  0  0  0  0
  8  9  1  0  0  0  0
  9 17  1  0  0  0  0
  9 10  2  0  0  0  0
  1  3  1  0  0  0  0
  1  7  1  0  0  0  0
  1  2  2  0  0  0  0
 32 33  1  0  0  0  0
 33 41  1  0  0  0  0
 33 34  2  0  0  0  0
 21 22  1  0  0  0  0
 22 23  1  0  0  0  0
 18 21  1  0  0  0  0
 17 23  1  0  0  0  0
 17 18  1  0  0  0  0
  8 11  1  0  0  0  0
 32 35  1  0  0  0  0
 41 42  1  0  0  0  0
  7  8  1  0  0  0  0
 31 32  1  0  0  0  0
 22 27  1  0  0  0  0
 22 28  1  0  0  0  0
 21 25  1  0  0  0  0
 21 26  1  0  0  0  0
 23 29  1  0  0  0  0
 23 30  1  0  0  0  0
 18 24  1  0  0  0  0
  3  4  1  0  0  0  0
  3  5  1  0  0  0  0
  3  6  1  0  0  0  0
 11 14  1  0  0  0  0
 11 15  1  0  0  0  0
 11 16  1  0  0  0  0
 35 38  1  0  0  0  0
 35 39  1  0  0  0  0
 35 40  1  0  0  0  0
 42 44  1  0  0  0  0
 42 45  1  0  0  0  0
 42 46  1  0  0  0  0
  8 13  1  0  0  0  0
 32 37  1  0  0  0  0
 31 36  1  0  0  0  0
 41 43  1  0  0  0  0
  7 12  1  0  0  0  0
M  END
$$$$

  -OEChem-05262214473D

 46 46  0     1  0  0  0  0  0999 V2000
   -0.6012   -3.2995    3.8205 C   0  0  0  0  0  0  0  0  0  0  0  0
   -0.6574   -4.4683    3.4568 O   0  0  0  0  0  0  0  0  0  0  0  0
   -0.4935   -2.9859    5.2760 C   0  0  0  0  0  0  0  0  0  0  0  0
   -1.4789   -2.8689    5.7550 H   0  0  0  0  0  0  0  0  0  0  0  0
    0.0123   -3.7847    5.8419 H   0  0  0  0  0  0  0  0  0  0  0  0
    0.0585   -2.0642    5.5199 H   0  0  0  0  0  0  0  0  0  0  0  0
   -0.6261   -2.1849    2.9917 N   0  0  0  0  0  0  0  0  0  0  0  0
   -0.7237   -2.2601    1.5650 C   0  0  2  0  0  0  0  0  0  0  0  0
    0.1695   -1.1513    1.0687 C   0  0  0  0  0  0  0  0  0  0  0  0
    0.3193   -0.1267    1.7365 O   0  0  0  0  0  0  0  0  0  0  0  0
   -2.1397   -2.0663    1.0750 C   0  0  0  0  0  0  0  0  0  0  0  0
   -0.5717   -1.2606    3.4238 H   0  0  0  0  0  0  0  0  0  0  0  0
   -0.3076   -3.2111    1.2363 H   0  0  0  0  0  0  0  0  0  0  0  0
   -2.5584   -1.1089    1.4061 H   0  0  0  0  0  0  0  0  0  0  0  0
   -2.1682   -2.0790   -0.0197 H   0  0  0  0  0  0  0  0  0  0  0  0
   -2.7965   -2.8601    1.4459 H   0  0  0  0  0  0  0  0  0  0  0  0
    0.7724   -1.3745   -0.1593 N   0  0  0  0  0  0  0  0  0  0  0  0
    1.6644   -0.4046   -0.7812 C   0  0  2  0  0  0  0  0  0  0  0  0
    0.8166    0.4953   -1.6290 C   0  0  0  0  0  0  0  0  0  0  0  0
    1.1597    1.6584   -1.8059 O   0  0  0  0  0  0  0  0  0  0  0  0
    2.6195   -1.2417   -1.6241 C   0  0  0  0  0  0  0  0  0  0  0  0
    2.1758   -2.2356   -0.5535 C   0  0  0  0  0  0  0  0  0  0  0  0
    0.7499   -2.6270   -0.9105 C   0  0  0  0  0  0  0  0  0  0  0  0
    2.1745    0.2007   -0.0258 H   0  0  0  0  0  0  0  0  0  0  0  0
    3.6296   -0.8175   -1.5784 H   0  0  0  0  0  0  0  0  0  0  0  0
    2.3218   -1.3211   -2.6742 H   0  0  0  0  0  0  0  0  0  0  0  0
    2.8084   -3.1304   -0.5781 H   0  0  0  0  0  0  0  0  0  0  0  0
    2.2249   -1.8085    0.4522 H   0  0  0  0  0  0  0  0  0  0  0  0
    0.5944   -2.7143   -1.9893 H   0  0  0  0  0  0  0  0  0  0  0  0
    0.4645   -3.5695   -0.4308 H   0  0  0  0  0  0  0  0  0  0  0  0
   -0.3749   -0.4093   -2.0794 N   0  0  0  0  0  0  0  0  0  0  0  0
   -1.3638    0.0726   -3.0168 C   0  0  2  0  0  0  0  0  0  0  0  0
   -0.6804    0.2640   -4.3644 C   0  0  0  0  0  0  0  0  0  0  0  0
    0.5324    0.4242   -4.4847 O   0  0  0  0  0  0  0  0  0  0  0  0
   -1.9940    1.3710   -2.5377 C   0  0  0  0  0  0  0  0  0  0  0  0
   -0.5398   -1.2983   -1.6170 H   0  0  0  0  0  0  0  0  0  0  0  0
   -2.1267   -0.7089   -3.1013 H   0  0  0  0  0  0  0  0  0  0  0  0
   -1.2448    2.1660   -2.4469 H   0  0  0  0  0  0  0  0  0  0  0  0
   -2.7631    1.7197   -3.2348 H   0  0  0  0  0  0  0  0  0  0  0  0
   -2.4592    1.2390   -1.5548 H   0  0  0  0  0  0  0  0  0  0  0  0
   -1.5893    0.2781   -5.4131 N   0  0  0  0  0  0  0  0  0  0  0  0
   -1.1892    0.4579   -6.7892 C   0  0  0  0  0  0  0  0  0  0  0  0
   -2.5743    0.1186   -5.2229 H   0  0  0  0  0  0  0  0  0  0  0  0
   -1.2355    1.5259   -7.0485 H   0  0  0  0  0  0  0  0  0  0  0  0
   -0.1603    0.0926   -6.9225 H   0  0  0  0  0  0  0  0  0  0  0  0
   -1.8671   -0.1082   -7.4450 H   0  0  0  0  0  0  0  0  0  0  0  0
 18 19  1  0  0  0  0
 19 31  1  0  0  0  0
 19 20  2  0  0  0  0
  8  9  1  0  0  0  0
  9 17  1  0  0  0  0
  9 10  2  0  0  0  0
  1  3  1  0  0  0  0
  1  7  1  0  0  0  0
  1  2  2  0  0  0  0
 32 33  1  0  0  0  0
 33 41  1  0  0  0  0
 33 34  2  0  0  0  0
 21 22  1  0  0  0  0
 22 23  1  0  0  0  0
 18 21  1  0  0  0  0
 17 23  1  0  0  0  0
 17 18  1  0  0  0  0
  8 11  1  0  0  0  0
 32 35  1  0  0  0  0
 41 42  1  0  0  0  0
  7  8  1  0  0  0  0
 31 32  1  0  0  0  0
 22 27  1  0  0  0  0
 22 28  1  0  0  0  0
 21 25  1  0  0  0  0
 21 26  1  0  0  0  0
 23 29  1  0  0  0  0
 23 30  1  0  0  0  0
 18 24  1  0  0  0  0
  3  4  1  0  0  0  0
  3  5  1  0  0  0  0
  3  6  1  0  0  0  0
 11 14  1  0  0  0  0
 11 15  1  0  0  0  0
 11 16  1  0  0  0  0
 35 38  1  0  0  0  0
 35 39  1  0  0  0  0
 35 40  1  0  0  0  0
 42 44  1  0  0  0  0
 42 45  1  0  0  0  0
 42 46  1  0  0  0  0
  8 13  1  0  0  0  0
 32 37  1  0  0  0  0
 31 36  1  0  0  0  0
 41 43  1  0  0  0  0
  7 12  1  0  0  0  0
M  END
$$$$

  -OEChem-05262214473D

 46 46  0     1  0  0  0  0  0999 V2000
   -0.6012   -3.2995    3.8205 C   0  0  0  0  0  0  0  0  0  0  0  0
   -0.6574   -4.4683    3.4568 O   0  0  0  0  0  0  0  0  0  0  0  0
   -0.4935   -2.9859    5.2760 C   0  0  0  0  0  0  0  0  0  0  0  0
   -1.4789   -2.8689    5.7550 H   0  0  0  0  0  0  0  0  0  0  0  0
    0.0123   -3.7847    5.8419 H   0  0  0  0  0  0  0  0  0  0  0  0
    0.0585   -2.0642    5.5199 H   0  0  0  0  0  0  0  0  0  0  0  0
   -0.6261   -2.1849    2.9917 N   0  0  0  0  0  0  0  0  0  0  0  0
   -0.7237   -2.2601    1.5650 C   0  0  2  0  0  0  0  0  0  0  0  0
    0.1695   -1.1513    1.0687 C   0  0  0  0  0  0  0  0  0  0  0  0
    0.3193   -0.1267    1.7365 O   0  0  0  0  0  0  0  0  0  0  0  0
   -2.1397   -2.0663    1.0750 C   0  0  0  0  0  0  0  0  0  0  0  0
   -0.5717   -1.2606    3.4238 H   0  0  0  0  0  0  0  0  0  0  0  0
   -0.3076   -3.2111    1.2363 H   0  0  0  0  0  0  0  0  0  0  0  0
   -2.5584   -1.1089    1.4061 H   0  0  0  0  0  0  0  0  0  0  0  0
   -2.1682   -2.0790   -0.0197 H   0  0  0  0  0  0  0  0  0  0  0  0
   -2.7965   -2.8601    1.4459 H   0  0  0  0  0  0  0  0  0  0  0  0
    0.7724   -1.3745   -0.1593 N   0  0  0  0  0  0  0  0  0  0  0  0
    1.6644   -0.4046   -0.7812 C   0  0  2  0  0  0  0  0  0  0  0  0
    0.8166    0.4953   -1.6290 C   0  0  0  0  0  0  0  0  0  0  0  0
    1.2791    1.5550   -2.0350 O   0  0  0  0  0  0  0  0  0  0  0  0
    2.6195   -1.2417   -1.6241 C   0  0  0  0  0  0  0  0  0  0  0  0
    2.1758   -2.2356   -0.5535 C   0  0  0  0  0  0  0  0  0  0  0  0
    0.7499   -2.6270   -0.9105 C   0  0  0  0  0  0  0  0  0  0  0  0
    2.1745    0.2007   -0.0258 H   0  0  0  0  0  0  0  0  0  0  0  0
    3.6296   -0.8175   -1.5784 H   0  0  0  0  0  0  0  0  0  0  0  0
    2.3218   -1.3211   -2.6742 H   0  0  0  0  0  0  0  0  0  0  0  0
    2.8084   -3.1304   -0.5781 H   0  0  0  0  0  0  0  0  0  0  0  0
    2.2249   -1.8085    0.4522 H   0  0  0  0  0  0  0  0  0  0  0  0
    0.5944   -2.7143   -1.9893 H   0  0  0  0  0  0  0  0  0  0  0  0
    0.4645   -3.5695   -0.4308 H   0  0  0  0  0  0  0  0  0  0  0  0
   -0.5441   -0.2621   -1.7539 N   0  0  0  0  0  0  0  0  0  0  0  0
   -1.6010    0.2391   -2.6029 C   0  0  2  0  0  0  0  0  0  0  0  0
   -1.1317    0.1368   -4.0482 C   0  0  0  0  0  0  0  0  0  0  0  0
    0.0546    0.0857   -4.3662 O   0  0  0  0  0  0  0  0  0  0  0  0
   -1.9619    1.6734   -2.2489 C   0  0  0  0  0  0  0  0  0  0  0  0
   -0.7481   -1.0434   -1.1380 H   0  0  0  0  0  0  0  0  0  0  0  0
   -2.4656   -0.4163   -2.4518 H   0  0  0  0  0  0  0  0  0  0  0  0
   -1.1079    2.3449   -2.3940 H   0  0  0  0  0  0  0  0  0  0  0  0
   -2.7821    2.0419   -2.8738 H   0  0  0  0  0  0  0  0  0  0  0  0
   -2.2707    1.7502   -1.2007 H   0  0  0  0  0  0  0  0  0  0  0  0
   -2.1920    0.1527   -4.9435 N   0  0  0  0  0  0  0  0  0  0  0  0
   -2.0058    0.0799   -6.3739 C   0  0  0  0  0  0  0  0  0  0  0  0
   -3.1440    0.1779   -4.5902 H   0  0  0  0  0  0  0  0  0  0  0  0
   -1.9501    1.0970   -6.7891 H   0  0  0  0  0  0  0  0  0  0  0  0
   -1.0721   -0.4579   -6.5950 H   0  0  0  0  0  0  0  0  0  0  0  0
   -2.8533   -0.4552   -6.8271 H   0  0  0  0  0  0  0  0  0  0  0  0
 18 19  1  0  0  0  0
 19 31  1  0  0  0  0
 19 20  2  0  0  0  0
  8  9  1  0  0  0  0
  9 17  1  0  0  0  0
  9 10  2  0  0  0  0
  1  3  1  0  0  0  0
  1  7  1  0  0  0  0
  1  2  2  0  0  0  0
 32 33  1  0  0  0  0
 33 41  1  0  0  0  0
 33 34  2  0  0  0  0
 21 22  1  0  0  0  0
 22 23  1  0  0  0  0
 18 21  1  0  0  0  0
 17 23  1  0  0  0  0
 17 18  1  0  0  0  0
  8 11  1  0  0  0  0
 32 35  1  0  0  0  0
 41 42  1  0  0  0  0
  7  8  1  0  0  0  0
 31 32  1  0  0  0  0
 22 27  1  0  0  0  0
 22 28  1  0  0  0  0
 21 25  1  0  0  0  0
 21 26  1  0  0  0  0
 23 29  1  0  0  0  0
 23 30  1  0  0  0  0
 18 24  1  0  0  0  0
  3  4  1  0  0  0  0
  3  5  1  0  0  0  0
  3  6  1  0  0  0  0
 11 14  1  0  0  0  0
 11 15  1  0  0  0  0
 11 16  1  0  0  0  0
 35 38  1  0  0  0  0
 35 39  1  0  0  0  0
 35 40  1  0  0  0  0
 42 44  1  0  0  0  0
 42 45  1  0  0  0  0
 42 46  1  0  0  0  0
  8 13  1  0  0  0  0
 32 37  1  0  0  0  0
 31 36  1  0  0  0  0
 41 43  1  0  0  0  0
  7 12  1  0  0  0  0
M  END
$$$$

  -OEChem-05262214473D

 46 46  0     1  0  0  0  0  0999 V2000
   -0.6012   -3.2995    3.8205 C   0  0  0  0  0  0  0  0  0  0  0  0
   -0.6574   -4.4683    3.4568 O   0  0  0  0  0  0  0  0  0  0  0  0
   -0.4935   -2.9859    5.2760 C   0  0  0  0  0  0  0  0  0  0  0  0
   -1.4789   -2.8689    5.7550 H   0  0  0  0  0  0  0  0  0  0  0  0
    0.0123   -3.7847    5.8419 H   0  0  0  0  0  0  0  0  0  0  0  0
    0.0585   -2.0642    5.5199 H   0  0  0  0  0  0  0  0  0  0  0  0
   -0.6261   -2.1849    2.9917 N   0  0  0  0  0  0  0  0  0  0  0  0
   -0.7237   -2.2601    1.5650 C   0  0  2  0  0  0  0  0  0  0  0  0
    0.1695   -1.1513    1.0687 C   0  0  0  0  0  0  0  0  0  0  0  0
    0.3193   -0.1267    1.7365 O   0  0  0  0  0  0  0  0  0  0  0  0
   -2.1397   -2.0663    1.0750 C   0  0  0  0  0  0  0  0  0  0  0  0
   -0.5717   -1.2606    3.4238 H   0  0  0  0  0  0  0  0  0  0  0  0
   -0.3076   -3.2111    1.2363 H   0  0  0  0  0  0  0  0  0  0  0  0
   -2.5584   -1.1089    1.4061 H   0  0  0  0  0  0  0  0  0  0  0  0
   -2.1682   -2.0790   -0.0197 H   0  0  0  0  0  0  0  0  0  0  0  0
   -2.7965   -2.8601    1.4459 H   0  0  0  0  0  0  0  0  0  0  0  0
    0.7724   -1.3745   -0.1593 N   0  0  0  0  0  0  0  0  0  0  0  0
    1.6644   -0.4046   -0.7812 C   0  0  2  0  0  0  0  0  0  0  0  0
    0.8166    0.4953   -1.6290 C   0  0  0  0  0  0  0  0  0  0  0  0
    1.3437    1.4041   -2.2598 O   0  0  0  0  0  0  0  0  0  0  0  0
    2.6195   -1.2417   -1.6241 C   0  0  0  0  0  0  0  0  0  0  0  0
    2.1758   -2.2356   -0.5535 C   0  0  0  0  0  0  0  0  0  0  0  0
    0.7499   -2.6270   -0.9105 C   0  0  0  0  0  0  0  0  0  0  0  0
    2.1745    0.2007   -0.0258 H   0  0  0  0  0  0  0  0  0  0  0  0
    3.6296   -0.8175   -1.5784 H   0  0  0  0  0  0  0  0  0  0  0  0
    2.3218   -1.3211   -2.6742 H   0  0  0  0  0  0  0  0  0  0  0  0
    2.8084   -3.1304   -0.5781 H   0  0  0  0  0  0  0  0  0  0  0  0
    2.2249   -1.8085    0.4522 H   0  0  0  0  0  0  0  0  0  0  0  0
    0.5944   -2.7143   -1.9893 H   0  0  0  0  0  0  0  0  0  0  0  0
    0.4645   -3.5695   -0.4308 H   0  0  0  0  0  0  0  0  0  0  0  0
   -0.6354   -0.0475   -1.4348 N   0  0  0  0  0  0  0  0  0  0  0  0
   -1.7414    0.4952   -2.1906 C   0  0  2  0  0  0  0  0  0  0  0  0
   -1.5371    0.1262   -3.6540 C   0  0  0  0  0  0  0  0  0  0  0  0
   -0.4381   -0.1540   -4.1280 O   0  0  0  0  0  0  0  0  0  0  0  0
   -1.8418    2.0030   -2.0191 C   0  0  0  0  0  0  0  0  0  0  0  0
   -0.8376   -0.6965   -0.6803 H   0  0  0  0  0  0  0  0  0  0  0  0
   -2.6493    0.0110   -1.8145 H   0  0  0  0  0  0  0  0  0  0  0  0
   -0.9411    2.5054   -2.3904 H   0  0  0  0  0  0  0  0  0  0  0  0
   -2.6972    2.4088   -2.5693 H   0  0  0  0  0  0  0  0  0  0  0  0
   -1.9588    2.2681   -0.9628 H   0  0  0  0  0  0  0  0  0  0  0  0
   -2.7196    0.1885   -4.3779 N   0  0  0  0  0  0  0  0  0  0  0  0
   -2.7853   -0.1049   -5.7905 C   0  0  0  0  0  0  0  0  0  0  0  0
   -3.5874    0.4112   -3.8992 H   0  0  0  0  0  0  0  0  0  0  0  0
   -2.6628    0.8252   -6.3649 H   0  0  0  0  0  0  0  0  0  0  0  0
   -1.9825   -0.8083   -6.0565 H   0  0  0  0  0  0  0  0  0  0  0  0
   -3.7606   -0.5556   -6.0263 H   0  0  0  0  0  0  0  0  0  0  0  0
 18 19  1  0  0  0  0
 19 31  1  0  0  0  0
 19 20  2  0  0  0  0
  8  9  1  0  0  0  0
  9 17  1  0  0  0  0
  9 10  2  0  0  0  0
  1  3  1  0  0  0  0
  1  7  1  0  0  0  0
  1  2  2  0  0  0  0
 32 33  1  0  0  0  0
 33 41  1  0  0  0  0
 33 34  2  0  0  0  0
 21 22  1  0  0  0  0
 22 23  1  0  0  0  0
 18 21  1  0  0  0  0
 17 23  1  0  0  0  0
 17 18  1  0  0  0  0
  8 11  1  0  0  0  0
 32 35  1  0  0  0  0
 41 42  1  0  0  0  0
  7  8  1  0  0  0  0
 31 32  1  0  0  0  0
 22 27  1  0  0  0  0
 22 28  1  0  0  0  0
 21 25  1  0  0  0  0
 21 26  1  0  0  0  0
 23 29  1  0  0  0  0
 23 30  1  0  0  0  0
 18 24  1  0  0  0  0
  3  4  1  0  0  0  0
  3  5  1  0  0  0  0
  3  6  1  0  0  0  0
 11 14  1  0  0  0  0
 11 15  1  0  0  0  0
 11 16  1  0  0  0  0
 35 38  1  0  0  0  0
 35 39  1  0  0  0  0
 35 40  1  0  0  0  0
 42 44  1  0  0  0  0
 42 45  1  0  0  0  0
 42 46  1  0  0  0  0
  8 13  1  0  0  0  0
 32 37  1  0  0  0  0
 31 36  1  0  0  0  0
 41 43  1  0  0  0  0
  7 12  1  0  0  0  0
M  END
$$$$

  -OEChem-05262214473D

 46 46  0     1  0  0  0  0  0999 V2000
   -0.6012   -3.2995    3.8205 C   0  0  0  0  0  0  0  0  0  0  0  0
   -0.6574   -4.4683    3.4568 O   0  0  0  0  0  0  0  0  0  0  0  0
   -0.4935   -2.9859    5.2760 C   0  0  0  0  0  0  0  0  0  0  0  0
   -1.4789   -2.8689    5.7550 H   0  0  0  0  0  0  0  0  0  0  0  0
    0.0123   -3.7847    5.8419 H   0  0  0  0  0  0  0  0  0  0  0  0
    0.0585   -2.0642    5.5199 H   0  0  0  0  0  0  0  0  0  0  0  0
   -0.6261   -2.1849    2.9917 N   0  0  0  0  0  0  0  0  0  0  0  0
   -0.7237   -2.2601    1.5650 C   0  0  2  0  0  0  0  0  0  0  0  0
    0.1695   -1.1513    1.0687 C   0  0  0  0  0  0  0  0  0  0  0  0
    0.3193   -0.1267    1.7365 O   0  0  0  0  0  0  0  0  0  0  0  0
   -2.1397   -2.0663    1.0750 C   0  0  0  0  0  0  0  0  0  0  0  0
   -0.5717   -1.2606    3.4238 H   0  0  0  0  0  0  0  0  0  0  0  0
   -0.3076   -3.2111    1.2363 H   0  0  0  0  0  0  0  0  0  0  0  0
   -2.5584   -1.1089    1.4061 H   0  0  0  0  0  0  0  0  0  0  0  0
   -2.1682   -2.0790   -0.0197 H   0  0  0  0  0  0  0  0  0  0  0  0
   -2.7965   -2.8601    1.4459 H   0  0  0  0  0  0  0  0  0  0  0  0
    0.7724   -1.3745   -0.1593 N   0  0  0  0  0  0  0  0  0  0  0  0
    1.6644   -0.4046   -0.7812 C   0  0  2  0  0  0  0  0  0  0  0  0
    0.8166    0.4953   -1.6290 C   0  0  0  0  0  0  0  0  0  0  0  0
    1.3491    1.2160   -2.4649 O   0  0  0  0  0  0  0  0  0  0  0  0
    2.6195   -1.2417   -1.6241 C   0  0  0  0  0  0  0  0  0  0  0  0
    2.1758   -2.2356   -0.5535 C   0  0  0  0  0  0  0  0  0  0  0  0
    0.7499   -2.6270   -0.9105 C   0  0  0  0  0  0  0  0  0  0  0  0
    2.1745    0.2007   -0.0258 H   0  0  0  0  0  0  0  0  0  0  0  0
    3.6296   -0.8175   -1.5784 H   0  0  0  0  0  0  0  0  0  0  0  0
    2.3218   -1.3211   -2.6742 H   0  0  0  0  0  0  0  0  0  0  0  0
    2.8084   -3.1304   -0.5781 H   0  0  0  0  0  0  0  0  0  0  0  0
    2.2249   -1.8085    0.4522 H   0  0  0  0  0  0  0  0  0  0  0  0
    0.5944   -2.7143   -1.9893 H   0  0  0  0  0  0  0  0  0  0  0  0
    0.4645   -3.5695   -0.4308 H   0  0  0  0  0  0  0  0  0  0  0  0
   -0.6426    0.2198   -1.1438 N   0  0  0  0  0  0  0  0  0  0  0  0
   -1.7755    0.8235   -1.8080 C   0  0  2  0  0  0  0  0  0  0  0  0
   -1.8690    0.2330   -3.2087 C   0  0  0  0  0  0  0  0  0  0  0  0
   -0.9120   -0.2785   -3.7863 O   0  0  0  0  0  0  0  0  0  0  0  0
   -1.6418    2.3374   -1.8641 C   0  0  0  0  0  0  0  0  0  0  0  0
   -0.8022   -0.2814   -0.2751 H   0  0  0  0  0  0  0  0  0  0  0  0
   -2.6650    0.5440   -1.2330 H   0  0  0  0  0  0  0  0  0  0  0  0
   -0.7560    2.6366   -2.4362 H   0  0  0  0  0  0  0  0  0  0  0  0
   -2.5141    2.7953   -2.3420 H   0  0  0  0  0  0  0  0  0  0  0  0
   -1.5447    2.7576   -0.8573 H   0  0  0  0  0  0  0  0  0  0  0  0
   -3.1361    0.3831   -3.7548 N   0  0  0  0  0  0  0  0  0  0  0  0
   -3.4747   -0.0840   -5.0789 C   0  0  0  0  0  0  0  0  0  0  0  0
   -3.8741    0.8025   -3.1971 H   0  0  0  0  0  0  0  0  0  0  0  0
   -3.3252    0.7292   -5.8045 H   0  0  0  0  0  0  0  0  0  0  0  0
   -2.8295   -0.9347   -5.3436 H   0  0  0  0  0  0  0  0  0  0  0  0
   -4.5274   -0.4025   -5.0971 H   0  0  0  0  0  0  0  0  0  0  0  0
 18 19  1  0  0  0  0
 19 31  1  0  0  0  0
 19 20  2  0  0  0  0
  8  9  1  0  0  0  0
  9 17  1  0  0  0  0
  9 10  2  0  0  0  0
  1  3  1  0  0  0  0
  1  7  1  0  0  0  0
  1  2  2  0  0  0  0
 32 33  1  0  0  0  0
 33 41  1  0  0  0  0
 33 34  2  0  0  0  0
 21 22  1  0  0  0  0
 22 23  1  0  0  0  0
 18 21  1  0  0  0  0
 17 23  1  0  0  0  0
 17 18  1  0  0  0  0
  8 11  1  0  0  0  0
 32 35  1  0  0  0  0
 41 42  1  0  0  0  0
  7  8  1  0  0  0  0
 31 32  1  0  0  0  0
 22 27  1  0  0  0  0
 22 28  1  0  0  0  0
 21 25  1  0  0  0  0
 21 26  1  0  0  0  0
 23 29  1  0  0  0  0
 23 30  1  0  0  0  0
 18 24  1  0  0  0  0
  3  4  1  0  0  0  0
  3  5  1  0  0  0  0
  3  6  1  0  0  0  0
 11 14  1  0  0  0  0
 11 15  1  0  0  0  0
 11 16  1  0  0  0  0
 35 38  1  0  0  0  0
 35 39  1  0  0  0  0
 35 40  1  0  0  0  0
 42 44  1  0  0  0  0
 42 45  1  0  0  0  0
 42 46  1  0  0  0  0
  8 13  1  0  0  0  0
 32 37  1  0  0  0  0
 31 36  1  0  0  0  0
 41 43  1  0  0  0  0
  7 12  1  0  0  0  0
M  END
$$$$

  -OEChem-05262214473D

 46 46  0     1  0  0  0  0  0999 V2000
   -0.6012   -3.2995    3.8205 C   0  0  0  0  0  0  0  0  0  0  0  0
   -0.6574   -4.4683    3.4568 O   0  0  0  0  0  0  0  0  0  0  0  0
   -0.4935   -2.9859    5.2760 C   0  0  0  0  0  0  0  0  0  0  0  0
   -1.4789   -2.8689    5.7550 H   0  0  0  0  0  0  0  0  0  0  0  0
    0.0123   -3.7847    5.8419 H   0  0  0  0  0  0  0  0  0  0  0  0
    0.0585   -2.0642    5.5199 H   0  0  0  0  0  0  0  0  0  0  0  0
   -0.6261   -2.1849    2.9917 N   0  0  0  0  0  0  0  0  0  0  0  0
   -0.7237   -2.2601    1.5650 C   0  0  2  0  0  0  0  0  0  0  0  0
    0.1695   -1.1513    1.0687 C   0  0  0  0  0  0  0  0  0  0  0  0
    0.3193   -0.1267    1.7365 O   0  0  0  0  0  0  0  0  0  0  0  0
   -2.1397   -2.0663    1.0750 C   0  0  0  0  0  0  0  0  0  0  0  0
   -0.5717   -1.2606    3.4238 H   0  0  0  0  0  0  0  0  0  0  0  0
   -0.3076   -3.2111    1.2363 H   0  0  0  0  0  0  0  0  0  0  0  0
   -2.5584   -1.1089    1.4061 H   0  0  0  0  0  0  0  0  0  0  0  0
   -2.1682   -2.0790   -0.0197 H   0  0  0  0  0  0  0  0  0  0  0  0
   -2.7965   -2.8601    1.4459 H   0  0  0  0  0  0  0  0  0  0  0  0
    0.7724   -1.3745   -0.1593 N   0  0  0  0  0  0  0  0  0  0  0  0
    1.6644   -0.4046   -0.7812 C   0  0  2  0  0  0  0  0  0  0  0  0
    0.8166    0.4953   -1.6290 C   0  0  0  0  0  0  0  0  0  0  0  0
    1.2950    1.0035   -2.6363 O   0  0  0  0  0  0  0  0  0  0  0  0
    2.6195   -1.2417   -1.6241 C   0  0  0  0  0  0  0  0  0  0  0  0
    2.1758   -2.2356   -0.5535 C   0  0  0  0  0  0  0  0  0  0  0  0
    0.7499   -2.6270   -0.9105 C   0  0  0  0  0  0  0  0  0  0  0  0
    2.1745    0.2007   -0.0258 H   0  0  0  0  0  0  0  0  0  0  0  0
    3.6296   -0.8175   -1.5784 H   0  0  0  0  0  0  0  0  0  0  0  0
    2.3218   -1.3211   -2.6742 H   0  0  0  0  0  0  0  0  0  0  0  0
    2.8084   -3.1304   -0.5781 H   0  0  0  0  0  0  0  0  0  0  0  0
    2.2249   -1.8085    0.4522 H   0  0  0  0  0  0  0  0  0  0  0  0
    0.5944   -2.7143   -1.9893 H   0  0  0  0  0  0  0  0  0  0  0  0
    0.4645   -3.5695   -0.4308 H   0  0  0  0  0  0  0  0  0  0  0  0
   -0.5653    0.5217   -0.9007 N   0  0  0  0  0  0  0  0  0  0  0  0
   -1.7009    1.2016   -1.4812 C   0  0  2  0  0  0  0  0  0  0  0  0
   -2.1048    0.4499   -2.7427 C   0  0  0  0  0  0  0  0  0  0  0  0
   -1.3350   -0.2795   -3.3643 O   0  0  0  0  0  0  0  0  0  0  0  0
   -1.3756    2.6538   -1.7944 C   0  0  0  0  0  0  0  0  0  0  0  0
   -0.6443    0.1737    0.0501 H   0  0  0  0  0  0  0  0  0  0  0  0
   -2.5120    1.1462   -0.7469 H   0  0  0  0  0  0  0  0  0  0  0  0
   -0.5651    2.7295   -2.5285 H   0  0  0  0  0  0  0  0  0  0  0  0
   -2.2455    3.1751   -2.2076 H   0  0  0  0  0  0  0  0  0  0  0  0
   -1.0567    3.1853   -0.8913 H   0  0  0  0  0  0  0  0  0  0  0  0
   -3.4130    0.7233   -3.1168 N   0  0  0  0  0  0  0  0  0  0  0  0
   -4.0269    0.1414   -4.2875 C   0  0  0  0  0  0  0  0  0  0  0  0
   -3.9847    1.3253   -2.5316 H   0  0  0  0  0  0  0  0  0  0  0  0
   -3.8919    0.8153   -5.1463 H   0  0  0  0  0  0  0  0  0  0  0  0
   -3.5554   -0.8284   -4.5049 H   0  0  0  0  0  0  0  0  0  0  0  0
   -5.1012   -0.0065   -4.1029 H   0  0  0  0  0  0  0  0  0  0  0  0
 18 19  1  0  0  0  0
 19 31  1  0  0  0  0
 19 20  2  0  0  0  0
  8  9  1  0  0  0  0
  9 17  1  0  0  0  0
  9 10  2  0  0  0  0
  1  3  1  0  0  0  0
  1  7  1  0  0  0  0
  1  2  2  0  0  0  0
 32 33  1  0  0  0  0
 33 41  1  0  0  0  0
 33 34  2  0  0  0  0
 21 22  1  0  0  0  0
 22 23  1  0  0  0  0
 18 21  1  0  0  0  0
 17 23  1  0  0  0  0
 17 18  1  0  0  0  0
  8 11  1  0  0  0  0
 32 35  1  0  0  0  0
 41 42  1  0  0  0  0
  7  8  1  0  0  0  0
 31 32  1  0  0  0  0
 22 27  1  0  0  0  0
 22 28  1  0  0  0  0
 21 25  1  0  0  0  0
 21 26  1  0  0  0  0
 23 29  1  0  0  0  0
 23 30  1  0  0  0  0
 18 24  1  0  0  0  0
  3  4  1  0  0  0  0
  3  5  1  0  0  0  0
  3  6  1  0  0  0  0
 11 14  1  0  0  0  0
 11 15  1  0  0  0  0
 11 16  1  0  0  0  0
 35 38  1  0  0  0  0
 35 39  1  0  0  0  0
 35 40  1  0  0  0  0
 42 44  1  0  0  0  0
 42 45  1  0  0  0  0
 42 46  1  0  0  0  0
  8 13  1  0  0  0  0
 32 37  1  0  0  0  0
 31 36  1  0  0  0  0
 41 43  1  0  0  0  0
  7 12  1  0  0  0  0
M  END
$$$$

  -OEChem-05262214473D

 46 46  0     1  0  0  0  0  0999 V2000
   -0.6012   -3.2995    3.8205 C   0  0  0  0  0  0  0  0  0  0  0  0
   -0.6574   -4.4683    3.4568 O   0  0  0  0  0  0  0  0  0  0  0  0
   -0.4935   -2.9859    5.2760 C   0  0  0  0  0  0  0  0  0  0  0  0
   -1.4789   -2.8689    5.7550 H   0  0  0  0  0  0  0  0  0  0  0  0
    0.0123   -3.7847    5.8419 H   0  0  0  0  0  0  0  0  0  0  0  0
    0.0585   -2.0642    5.5199 H   0  0  0  0  0  0  0  0  0  0  0  0
   -0.6261   -2.1849    2.9917 N   0  0  0  0  0  0  0  0  0  0  0  0
   -0.7237   -2.2601    1.5650 C   0  0  2  0  0  0  0  0  0  0  0  0
    0.1695   -1.1513    1.0687 C   0  0  0  0  0  0  0  0  0  0  0  0
    0.3193   -0.1267    1.7365 O   0  0  0  0  0  0  0  0  0  0  0  0
   -2.1397   -2.0663    1.0750 C   0  0  0  0  0  0  0  0  0  0  0  0
   -0.5717   -1.2606    3.4238 H   0  0  0  0  0  0  0  0  0  0  0  0
   -0.3076   -3.2111    1.2363 H   0  0  0  0  0  0  0  0  0  0  0  0
   -2.5584   -1.1089    1.4061 H   0  0  0  0  0  0  0  0  0  0  0  0
   -2.1682   -2.0790   -0.0197 H   0  0  0  0  0  0  0  0  0  0  0  0
   -2.7965   -2.8601    1.4459 H   0  0  0  0  0  0  0  0  0  0  0  0
    0.7724   -1.3745   -0.1593 N   0  0  0  0  0  0  0  0  0  0  0  0
    1.6644   -0.4046   -0.7812 C   0  0  2  0  0  0  0  0  0  0  0  0
    0.8166    0.4953   -1.6290 C   0  0  0  0  0  0  0  0  0  0  0  0
    1.1849    0.7811   -2.7623 O   0  0  0  0  0  0  0  0  0  0  0  0
    2.6195   -1.2417   -1.6241 C   0  0  0  0  0  0  0  0  0  0  0  0
    2.1758   -2.2356   -0.5535 C   0  0  0  0  0  0  0  0  0  0  0  0
    0.7499   -2.6270   -0.9105 C   0  0  0  0  0  0  0  0  0  0  0  0
    2.1745    0.2007   -0.0258 H   0  0  0  0  0  0  0  0  0  0  0  0
    3.6296   -0.8175   -1.5784 H   0  0  0  0  0  0  0  0  0  0  0  0
    2.3218   -1.3211   -2.6742 H   0  0  0  0  0  0  0  0  0  0  0  0
    2.8084   -3.1304   -0.5781 H   0  0  0  0  0  0  0  0  0  0  0  0
    2.2249   -1.8085    0.4522 H   0  0  0  0  0  0  0  0  0  0  0  0
    0.5944   -2.7143   -1.9893 H   0  0  0  0  0  0  0  0  0  0  0  0
    0.4645   -3.5695   -0.4308 H   0  0  0  0  0  0  0  0  0  0  0  0
   -0.4086    0.8375   -0.7221 N   0  0  0  0  0  0  0  0  0  0  0  0
   -1.5228    1.6038   -1.2324 C   0  0  2  0  0  0  0  0  0  0  0  0
   -2.2284    0.7622   -2.2876 C   0  0  0  0  0  0  0  0  0  0  0  0
   -1.6781   -0.1567   -2.8909 O   0  0  0  0  0  0  0  0  0  0  0  0
   -1.0613    2.9307   -1.8148 C   0  0  0  0  0  0  0  0  0  0  0  0
   -0.3746    0.6378    0.2730 H   0  0  0  0  0  0  0  0  0  0  0  0
   -2.2004    1.7766   -0.3892 H   0  0  0  0  0  0  0  0  0  0  0  0
   -0.3815    2.7777   -2.6609 H   0  0  0  0  0  0  0  0  0  0  0  0
   -1.9095    3.5223   -2.1750 H   0  0  0  0  0  0  0  0  0  0  0  0
   -0.5280    3.5220   -1.0626 H   0  0  0  0  0  0  0  0  0  0  0  0
   -3.5316    1.1857   -2.5072 N   0  0  0  0  0  0  0  0  0  0  0  0
   -4.4044    0.5557   -3.4702 C   0  0  0  0  0  0  0  0  0  0  0  0
   -3.9116    1.9438   -1.9481 H   0  0  0  0  0  0  0  0  0  0  0  0
   -4.3245    1.0779   -4.4351 H   0  0  0  0  0  0  0  0  0  0  0  0
   -4.1107   -0.4967   -3.5976 H   0  0  0  0  0  0  0  0  0  0  0  0
   -5.4430    0.6056   -3.1113 H   0  0  0  0  0  0  0  0  0  0  0  0
 18 19  1  0  0  0  0
 19 31  1  0  0  0  0
 19 20  2  0  0  0  0
  8  9  1  0  0  0  0
  9 17  1  0  0  0  0
  9 10  2  0  0  0  0
  1  3  1  0  0  0  0
  1  7  1  0  0  0  0
  1  2  2  0  0  0  0
 32 33  1  0  0  0  0
 33 41  1  0  0  0  0
 33 34  2  0  0  0  0
 21 22  1  0  0  0  0
 22 23  1  0  0  0  0
 18 21  1  0  0  0  0
 17 23  1  0  0  0  0
 17 18  1  0  0  0  0
  8 11  1  0  0  0  0
 32 35  1  0  0  0  0
 41 42  1  0  0  0  0
  7  8  1  0  0  0  0
 31 32  1  0  0  0  0
 22 27  1  0  0  0  0
 22 28  1  0  0  0  0
 21 25  1  0  0  0  0
 21 26  1  0  0  0  0
 23 29  1  0  0  0  0
 23 30  1  0  0  0  0
 18 24  1  0  0  0  0
  3  4  1  0  0  0  0
  3  5  1  0  0  0  0
  3  6  1  0  0  0  0
 11 14  1  0  0  0  0
 11 15  1  0  0  0  0
 11 16  1  0  0  0  0
 35 38  1  0  0  0  0
 35 39  1  0  0  0  0
 35 40  1  0  0  0  0
 42 44  1  0  0  0  0
 42 45  1  0  0  0  0
 42 46  1  0  0  0  0
  8 13  1  0  0  0  0
 32 37  1  0  0  0  0
 31 36  1  0  0  0  0
 41 43  1  0  0  0  0
  7 12  1  0  0  0  0
M  END
$$$$

  -OEChem-05262214473D

 46 46  0     1  0  0  0  0  0999 V2000
   -0.6012   -3.2995    3.8205 C   0  0  0  0  0  0  0  0  0  0  0  0
   -0.6574   -4.4683    3.4568 O   0  0  0  0  0  0  0  0  0  0  0  0
   -0.4935   -2.9859    5.2760 C   0  0  0  0  0  0  0  0  0  0  0  0
   -1.4789   -2.8689    5.7550 H   0  0  0  0  0  0  0  0  0  0  0  0
    0.0123   -3.7847    5.8419 H   0  0  0  0  0  0  0  0  0  0  0  0
    0.0585   -2.0642    5.5199 H   0  0  0  0  0  0  0  0  0  0  0  0
   -0.6261   -2.1849    2.9917 N   0  0  0  0  0  0  0  0  0  0  0  0
   -0.7237   -2.2601    1.5650 C   0  0  2  0  0  0  0  0  0  0  0  0
    0.1695   -1.1513    1.0687 C   0  0  0  0  0  0  0  0  0  0  0  0
    0.3193   -0.1267    1.7365 O   0  0  0  0  0  0  0  0  0  0  0  0
   -2.1397   -2.0663    1.0750 C   0  0  0  0  0  0  0  0  0  0  0  0
   -0.5717   -1.2606    3.4238 H   0  0  0  0  0  0  0  0  0  0  0  0
   -0.3076   -3.2111    1.2363 H   0  0  0  0  0  0  0  0  0  0  0  0
   -2.5584   -1.1089    1.4061 H   0  0  0  0  0  0  0  0  0  0  0  0
   -2.1682   -2.0790   -0.0197 H   0  0  0  0  0  0  0  0  0  0  0  0
   -2.7965   -2.8601    1.4459 H   0  0  0  0  0  0  0  0  0  0  0  0
    0.7724   -1.3745   -0.1593 N   0  0  0  0  0  0  0  0  0  0  0  0
    1.6644   -0.4046   -0.7812 C   0  0  2  0  0  0  0  0  0  0  0  0
    0.8166    0.4953   -1.6290 C   0  0  0  0  0  0  0  0  0  0  0  0
    1.0265    0.5640   -2.8344 O   0  0  0  0  0  0  0  0  0  0  0  0
    2.6195   -1.2417   -1.6241 C   0  0  0  0  0  0  0  0  0  0  0  0
    2.1758   -2.2356   -0.5535 C   0  0  0  0  0  0  0  0  0  0  0  0
    0.7499   -2.6270   -0.9105 C   0  0  0  0  0  0  0  0  0  0  0  0
    2.1745    0.2007   -0.0258 H   0  0  0  0  0  0  0  0  0  0  0  0
    3.6296   -0.8175   -1.5784 H   0  0  0  0  0  0  0  0  0  0  0  0
    2.3218   -1.3211   -2.6742 H   0  0  0  0  0  0  0  0  0  0  0  0
    2.8084   -3.1304   -0.5781 H   0  0  0  0  0  0  0  0  0  0  0  0
    2.2249   -1.8085    0.4522 H   0  0  0  0  0  0  0  0  0  0  0  0
    0.5944   -2.7143   -1.9893 H   0  0  0  0  0  0  0  0  0  0  0  0
    0.4645   -3.5695   -0.4308 H   0  0  0  0  0  0  0  0  0  0  0  0
   -0.1833    1.1458   -0.6202 N   0  0  0  0  0  0  0  0  0  0  0  0
   -1.2532    2.0025   -1.0787 C   0  0  2  0  0  0  0  0  0  0  0  0
   -2.2313    1.1485   -1.8746 C   0  0  0  0  0  0  0  0  0  0  0  0
   -1.9180    0.0814   -2.3982 O   0  0  0  0  0  0  0  0  0  0  0  0
   -0.7204    3.1491   -1.9238 C   0  0  0  0  0  0  0  0  0  0  0  0
   -0.0115    1.0792    0.3785 H   0  0  0  0  0  0  0  0  0  0  0  0
   -1.7516    2.3923   -0.1844 H   0  0  0  0  0  0  0  0  0  0  0  0
   -0.2176    2.7781   -2.8244 H   0  0  0  0  0  0  0  0  0  0  0  0
   -1.5290    3.8132   -2.2466 H   0  0  0  0  0  0  0  0  0  0  0  0
    0.0053    3.7447   -1.3595 H   0  0  0  0  0  0  0  0  0  0  0  0
   -3.4838    1.7390   -1.9677 N   0  0  0  0  0  0  0  0  0  0  0  0
   -4.5814    1.1307   -2.6828 C   0  0  0  0  0  0  0  0  0  0  0  0
   -3.6598    2.6160   -1.4863 H   0  0  0  0  0  0  0  0  0  0  0  0
   -4.5933    1.4988   -3.7193 H   0  0  0  0  0  0  0  0  0  0  0  0
   -4.4575    0.0377   -2.6834 H   0  0  0  0  0  0  0  0  0  0  0  0
   -5.5295    1.3920   -2.1900 H   0  0  0  0  0  0  0  0  0  0  0  0
 18 19  1  0  0  0  0
 19 31  1  0  0  0  0
 19 20  2  0  0  0  0
  8  9  1  0  0  0  0
  9 17  1  0  0  0  0
  9 10  2  0  0  0  0
  1  3  1  0  0  0  0
  1  7  1  0  0  0  0
  1  2  2  0  0  0  0
 32 33  1  0  0  0  0
 33 41  1  0  0  0  0
 33 34  2  0  0  0  0
 21 22  1  0  0  0  0
 22 23  1  0  0  0  0
 18 21  1  0  0  0  0
 17 23  1  0  0  0  0
 17 18  1  0  0  0  0
  8 11  1  0  0  0  0
 32 35  1  0  0  0  0
 41 42  1  0  0  0  0
  7  8  1  0  0  0  0
 31 32  1  0  0  0  0
 22 27  1  0  0  0  0
 22 28  1  0  0  0  0
 21 25  1  0  0  0  0
 21 26  1  0  0  0  0
 23 29  1  0  0  0  0
 23 30  1  0  0  0  0
 18 24  1  0  0  0  0
  3  4  1  0  0  0  0
  3  5  1  0  0  0  0
  3  6  1  0  0  0  0
 11 14  1  0  0  0  0
 11 15  1  0  0  0  0
 11 16  1  0  0  0  0
 35 38  1  0  0  0  0
 35 39  1  0  0  0  0
 35 40  1  0  0  0  0
 42 44  1  0  0  0  0
 42 45  1  0  0  0  0
 42 46  1  0  0  0  0
  8 13  1  0  0  0  0
 32 37  1  0  0  0  0
 31 36  1  0  0  0  0
 41 43  1  0  0  0  0
  7 12  1  0  0  0  0
M  END
$$$$

  -OEChem-05262214473D

 46 46  0     1  0  0  0  0  0999 V2000
   -0.6012   -3.2995    3.8205 C   0  0  0  0  0  0  0  0  0  0  0  0
   -0.6574   -4.4683    3.4568 O   0  0  0  0  0  0  0  0  0  0  0  0
   -0.4935   -2.9859    5.2760 C   0  0  0  0  0  0  0  0  0  0  0  0
   -1.4789   -2.8689    5.7550 H   0  0  0  0  0  0  0  0  0  0  0  0
    0.0123   -3.7847    5.8419 H   0  0  0  0  0  0  0  0  0  0  0  0
    0.0585   -2.0642    5.5199 H   0  0  0  0  0  0  0  0  0  0  0  0
   -0.6261   -2.1849    2.9917 N   0  0  0  0  0  0  0  0  0  0  0  0
   -0.7237   -2.2601    1.5650 C   0  0  2  0  0  0  0  0  0  0  0  0
    0.1695   -1.1513    1.0687 C   0  0  0  0  0  0  0  0  0  0  0  0
    0.3193   -0.1267    1.7365 O   0  0  0  0  0  0  0  0  0  0  0  0
   -2.1397   -2.0663    1.0750 C   0  0  0  0  0  0  0  0  0  0  0  0
   -0.5717   -1.2606    3.4238 H   0  0  0  0  0  0  0  0  0  0  0  0
   -0.3076   -3.2111    1.2363 H   0  0  0  0  0  0  0  0  0  0  0  0
   -2.5584   -1.1089    1.4061 H   0  0  0  0  0  0  0  0  0  0  0  0
   -2.1682   -2.0790   -0.0197 H   0  0  0  0  0  0  0  0  0  0  0  0
   -2.7965   -2.8601    1.4459 H   0  0  0  0  0  0  0  0  0  0  0  0
    0.7724   -1.3745   -0.1593 N   0  0  0  0  0  0  0  0  0  0  0  0
    1.6644   -0.4046   -0.7812 C   0  0  2  0  0  0  0  0  0  0  0  0
    0.8166    0.4953   -1.6290 C   0  0  0  0  0  0  0  0  0  0  0  0
    0.8304    0.3668   -2.8476 O   0  0  0  0  0  0  0  0  0  0  0  0
    2.6195   -1.2417   -1.6241 C   0  0  0  0  0  0  0  0  0  0  0  0
    2.1758   -2.2356   -0.5535 C   0  0  0  0  0  0  0  0  0  0  0  0
    0.7499   -2.6270   -0.9105 C   0  0  0  0  0  0  0  0  0  0  0  0
    2.1745    0.2007   -0.0258 H   0  0  0  0  0  0  0  0  0  0  0  0
    3.6296   -0.8175   -1.5784 H   0  0  0  0  0  0  0  0  0  0  0  0
    2.3218   -1.3211   -2.6742 H   0  0  0  0  0  0  0  0  0  0  0  0
    2.8084   -3.1304   -0.5781 H   0  0  0  0  0  0  0  0  0  0  0  0
    2.2249   -1.8085    0.4522 H   0  0  0  0  0  0  0  0  0  0  0  0
    0.5944   -2.7143   -1.9893 H   0  0  0  0  0  0  0  0  0  0  0  0
    0.4645   -3.5695   -0.4308 H   0  0  0  0  0  0  0  0  0  0  0  0
    0.0953    1.4255   -0.6019 N   0  0  0  0  0  0  0  0  0  0  0  0
   -0.9106    2.3708   -1.0305 C   0  0  2  0  0  0  0  0  0  0  0  0
   -2.1135    1.5825   -1.5317 C   0  0  0  0  0  0  0  0  0  0  0  0
   -2.0383    0.4186   -1.9200 O   0  0  0  0  0  0  0  0  0  0  0  0
   -0.3761    3.2943   -2.1140 C   0  0  0  0  0  0  0  0  0  0  0  0
    0.4201    1.4679    0.3594 H   0  0  0  0  0  0  0  0  0  0  0  0
   -1.1962    2.9512   -0.1465 H   0  0  0  0  0  0  0  0  0  0  0  0
   -0.0847    2.7306   -3.0078 H   0  0  0  0  0  0  0  0  0  0  0  0
   -1.1301    4.0281   -2.4174 H   0  0  0  0  0  0  0  0  0  0  0  0
    0.5069    3.8384   -1.7617 H   0  0  0  0  0  0  0  0  0  0  0  0
   -3.2728    2.3455   -1.5350 N   0  0  0  0  0  0  0  0  0  0  0  0
   -4.5458    1.8273   -1.9788 C   0  0  0  0  0  0  0  0  0  0  0  0
   -3.2465    3.2960   -1.1778 H   0  0  0  0  0  0  0  0  0  0  0  0
   -4.6802    2.0496   -3.0477 H   0  0  0  0  0  0  0  0  0  0  0  0
   -4.5723    0.7385   -1.8247 H   0  0  0  0  0  0  0  0  0  0  0  0
   -5.3548    2.2991   -1.4018 H   0  0  0  0  0  0  0  0  0  0  0  0
 18 19  1  0  0  0  0
 19 31  1  0  0  0  0
 19 20  2  0  0  0  0
  8  9  1  0  0  0  0
  9 17  1  0  0  0  0
  9 10  2  0  0  0  0
  1  3  1  0  0  0  0
  1  7  1  0  0  0  0
  1  2  2  0  0  0  0
 32 33  1  0  0  0  0
 33 41  1  0  0  0  0
 33 34  2  0  0  0  0
 21 22  1  0  0  0  0
 22 23  1  0  0  0  0
 18 21  1  0  0  0  0
 17 23  1  0  0  0  0
 17 18  1  0  0  0  0
  8 11  1  0  0  0  0
 32 35  1  0  0  0  0
 41 42  1  0  0  0  0
  7  8  1  0  0  0  0
 31 32  1  0  0  0  0
 22 27  1  0  0  0  0
 22 28  1  0  0  0  0
 21 25  1  0  0  0  0
 21 26  1  0  0  0  0
 23 29  1  0  0  0  0
 23 30  1  0  0  0  0
 18 24  1  0  0  0  0
  3  4  1  0  0  0  0
  3  5  1  0  0  0  0
  3  6  1  0  0  0  0
 11 14  1  0  0  0  0
 11 15  1  0  0  0  0
 11 16  1  0  0  0  0
 35 38  1  0  0  0  0
 35 39  1  0  0  0  0
 35 40  1  0  0  0  0
 42 44  1  0  0  0  0
 42 45  1  0  0  0  0
 42 46  1  0  0  0  0
  8 13  1  0  0  0  0
 32 37  1  0  0  0  0
 31 36  1  0  0  0  0
 41 43  1  0  0  0  0
  7 12  1  0  0  0  0
M  END
$$$$

  -OEChem-05262214473D

 46 46  0     1  0  0  0  0  0999 V2000
   -0.6012   -3.2995    3.8205 C   0  0  0  0  0  0  0  0  0  0  0  0
   -0.6574   -4.4683    3.4568 O   0  0  0  0  0  0  0  0  0  0  0  0
   -0.4935   -2.9859    5.2760 C   0  0  0  0  0  0  0  0  0  0  0  0
   -1.4789   -2.8689    5.7550 H   0  0  0  0  0  0  0  0  0  0  0  0
    0.0123   -3.7847    5.8419 H   0  0  0  0  0  0  0  0  0  0  0  0
    0.0585   -2.0642    5.5199 H   0  0  0  0  0  0  0  0  0  0  0  0
   -0.6261   -2.1849    2.9917 N   0  0  0  0  0  0  0  0  0  0  0  0
   -0.7237   -2.2601    1.5650 C   0  0  2  0  0  0  0  0  0  0  0  0
    0.1695   -1.1513    1.0687 C   0  0  0  0  0  0  0  0  0  0  0  0
    0.3193   -0.1267    1.7365 O   0  0  0  0  0  0  0  0  0  0  0  0
   -2.1397   -2.0663    1.0750 C   0  0  0  0  0  0  0  0  0  0  0  0
   -0.5717   -1.2606    3.4238 H   0  0  0  0  0  0  0  0  0  0  0  0
   -0.3076   -3.2111    1.2363 H   0  0  0  0  0  0  0  0  0  0  0  0
   -2.5584   -1.1089    1.4061 H   0  0  0  0  0  0  0  0  0  0  0  0
   -2.1682   -2.0790   -0.0197 H   0  0  0  0  0  0  0  0  0  0  0  0
   -2.7965   -2.8601    1.4459 H   0  0  0  0  0  0  0  0  0  0  0  0
    0.7724   -1.3745   -0.1593 N   0  0  0  0  0  0  0  0  0  0  0  0
    1.6644   -0.4046   -0.7812 C   0  0  2  0  0  0  0  0  0  0  0  0
    0.8166    0.4953   -1.6290 C   0  0  0  0  0  0  0  0  0  0  0  0
    0.6102    0.2032   -2.8011 O   0  0  0  0  0  0  0  0  0  0  0  0
    2.6195   -1.2417   -1.6241 C   0  0  0  0  0  0  0  0  0  0  0  0
    2.1758   -2.2356   -0.5535 C   0  0  0  0  0  0  0  0  0  0  0  0
    0.7499   -2.6270   -0.9105 C   0  0  0  0  0  0  0  0  0  0  0  0
    2.1745    0.2007   -0.0258 H   0  0  0  0  0  0  0  0  0  0  0  0
    3.6296   -0.8175   -1.5784 H   0  0  0  0  0  0  0  0  0  0  0  0
    2.3218   -1.3211   -2.6742 H   0  0  0  0  0  0  0  0  0  0  0  0
    2.8084   -3.1304   -0.5781 H   0  0  0  0  0  0  0  0  0  0  0  0
    2.2249   -1.8085    0.4522 H   0  0  0  0  0  0  0  0  0  0  0  0
    0.5944   -2.7143   -1.9893 H   0  0  0  0  0  0  0  0  0  0  0  0
    0.4645   -3.5695   -0.4308 H   0  0  0  0  0  0  0  0  0  0  0  0
    0.4082    1.6576   -0.6684 N   0  0  0  0  0  0  0  0  0  0  0  0
   -0.5182    2.6833   -1.0910 C   0  0  2  0  0  0  0  0  0  0  0  0
   -1.8828    2.0347   -1.2823 C   0  0  0  0  0  0  0  0  0  0  0  0
   -2.0308    0.8319   -1.4887 O   0  0  0  0  0  0  0  0  0  0  0  0
   -0.0518    3.3563   -2.3725 C   0  0  0  0  0  0  0  0  0  0  0  0
    0.8910    1.7773    0.2170 H   0  0  0  0  0  0  0  0  0  0  0  0
   -0.5720    3.4155   -0.2779 H   0  0  0  0  0  0  0  0  0  0  0  0
    0.0082    2.6383   -3.1986 H   0  0  0  0  0  0  0  0  0  0  0  0
   -0.7398    4.1523   -2.6758 H   0  0  0  0  0  0  0  0  0  0  0  0
    0.9427    3.7965   -2.2419 H   0  0  0  0  0  0  0  0  0  0  0  0
   -2.9130    2.9637   -1.2386 N   0  0  0  0  0  0  0  0  0  0  0  0
   -4.3001    2.5981   -1.4064 C   0  0  0  0  0  0  0  0  0  0  0  0
   -2.6998    3.9375   -1.0436 H   0  0  0  0  0  0  0  0  0  0  0  0
   -4.5792    2.6926   -2.4662 H   0  0  0  0  0  0  0  0  0  0  0  0
   -4.4471    1.5579   -1.0800 H   0  0  0  0  0  0  0  0  0  0  0  0
   -4.9309    3.2651   -0.8003 H   0  0  0  0  0  0  0  0  0  0  0  0
 18 19  1  0  0  0  0
 19 31  1  0  0  0  0
 19 20  2  0  0  0  0
  8  9  1  0  0  0  0
  9 17  1  0  0  0  0
  9 10  2  0  0  0  0
  1  3  1  0  0  0  0
  1  7  1  0  0  0  0
  1  2  2  0  0  0  0
 32 33  1  0  0  0  0
 33 41  1  0  0  0  0
 33 34  2  0  0  0  0
 21 22  1  0  0  0  0
 22 23  1  0  0  0  0
 18 21  1  0  0  0  0
 17 23  1  0  0  0  0
 17 18  1  0  0  0  0
  8 11  1  0  0  0  0
 32 35  1  0  0  0  0
 41 42  1  0  0  0  0
  7  8  1  0  0  0  0
 31 32  1  0  0  0  0
 22 27  1  0  0  0  0
 22 28  1  0  0  0  0
 21 25  1  0  0  0  0
 21 26  1  0  0  0  0
 23 29  1  0  0  0  0
 23 30  1  0  0  0  0
 18 24  1  0  0  0  0
  3  4  1  0  0  0  0
  3  5  1  0  0  0  0
  3  6  1  0  0  0  0
 11 14  1  0  0  0  0
 11 15  1  0  0  0  0
 11 16  1  0  0  0  0
 35 38  1  0  0  0  0
 35 39  1  0  0  0  0
 35 40  1  0  0  0  0
 42 44  1  0  0  0  0
 42 45  1  0  0  0  0
 42 46  1  0  0  0  0
  8 13  1  0  0  0  0
 32 37  1  0  0  0  0
 31 36  1  0  0  0  0
 41 43  1  0  0  0  0
  7 12  1  0  0  0  0
M  END
$$$$

  -OEChem-05262214473D

 46 46  0     1  0  0  0  0  0999 V2000
   -0.6012   -3.2995    3.8205 C   0  0  0  0  0  0  0  0  0  0  0  0
   -0.6574   -4.4683    3.4568 O   0  0  0  0  0  0  0  0  0  0  0  0
   -0.4935   -2.9859    5.2760 C   0  0  0  0  0  0  0  0  0  0  0  0
   -1.4789   -2.8689    5.7550 H   0  0  0  0  0  0  0  0  0  0  0  0
    0.0123   -3.7847    5.8419 H   0  0  0  0  0  0  0  0  0  0  0  0
    0.0585   -2.0642    5.5199 H   0  0  0  0  0  0  0  0  0  0  0  0
   -0.6261   -2.1849    2.9917 N   0  0  0  0  0  0  0  0  0  0  0  0
   -0.7237   -2.2601    1.5650 C   0  0  2  0  0  0  0  0  0  0  0  0
    0.1695   -1.1513    1.0687 C   0  0  0  0  0  0  0  0  0  0  0  0
    0.3193   -0.1267    1.7365 O   0  0  0  0  0  0  0  0  0  0  0  0
   -2.1397   -2.0663    1.0750 C   0  0  0  0  0  0  0  0  0  0  0  0
   -0.5717   -1.2606    3.4238 H   0  0  0  0  0  0  0  0  0  0  0  0
   -0.3076   -3.2111    1.2363 H   0  0  0  0  0  0  0  0  0  0  0  0
   -2.5584   -1.1089    1.4061 H   0  0  0  0  0  0  0  0  0  0  0  0
   -2.1682   -2.0790   -0.0197 H   0  0  0  0  0  0  0  0  0  0  0  0
   -2.7965   -2.8601    1.4459 H   0  0  0  0  0  0  0  0  0  0  0  0
    0.7724   -1.3745   -0.1593 N   0  0  0  0  0  0  0  0  0  0  0  0
    1.6644   -0.4046   -0.7812 C   0  0  2  0  0  0  0  0  0  0  0  0
    0.8166    0.4953   -1.6290 C   0  0  0  0  0  0  0  0  0  0  0  0
    0.3807    0.0841   -2.6980 O   0  0  0  0  0  0  0  0  0  0  0  0
    2.6195   -1.2417   -1.6241 C   0  0  0  0  0  0  0  0  0  0  0  0
    2.1758   -2.2356   -0.5535 C   0  0  0  0  0  0  0  0  0  0  0  0
    0.7499   -2.6270   -0.9105 C   0  0  0  0  0  0  0  0  0  0  0  0
    2.1745    0.2007   -0.0258 H   0  0  0  0  0  0  0  0  0  0  0  0
    3.6296   -0.8175   -1.5784 H   0  0  0  0  0  0  0  0  0  0  0  0
    2.3218   -1.3211   -2.6742 H   0  0  0  0  0  0  0  0  0  0  0  0
    2.8084   -3.1304   -0.5781 H   0  0  0  0  0  0  0  0  0  0  0  0
    2.2249   -1.8085    0.4522 H   0  0  0  0  0  0  0  0  0  0  0  0
    0.5944   -2.7143   -1.9893 H   0  0  0  0  0  0  0  0  0  0  0  0
    0.4645   -3.5695   -0.4308 H   0  0  0  0  0  0  0  0  0  0  0  0
    0.7341    1.8263   -0.8152 N   0  0  0  0  0  0  0  0  0  0  0  0
   -0.1029    2.9190   -1.2562 C   0  0  2  0  0  0  0  0  0  0  0  0
   -1.5551    2.4742   -1.1435 C   0  0  0  0  0  0  0  0  0  0  0  0
   -1.8961    1.2932   -1.1337 O   0  0  0  0  0  0  0  0  0  0  0  0
    0.2304    3.3308   -2.6817 C   0  0  0  0  0  0  0  0  0  0  0  0
    1.3691    1.9865   -0.0390 H   0  0  0  0  0  0  0  0  0  0  0  0
    0.0785    3.7532   -0.5698 H   0  0  0  0  0  0  0  0  0  0  0  0
    0.0549    2.5077   -3.3839 H   0  0  0  0  0  0  0  0  0  0  0  0
   -0.3849    4.1773   -3.0043 H   0  0  0  0  0  0  0  0  0  0  0  0
    1.2828    3.6220   -2.7673 H   0  0  0  0  0  0  0  0  0  0  0  0
   -2.4289    3.5515   -1.0986 N   0  0  0  0  0  0  0  0  0  0  0  0
   -3.8611    3.3904   -1.0044 C   0  0  0  0  0  0  0  0  0  0  0  0
   -2.0569    4.4967   -1.0928 H   0  0  0  0  0  0  0  0  0  0  0  0
   -4.2971    3.3841   -2.0142 H   0  0  0  0  0  0  0  0  0  0  0  0
   -4.0906    2.4401   -0.5001 H   0  0  0  0  0  0  0  0  0  0  0  0
   -4.2865    4.2241   -0.4266 H   0  0  0  0  0  0  0  0  0  0  0  0
 18 19  1  0  0  0  0
 19 31  1  0  0  0  0
 19 20  2  0  0  0  0
  8  9  1  0  0  0  0
  9 17  1  0  0  0  0
  9 10  2  0  0  0  0
  1  3  1  0  0  0  0
  1  7  1  0  0  0  0
  1  2  2  0  0  0  0
 32 33  1  0  0  0  0
 33 41  1  0  0  0  0
 33 34  2  0  0  0  0
 21 22  1  0  0  0  0
 22 23  1  0  0  0  0
 18 21  1  0  0  0  0
 17 23  1  0  0  0  0
 17 18  1  0  0  0  0
  8 11  1  0  0  0  0
 32 35  1  0  0  0  0
 41 42  1  0  0  0  0
  7  8  1  0  0  0  0
 31 32  1  0  0  0  0
 22 27  1  0  0  0  0
 22 28  1  0  0  0  0
 21 25  1  0  0  0  0
 21 26  1  0  0  0  0
 23 29  1  0  0  0  0
 23 30  1  0  0  0  0
 18 24  1  0  0  0  0
  3  4  1  0  0  0  0
  3  5  1  0  0  0  0
  3  6  1  0  0  0  0
 11 14  1  0  0  0  0
 11 15  1  0  0  0  0
 11 16  1  0  0  0  0
 35 38  1  0  0  0  0
 35 39  1  0  0  0  0
 35 40  1  0  0  0  0
 42 44  1  0  0  0  0
 42 45  1  0  0  0  0
 42 46  1  0  0  0  0
  8 13  1  0  0  0  0
 32 37  1  0  0  0  0
 31 36  1  0  0  0  0
 41 43  1  0  0  0  0
  7 12  1  0  0  0  0
M  END
$$$$

  -OEChem-05262214473D

 46 46  0     1  0  0  0  0  0999 V2000
   -0.6012   -3.2995    3.8205 C   0  0  0  0  0  0  0  0  0  0  0  0
   -0.6574   -4.4683    3.4568 O   0  0  0  0  0  0  0  0  0  0  0  0
   -0.4935   -2.9859    5.2760 C   0  0  0  0  0  0  0  0  0  0  0  0
   -1.4789   -2.8689    5.7550 H   0  0  0  0  0  0  0  0  0  0  0  0
    0.0123   -3.7847    5.8419 H   0  0  0  0  0  0  0  0  0  0  0  0
    0.0585   -2.0642    5.5199 H   0  0  0  0  0  0  0  0  0  0  0  0
   -0.6261   -2.1849    2.9917 N   0  0  0  0  0  0  0  0  0  0  0  0
   -0.7237   -2.2601    1.5650 C   0  0  2  0  0  0  0  0  0  0  0  0
    0.1695   -1.1513    1.0687 C   0  0  0  0  0  0  0  0  0  0  0  0
    0.3193   -0.1267    1.7365 O   0  0  0  0  0  0  0  0  0  0  0  0
   -2.1397   -2.0663    1.0750 C   0  0  0  0  0  0  0  0  0  0  0  0
   -0.5717   -1.2606    3.4238 H   0  0  0  0  0  0  0  0  0  0  0  0
   -0.3076   -3.2111    1.2363 H   0  0  0  0  0  0  0  0  0  0  0  0
   -2.5584   -1.1089    1.4061 H   0  0  0  0  0  0  0  0  0  0  0  0
   -2.1682   -2.0790   -0.0197 H   0  0  0  0  0  0  0  0  0  0  0  0
   -2.7965   -2.8601    1.4459 H   0  0  0  0  0  0  0  0  0  0  0  0
    0.7724   -1.3745   -0.1593 N   0  0  0  0  0  0  0  0  0  0  0  0
    1.6644   -0.4046   -0.7812 C   0  0  2  0  0  0  0  0  0  0  0  0
    0.8166    0.4953   -1.6290 C   0  0  0  0  0  0  0  0  0  0  0  0
    0.1577    0.0178   -2.5453 O   0  0  0  0  0  0  0  0  0  0  0  0
    2.6195   -1.2417   -1.6241 C   0  0  0  0  0  0  0  0  0  0  0  0
    2.1758   -2.2356   -0.5535 C   0  0  0  0  0  0  0  0  0  0  0  0
    0.7499   -2.6270   -0.9105 C   0  0  0  0  0  0  0  0  0  0  0  0
    2.1745    0.2007   -0.0258 H   0  0  0  0  0  0  0  0  0  0  0  0
    3.6296   -0.8175   -1.5784 H   0  0  0  0  0  0  0  0  0  0  0  0
    2.3218   -1.3211   -2.6742 H   0  0  0  0  0  0  0  0  0  0  0  0
    2.8084   -3.1304   -0.5781 H   0  0  0  0  0  0  0  0  0  0  0  0
    2.2249   -1.8085    0.4522 H   0  0  0  0  0  0  0  0  0  0  0  0
    0.5944   -2.7143   -1.9893 H   0  0  0  0  0  0  0  0  0  0  0  0
    0.4645   -3.5695   -0.4308 H   0  0  0  0  0  0  0  0  0  0  0  0
    1.0507    1.9200   -1.0324 N   0  0  0  0  0  0  0  0  0  0  0  0
    0.3071    3.0616   -1.5148 C   0  0  2  0  0  0  0  0  0  0  0  0
   -1.1527    2.8711   -1.1246 C   0  0  0  0  0  0  0  0  0  0  0  0
   -1.6433    1.7710   -0.8793 O   0  0  0  0  0  0  0  0  0  0  0  0
    0.4512    3.2197   -3.0204 C   0  0  0  0  0  0  0  0  0  0  0  0
    1.8216    2.0810   -0.3912 H   0  0  0  0  0  0  0  0  0  0  0  0
    0.7109    3.9416   -1.0023 H   0  0  0  0  0  0  0  0  0  0  0  0
    0.0520    2.3476   -3.5510 H   0  0  0  0  0  0  0  0  0  0  0  0
   -0.0894    4.1014   -3.3803 H   0  0  0  0  0  0  0  0  0  0  0  0
    1.5042    3.3268   -3.3021 H   0  0  0  0  0  0  0  0  0  0  0  0
   -1.8535    4.0690   -1.1247 N   0  0  0  0  0  0  0  0  0  0  0  0
   -3.2586    4.1502   -0.8003 C   0  0  0  0  0  0  0  0  0  0  0  0
   -1.3618    4.9356   -1.3220 H   0  0  0  0  0  0  0  0  0  0  0  0
   -3.8533    4.0768   -1.7228 H   0  0  0  0  0  0  0  0  0  0  0  0
   -3.5270    3.3249   -0.1245 H   0  0  0  0  0  0  0  0  0  0  0  0
   -3.4657    5.1109   -0.3061 H   0  0  0  0  0  0  0  0  0  0  0  0
 18 19  1  0  0  0  0
 19 31  1  0  0  0  0
 19 20  2  0  0  0  0
  8  9  1  0  0  0  0
  9 17  1  0  0  0  0
  9 10  2  0  0  0  0
  1  3  1  0  0  0  0
  1  7  1  0  0  0  0
  1  2  2  0  0  0  0
 32 33  1  0  0  0  0
 33 41  1  0  0  0  0
 33 34  2  0  0  0  0
 21 22  1  0  0  0  0
 22 23  1  0  0  0  0
 18 21  1  0  0  0  0
 17 23  1  0  0  0  0
 17 18  1  0  0  0  0
  8 11  1  0  0  0  0
 32 35  1  0  0  0  0
 41 42  1  0  0  0  0
  7  8  1  0  0  0  0
 31 32  1  0  0  0  0
 22 27  1  0  0  0  0
 22 28  1  0  0  0  0
 21 25  1  0  0  0  0
 21 26  1  0  0  0  0
 23 29  1  0  0  0  0
 23 30  1  0  0  0  0
 18 24  1  0  0  0  0
  3  4  1  0  0  0  0
  3  5  1  0  0  0  0
  3  6  1  0  0  0  0
 11 14  1  0  0  0  0
 11 15  1  0  0  0  0
 11 16  1  0  0  0  0
 35 38  1  0  0  0  0
 35 39  1  0  0  0  0
 35 40  1  0  0  0  0
 42 44  1  0  0  0  0
 42 45  1  0  0  0  0
 42 46  1  0  0  0  0
  8 13  1  0  0  0  0
 32 37  1  0  0  0  0
 31 36  1  0  0  0  0
 41 43  1  0  0  0  0
  7 12  1  0  0  0  0
M  END
$$$$

  -OEChem-05262214473D

 46 46  0     1  0  0  0  0  0999 V2000
   -0.6012   -3.2995    3.8205 C   0  0  0  0  0  0  0  0  0  0  0  0
   -0.6574   -4.4683    3.4568 O   0  0  0  0  0  0  0  0  0  0  0  0
   -0.4935   -2.9859    5.2760 C   0  0  0  0  0  0  0  0  0  0  0  0
   -1.4789   -2.8689    5.7550 H   0  0  0  0  0  0  0  0  0  0  0  0
    0.0123   -3.7847    5.8419 H   0  0  0  0  0  0  0  0  0  0  0  0
    0.0585   -2.0642    5.5199 H   0  0  0  0  0  0  0  0  0  0  0  0
   -0.6261   -2.1849    2.9917 N   0  0  0  0  0  0  0  0  0  0  0  0
   -0.7237   -2.2601    1.5650 C   0  0  2  0  0  0  0  0  0  0  0  0
    0.1695   -1.1513    1.0687 C   0  0  0  0  0  0  0  0  0  0  0  0
    0.3193   -0.1267    1.7365 O   0  0  0  0  0  0  0  0  0  0  0  0
   -2.1397   -2.0663    1.0750 C   0  0  0  0  0  0  0  0  0  0  0  0
   -0.5717   -1.2606    3.4238 H   0  0  0  0  0  0  0  0  0  0  0  0
   -0.3076   -3.2111    1.2363 H   0  0  0  0  0  0  0  0  0  0  0  0
   -2.5584   -1.1089    1.4061 H   0  0  0  0  0  0  0  0  0  0  0  0
   -2.1682   -2.0790   -0.0197 H   0  0  0  0  0  0  0  0  0  0  0  0
   -2.7965   -2.8601    1.4459 H   0  0  0  0  0  0  0  0  0  0  0  0
    0.7724   -1.3745   -0.1593 N   0  0  0  0  0  0  0  0  0  0  0  0
    1.6644   -0.4046   -0.7812 C   0  0  2  0  0  0  0  0  0  0  0  0
    0.8166    0.4953   -1.6290 C   0  0  0  0  0  0  0  0  0  0  0  0
   -0.0438    0.0088   -2.3534 O   0  0  0  0  0  0  0  0  0  0  0  0
    2.6195   -1.2417   -1.6241 C   0  0  0  0  0  0  0  0  0  0  0  0
    2.1758   -2.2356   -0.5535 C   0  0  0  0  0  0  0  0  0  0  0  0
    0.7499   -2.6270   -0.9105 C   0  0  0  0  0  0  0  0  0  0  0  0
    2.1745    0.2007   -0.0258 H   0  0  0  0  0  0  0  0  0  0  0  0
    3.6296   -0.8175   -1.5784 H   0  0  0  0  0  0  0  0  0  0  0  0
    2.3218   -1.3211   -2.6742 H   0  0  0  0  0  0  0  0  0  0  0  0
    2.8084   -3.1304   -0.5781 H   0  0  0  0  0  0  0  0  0  0  0  0
    2.2249   -1.8085    0.4522 H   0  0  0  0  0  0  0  0  0  0  0  0
    0.5944   -2.7143   -1.9893 H   0  0  0  0  0  0  0  0  0  0  0  0
    0.4645   -3.5695   -0.4308 H   0  0  0  0  0  0  0  0  0  0  0  0
    1.3365    1.9324   -1.3050 N   0  0  0  0  0  0  0  0  0  0  0  0
    0.6838    3.1016   -1.8492 C   0  0  2  0  0  0  0  0  0  0  0  0
   -0.7029    3.1983   -1.2271 C   0  0  0  0  0  0  0  0  0  0  0  0
   -1.2897    2.2328   -0.7428 O   0  0  0  0  0  0  0  0  0  0  0  0
    0.5955    3.0305   -3.3657 C   0  0  0  0  0  0  0  0  0  0  0  0
    2.2179    2.0546   -0.8155 H   0  0  0  0  0  0  0  0  0  0  0  0
    1.2821    3.9677   -1.5458 H   0  0  0  0  0  0  0  0  0  0  0  0
   -0.0002    2.1689   -3.6886 H   0  0  0  0  0  0  0  0  0  0  0  0
    0.1266    3.9298   -3.7784 H   0  0  0  0  0  0  0  0  0  0  0  0
    1.5918    2.9310   -3.8099 H   0  0  0  0  0  0  0  0  0  0  0  0
   -1.2261    4.4808   -1.3150 N   0  0  0  0  0  0  0  0  0  0  0  0
   -2.5337    4.8259   -0.8080 C   0  0  0  0  0  0  0  0  0  0  0  0
   -0.6617    5.2242   -1.7157 H   0  0  0  0  0  0  0  0  0  0  0  0
   -3.2778    4.7236   -1.6115 H   0  0  0  0  0  0  0  0  0  0  0  0
   -2.7948    4.1520    0.0213 H   0  0  0  0  0  0  0  0  0  0  0  0
   -2.5243    5.8649   -0.4471 H   0  0  0  0  0  0  0  0  0  0  0  0
 18 19  1  0  0  0  0
 19 31  1  0  0  0  0
 19 20  2  0  0  0  0
  8  9  1  0  0  0  0
  9 17  1  0  0  0  0
  9 10  2  0  0  0  0
  1  3  1  0  0  0  0
  1  7  1  0  0  0  0
  1  2  2  0  0  0  0
 32 33  1  0  0  0  0
 33 41  1  0  0  0  0
 33 34  2  0  0  0  0
 21 22  1  0  0  0  0
 22 23  1  0  0  0  0
 18 21  1  0  0  0  0
 17 23  1  0  0  0  0
 17 18  1  0  0  0  0
  8 11  1  0  0  0  0
 32 35  1  0  0  0  0
 41 42  1  0  0  0  0
  7  8  1  0  0  0  0
 31 32  1  0  0  0  0
 22 27  1  0  0  0  0
 22 28  1  0  0  0  0
 21 25  1  0  0  0  0
 21 26  1  0  0  0  0
 23 29  1  0  0  0  0
 23 30  1  0  0  0  0
 18 24  1  0  0  0  0
  3  4  1  0  0  0  0
  3  5  1  0  0  0  0
  3  6  1  0  0  0  0
 11 14  1  0  0  0  0
 11 15  1  0  0  0  0
 11 16  1  0  0  0  0
 35 38  1  0  0  0  0
 35 39  1  0  0  0  0
 35 40  1  0  0  0  0
 42 44  1  0  0  0  0
 42 45  1  0  0  0  0
 42 46  1  0  0  0  0
  8 13  1  0  0  0  0
 32 37  1  0  0  0  0
 31 36  1  0  0  0  0
 41 43  1  0  0  0  0
  7 12  1  0  0  0  0
M  END
$$$$

  -OEChem-05262214473D

 46 46  0     1  0  0  0  0  0999 V2000
   -0.6012   -3.2995    3.8205 C   0  0  0  0  0  0  0  0  0  0  0  0
   -0.6574   -4.4683    3.4568 O   0  0  0  0  0  0  0  0  0  0  0  0
   -0.4935   -2.9859    5.2760 C   0  0  0  0  0  0  0  0  0  0  0  0
   -1.4789   -2.8689    5.7550 H   0  0  0  0  0  0  0  0  0  0  0  0
    0.0123   -3.7847    5.8419 H   0  0  0  0  0  0  0  0  0  0  0  0
    0.0585   -2.0642    5.5199 H   0  0  0  0  0  0  0  0  0  0  0  0
   -0.6261   -2.1849    2.9917 N   0  0  0  0  0  0  0  0  0  0  0  0
   -0.7237   -2.2601    1.5650 C   0  0  2  0  0  0  0  0  0  0  0  0
    0.1695   -1.1513    1.0687 C   0  0  0  0  0  0  0  0  0  0  0  0
    0.3193   -0.1267    1.7365 O   0  0  0  0  0  0  0  0  0  0  0  0
   -2.1397   -2.0663    1.0750 C   0  0  0  0  0  0  0  0  0  0  0  0
   -0.5717   -1.2606    3.4238 H   0  0  0  0  0  0  0  0  0  0  0  0
   -0.3076   -3.2111    1.2363 H   0  0  0  0  0  0  0  0  0  0  0  0
   -2.5584   -1.1089    1.4061 H   0  0  0  0  0  0  0  0  0  0  0  0
   -2.1682   -2.0790   -0.0197 H   0  0  0  0  0  0  0  0  0  0  0  0
   -2.7965   -2.8601    1.4459 H   0  0  0  0  0  0  0  0  0  0  0  0
    0.7724   -1.3745   -0.1593 N   0  0  0  0  0  0  0  0  0  0  0  0
    1.6644   -0.4046   -0.7812 C   0  0  2  0  0  0  0  0  0  0  0  0
    0.8166    0.4953   -1.6290 C   0  0  0  0  0  0  0  0  0  0  0  0
   -0.2099    0.0576   -2.1355 O   0  0  0  0  0  0  0  0  0  0  0  0
    2.6195   -1.2417   -1.6241 C   0  0  0  0  0  0  0  0  0  0  0  0
    2.1758   -2.2356   -0.5535 C   0  0  0  0  0  0  0  0  0  0  0  0
    0.7499   -2.6270   -0.9105 C   0  0  0  0  0  0  0  0  0  0  0  0
    2.1745    0.2007   -0.0258 H   0  0  0  0  0  0  0  0  0  0  0  0
    3.6296   -0.8175   -1.5784 H   0  0  0  0  0  0  0  0  0  0  0  0
    2.3218   -1.3211   -2.6742 H   0  0  0  0  0  0  0  0  0  0  0  0
    2.8084   -3.1304   -0.5781 H   0  0  0  0  0  0  0  0  0  0  0  0
    2.2249   -1.8085    0.4522 H   0  0  0  0  0  0  0  0  0  0  0  0
    0.5944   -2.7143   -1.9893 H   0  0  0  0  0  0  0  0  0  0  0  0
    0.4645   -3.5695   -0.4308 H   0  0  0  0  0  0  0  0  0  0  0  0
    1.5721    1.8626   -1.6146 N   0  0  0  0  0  0  0  0  0  0  0  0
    1.0016    3.0361   -2.2365 C   0  0  2  0  0  0  0  0  0  0  0  0
   -0.2365    3.4336   -1.4437 C   0  0  0  0  0  0  0  0  0  0  0  0
   -0.8593    2.6471   -0.7334 O   0  0  0  0  0  0  0  0  0  0  0  0
    0.6536    2.7761   -3.6939 C   0  0  0  0  0  0  0  0  0  0  0  0
    2.5309    1.9090   -1.2831 H   0  0  0  0  0  0  0  0  0  0  0  0
    1.7532    3.8297   -2.1634 H   0  0  0  0  0  0  0  0  0  0  0  0
   -0.0981    1.9838   -3.7872 H   0  0  0  0  0  0  0  0  0  0  0  0
    0.2481    3.6742   -4.1713 H   0  0  0  0  0  0  0  0  0  0  0  0
    1.5396    2.4615   -4.2560 H   0  0  0  0  0  0  0  0  0  0  0  0
   -0.5893    4.7588   -1.6567 N   0  0  0  0  0  0  0  0  0  0  0  0
   -1.7357    5.3713   -1.0269 C   0  0  0  0  0  0  0  0  0  0  0  0
   -0.0044    5.3430   -2.2470 H   0  0  0  0  0  0  0  0  0  0  0  0
   -2.6101    5.2805   -1.6882 H   0  0  0  0  0  0  0  0  0  0  0  0
   -1.9437    4.8651   -0.0727 H   0  0  0  0  0  0  0  0  0  0  0  0
   -1.5265    6.4349   -0.8398 H   0  0  0  0  0  0  0  0  0  0  0  0
 18 19  1  0  0  0  0
 19 31  1  0  0  0  0
 19 20  2  0  0  0  0
  8  9  1  0  0  0  0
  9 17  1  0  0  0  0
  9 10  2  0  0  0  0
  1  3  1  0  0  0  0
  1  7  1  0  0  0  0
  1  2  2  0  0  0  0
 32 33  1  0  0  0  0
 33 41  1  0  0  0  0
 33 34  2  0  0  0  0
 21 22  1  0  0  0  0
 22 23  1  0  0  0  0
 18 21  1  0  0  0  0
 17 23  1  0  0  0  0
 17 18  1  0  0  0  0
  8 11  1  0  0  0  0
 32 35  1  0  0  0  0
 41 42  1  0  0  0  0
  7  8  1  0  0  0  0
 31 32  1  0  0  0  0
 22 27  1  0  0  0  0
 22 28  1  0  0  0  0
 21 25  1  0  0  0  0
 21 26  1  0  0  0  0
 23 29  1  0  0  0  0
 23 30  1  0  0  0  0
 18 24  1  0  0  0  0
  3  4  1  0  0  0  0
  3  5  1  0  0  0  0
  3  6  1  0  0  0  0
 11 14  1  0  0  0  0
 11 15  1  0  0  0  0
 11 16  1  0  0  0  0
 35 38  1  0  0  0  0
 35 39  1  0  0  0  0
 35 40  1  0  0  0  0
 42 44  1  0  0  0  0
 42 45  1  0  0  0  0
 42 46  1  0  0  0  0
  8 13  1  0  0  0  0
 32 37  1  0  0  0  0
 31 36  1  0  0  0  0
 41 43  1  0  0  0  0
  7 12  1  0  0  0  0
M  END
$$$$

  -OEChem-05262214473D

 46 46  0     1  0  0  0  0  0999 V2000
   -0.6012   -3.2995    3.8205 C   0  0  0  0  0  0  0  0  0  0  0  0
   -0.6574   -4.4683    3.4568 O   0  0  0  0  0  0  0  0  0  0  0  0
   -0.4935   -2.9859    5.2760 C   0  0  0  0  0  0  0  0  0  0  0  0
   -1.4789   -2.8689    5.7550 H   0  0  0  0  0  0  0  0  0  0  0  0
    0.0123   -3.7847    5.8419 H   0  0  0  0  0  0  0  0  0  0  0  0
    0.0585   -2.0642    5.5199 H   0  0  0  0  0  0  0  0  0  0  0  0
   -0.6261   -2.1849    2.9917 N   0  0  0  0  0  0  0  0  0  0  0  0
   -0.7237   -2.2601    1.5650 C   0  0  2  0  0  0  0  0  0  0  0  0
    0.1695   -1.1513    1.0687 C   0  0  0  0  0  0  0  0  0  0  0  0
    0.3193   -0.1267    1.7365 O   0  0  0  0  0  0  0  0  0  0  0  0
   -2.1397   -2.0663    1.0750 C   0  0  0  0  0  0  0  0  0  0  0  0
   -0.5717   -1.2606    3.4238 H   0  0  0  0  0  0  0  0  0  0  0  0
   -0.3076   -3.2111    1.2363 H   0  0  0  0  0  0  0  0  0  0  0  0
   -2.5584   -1.1089    1.4061 H   0  0  0  0  0  0  0  0  0  0  0  0
   -2.1682   -2.0790   -0.0197 H   0  0  0  0  0  0  0  0  0  0  0  0
   -2.7965   -2.8601    1.4459 H   0  0  0  0  0  0  0  0  0  0  0  0
    0.7724   -1.3745   -0.1593 N   0  0  0  0  0  0  0  0  0  0  0  0
    1.6644   -0.4046   -0.7812 C   0  0  2  0  0  0  0  0  0  0  0  0
    0.8166    0.4953   -1.6290 C   0  0  0  0  0  0  0  0  0  0  0  0
   -0.3293    0.1610   -1.9064 O   0  0  0  0  0  0  0  0  0  0  0  0
    2.6195   -1.2417   -1.6241 C   0  0  0  0  0  0  0  0  0  0  0  0
    2.1758   -2.2356   -0.5535 C   0  0  0  0  0  0  0  0  0  0  0  0
    0.7499   -2.6270   -0.9105 C   0  0  0  0  0  0  0  0  0  0  0  0
    2.1745    0.2007   -0.0258 H   0  0  0  0  0  0  0  0  0  0  0  0
    3.6296   -0.8175   -1.5784 H   0  0  0  0  0  0  0  0  0  0  0  0
    2.3218   -1.3211   -2.6742 H   0  0  0  0  0  0  0  0  0  0  0  0
    2.8084   -3.1304   -0.5781 H   0  0  0  0  0  0  0  0  0  0  0  0
    2.2249   -1.8085    0.4522 H   0  0  0  0  0  0  0  0  0  0  0  0
    0.5944   -2.7143   -1.9893 H   0  0  0  0  0  0  0  0  0  0  0  0
    0.4645   -3.5695   -0.4308 H   0  0  0  0  0  0  0  0  0  0  0  0
    1.7413    1.7155   -1.9401 N   0  0  0  0  0  0  0  0  0  0  0  0
    1.2388    2.8696   -2.6504 C   0  0  2  0  0  0  0  0  0  0  0  0
    0.2148    3.5608   -1.7599 C   0  0  0  0  0  0  0  0  0  0  0  0
   -0.3815    2.9856   -0.8519 O   0  0  0  0  0  0  0  0  0  0  0  0
    0.6215    2.4737   -3.9827 C   0  0  0  0  0  0  0  0  0  0  0  0
    2.7392    1.6540   -1.7621 H   0  0  0  0  0  0  0  0  0  0  0  0
    2.0921    3.5371   -2.8129 H   0  0  0  0  0  0  0  0  0  0  0  0
   -0.2351    1.8049   -3.8401 H   0  0  0  0  0  0  0  0  0  0  0  0
    0.2671    3.3520   -4.5323 H   0  0  0  0  0  0  0  0  0  0  0  0
    1.3510    1.9503   -4.6101 H   0  0  0  0  0  0  0  0  0  0  0  0
    0.0134    4.8842   -2.1263 N   0  0  0  0  0  0  0  0  0  0  0  0
   -0.9192    5.7493   -1.4422 C   0  0  0  0  0  0  0  0  0  0  0  0
    0.5653    5.2837   -2.8797 H   0  0  0  0  0  0  0  0  0  0  0  0
   -1.8955    5.7094   -1.9475 H   0  0  0  0  0  0  0  0  0  0  0  0
   -1.0320    5.4156   -0.4001 H   0  0  0  0  0  0  0  0  0  0  0  0
   -0.5404    6.7819   -1.4577 H   0  0  0  0  0  0  0  0  0  0  0  0
 18 19  1  0  0  0  0
 19 31  1  0  0  0  0
 19 20  2  0  0  0  0
  8  9  1  0  0  0  0
  9 17  1  0  0  0  0
  9 10  2  0  0  0  0
  1  3  1  0  0  0  0
  1  7  1  0  0  0  0
  1  2  2  0  0  0  0
 32 33  1  0  0  0  0
 33 41  1  0  0  0  0
 33 34  2  0  0  0  0
 21 22  1  0  0  0  0
 22 23  1  0  0  0  0
 18 21  1  0  0  0  0
 17 23  1  0  0  0  0
 17 18  1  0  0  0  0
  8 11  1  0  0  0  0
 32 35  1  0  0  0  0
 41 42  1  0  0  0  0
  7  8  1  0  0  0  0
 31 32  1  0  0  0  0
 22 27  1  0  0  0  0
 22 28  1  0  0  0  0
 21 25  1  0  0  0  0
 21 26  1  0  0  0  0
 23 29  1  0  0  0  0
 23 30  1  0  0  0  0
 18 24  1  0  0  0  0
  3  4  1  0  0  0  0
  3  5  1  0  0  0  0
  3  6  1  0  0  0  0
 11 14  1  0  0  0  0
 11 15  1  0  0  0  0
 11 16  1  0  0  0  0
 35 38  1  0  0  0  0
 35 39  1  0  0  0  0
 35 40  1  0  0  0  0
 42 44  1  0  0  0  0
 42 45  1  0  0  0  0
 42 46  1  0  0  0  0
  8 13  1  0  0  0  0
 32 37  1  0  0  0  0
 31 36  1  0  0  0  0
 41 43  1  0  0  0  0
  7 12  1  0  0  0  0
M  END
$$$$

  -OEChem-05262214473D

 46 46  0     1  0  0  0  0  0999 V2000
   -0.6012   -3.2995    3.8205 C   0  0  0  0  0  0  0  0  0  0  0  0
   -0.6574   -4.4683    3.4568 O   0  0  0  0  0  0  0  0  0  0  0  0
   -0.4935   -2.9859    5.2760 C   0  0  0  0  0  0  0  0  0  0  0  0
   -1.4789   -2.8689    5.7550 H   0  0  0  0  0  0  0  0  0  0  0  0
    0.0123   -3.7847    5.8419 H   0  0  0  0  0  0  0  0  0  0  0  0
    0.0585   -2.0642    5.5199 H   0  0  0  0  0  0  0  0  0  0  0  0
   -0.6261   -2.1849    2.9917 N   0  0  0  0  0  0  0  0  0  0  0  0
   -0.7237   -2.2601    1.5650 C   0  0  2  0  0  0  0  0  0  0  0  0
    0.1695   -1.1513    1.0687 C   0  0  0  0  0  0  0  0  0  0  0  0
    0.3193   -0.1267    1.7365 O   0  0  0  0  0  0  0  0  0  0  0  0
   -2.1397   -2.0663    1.0750 C   0  0  0  0  0  0  0  0  0  0  0  0
   -0.5717   -1.2606    3.4238 H   0  0  0  0  0  0  0  0  0  0  0  0
   -0.3076   -3.2111    1.2363 H   0  0  0  0  0  0  0  0  0  0  0  0
   -2.5584   -1.1089    1.4061 H   0  0  0  0  0  0  0  0  0  0  0  0
   -2.1682   -2.0790   -0.0197 H   0  0  0  0  0  0  0  0  0  0  0  0
   -2.7965   -2.8601    1.4459 H   0  0  0  0  0  0  0  0  0  0  0  0
    0.7724   -1.3745   -0.1593 N   0  0  0  0  0  0  0  0  0  0  0  0
    1.6644   -0.4046   -0.7812 C   0  0  2  0  0  0  0  0  0  0  0  0
    0.8166    0.4953   -1.6290 C   0  0  0  0  0  0  0  0  0  0  0  0
   -0.3939    0.3119   -1.6816 O   0  0  0  0  0  0  0  0  0  0  0  0
    2.6195   -1.2417   -1.6241 C   0  0  0  0  0  0  0  0  0  0  0  0
    2.1758   -2.2356   -0.5535 C   0  0  0  0  0  0  0  0  0  0  0  0
    0.7499   -2.6270   -0.9105 C   0  0  0  0  0  0  0  0  0  0  0  0
    2.1745    0.2007   -0.0258 H   0  0  0  0  0  0  0  0  0  0  0  0
    3.6296   -0.8175   -1.5784 H   0  0  0  0  0  0  0  0  0  0  0  0
    2.3218   -1.3211   -2.6742 H   0  0  0  0  0  0  0  0  0  0  0  0
    2.8084   -3.1304   -0.5781 H   0  0  0  0  0  0  0  0  0  0  0  0
    2.2249   -1.8085    0.4522 H   0  0  0  0  0  0  0  0  0  0  0  0
    0.5944   -2.7143   -1.9893 H   0  0  0  0  0  0  0  0  0  0  0  0
    0.4645   -3.5695   -0.4308 H   0  0  0  0  0  0  0  0  0  0  0  0
    1.8326    1.5009   -2.2592 N   0  0  0  0  0  0  0  0  0  0  0  0
    1.3793    2.6134   -3.0627 C   0  0  2  0  0  0  0  0  0  0  0  0
    0.6202    3.5714   -2.1541 C   0  0  0  0  0  0  0  0  0  0  0  0
    0.1112    3.2253   -1.0901 O   0  0  0  0  0  0  0  0  0  0  0  0
    0.5014    2.1441   -4.2124 C   0  0  0  0  0  0  0  0  0  0  0  0
    2.8287    1.3072   -2.2198 H   0  0  0  0  0  0  0  0  0  0  0  0
    2.2757    3.1097   -3.4502 H   0  0  0  0  0  0  0  0  0  0  0  0
   -0.4018    1.6444   -3.8437 H   0  0  0  0  0  0  0  0  0  0  0  0
    0.1822    2.9852   -4.8368 H   0  0  0  0  0  0  0  0  0  0  0  0
    1.0391    1.4323   -4.8480 H   0  0  0  0  0  0  0  0  0  0  0  0
    0.5410    4.8484   -2.6919 N   0  0  0  0  0  0  0  0  0  0  0  0
   -0.1397    5.9341   -2.0256 C   0  0  0  0  0  0  0  0  0  0  0  0
    1.0087    5.0504   -3.5706 H   0  0  0  0  0  0  0  0  0  0  0  0
   -1.1827    5.9812   -2.3718 H   0  0  0  0  0  0  0  0  0  0  0  0
   -0.1215    5.7660   -0.9386 H   0  0  0  0  0  0  0  0  0  0  0  0
    0.3670    6.8823   -2.2585 H   0  0  0  0  0  0  0  0  0  0  0  0
 18 19  1  0  0  0  0
 19 31  1  0  0  0  0
 19 20  2  0  0  0  0
  8  9  1  0  0  0  0
  9 17  1  0  0  0  0
  9 10  2  0  0  0  0
  1  3  1  0  0  0  0
  1  7  1  0  0  0  0
  1  2  2  0  0  0  0
 32 33  1  0  0  0  0
 33 41  1  0  0  0  0
 33 34  2  0  0  0  0
 21 22  1  0  0  0  0
 22 23  1  0  0  0  0
 18 21  1  0  0  0  0
 17 23  1  0  0  0  0
 17 18  1  0  0  0  0
  8 11  1  0  0  0  0
 32 35  1  0  0  0  0
 41 42  1  0  0  0  0
  7  8  1  0  0  0  0
 31 32  1  0  0  0  0
 22 27  1  0  0  0  0
 22 28  1  0  0  0  0
 21 25  1  0  0  0  0
 21 26  1  0  0  0  0
 23 29  1  0  0  0  0
 23 30  1  0  0  0  0
 18 24  1  0  0  0  0
  3  4  1  0  0  0  0
  3  5  1  0  0  0  0
  3  6  1  0  0  0  0
 11 14  1  0  0  0  0
 11 15  1  0  0  0  0
 11 16  1  0  0  0  0
 35 38  1  0  0  0  0
 35 39  1  0  0  0  0
 35 40  1  0  0  0  0
 42 44  1  0  0  0  0
 42 45  1  0  0  0  0
 42 46  1  0  0  0  0
  8 13  1  0  0  0  0
 32 37  1  0  0  0  0
 31 36  1  0  0  0  0
 41 43  1  0  0  0  0
  7 12  1  0  0  0  0
M  END
$$$$

  -OEChem-05262214473D

 46 46  0     1  0  0  0  0  0999 V2000
   -0.6012   -3.2995    3.8205 C   0  0  0  0  0  0  0  0  0  0  0  0
   -0.6574   -4.4683    3.4568 O   0  0  0  0  0  0  0  0  0  0  0  0
   -0.4935   -2.9859    5.2760 C   0  0  0  0  0  0  0  0  0  0  0  0
   -1.4789   -2.8689    5.7550 H   0  0  0  0  0  0  0  0  0  0  0  0
    0.0123   -3.7847    5.8419 H   0  0  0  0  0  0  0  0  0  0  0  0
    0.0585   -2.0642    5.5199 H   0  0  0  0  0  0  0  0  0  0  0  0
   -0.6261   -2.1849    2.9917 N   0  0  0  0  0  0  0  0  0  0  0  0
   -0.7237   -2.2601    1.5650 C   0  0  2  0  0  0  0  0  0  0  0  0
    0.1695   -1.1513    1.0687 C   0  0  0  0  0  0  0  0  0  0  0  0
    0.3193   -0.1267    1.7365 O   0  0  0  0  0  0  0  0  0  0  0  0
   -2.1397   -2.0663    1.0750 C   0  0  0  0  0  0  0  0  0  0  0  0
   -0.5717   -1.2606    3.4238 H   0  0  0  0  0  0  0  0  0  0  0  0
   -0.3076   -3.2111    1.2363 H   0  0  0  0  0  0  0  0  0  0  0  0
   -2.5584   -1.1089    1.4061 H   0  0  0  0  0  0  0  0  0  0  0  0
   -2.1682   -2.0790   -0.0197 H   0  0  0  0  0  0  0  0  0  0  0  0
   -2.7965   -2.8601    1.4459 H   0  0  0  0  0  0  0  0  0  0  0  0
    0.7724   -1.3745   -0.1593 N   0  0  0  0  0  0  0  0  0  0  0  0
    1.6644   -0.4046   -0.7812 C   0  0  2  0  0  0  0  0  0  0  0  0
    0.8166    0.4953   -1.6290 C   0  0  0  0  0  0  0  0  0  0  0  0
   -0.3993    0.5000   -1.4765 O   0  0  0  0  0  0  0  0  0  0  0  0
    2.6195   -1.2417   -1.6241 C   0  0  0  0  0  0  0  0  0  0  0  0
    2.1758   -2.2356   -0.5535 C   0  0  0  0  0  0  0  0  0  0  0  0
    0.7499   -2.6270   -0.9105 C   0  0  0  0  0  0  0  0  0  0  0  0
    2.1745    0.2007   -0.0258 H   0  0  0  0  0  0  0  0  0  0  0  0
    3.6296   -0.8175   -1.5784 H   0  0  0  0  0  0  0  0  0  0  0  0
    2.3218   -1.3211   -2.6742 H   0  0  0  0  0  0  0  0  0  0  0  0
    2.8084   -3.1304   -0.5781 H   0  0  0  0  0  0  0  0  0  0  0  0
    2.2249   -1.8085    0.4522 H   0  0  0  0  0  0  0  0  0  0  0  0
    0.5944   -2.7143   -1.9893 H   0  0  0  0  0  0  0  0  0  0  0  0
    0.4645   -3.5695   -0.4308 H   0  0  0  0  0  0  0  0  0  0  0  0
    1.8398    1.2336   -2.5502 N   0  0  0  0  0  0  0  0  0  0  0  0
    1.4134    2.2851   -3.4453 C   0  0  2  0  0  0  0  0  0  0  0  0
    0.9521    3.4646   -2.5994 C   0  0  0  0  0  0  0  0  0  0  0  0
    0.5851    3.3498   -1.4318 O   0  0  0  0  0  0  0  0  0  0  0  0
    0.3014    1.8097   -4.3674 C   0  0  0  0  0  0  0  0  0  0  0  0
    2.7933    0.8921   -2.6250 H   0  0  0  0  0  0  0  0  0  0  0  0
    2.2915    2.5768   -4.0317 H   0  0  0  0  0  0  0  0  0  0  0  0
   -0.5869    1.5132   -3.7978 H   0  0  0  0  0  0  0  0  0  0  0  0
   -0.0008    2.5987   -5.0641 H   0  0  0  0  0  0  0  0  0  0  0  0
    0.6251    0.9429   -4.9536 H   0  0  0  0  0  0  0  0  0  0  0  0
    0.9574    4.6538   -3.3149 N   0  0  0  0  0  0  0  0  0  0  0  0
    0.5497    5.9131   -2.7372 C   0  0  0  0  0  0  0  0  0  0  0  0
    1.2954    4.6591   -4.2728 H   0  0  0  0  0  0  0  0  0  0  0  0
   -0.5204    6.0772   -2.9322 H   0  0  0  0  0  0  0  0  0  0  0  0
    0.7255    5.8924   -1.6515 H   0  0  0  0  0  0  0  0  0  0  0  0
    1.1337    6.7292   -3.1877 H   0  0  0  0  0  0  0  0  0  0  0  0
 18 19  1  0  0  0  0
 19 31  1  0  0  0  0
 19 20  2  0  0  0  0
  8  9  1  0  0  0  0
  9 17  1  0  0  0  0
  9 10  2  0  0  0  0
  1  3  1  0  0  0  0
  1  7  1  0  0  0  0
  1  2  2  0  0  0  0
 32 33  1  0  0  0  0
 33 41  1  0  0  0  0
 33 34  2  0  0  0  0
 21 22  1  0  0  0  0
 22 23  1  0  0  0  0
 18 21  1  0  0  0  0
 17 23  1  0  0  0  0
 17 18  1  0  0  0  0
  8 11  1  0  0  0  0
 32 35  1  0  0  0  0
 41 42  1  0  0  0  0
  7  8  1  0  0  0  0
 31 32  1  0  0  0  0
 22 27  1  0  0  0  0
 22 28  1  0  0  0  0
 21 25  1  0  0  0  0
 21 26  1  0  0  0  0
 23 29  1  0  0  0  0
 23 30  1  0  0  0  0
 18 24  1  0  0  0  0
  3  4  1  0  0  0  0
  3  5  1  0  0  0  0
  3  6  1  0  0  0  0
 11 14  1  0  0  0  0
 11 15  1  0  0  0  0
 11 16  1  0  0  0  0
 35 38  1  0  0  0  0
 35 39  1  0  0  0  0
 35 40  1  0  0  0  0
 42 44  1  0  0  0  0
 42 45  1  0  0  0  0
 42 46  1  0  0  0  0
  8 13  1  0  0  0  0
 32 37  1  0  0  0  0
 31 36  1  0  0  0  0
 41 43  1  0  0  0  0
  7 12  1  0  0  0  0
M  END
$$$$

  -OEChem-05262214473D

 46 46  0     1  0  0  0  0  0999 V2000
   -0.6012   -3.2995    3.8205 C   0  0  0  0  0  0  0  0  0  0  0  0
   -0.6574   -4.4683    3.4568 O   0  0  0  0  0  0  0  0  0  0  0  0
   -0.4935   -2.9859    5.2760 C   0  0  0  0  0  0  0  0  0  0  0  0
   -1.4789   -2.8689    5.7550 H   0  0  0  0  0  0  0  0  0  0  0  0
    0.0123   -3.7847    5.8419 H   0  0  0  0  0  0  0  0  0  0  0  0
    0.0585   -2.0642    5.5199 H   0  0  0  0  0  0  0  0  0  0  0  0
   -0.6261   -2.1849    2.9917 N   0  0  0  0  0  0  0  0  0  0  0  0
   -0.7237   -2.2601    1.5650 C   0  0  2  0  0  0  0  0  0  0  0  0
    0.1695   -1.1513    1.0687 C   0  0  0  0  0  0  0  0  0  0  0  0
    0.3193   -0.1267    1.7365 O   0  0  0  0  0  0  0  0  0  0  0  0
   -2.1397   -2.0663    1.0750 C   0  0  0  0  0  0  0  0  0  0  0  0
   -0.5717   -1.2606    3.4238 H   0  0  0  0  0  0  0  0  0  0  0  0
   -0.3076   -3.2111    1.2363 H   0  0  0  0  0  0  0  0  0  0  0  0
   -2.5584   -1.1089    1.4061 H   0  0  0  0  0  0  0  0  0  0  0  0
   -2.1682   -2.0790   -0.0197 H   0  0  0  0  0  0  0  0  0  0  0  0
   -2.7965   -2.8601    1.4459 H   0  0  0  0  0  0  0  0  0  0  0  0
    0.7724   -1.3745   -0.1593 N   0  0  0  0  0  0  0  0  0  0  0  0
    1.6644   -0.4046   -0.7812 C   0  0  2  0  0  0  0  0  0  0  0  0
    0.8166    0.4953   -1.6290 C   0  0  0  0  0  0  0  0  0  0  0  0
   -0.3451    0.7125   -1.3051 O   0  0  0  0  0  0  0  0  0  0  0  0
    2.6195   -1.2417   -1.6241 C   0  0  0  0  0  0  0  0  0  0  0  0
    2.1758   -2.2356   -0.5535 C   0  0  0  0  0  0  0  0  0  0  0  0
    0.7499   -2.6270   -0.9105 C   0  0  0  0  0  0  0  0  0  0  0  0
    2.1745    0.2007   -0.0258 H   0  0  0  0  0  0  0  0  0  0  0  0
    3.6296   -0.8175   -1.5784 H   0  0  0  0  0  0  0  0  0  0  0  0
    2.3218   -1.3211   -2.6742 H   0  0  0  0  0  0  0  0  0  0  0  0
    2.8084   -3.1304   -0.5781 H   0  0  0  0  0  0  0  0  0  0  0  0
    2.2249   -1.8085    0.4522 H   0  0  0  0  0  0  0  0  0  0  0  0
    0.5944   -2.7143   -1.9893 H   0  0  0  0  0  0  0  0  0  0  0  0
    0.4645   -3.5695   -0.4308 H   0  0  0  0  0  0  0  0  0  0  0  0
    1.7625    0.9317   -2.7932 N   0  0  0  0  0  0  0  0  0  0  0  0
    1.3388    1.9070   -3.7721 C   0  0  2  0  0  0  0  0  0  0  0  0
    1.1878    3.2477   -3.0654 C   0  0  0  0  0  0  0  0  0  0  0  0
    1.0081    3.3507   -1.8538 O   0  0  0  0  0  0  0  0  0  0  0  0
    0.0352    1.4933   -4.4371 C   0  0  0  0  0  0  0  0  0  0  0  0
    2.6354    0.4370   -2.9502 H   0  0  0  0  0  0  0  0  0  0  0  0
    2.1384    1.9746   -4.5178 H   0  0  0  0  0  0  0  0  0  0  0  0
   -0.7778    1.4203   -3.7056 H   0  0  0  0  0  0  0  0  0  0  0  0
   -0.2695    2.2189   -5.1985 H   0  0  0  0  0  0  0  0  0  0  0  0
    0.1371    0.5152   -4.9195 H   0  0  0  0  0  0  0  0  0  0  0  0
    1.2344    4.3136   -3.9530 N   0  0  0  0  0  0  0  0  0  0  0  0
    1.1019    5.6878   -3.5286 C   0  0  0  0  0  0  0  0  0  0  0  0
    1.4060    4.1363   -4.9383 H   0  0  0  0  0  0  0  0  0  0  0  0
    0.0463    5.9910   -3.5904 H   0  0  0  0  0  0  0  0  0  0  0  0
    1.4514    5.7861   -2.4902 H   0  0  0  0  0  0  0  0  0  0  0  0
    1.7075    6.3332   -4.1819 H   0  0  0  0  0  0  0  0  0  0  0  0
 18 19  1  0  0  0  0
 19 31  1  0  0  0  0
 19 20  2  0  0  0  0
  8  9  1  0  0  0  0
  9 17  1  0  0  0  0
  9 10  2  0  0  0  0
  1  3  1  0  0  0  0
  1  7  1  0  0  0  0
  1  2  2  0  0  0  0
 32 33  1  0  0  0  0
 33 41  1  0  0  0  0
 33 34  2  0  0  0  0
 21 22  1  0  0  0  0
 22 23  1  0  0  0  0
 18 21  1  0  0  0  0
 17 23  1  0  0  0  0
 17 18  1  0  0  0  0
  8 11  1  0  0  0  0
 32 35  1  0  0  0  0
 41 42  1  0  0  0  0
  7  8  1  0  0  0  0
 31 32  1  0  0  0  0
 22 27  1  0  0  0  0
 22 28  1  0  0  0  0
 21 25  1  0  0  0  0
 21 26  1  0  0  0  0
 23 29  1  0  0  0  0
 23 30  1  0  0  0  0
 18 24  1  0  0  0  0
  3  4  1  0  0  0  0
  3  5  1  0  0  0  0
  3  6  1  0  0  0  0
 11 14  1  0  0  0  0
 11 15  1  0  0  0  0
 11 16  1  0  0  0  0
 35 38  1  0  0  0  0
 35 39  1  0  0  0  0
 35 40  1  0  0  0  0
 42 44  1  0  0  0  0
 42 45  1  0  0  0  0
 42 46  1  0  0  0  0
  8 13  1  0  0  0  0
 32 37  1  0  0  0  0
 31 36  1  0  0  0  0
 41 43  1  0  0  0  0
  7 12  1  0  0  0  0
M  END
$$$$

  -OEChem-05262214473D

 46 46  0     1  0  0  0  0  0999 V2000
   -0.6012   -3.2995    3.8205 C   0  0  0  0  0  0  0  0  0  0  0  0
   -0.6574   -4.4683    3.4568 O   0  0  0  0  0  0  0  0  0  0  0  0
   -0.4935   -2.9859    5.2760 C   0  0  0  0  0  0  0  0  0  0  0  0
   -1.4789   -2.8689    5.7550 H   0  0  0  0  0  0  0  0  0  0  0  0
    0.0123   -3.7847    5.8419 H   0  0  0  0  0  0  0  0  0  0  0  0
    0.0585   -2.0642    5.5199 H   0  0  0  0  0  0  0  0  0  0  0  0
   -0.6261   -2.1849    2.9917 N   0  0  0  0  0  0  0  0  0  0  0  0
   -0.7237   -2.2601    1.5650 C   0  0  2  0  0  0  0  0  0  0  0  0
    0.1695   -1.1513    1.0687 C   0  0  0  0  0  0  0  0  0  0  0  0
    0.3193   -0.1267    1.7365 O   0  0  0  0  0  0  0  0  0  0  0  0
   -2.1397   -2.0663    1.0750 C   0  0  0  0  0  0  0  0  0  0  0  0
   -0.5717   -1.2606    3.4238 H   0  0  0  0  0  0  0  0  0  0  0  0
   -0.3076   -3.2111    1.2363 H   0  0  0  0  0  0  0  0  0  0  0  0
   -2.5584   -1.1089    1.4061 H   0  0  0  0  0  0  0  0  0  0  0  0
   -2.1682   -2.0790   -0.0197 H   0  0  0  0  0  0  0  0  0  0  0  0
   -2.7965   -2.8601    1.4459 H   0  0  0  0  0  0  0  0  0  0  0  0
    0.7724   -1.3745   -0.1593 N   0  0  0  0  0  0  0  0  0  0  0  0
    1.6644   -0.4046   -0.7812 C   0  0  2  0  0  0  0  0  0  0  0  0
    0.8166    0.4953   -1.6290 C   0  0  0  0  0  0  0  0  0  0  0  0
   -0.2351    0.9349   -1.1791 O   0  0  0  0  0  0  0  0  0  0  0  0
    2.6195   -1.2417   -1.6241 C   0  0  0  0  0  0  0  0  0  0  0  0
    2.1758   -2.2356   -0.5535 C   0  0  0  0  0  0  0  0  0  0  0  0
    0.7499   -2.6270   -0.9105 C   0  0  0  0  0  0  0  0  0  0  0  0
    2.1745    0.2007   -0.0258 H   0  0  0  0  0  0  0  0  0  0  0  0
    3.6296   -0.8175   -1.5784 H   0  0  0  0  0  0  0  0  0  0  0  0
    2.3218   -1.3211   -2.6742 H   0  0  0  0  0  0  0  0  0  0  0  0
    2.8084   -3.1304   -0.5781 H   0  0  0  0  0  0  0  0  0  0  0  0
    2.2249   -1.8085    0.4522 H   0  0  0  0  0  0  0  0  0  0  0  0
    0.5944   -2.7143   -1.9893 H   0  0  0  0  0  0  0  0  0  0  0  0
    0.4645   -3.5695   -0.4308 H   0  0  0  0  0  0  0  0  0  0  0  0
    1.6058    0.6159   -2.9718 N   0  0  0  0  0  0  0  0  0  0  0  0
    1.1607    1.5049   -4.0209 C   0  0  2  0  0  0  0  0  0  0  0  0
    1.3114    2.9354   -3.5205 C   0  0  0  0  0  0  0  0  0  0  0  0
    1.3512    3.2280   -2.3272 O   0  0  0  0  0  0  0  0  0  0  0  0
   -0.2791    1.2164   -4.4168 C   0  0  0  0  0  0  0  0  0  0  0  0
    2.3657   -0.0271   -3.1731 H   0  0  0  0  0  0  0  0  0  0  0  0
    1.8269    1.3442   -4.8755 H   0  0  0  0  0  0  0  0  0  0  0  0
   -0.9614    1.3720   -3.5732 H   0  0  0  0  0  0  0  0  0  0  0  0
   -0.6055    1.8717   -5.2311 H   0  0  0  0  0  0  0  0  0  0  0  0
   -0.3916    0.1785   -4.7482 H   0  0  0  0  0  0  0  0  0  0  0  0
    1.3530    3.8512   -4.5625 N   0  0  0  0  0  0  0  0  0  0  0  0
    1.4794    5.2735   -4.3459 C   0  0  0  0  0  0  0  0  0  0  0  0
    1.3329    3.5178   -5.5218 H   0  0  0  0  0  0  0  0  0  0  0  0
    0.4789    5.7285   -4.3016 H   0  0  0  0  0  0  0  0  0  0  0  0
    2.0066    5.4544   -3.3976 H   0  0  0  0  0  0  0  0  0  0  0  0
    2.0493    5.7211   -5.1735 H   0  0  0  0  0  0  0  0  0  0  0  0
 18 19  1  0  0  0  0
 19 31  1  0  0  0  0
 19 20  2  0  0  0  0
  8  9  1  0  0  0  0
  9 17  1  0  0  0  0
  9 10  2  0  0  0  0
  1  3  1  0  0  0  0
  1  7  1  0  0  0  0
  1  2  2  0  0  0  0
 32 33  1  0  0  0  0
 33 41  1  0  0  0  0
 33 34  2  0  0  0  0
 21 22  1  0  0  0  0
 22 23  1  0  0  0  0
 18 21  1  0  0  0  0
 17 23  1  0  0  0  0
 17 18  1  0  0  0  0
  8 11  1  0  0  0  0
 32 35  1  0  0  0  0
 41 42  1  0  0  0  0
  7  8  1  0  0  0  0
 31 32  1  0  0  0  0
 22 27  1  0  0  0  0
 22 28  1  0  0  0  0
 21 25  1  0  0  0  0
 21 26  1  0  0  0  0
 23 29  1  0  0  0  0
 23 30  1  0  0  0  0
 18 24  1  0  0  0  0
  3  4  1  0  0  0  0
  3  5  1  0  0  0  0
  3  6  1  0  0  0  0
 11 14  1  0  0  0  0
 11 15  1  0  0  0  0
 11 16  1  0  0  0  0
 35 38  1  0  0  0  0
 35 39  1  0  0  0  0
 35 40  1  0  0  0  0
 42 44  1  0  0  0  0
 42 45  1  0  0  0  0
 42 46  1  0  0  0  0
  8 13  1  0  0  0  0
 32 37  1  0  0  0  0
 31 36  1  0  0  0  0
 41 43  1  0  0  0  0
  7 12  1  0  0  0  0
M  END
$$$$

  -OEChem-05262214473D

 46 46  0     1  0  0  0  0  0999 V2000
   -0.6012   -3.2995    3.8205 C   0  0  0  0  0  0  0  0  0  0  0  0
   -0.6574   -4.4683    3.4568 O   0  0  0  0  0  0  0  0  0  0  0  0
   -0.4935   -2.9859    5.2760 C   0  0  0  0  0  0  0  0  0  0  0  0
   -1.4789   -2.8689    5.7550 H   0  0  0  0  0  0  0  0  0  0  0  0
    0.0123   -3.7847    5.8419 H   0  0  0  0  0  0  0  0  0  0  0  0
    0.0585   -2.0642    5.5199 H   0  0  0  0  0  0  0  0  0  0  0  0
   -0.6261   -2.1849    2.9917 N   0  0  0  0  0  0  0  0  0  0  0  0
   -0.7237   -2.2601    1.5650 C   0  0  2  0  0  0  0  0  0  0  0  0
    0.1695   -1.1513    1.0687 C   0  0  0  0  0  0  0  0  0  0  0  0
    0.3193   -0.1267    1.7365 O   0  0  0  0  0  0  0  0  0  0  0  0
   -2.1397   -2.0663    1.0750 C   0  0  0  0  0  0  0  0  0  0  0  0
   -0.5717   -1.2606    3.4238 H   0  0  0  0  0  0  0  0  0  0  0  0
   -0.3076   -3.2111    1.2363 H   0  0  0  0  0  0  0  0  0  0  0  0
   -2.5584   -1.1089    1.4061 H   0  0  0  0  0  0  0  0  0  0  0  0
   -2.1682   -2.0790   -0.0197 H   0  0  0  0  0  0  0  0  0  0  0  0
   -2.7965   -2.8601    1.4459 H   0  0  0  0  0  0  0  0  0  0  0  0
    0.7724   -1.3745   -0.1593 N   0  0  0  0  0  0  0  0  0  0  0  0
    1.6644   -0.4046   -0.7812 C   0  0  2  0  0  0  0  0  0  0  0  0
    0.8166    0.4953   -1.6290 C   0  0  0  0  0  0  0  0  0  0  0  0
   -0.0767    1.1520   -1.1070 O   0  0  0  0  0  0  0  0  0  0  0  0
    2.6195   -1.2417   -1.6241 C   0  0  0  0  0  0  0  0  0  0  0  0
    2.1758   -2.2356   -0.5535 C   0  0  0  0  0  0  0  0  0  0  0  0
    0.7499   -2.6270   -0.9105 C   0  0  0  0  0  0  0  0  0  0  0  0
    2.1745    0.2007   -0.0258 H   0  0  0  0  0  0  0  0  0  0  0  0
    3.6296   -0.8175   -1.5784 H   0  0  0  0  0  0  0  0  0  0  0  0
    2.3218   -1.3211   -2.6742 H   0  0  0  0  0  0  0  0  0  0  0  0
    2.8084   -3.1304   -0.5781 H   0  0  0  0  0  0  0  0  0  0  0  0
    2.2249   -1.8085    0.4522 H   0  0  0  0  0  0  0  0  0  0  0  0
    0.5944   -2.7143   -1.9893 H   0  0  0  0  0  0  0  0  0  0  0  0
    0.4645   -3.5695   -0.4308 H   0  0  0  0  0  0  0  0  0  0  0  0
    1.3805    0.3076   -3.0738 N   0  0  0  0  0  0  0  0  0  0  0  0
    0.8911    1.1061   -4.1746 C   0  0  2  0  0  0  0  0  0  0  0  0
    1.3144    2.5491   -3.9335 C   0  0  0  0  0  0  0  0  0  0  0  0
    1.5910    2.9899   -2.8199 O   0  0  0  0  0  0  0  0  0  0  0  0
   -0.6200    0.9980   -4.3078 C   0  0  0  0  0  0  0  0  0  0  0  0
    2.0026   -0.4685   -3.2786 H   0  0  0  0  0  0  0  0  0  0  0  0
    1.3781    0.7285   -5.0803 H   0  0  0  0  0  0  0  0  0  0  0  0
   -1.1253    1.3717   -3.4097 H   0  0  0  0  0  0  0  0  0  0  0  0
   -0.9859    1.5807   -5.1595 H   0  0  0  0  0  0  0  0  0  0  0  0
   -0.9250   -0.0442   -4.4513 H   0  0  0  0  0  0  0  0  0  0  0  0
    1.3052    3.2979   -5.1021 N   0  0  0  0  0  0  0  0  0  0  0  0
    1.6564    4.6985   -5.1333 C   0  0  0  0  0  0  0  0  0  0  0  0
    1.0811    2.8456   -5.9835 H   0  0  0  0  0  0  0  0  0  0  0  0
    0.7478    5.3075   -5.0174 H   0  0  0  0  0  0  0  0  0  0  0  0
    2.3535    4.9200   -4.3118 H   0  0  0  0  0  0  0  0  0  0  0  0
    2.1358    4.9347   -6.0948 H   0  0  0  0  0  0  0  0  0  0  0  0
 18 19  1  0  0  0  0
 19 31  1  0  0  0  0
 19 20  2  0  0  0  0
  8  9  1  0  0  0  0
  9 17  1  0  0  0  0
  9 10  2  0  0  0  0
  1  3  1  0  0  0  0
  1  7  1  0  0  0  0
  1  2  2  0  0  0  0
 32 33  1  0  0  0  0
 33 41  1  0  0  0  0
 33 34  2  0  0  0  0
 21 22  1  0  0  0  0
 22 23  1  0  0  0  0
 18 21  1  0  0  0  0
 17 23  1  0  0  0  0
 17 18  1  0  0  0  0
  8 11  1  0  0  0  0
 32 35  1  0  0  0  0
 41 42  1  0  0  0  0
  7  8  1  0  0  0  0
 31 32  1  0  0  0  0
 22 27  1  0  0  0  0
 22 28  1  0  0  0  0
 21 25  1  0  0  0  0
 21 26  1  0  0  0  0
 23 29  1  0  0  0  0
 23 30  1  0  0  0  0
 18 24  1  0  0  0  0
  3  4  1  0  0  0  0
  3  5  1  0  0  0  0
  3  6  1  0  0  0  0
 11 14  1  0  0  0  0
 11 15  1  0  0  0  0
 11 16  1  0  0  0  0
 35 38  1  0  0  0  0
 35 39  1  0  0  0  0
 35 40  1  0  0  0  0
 42 44  1  0  0  0  0
 42 45  1  0  0  0  0
 42 46  1  0  0  0  0
  8 13  1  0  0  0  0
 32 37  1  0  0  0  0
 31 36  1  0  0  0  0
 41 43  1  0  0  0  0
  7 12  1  0  0  0  0
M  END
$$$$

  -OEChem-05262214473D

 46 46  0     1  0  0  0  0  0999 V2000
   -0.6012   -3.2995    3.8205 C   0  0  0  0  0  0  0  0  0  0  0  0
   -0.6574   -4.4683    3.4568 O   0  0  0  0  0  0  0  0  0  0  0  0
   -0.4935   -2.9859    5.2760 C   0  0  0  0  0  0  0  0  0  0  0  0
   -1.4789   -2.8689    5.7550 H   0  0  0  0  0  0  0  0  0  0  0  0
    0.0123   -3.7847    5.8419 H   0  0  0  0  0  0  0  0  0  0  0  0
    0.0585   -2.0642    5.5199 H   0  0  0  0  0  0  0  0  0  0  0  0
   -0.6261   -2.1849    2.9917 N   0  0  0  0  0  0  0  0  0  0  0  0
   -0.7237   -2.2601    1.5650 C   0  0  2  0  0  0  0  0  0  0  0  0
    0.1695   -1.1513    1.0687 C   0  0  0  0  0  0  0  0  0  0  0  0
    0.3193   -0.1267    1.7365 O   0  0  0  0  0  0  0  0  0  0  0  0
   -2.1397   -2.0663    1.0750 C   0  0  0  0  0  0  0  0  0  0  0  0
   -0.5717   -1.2606    3.4238 H   0  0  0  0  0  0  0  0  0  0  0  0
   -0.3076   -3.2111    1.2363 H   0  0  0  0  0  0  0  0  0  0  0  0
   -2.5584   -1.1089    1.4061 H   0  0  0  0  0  0  0  0  0  0  0  0
   -2.1682   -2.0790   -0.0197 H   0  0  0  0  0  0  0  0  0  0  0  0
   -2.7965   -2.8601    1.4459 H   0  0  0  0  0  0  0  0  0  0  0  0
    0.7724   -1.3745   -0.1593 N   0  0  0  0  0  0  0  0  0  0  0  0
    1.6644   -0.4046   -0.7812 C   0  0  2  0  0  0  0  0  0  0  0  0
    0.8166    0.4953   -1.6290 C   0  0  0  0  0  0  0  0  0  0  0  0
    0.1194    1.3492   -1.0938 O   0  0  0  0  0  0  0  0  0  0  0  0
    2.6195   -1.2417   -1.6241 C   0  0  0  0  0  0  0  0  0  0  0  0
    2.1758   -2.2356   -0.5535 C   0  0  0  0  0  0  0  0  0  0  0  0
    0.7499   -2.6270   -0.9105 C   0  0  0  0  0  0  0  0  0  0  0  0
    2.1745    0.2007   -0.0258 H   0  0  0  0  0  0  0  0  0  0  0  0
    3.6296   -0.8175   -1.5784 H   0  0  0  0  0  0  0  0  0  0  0  0
    2.3218   -1.3211   -2.6742 H   0  0  0  0  0  0  0  0  0  0  0  0
    2.8084   -3.1304   -0.5781 H   0  0  0  0  0  0  0  0  0  0  0  0
    2.2249   -1.8085    0.4522 H   0  0  0  0  0  0  0  0  0  0  0  0
    0.5944   -2.7143   -1.9893 H   0  0  0  0  0  0  0  0  0  0  0  0
    0.4645   -3.5695   -0.4308 H   0  0  0  0  0  0  0  0  0  0  0  0
    1.1019    0.0279   -3.0921 N   0  0  0  0  0  0  0  0  0  0  0  0
    0.5484    0.7379   -4.2228 C   0  0  2  0  0  0  0  0  0  0  0  0
    1.1965    2.1151   -4.2764 C   0  0  0  0  0  0  0  0  0  0  0  0
    1.7113    2.6527   -3.2981 O   0  0  0  0  0  0  0  0  0  0  0  0
   -0.9643    0.8528   -4.1175 C   0  0  0  0  0  0  0  0  0  0  0  0
    1.5710   -0.8572   -3.2595 H   0  0  0  0  0  0  0  0  0  0  0  0
    0.8227    0.1695   -5.1182 H   0  0  0  0  0  0  0  0  0  0  0  0
   -1.2582    1.4192   -3.2263 H   0  0  0  0  0  0  0  0  0  0  0  0
   -1.3849    1.3658   -4.9887 H   0  0  0  0  0  0  0  0  0  0  0  0
   -1.4266   -0.1379   -4.0491 H   0  0  0  0  0  0  0  0  0  0  0  0
    1.0942    2.6914   -5.5348 N   0  0  0  0  0  0  0  0  0  0  0  0
    1.6208    4.0018   -5.8373 C   0  0  0  0  0  0  0  0  0  0  0  0
    0.6678    2.1656   -6.2920 H   0  0  0  0  0  0  0  0  0  0  0  0
    0.8347    4.7568   -5.6890 H   0  0  0  0  0  0  0  0  0  0  0  0
    2.4682    4.2192   -5.1704 H   0  0  0  0  0  0  0  0  0  0  0  0
    1.9612    4.0276   -6.8830 H   0  0  0  0  0  0  0  0  0  0  0  0
 18 19  1  0  0  0  0
 19 31  1  0  0  0  0
 19 20  2  0  0  0  0
  8  9  1  0  0  0  0
  9 17  1  0  0  0  0
  9 10  2  0  0  0  0
  1  3  1  0  0  0  0
  1  7  1  0  0  0  0
  1  2  2  0  0  0  0
 32 33  1  0  0  0  0
 33 41  1  0  0  0  0
 33 34  2  0  0  0  0
 21 22  1  0  0  0  0
 22 23  1  0  0  0  0
 18 21  1  0  0  0  0
 17 23  1  0  0  0  0
 17 18  1  0  0  0  0
  8 11  1  0  0  0  0
 32 35  1  0  0  0  0
 41 42  1  0  0  0  0
  7  8  1  0  0  0  0
 31 32  1  0  0  0  0
 22 27  1  0  0  0  0
 22 28  1  0  0  0  0
 21 25  1  0  0  0  0
 21 26  1  0  0  0  0
 23 29  1  0  0  0  0
 23 30  1  0  0  0  0
 18 24  1  0  0  0  0
  3  4  1  0  0  0  0
  3  5  1  0  0  0  0
  3  6  1  0  0  0  0
 11 14  1  0  0  0  0
 11 15  1  0  0  0  0
 11 16  1  0  0  0  0
 35 38  1  0  0  0  0
 35 39  1  0  0  0  0
 35 40  1  0  0  0  0
 42 44  1  0  0  0  0
 42 45  1  0  0  0  0
 42 46  1  0  0  0  0
  8 13  1  0  0  0  0
 32 37  1  0  0  0  0
 31 36  1  0  0  0  0
 41 43  1  0  0  0  0
  7 12  1  0  0  0  0
M  END
$$$$

  -OEChem-05262214473D

 46 46  0     1  0  0  0  0  0999 V2000
   -0.6012   -3.2995    3.8205 C   0  0  0  0  0  0  0  0  0  0  0  0
   -0.6574   -4.4683    3.4568 O   0  0  0  0  0  0  0  0  0  0  0  0
   -0.4935   -2.9859    5.2760 C   0  0  0  0  0  0  0  0  0  0  0  0
   -1.4789   -2.8689    5.7550 H   0  0  0  0  0  0  0  0  0  0  0  0
    0.0123   -3.7847    5.8419 H   0  0  0  0  0  0  0  0  0  0  0  0
    0.0585   -2.0642    5.5199 H   0  0  0  0  0  0  0  0  0  0  0  0
   -0.6261   -2.1849    2.9917 N   0  0  0  0  0  0  0  0  0  0  0  0
   -0.7237   -2.2601    1.5650 C   0  0  2  0  0  0  0  0  0  0  0  0
    0.1695   -1.1513    1.0687 C   0  0  0  0  0  0  0  0  0  0  0  0
    0.3193   -0.1267    1.7365 O   0  0  0  0  0  0  0  0  0  0  0  0
   -2.1397   -2.0663    1.0750 C   0  0  0  0  0  0  0  0  0  0  0  0
   -0.5717   -1.2606    3.4238 H   0  0  0  0  0  0  0  0  0  0  0  0
   -0.3076   -3.2111    1.2363 H   0  0  0  0  0  0  0  0  0  0  0  0
   -2.5584   -1.1089    1.4061 H   0  0  0  0  0  0  0  0  0  0  0  0
   -2.1682   -2.0790   -0.0197 H   0  0  0  0  0  0  0  0  0  0  0  0
   -2.7965   -2.8601    1.4459 H   0  0  0  0  0  0  0  0  0  0  0  0
    0.7724   -1.3745   -0.1593 N   0  0  0  0  0  0  0  0  0  0  0  0
    1.6644   -0.4046   -0.7812 C   0  0  2  0  0  0  0  0  0  0  0  0
    0.8166    0.4953   -1.6290 C   0  0  0  0  0  0  0  0  0  0  0  0
    0.3396    1.5128   -1.1403 O   0  0  0  0  0  0  0  0  0  0  0  0
    2.6195   -1.2417   -1.6241 C   0  0  0  0  0  0  0  0  0  0  0  0
    2.1758   -2.2356   -0.5535 C   0  0  0  0  0  0  0  0  0  0  0  0
    0.7499   -2.6270   -0.9105 C   0  0  0  0  0  0  0  0  0  0  0  0
    2.1745    0.2007   -0.0258 H   0  0  0  0  0  0  0  0  0  0  0  0
    3.6296   -0.8175   -1.5784 H   0  0  0  0  0  0  0  0  0  0  0  0
    2.3218   -1.3211   -2.6742 H   0  0  0  0  0  0  0  0  0  0  0  0
    2.8084   -3.1304   -0.5781 H   0  0  0  0  0  0  0  0  0  0  0  0
    2.2249   -1.8085    0.4522 H   0  0  0  0  0  0  0  0  0  0  0  0
    0.5944   -2.7143   -1.9893 H   0  0  0  0  0  0  0  0  0  0  0  0
    0.4645   -3.5695   -0.4308 H   0  0  0  0  0  0  0  0  0  0  0  0
    0.7890   -0.2042   -3.0256 N   0  0  0  0  0  0  0  0  0  0  0  0
    0.1561    0.4253   -4.1623 C   0  0  2  0  0  0  0  0  0  0  0  0
    0.9659    1.6629   -4.5258 C   0  0  0  0  0  0  0  0  0  0  0  0
    1.7039    2.2393   -3.7294 O   0  0  0  0  0  0  0  0  0  0  0  0
   -1.2886    0.7908   -3.8590 C   0  0  0  0  0  0  0  0  0  0  0  0
    1.1000   -1.1667   -3.1171 H   0  0  0  0  0  0  0  0  0  0  0  0
    0.1984   -0.2947   -4.9868 H   0  0  0  0  0  0  0  0  0  0  0  0
   -1.3512    1.5114   -3.0354 H   0  0  0  0  0  0  0  0  0  0  0  0
   -1.7751    1.2416   -4.7303 H   0  0  0  0  0  0  0  0  0  0  0  0
   -1.8623   -0.0960   -3.5689 H   0  0  0  0  0  0  0  0  0  0  0  0
    0.7344    2.0732   -5.8312 N   0  0  0  0  0  0  0  0  0  0  0  0
    1.3752    3.2311   -6.4098 C   0  0  0  0  0  0  0  0  0  0  0  0
    0.1210    1.5242   -6.4263 H   0  0  0  0  0  0  0  0  0  0  0  0
    0.7336    4.1137   -6.2705 H   0  0  0  0  0  0  0  0  0  0  0  0
    2.3431    3.3998   -5.9151 H   0  0  0  0  0  0  0  0  0  0  0  0
    1.5372    3.0616   -7.4845 H   0  0  0  0  0  0  0  0  0  0  0  0
 18 19  1  0  0  0  0
 19 31  1  0  0  0  0
 19 20  2  0  0  0  0
  8  9  1  0  0  0  0
  9 17  1  0  0  0  0
  9 10  2  0  0  0  0
  1  3  1  0  0  0  0
  1  7  1  0  0  0  0
  1  2  2  0  0  0  0
 32 33  1  0  0  0  0
 33 41  1  0  0  0  0
 33 34  2  0  0  0  0
 21 22  1  0  0  0  0
 22 23  1  0  0  0  0
 18 21  1  0  0  0  0
 17 23  1  0  0  0  0
 17 18  1  0  0  0  0
  8 11  1  0  0  0  0
 32 35  1  0  0  0  0
 41 42  1  0  0  0  0
  7  8  1  0  0  0  0
 31 32  1  0  0  0  0
 22 27  1  0  0  0  0
 22 28  1  0  0  0  0
 21 25  1  0  0  0  0
 21 26  1  0  0  0  0
 23 29  1  0  0  0  0
 23 30  1  0  0  0  0
 18 24  1  0  0  0  0
  3  4  1  0  0  0  0
  3  5  1  0  0  0  0
  3  6  1  0  0  0  0
 11 14  1  0  0  0  0
 11 15  1  0  0  0  0
 11 16  1  0  0  0  0
 35 38  1  0  0  0  0
 35 39  1  0  0  0  0
 35 40  1  0  0  0  0
 42 44  1  0  0  0  0
 42 45  1  0  0  0  0
 42 46  1  0  0  0  0
  8 13  1  0  0  0  0
 32 37  1  0  0  0  0
 31 36  1  0  0  0  0
 41 43  1  0  0  0  0
  7 12  1  0  0  0  0
M  END
$$$$

  -OEChem-05262214473D

 46 46  0     1  0  0  0  0  0999 V2000
   -0.6012   -3.2995    3.8205 C   0  0  0  0  0  0  0  0  0  0  0  0
   -0.6574   -4.4683    3.4568 O   0  0  0  0  0  0  0  0  0  0  0  0
   -0.4935   -2.9859    5.2760 C   0  0  0  0  0  0  0  0  0  0  0  0
   -1.4789   -2.8689    5.7550 H   0  0  0  0  0  0  0  0  0  0  0  0
    0.0123   -3.7847    5.8419 H   0  0  0  0  0  0  0  0  0  0  0  0
    0.0585   -2.0642    5.5199 H   0  0  0  0  0  0  0  0  0  0  0  0
   -0.6261   -2.1849    2.9917 N   0  0  0  0  0  0  0  0  0  0  0  0
   -0.7237   -2.2601    1.5650 C   0  0  2  0  0  0  0  0  0  0  0  0
    0.1695   -1.1513    1.0687 C   0  0  0  0  0  0  0  0  0  0  0  0
    0.3193   -0.1267    1.7365 O   0  0  0  0  0  0  0  0  0  0  0  0
   -2.1397   -2.0663    1.0750 C   0  0  0  0  0  0  0  0  0  0  0  0
   -0.5717   -1.2606    3.4238 H   0  0  0  0  0  0  0  0  0  0  0  0
   -0.3076   -3.2111    1.2363 H   0  0  0  0  0  0  0  0  0  0  0  0
   -2.5584   -1.1089    1.4061 H   0  0  0  0  0  0  0  0  0  0  0  0
   -2.1682   -2.0790   -0.0197 H   0  0  0  0  0  0  0  0  0  0  0  0
   -2.7965   -2.8601    1.4459 H   0  0  0  0  0  0  0  0  0  0  0  0
    0.7724   -1.3745   -0.1593 N   0  0  0  0  0  0  0  0  0  0  0  0
    1.6644   -0.4046   -0.7812 C   0  0  2  0  0  0  0  0  0  0  0  0
    0.8166    0.4953   -1.6290 C   0  0  0  0  0  0  0  0  0  0  0  0
    0.5691    1.6318   -1.2434 O   0  0  0  0  0  0  0  0  0  0  0  0
    2.6195   -1.2417   -1.6241 C   0  0  0  0  0  0  0  0  0  0  0  0
    2.1758   -2.2356   -0.5535 C   0  0  0  0  0  0  0  0  0  0  0  0
    0.7499   -2.6270   -0.9105 C   0  0  0  0  0  0  0  0  0  0  0  0
    2.1745    0.2007   -0.0258 H   0  0  0  0  0  0  0  0  0  0  0  0
    3.6296   -0.8175   -1.5784 H   0  0  0  0  0  0  0  0  0  0  0  0
    2.3218   -1.3211   -2.6742 H   0  0  0  0  0  0  0  0  0  0  0  0
    2.8084   -3.1304   -0.5781 H   0  0  0  0  0  0  0  0  0  0  0  0
    2.2249   -1.8085    0.4522 H   0  0  0  0  0  0  0  0  0  0  0  0
    0.5944   -2.7143   -1.9893 H   0  0  0  0  0  0  0  0  0  0  0  0
    0.4645   -3.5695   -0.4308 H   0  0  0  0  0  0  0  0  0  0  0  0
    0.4631   -0.3729   -2.8788 N   0  0  0  0  0  0  0  0  0  0  0  0
   -0.2593    0.1897   -3.9971 C   0  0  2  0  0  0  0  0  0  0  0  0
    0.6382    1.2234   -4.6646 C   0  0  0  0  0  0  0  0  0  0  0  0
    1.5692    1.7781   -4.0844 O   0  0  0  0  0  0  0  0  0  0  0  0
   -1.5708    0.8163   -3.5499 C   0  0  0  0  0  0  0  0  0  0  0  0
    0.6220   -1.3758   -2.8611 H   0  0  0  0  0  0  0  0  0  0  0  0
   -0.4520   -0.6325   -4.6949 H   0  0  0  0  0  0  0  0  0  0  0  0
   -1.3978    1.6421   -2.8501 H   0  0  0  0  0  0  0  0  0  0  0  0
   -2.1301    1.2166   -4.4018 H   0  0  0  0  0  0  0  0  0  0  0  0
   -2.2025    0.0785   -3.0435 H   0  0  0  0  0  0  0  0  0  0  0  0
    0.2503    1.4854   -5.9711 N   0  0  0  0  0  0  0  0  0  0  0  0
    0.9361    2.4388   -6.8117 C   0  0  0  0  0  0  0  0  0  0  0  0
   -0.5218    0.9649   -6.3771 H   0  0  0  0  0  0  0  0  0  0  0  0
    0.4516    3.4223   -6.7224 H   0  0  0  0  0  0  0  0  0  0  0  0
    1.9866    2.5176   -6.4950 H   0  0  0  0  0  0  0  0  0  0  0  0
    0.8929    2.1026   -7.8582 H   0  0  0  0  0  0  0  0  0  0  0  0
 18 19  1  0  0  0  0
 19 31  1  0  0  0  0
 19 20  2  0  0  0  0
  8  9  1  0  0  0  0
  9 17  1  0  0  0  0
  9 10  2  0  0  0  0
  1  3  1  0  0  0  0
  1  7  1  0  0  0  0
  1  2  2  0  0  0  0
 32 33  1  0  0  0  0
 33 41  1  0  0  0  0
 33 34  2  0  0  0  0
 21 22  1  0  0  0  0
 22 23  1  0  0  0  0
 18 21  1  0  0  0  0
 17 23  1  0  0  0  0
 17 18  1  0  0  0  0
  8 11  1  0  0  0  0
 32 35  1  0  0  0  0
 41 42  1  0  0  0  0
  7  8  1  0  0  0  0
 31 32  1  0  0  0  0
 22 27  1  0  0  0  0
 22 28  1  0  0  0  0
 21 25  1  0  0  0  0
 21 26  1  0  0  0  0
 23 29  1  0  0  0  0
 23 30  1  0  0  0  0
 18 24  1  0  0  0  0
  3  4  1  0  0  0  0
  3  5  1  0  0  0  0
  3  6  1  0  0  0  0
 11 14  1  0  0  0  0
 11 15  1  0  0  0  0
 11 16  1  0  0  0  0
 35 38  1  0  0  0  0
 35 39  1  0  0  0  0
 35 40  1  0  0  0  0
 42 44  1  0  0  0  0
 42 45  1  0  0  0  0
 42 46  1  0  0  0  0
  8 13  1  0  0  0  0
 32 37  1  0  0  0  0
 31 36  1  0  0  0  0
 41 43  1  0  0  0  0
  7 12  1  0  0  0  0
M  END
$$$$

  -OEChem-05262214473D

 46 46  0     1  0  0  0  0  0999 V2000
   -0.6012   -3.2995    3.8205 C   0  0  0  0  0  0  0  0  0  0  0  0
   -0.6574   -4.4683    3.4568 O   0  0  0  0  0  0  0  0  0  0  0  0
   -0.4935   -2.9859    5.2760 C   0  0  0  0  0  0  0  0  0  0  0  0
   -1.4789   -2.8689    5.7550 H   0  0  0  0  0  0  0  0  0  0  0  0
    0.0123   -3.7847    5.8419 H   0  0  0  0  0  0  0  0  0  0  0  0
    0.0585   -2.0642    5.5199 H   0  0  0  0  0  0  0  0  0  0  0  0
   -0.6261   -2.1849    2.9917 N   0  0  0  0  0  0  0  0  0  0  0  0
   -0.7237   -2.2601    1.5650 C   0  0  2  0  0  0  0  0  0  0  0  0
    0.1695   -1.1513    1.0687 C   0  0  0  0  0  0  0  0  0  0  0  0
    0.3193   -0.1267    1.7365 O   0  0  0  0  0  0  0  0  0  0  0  0
   -2.1397   -2.0663    1.0750 C   0  0  0  0  0  0  0  0  0  0  0  0
   -0.5717   -1.2606    3.4238 H   0  0  0  0  0  0  0  0  0  0  0  0
   -0.3076   -3.2111    1.2363 H   0  0  0  0  0  0  0  0  0  0  0  0
   -2.5584   -1.1089    1.4061 H   0  0  0  0  0  0  0  0  0  0  0  0
   -2.1682   -2.0790   -0.0197 H   0  0  0  0  0  0  0  0  0  0  0  0
   -2.7965   -2.8601    1.4459 H   0  0  0  0  0  0  0  0  0  0  0  0
    0.7724   -1.3745   -0.1593 N   0  0  0  0  0  0  0  0  0  0  0  0
    1.6644   -0.4046   -0.7812 C   0  0  2  0  0  0  0  0  0  0  0  0
    0.8166    0.4953   -1.6290 C   0  0  0  0  0  0  0  0  0  0  0  0
    0.7922    1.6981   -1.3961 O   0  0  0  0  0  0  0  0  0  0  0  0
    2.6195   -1.2417   -1.6241 C   0  0  0  0  0  0  0  0  0  0  0  0
    2.1758   -2.2356   -0.5535 C   0  0  0  0  0  0  0  0  0  0  0  0
    0.7499   -2.6270   -0.9105 C   0  0  0  0  0  0  0  0  0  0  0  0
    2.1745    0.2007   -0.0258 H   0  0  0  0  0  0  0  0  0  0  0  0
    3.6296   -0.8175   -1.5784 H   0  0  0  0  0  0  0  0  0  0  0  0
    2.3218   -1.3211   -2.6742 H   0  0  0  0  0  0  0  0  0  0  0  0
    2.8084   -3.1304   -0.5781 H   0  0  0  0  0  0  0  0  0  0  0  0
    2.2249   -1.8085    0.4522 H   0  0  0  0  0  0  0  0  0  0  0  0
    0.5944   -2.7143   -1.9893 H   0  0  0  0  0  0  0  0  0  0  0  0
    0.4645   -3.5695   -0.4308 H   0  0  0  0  0  0  0  0  0  0  0  0
    0.1465   -0.4666   -2.6616 N   0  0  0  0  0  0  0  0  0  0  0  0
   -0.6693    0.0470   -3.7385 C   0  0  2  0  0  0  0  0  0  0  0  0
    0.2357    0.8265   -4.6835 C   0  0  0  0  0  0  0  0  0  0  0  0
    1.3164    1.3003   -4.3388 O   0  0  0  0  0  0  0  0  0  0  0  0
   -1.7916    0.9274   -3.2111 C   0  0  0  0  0  0  0  0  0  0  0  0
    0.1695   -1.4704   -2.5089 H   0  0  0  0  0  0  0  0  0  0  0  0
   -1.0844   -0.8208   -4.2624 H   0  0  0  0  0  0  0  0  0  0  0  0
   -1.3949    1.8022   -2.6830 H   0  0  0  0  0  0  0  0  0  0  0  0
   -2.4256    1.2925   -4.0258 H   0  0  0  0  0  0  0  0  0  0  0  0
   -2.4239    0.3737   -2.5087 H   0  0  0  0  0  0  0  0  0  0  0  0
   -0.3251    0.9679   -5.9451 N   0  0  0  0  0  0  0  0  0  0  0  0
    0.3336    1.6789   -7.0158 C   0  0  0  0  0  0  0  0  0  0  0  0
   -1.2169    0.5260   -6.1478 H   0  0  0  0  0  0  0  0  0  0  0  0
    0.0077    2.7296   -7.0139 H   0  0  0  0  0  0  0  0  0  0  0  0
    1.4230    1.6328   -6.8707 H   0  0  0  0  0  0  0  0  0  0  0  0
    0.0720    1.2158   -7.9787 H   0  0  0  0  0  0  0  0  0  0  0  0
 18 19  1  0  0  0  0
 19 31  1  0  0  0  0
 19 20  2  0  0  0  0
  8  9  1  0  0  0  0
  9 17  1  0  0  0  0
  9 10  2  0  0  0  0
  1  3  1  0  0  0  0
  1  7  1  0  0  0  0
  1  2  2  0  0  0  0
 32 33  1  0  0  0  0
 33 41  1  0  0  0  0
 33 34  2  0  0  0  0
 21 22  1  0  0  0  0
 22 23  1  0  0  0  0
 18 21  1  0  0  0  0
 17 23  1  0  0  0  0
 17 18  1  0  0  0  0
  8 11  1  0  0  0  0
 32 35  1  0  0  0  0
 41 42  1  0  0  0  0
  7  8  1  0  0  0  0
 31 32  1  0  0  0  0
 22 27  1  0  0  0  0
 22 28  1  0  0  0  0
 21 25  1  0  0  0  0
 21 26  1  0  0  0  0
 23 29  1  0  0  0  0
 23 30  1  0  0  0  0
 18 24  1  0  0  0  0
  3  4  1  0  0  0  0
  3  5  1  0  0  0  0
  3  6  1  0  0  0  0
 11 14  1  0  0  0  0
 11 15  1  0  0  0  0
 11 16  1  0  0  0  0
 35 38  1  0  0  0  0
 35 39  1  0  0  0  0
 35 40  1  0  0  0  0
 42 44  1  0  0  0  0
 42 45  1  0  0  0  0
 42 46  1  0  0  0  0
  8 13  1  0  0  0  0
 32 37  1  0  0  0  0
 31 36  1  0  0  0  0
 41 43  1  0  0  0  0
  7 12  1  0  0  0  0
M  END
$$$$

  -OEChem-05262214473D

 46 46  0     1  0  0  0  0  0999 V2000
   -0.6012   -3.2995    3.8205 C   0  0  0  0  0  0  0  0  0  0  0  0
   -0.6574   -4.4683    3.4568 O   0  0  0  0  0  0  0  0  0  0  0  0
   -0.4935   -2.9859    5.2760 C   0  0  0  0  0  0  0  0  0  0  0  0
   -1.4789   -2.8689    5.7550 H   0  0  0  0  0  0  0  0  0  0  0  0
    0.0123   -3.7847    5.8419 H   0  0  0  0  0  0  0  0  0  0  0  0
    0.0585   -2.0642    5.5199 H   0  0  0  0  0  0  0  0  0  0  0  0
   -0.6261   -2.1849    2.9917 N   0  0  0  0  0  0  0  0  0  0  0  0
   -0.7237   -2.2601    1.5650 C   0  0  2  0  0  0  0  0  0  0  0  0
    0.1695   -1.1513    1.0687 C   0  0  0  0  0  0  0  0  0  0  0  0
    0.3193   -0.1267    1.7365 O   0  0  0  0  0  0  0  0  0  0  0  0
   -2.1397   -2.0663    1.0750 C   0  0  0  0  0  0  0  0  0  0  0  0
   -0.5717   -1.2606    3.4238 H   0  0  0  0  0  0  0  0  0  0  0  0
   -0.3076   -3.2111    1.2363 H   0  0  0  0  0  0  0  0  0  0  0  0
   -2.5584   -1.1089    1.4061 H   0  0  0  0  0  0  0  0  0  0  0  0
   -2.1682   -2.0790   -0.0197 H   0  0  0  0  0  0  0  0  0  0  0  0
   -2.7965   -2.8601    1.4459 H   0  0  0  0  0  0  0  0  0  0  0  0
    0.7724   -1.3745   -0.1593 N   0  0  0  0  0  0  0  0  0  0  0  0
    1.6644   -0.4046   -0.7812 C   0  0  2  0  0  0  0  0  0  0  0  0
    0.8166    0.4953   -1.6290 C   0  0  0  0  0  0  0  0  0  0  0  0
    0.9936    1.7072   -1.5879 O   0  0  0  0  0  0  0  0  0  0  0  0
    2.6195   -1.2417   -1.6241 C   0  0  0  0  0  0  0  0  0  0  0  0
    2.1758   -2.2356   -0.5535 C   0  0  0  0  0  0  0  0  0  0  0  0
    0.7499   -2.6270   -0.9105 C   0  0  0  0  0  0  0  0  0  0  0  0
    2.1745    0.2007   -0.0258 H   0  0  0  0  0  0  0  0  0  0  0  0
    3.6296   -0.8175   -1.5784 H   0  0  0  0  0  0  0  0  0  0  0  0
    2.3218   -1.3211   -2.6742 H   0  0  0  0  0  0  0  0  0  0  0  0
    2.8084   -3.1304   -0.5781 H   0  0  0  0  0  0  0  0  0  0  0  0
    2.2249   -1.8085    0.4522 H   0  0  0  0  0  0  0  0  0  0  0  0
    0.5944   -2.7143   -1.9893 H   0  0  0  0  0  0  0  0  0  0  0  0
    0.4645   -3.5695   -0.4308 H   0  0  0  0  0  0  0  0  0  0  0  0
   -0.1393   -0.4790   -2.3890 N   0  0  0  0  0  0  0  0  0  0  0  0
   -1.0460    0.0071   -3.4042 C   0  0  2  0  0  0  0  0  0  0  0  0
   -0.2140    0.4993   -4.5811 C   0  0  0  0  0  0  0  0  0  0  0  0
    0.9628    0.8385   -4.4753 O   0  0  0  0  0  0  0  0  0  0  0  0
   -1.9359    1.1166   -2.8659 C   0  0  0  0  0  0  0  0  0  0  0  0
   -0.2268   -1.4439   -2.0846 H   0  0  0  0  0  0  0  0  0  0  0  0
   -1.6556   -0.8469   -3.7189 H   0  0  0  0  0  0  0  0  0  0  0  0
   -1.3428    1.9809   -2.5455 H   0  0  0  0  0  0  0  0  0  0  0  0
   -2.6415    1.4641   -3.6277 H   0  0  0  0  0  0  0  0  0  0  0  0
   -2.5115    0.7695   -2.0010 H   0  0  0  0  0  0  0  0  0  0  0  0
   -0.9526    0.5561   -5.7547 N   0  0  0  0  0  0  0  0  0  0  0  0
   -0.3913    1.0033   -7.0081 C   0  0  0  0  0  0  0  0  0  0  0  0
   -1.9170    0.2374   -5.7542 H   0  0  0  0  0  0  0  0  0  0  0  0
   -0.5677    2.0827   -7.1251 H   0  0  0  0  0  0  0  0  0  0  0  0
    0.6907    0.8057   -7.0165 H   0  0  0  0  0  0  0  0  0  0  0  0
   -0.8694    0.4618   -7.8377 H   0  0  0  0  0  0  0  0  0  0  0  0
 18 19  1  0  0  0  0
 19 31  1  0  0  0  0
 19 20  2  0  0  0  0
  8  9  1  0  0  0  0
  9 17  1  0  0  0  0
  9 10  2  0  0  0  0
  1  3  1  0  0  0  0
  1  7  1  0  0  0  0
  1  2  2  0  0  0  0
 32 33  1  0  0  0  0
 33 41  1  0  0  0  0
 33 34  2  0  0  0  0
 21 22  1  0  0  0  0
 22 23  1  0  0  0  0
 18 21  1  0  0  0  0
 17 23  1  0  0  0  0
 17 18  1  0  0  0  0
  8 11  1  0  0  0  0
 32 35  1  0  0  0  0
 41 42  1  0  0  0  0
  7  8  1  0  0  0  0
 31 32  1  0  0  0  0
 22 27  1  0  0  0  0
 22 28  1  0  0  0  0
 21 25  1  0  0  0  0
 21 26  1  0  0  0  0
 23 29  1  0  0  0  0
 23 30  1  0  0  0  0
 18 24  1  0  0  0  0
  3  4  1  0  0  0  0
  3  5  1  0  0  0  0
  3  6  1  0  0  0  0
 11 14  1  0  0  0  0
 11 15  1  0  0  0  0
 11 16  1  0  0  0  0
 35 38  1  0  0  0  0
 35 39  1  0  0  0  0
 35 40  1  0  0  0  0
 42 44  1  0  0  0  0
 42 45  1  0  0  0  0
 42 46  1  0  0  0  0
  8 13  1  0  0  0  0
 32 37  1  0  0  0  0
 31 36  1  0  0  0  0
 41 43  1  0  0  0  0
  7 12  1  0  0  0  0
M  END
$$$$

  -OEChem-05262214473D

 46 46  0     1  0  0  0  0  0999 V2000
   -0.6012   -3.2995    3.8205 C   0  0  0  0  0  0  0  0  0  0  0  0
   -0.6574   -4.4683    3.4568 O   0  0  0  0  0  0  0  0  0  0  0  0
   -0.4935   -2.9859    5.2760 C   0  0  0  0  0  0  0  0  0  0  0  0
   -1.4789   -2.8689    5.7550 H   0  0  0  0  0  0  0  0  0  0  0  0
    0.0123   -3.7847    5.8419 H   0  0  0  0  0  0  0  0  0  0  0  0
    0.0585   -2.0642    5.5199 H   0  0  0  0  0  0  0  0  0  0  0  0
   -0.6261   -2.1849    2.9917 N   0  0  0  0  0  0  0  0  0  0  0  0
   -0.7237   -2.2601    1.5650 C   0  0  2  0  0  0  0  0  0  0  0  0
    0.1695   -1.1513    1.0687 C   0  0  0  0  0  0  0  0  0  0  0  0
    0.3193   -0.1267    1.7365 O   0  0  0  0  0  0  0  0  0  0  0  0
   -2.1397   -2.0663    1.0750 C   0  0  0  0  0  0  0  0  0  0  0  0
   -0.5717   -1.2606    3.4238 H   0  0  0  0  0  0  0  0  0  0  0  0
   -0.3076   -3.2111    1.2363 H   0  0  0  0  0  0  0  0  0  0  0  0
   -2.5584   -1.1089    1.4061 H   0  0  0  0  0  0  0  0  0  0  0  0
   -2.1682   -2.0790   -0.0197 H   0  0  0  0  0  0  0  0  0  0  0  0
   -2.7965   -2.8601    1.4459 H   0  0  0  0  0  0  0  0  0  0  0  0
    0.7724   -1.3745   -0.1593 N   0  0  0  0  0  0  0  0  0  0  0  0
    1.6644   -0.4046   -0.7812 C   0  0  2  0  0  0  0  0  0  0  0  0
    0.8166    0.4953   -1.6290 C   0  0  0  0  0  0  0  0  0  0  0  0
    1.1597    1.6584   -1.8059 O   0  0  0  0  0  0  0  0  0  0  0  0
    2.6195   -1.2417   -1.6241 C   0  0  0  0  0  0  0  0  0  0  0  0
    2.1758   -2.2356   -0.5535 C   0  0  0  0  0  0  0  0  0  0  0  0
    0.7499   -2.6270   -0.9105 C   0  0  0  0  0  0  0  0  0  0  0  0
    2.1745    0.2007   -0.0258 H   0  0  0  0  0  0  0  0  0  0  0  0
    3.6296   -0.8175   -1.5784 H   0  0  0  0  0  0  0  0  0  0  0  0
    2.3218   -1.3211   -2.6742 H   0  0  0  0  0  0  0  0  0  0  0  0
    2.8084   -3.1304   -0.5781 H   0  0  0  0  0  0  0  0  0  0  0  0
    2.2249   -1.8085    0.4522 H   0  0  0  0  0  0  0  0  0  0  0  0
    0.5944   -2.7143   -1.9893 H   0  0  0  0  0  0  0  0  0  0  0  0
    0.4645   -3.5695   -0.4308 H   0  0  0  0  0  0  0  0  0  0  0  0
   -0.3749   -0.4093   -2.0794 N   0  0  0  0  0  0  0  0  0  0  0  0
   -1.3638    0.0726   -3.0168 C   0  0  2  0  0  0  0  0  0  0  0  0
   -0.6804    0.2640   -4.3644 C   0  0  0  0  0  0  0  0  0  0  0  0
    0.5324    0.4242   -4.4847 O   0  0  0  0  0  0  0  0  0  0  0  0
   -1.9940    1.3710   -2.5377 C   0  0  0  0  0  0  0  0  0  0  0  0
   -0.5398   -1.2983   -1.6170 H   0  0  0  0  0  0  0  0  0  0  0  0
   -2.1267   -0.7089   -3.1013 H   0  0  0  0  0  0  0  0  0  0  0  0
   -1.2448    2.1660   -2.4469 H   0  0  0  0  0  0  0  0  0  0  0  0
   -2.7631    1.7197   -3.2348 H   0  0  0  0  0  0  0  0  0  0  0  0
   -2.4592    1.2390   -1.5548 H   0  0  0  0  0  0  0  0  0  0  0  0
   -1.5893    0.2781   -5.4131 N   0  0  0  0  0  0  0  0  0  0  0  0
   -1.1892    0.4579   -6.7892 C   0  0  0  0  0  0  0  0  0  0  0  0
   -2.5743    0.1186   -5.2229 H   0  0  0  0  0  0  0  0  0  0  0  0
   -1.2355    1.5259   -7.0485 H   0  0  0  0  0  0  0  0  0  0  0  0
   -0.1603    0.0926   -6.9225 H   0  0  0  0  0  0  0  0  0  0  0  0
   -1.8671   -0.1082   -7.4450 H   0  0  0  0  0  0  0  0  0  0  0  0
 18 19  1  0  0  0  0
 19 31  1  0  0  0  0
 19 20  2  0  0  0  0
  8  9  1  0  0  0  0
  9 17  1  0  0  0  0
  9 10  2  0  0  0  0
  1  3  1  0  0  0  0
  1  7  1  0  0  0  0
  1  2  2  0  0  0  0
 32 33  1  0  0  0  0
 33 41  1  0  0  0  0
 33 34  2  0  0  0  0
 21 22  1  0  0  0  0
 22 23  1  0  0  0  0
 18 21  1  0  0  0  0
 17 23  1  0  0  0  0
 17 18  1  0  0  0  0
  8 11  1  0  0  0  0
 32 35  1  0  0  0  0
 41 42  1  0  0  0  0
  7  8  1  0  0  0  0
 31 32  1  0  0  0  0
 22 27  1  0  0  0  0
 22 28  1  0  0  0  0
 21 25  1  0  0  0  0
 21 26  1  0  0  0  0
 23 29  1  0  0  0  0
 23 30  1  0  0  0  0
 18 24  1  0  0  0  0
  3  4  1  0  0  0  0
  3  5  1  0  0  0  0
  3  6  1  0  0  0  0
 11 14  1  0  0  0  0
 11 15  1  0  0  0  0
 11 16  1  0  0  0  0
 35 38  1  0  0  0  0
 35 39  1  0  0  0  0
 35 40  1  0  0  0  0
 42 44  1  0  0  0  0
 42 45  1  0  0  0  0
 42 46  1  0  0  0  0
  8 13  1  0  0  0  0
 32 37  1  0  0  0  0
 31 36  1  0  0  0  0
 41 43  1  0  0  0  0
  7 12  1  0  0  0  0
M  END
$$$$

  -OEChem-05262214473D

 46 46  0     1  0  0  0  0  0999 V2000
   -0.6012   -3.2995    3.8205 C   0  0  0  0  0  0  0  0  0  0  0  0
   -0.6574   -4.4683    3.4568 O   0  0  0  0  0  0  0  0  0  0  0  0
   -0.4935   -2.9859    5.2760 C   0  0  0  0  0  0  0  0  0  0  0  0
   -1.4789   -2.8689    5.7550 H   0  0  0  0  0  0  0  0  0  0  0  0
    0.0123   -3.7847    5.8419 H   0  0  0  0  0  0  0  0  0  0  0  0
    0.0585   -2.0642    5.5199 H   0  0  0  0  0  0  0  0  0  0  0  0
   -0.6261   -2.1849    2.9917 N   0  0  0  0  0  0  0  0  0  0  0  0
   -0.7237   -2.2601    1.5650 C   0  0  2  0  0  0  0  0  0  0  0  0
    0.1695   -1.1513    1.0687 C   0  0  0  0  0  0  0  0  0  0  0  0
    0.3193   -0.1267    1.7365 O   0  0  0  0  0  0  0  0  0  0  0  0
   -2.1397   -2.0663    1.0750 C   0  0  0  0  0  0  0  0  0  0  0  0
   -0.5717   -1.2606    3.4238 H   0  0  0  0  0  0  0  0  0  0  0  0
   -0.3076   -3.2111    1.2363 H   0  0  0  0  0  0  0  0  0  0  0  0
   -2.5584   -1.1089    1.4061 H   0  0  0  0  0  0  0  0  0  0  0  0
   -2.1682   -2.0790   -0.0197 H   0  0  0  0  0  0  0  0  0  0  0  0
   -2.7965   -2.8601    1.4459 H   0  0  0  0  0  0  0  0  0  0  0  0
    0.7724   -1.3745   -0.1593 N   0  0  0  0  0  0  0  0  0  0  0  0
    1.6644   -0.4046   -0.7812 C   0  0  2  0  0  0  0  0  0  0  0  0
    0.8166    0.4953   -1.6290 C   0  0  0  0  0  0  0  0  0  0  0  0
    1.2791    1.5550   -2.0350 O   0  0  0  0  0  0  0  0  0  0  0  0
    2.6195   -1.2417   -1.6241 C   0  0  0  0  0  0  0  0  0  0  0  0
    2.1758   -2.2356   -0.5535 C   0  0  0  0  0  0  0  0  0  0  0  0
    0.7499   -2.6270   -0.9105 C   0  0  0  0  0  0  0  0  0  0  0  0
    2.1745    0.2007   -0.0258 H   0  0  0  0  0  0  0  0  0  0  0  0
    3.6296   -0.8175   -1.5784 H   0  0  0  0  0  0  0  0  0  0  0  0
    2.3218   -1.3211   -2.6742 H   0  0  0  0  0  0  0  0  0  0  0  0
    2.8084   -3.1304   -0.5781 H   0  0  0  0  0  0  0  0  0  0  0  0
    2.2249   -1.8085    0.4522 H   0  0  0  0  0  0  0  0  0  0  0  0
    0.5944   -2.7143   -1.9893 H   0  0  0  0  0  0  0  0  0  0  0  0
    0.4645   -3.5695   -0.4308 H   0  0  0  0  0  0  0  0  0  0  0  0
   -0.5441   -0.2621   -1.7539 N   0  0  0  0  0  0  0  0  0  0  0  0
   -1.6010    0.2391   -2.6029 C   0  0  2  0  0  0  0  0  0  0  0  0
   -1.1317    0.1368   -4.0482 C   0  0  0  0  0  0  0  0  0  0  0  0
    0.0546    0.0857   -4.3662 O   0  0  0  0  0  0  0  0  0  0  0  0
   -1.9619    1.6734   -2.2489 C   0  0  0  0  0  0  0  0  0  0  0  0
   -0.7481   -1.0434   -1.1380 H   0  0  0  0  0  0  0  0  0  0  0  0
   -2.4656   -0.4163   -2.4518 H   0  0  0  0  0  0  0  0  0  0  0  0
   -1.1079    2.3449   -2.3940 H   0  0  0  0  0  0  0  0  0  0  0  0
   -2.7821    2.0419   -2.8738 H   0  0  0  0  0  0  0  0  0  0  0  0
   -2.2707    1.7502   -1.2007 H   0  0  0  0  0  0  0  0  0  0  0  0
   -2.1920    0.1527   -4.9435 N   0  0  0  0  0  0  0  0  0  0  0  0
   -2.0058    0.0799   -6.3739 C   0  0  0  0  0  0  0  0  0  0  0  0
   -3.1440    0.1779   -4.5902 H   0  0  0  0  0  0  0  0  0  0  0  0
   -1.9501    1.0970   -6.7891 H   0  0  0  0  0  0  0  0  0  0  0  0
   -1.0721   -0.4579   -6.5950 H   0  0  0  0  0  0  0  0  0  0  0  0
   -2.8533   -0.4552   -6.8271 H   0  0  0  0  0  0  0  0  0  0  0  0
 18 19  1  0  0  0  0
 19 31  1  0  0  0  0
 19 20  2  0  0  0  0
  8  9  1  0  0  0  0
  9 17  1  0  0  0  0
  9 10  2  0  0  0  0
  1  3  1  0  0  0  0
  1  7  1  0  0  0  0
  1  2  2  0  0  0  0
 32 33  1  0  0  0  0
 33 41  1  0  0  0  0
 33 34  2  0  0  0  0
 21 22  1  0  0  0  0
 22 23  1  0  0  0  0
 18 21  1  0  0  0  0
 17 23  1  0  0  0  0
 17 18  1  0  0  0  0
  8 11  1  0  0  0  0
 32 35  1  0  0  0  0
 41 42  1  0  0  0  0
  7  8  1  0  0  0  0
 31 32  1  0  0  0  0
 22 27  1  0  0  0  0
 22 28  1  0  0  0  0
 21 25  1  0  0  0  0
 21 26  1  0  0  0  0
 23 29  1  0  0  0  0
 23 30  1  0  0  0  0
 18 24  1  0  0  0  0
  3  4  1  0  0  0  0
  3  5  1  0  0  0  0
  3  6  1  0  0  0  0
 11 14  1  0  0  0  0
 11 15  1  0  0  0  0
 11 16  1  0  0  0  0
 35 38  1  0  0  0  0
 35 39  1  0  0  0  0
 35 40  1  0  0  0  0
 42 44  1  0  0  0  0
 42 45  1  0  0  0  0
 42 46  1  0  0  0  0
  8 13  1  0  0  0  0
 32 37  1  0  0  0  0
 31 36  1  0  0  0  0
 41 43  1  0  0  0  0
  7 12  1  0  0  0  0
M  END
$$$$

  -OEChem-05262214473D

 46 46  0     1  0  0  0  0  0999 V2000
   -0.6012   -3.2995    3.8205 C   0  0  0  0  0  0  0  0  0  0  0  0
   -0.6574   -4.4683    3.4568 O   0  0  0  0  0  0  0  0  0  0  0  0
   -0.4935   -2.9859    5.2760 C   0  0  0  0  0  0  0  0  0  0  0  0
   -1.4789   -2.8689    5.7550 H   0  0  0  0  0  0  0  0  0  0  0  0
    0.0123   -3.7847    5.8419 H   0  0  0  0  0  0  0  0  0  0  0  0
    0.0585   -2.0642    5.5199 H   0  0  0  0  0  0  0  0  0  0  0  0
   -0.6261   -2.1849    2.9917 N   0  0  0  0  0  0  0  0  0  0  0  0
   -0.7237   -2.2601    1.5650 C   0  0  2  0  0  0  0  0  0  0  0  0
    0.1695   -1.1513    1.0687 C   0  0  0  0  0  0  0  0  0  0  0  0
    0.3193   -0.1267    1.7365 O   0  0  0  0  0  0  0  0  0  0  0  0
   -2.1397   -2.0663    1.0750 C   0  0  0  0  0  0  0  0  0  0  0  0
   -0.5717   -1.2606    3.4238 H   0  0  0  0  0  0  0  0  0  0  0  0
   -0.3076   -3.2111    1.2363 H   0  0  0  0  0  0  0  0  0  0  0  0
   -2.5584   -1.1089    1.4061 H   0  0  0  0  0  0  0  0  0  0  0  0
   -2.1682   -2.0790   -0.0197 H   0  0  0  0  0  0  0  0  0  0  0  0
   -2.7965   -2.8601    1.4459 H   0  0  0  0  0  0  0  0  0  0  0  0
    0.7724   -1.3745   -0.1593 N   0  0  0  0  0  0  0  0  0  0  0  0
    1.6644   -0.4046   -0.7812 C   0  0  2  0  0  0  0  0  0  0  0  0
    0.8166    0.4953   -1.6290 C   0  0  0  0  0  0  0  0  0  0  0  0
    1.3437    1.4041   -2.2598 O   0  0  0  0  0  0  0  0  0  0  0  0
    2.6195   -1.2417   -1.6241 C   0  0  0  0  0  0  0  0  0  0  0  0
    2.1758   -2.2356   -0.5535 C   0  0  0  0  0  0  0  0  0  0  0  0
    0.7499   -2.6270   -0.9105 C   0  0  0  0  0  0  0  0  0  0  0  0
    2.1745    0.2007   -0.0258 H   0  0  0  0  0  0  0  0  0  0  0  0
    3.6296   -0.8175   -1.5784 H   0  0  0  0  0  0  0  0  0  0  0  0
    2.3218   -1.3211   -2.6742 H   0  0  0  0  0  0  0  0  0  0  0  0
    2.8084   -3.1304   -0.5781 H   0  0  0  0  0  0  0  0  0  0  0  0
    2.2249   -1.8085    0.4522 H   0  0  0  0  0  0  0  0  0  0  0  0
    0.5944   -2.7143   -1.9893 H   0  0  0  0  0  0  0  0  0  0  0  0
    0.4645   -3.5695   -0.4308 H   0  0  0  0  0  0  0  0  0  0  0  0
   -0.6354   -0.0475   -1.4348 N   0  0  0  0  0  0  0  0  0  0  0  0
   -1.7414    0.4952   -2.1906 C   0  0  2  0  0  0  0  0  0  0  0  0
   -1.5371    0.1262   -3.6540 C   0  0  0  0  0  0  0  0  0  0  0  0
   -0.4381   -0.1540   -4.1280 O   0  0  0  0  0  0  0  0  0  0  0  0
   -1.8418    2.0030   -2.0191 C   0  0  0  0  0  0  0  0  0  0  0  0
   -0.8376   -0.6965   -0.6803 H   0  0  0  0  0  0  0  0  0  0  0  0
   -2.6493    0.0110   -1.8145 H   0  0  0  0  0  0  0  0  0  0  0  0
   -0.9411    2.5054   -2.3904 H   0  0  0  0  0  0  0  0  0  0  0  0
   -2.6972    2.4088   -2.5693 H   0  0  0  0  0  0  0  0  0  0  0  0
   -1.9588    2.2681   -0.9628 H   0  0  0  0  0  0  0  0  0  0  0  0
   -2.7196    0.1885   -4.3779 N   0  0  0  0  0  0  0  0  0  0  0  0
   -2.7853   -0.1049   -5.7905 C   0  0  0  0  0  0  0  0  0  0  0  0
   -3.5874    0.4112   -3.8992 H   0  0  0  0  0  0  0  0  0  0  0  0
   -2.6628    0.8252   -6.3649 H   0  0  0  0  0  0  0  0  0  0  0  0
   -1.9825   -0.8083   -6.0565 H   0  0  0  0  0  0  0  0  0  0  0  0
   -3.7607   -0.5556   -6.0263 H   0  0  0  0  0  0  0  0  0  0  0  0
 18 19  1  0  0  0  0
 19 31  1  0  0  0  0
 19 20  2  0  0  0  0
  8  9  1  0  0  0  0
  9 17  1  0  0  0  0
  9 10  2  0  0  0  0
  1  3  1  0  0  0  0
  1  7  1  0  0  0  0
  1  2  2  0  0  0  0
 32 33  1  0  0  0  0
 33 41  1  0  0  0  0
 33 34  2  0  0  0  0
 21 22  1  0  0  0  0
 22 23  1  0  0  0  0
 18 21  1  0  0  0  0
 17 23  1  0  0  0  0
 17 18  1  0  0  0  0
  8 11  1  0  0  0  0
 32 35  1  0  0  0  0
 41 42  1  0  0  0  0
  7  8  1  0  0  0  0
 31 32  1  0  0  0  0
 22 27  1  0  0  0  0
 22 28  1  0  0  0  0
 21 25  1  0  0  0  0
 21 26  1  0  0  0  0
 23 29  1  0  0  0  0
 23 30  1  0  0  0  0
 18 24  1  0  0  0  0
  3  4  1  0  0  0  0
  3  5  1  0  0  0  0
  3  6  1  0  0  0  0
 11 14  1  0  0  0  0
 11 15  1  0  0  0  0
 11 16  1  0  0  0  0
 35 38  1  0  0  0  0
 35 39  1  0  0  0  0
 35 40  1  0  0  0  0
 42 44  1  0  0  0  0
 42 45  1  0  0  0  0
 42 46  1  0  0  0  0
  8 13  1  0  0  0  0
 32 37  1  0  0  0  0
 31 36  1  0  0  0  0
 41 43  1  0  0  0  0
  7 12  1  0  0  0  0
M  END
$$$$

  -OEChem-05262214473D

 46 46  0     1  0  0  0  0  0999 V2000
   -0.6012   -3.2995    3.8205 C   0  0  0  0  0  0  0  0  0  0  0  0
   -0.6574   -4.4683    3.4568 O   0  0  0  0  0  0  0  0  0  0  0  0
   -0.4935   -2.9859    5.2760 C   0  0  0  0  0  0  0  0  0  0  0  0
   -1.4789   -2.8689    5.7550 H   0  0  0  0  0  0  0  0  0  0  0  0
    0.0123   -3.7847    5.8419 H   0  0  0  0  0  0  0  0  0  0  0  0
    0.0585   -2.0642    5.5199 H   0  0  0  0  0  0  0  0  0  0  0  0
   -0.6261   -2.1849    2.9917 N   0  0  0  0  0  0  0  0  0  0  0  0
   -0.7237   -2.2601    1.5650 C   0  0  2  0  0  0  0  0  0  0  0  0
    0.1695   -1.1513    1.0687 C   0  0  0  0  0  0  0  0  0  0  0  0
    0.3193   -0.1267    1.7365 O   0  0  0  0  0  0  0  0  0  0  0  0
   -2.1397   -2.0663    1.0750 C   0  0  0  0  0  0  0  0  0  0  0  0
   -0.5717   -1.2606    3.4238 H   0  0  0  0  0  0  0  0  0  0  0  0
   -0.3076   -3.2111    1.2363 H   0  0  0  0  0  0  0  0  0  0  0  0
   -2.5584   -1.1089    1.4061 H   0  0  0  0  0  0  0  0  0  0  0  0
   -2.1682   -2.0790   -0.0197 H   0  0  0  0  0  0  0  0  0  0  0  0
   -2.7965   -2.8601    1.4459 H   0  0  0  0  0  0  0  0  0  0  0  0
    0.7724   -1.3745   -0.1593 N   0  0  0  0  0  0  0  0  0  0  0  0
    1.6644   -0.4046   -0.7812 C   0  0  2  0  0  0  0  0  0  0  0  0
    0.8166    0.4953   -1.6290 C   0  0  0  0  0  0  0  0  0  0  0  0
    1.3491    1.2160   -2.4649 O   0  0  0  0  0  0  0  0  0  0  0  0
    2.6195   -1.2417   -1.6241 C   0  0  0  0  0  0  0  0  0  0  0  0
    2.1758   -2.2356   -0.5535 C   0  0  0  0  0  0  0  0  0  0  0  0
    0.7499   -2.6270   -0.9105 C   0  0  0  0  0  0  0  0  0  0  0  0
    2.1745    0.2007   -0.0258 H   0  0  0  0  0  0  0  0  0  0  0  0
    3.6296   -0.8175   -1.5784 H   0  0  0  0  0  0  0  0  0  0  0  0
    2.3218   -1.3211   -2.6742 H   0  0  0  0  0  0  0  0  0  0  0  0
    2.8084   -3.1304   -0.5781 H   0  0  0  0  0  0  0  0  0  0  0  0
    2.2249   -1.8085    0.4522 H   0  0  0  0  0  0  0  0  0  0  0  0
    0.5944   -2.7143   -1.9893 H   0  0  0  0  0  0  0  0  0  0  0  0
    0.4645   -3.5695   -0.4308 H   0  0  0  0  0  0  0  0  0  0  0  0
   -0.6426    0.2198   -1.1438 N   0  0  0  0  0  0  0  0  0  0  0  0
   -1.7755    0.8235   -1.8080 C   0  0  2  0  0  0  0  0  0  0  0  0
   -1.8690    0.2330   -3.2087 C   0  0  0  0  0  0  0  0  0  0  0  0
   -0.9120   -0.2785   -3.7863 O   0  0  0  0  0  0  0  0  0  0  0  0
   -1.6418    2.3374   -1.8641 C   0  0  0  0  0  0  0  0  0  0  0  0
   -0.8022   -0.2814   -0.2751 H   0  0  0  0  0  0  0  0  0  0  0  0
   -2.6650    0.5440   -1.2330 H   0  0  0  0  0  0  0  0  0  0  0  0
   -0.7560    2.6366   -2.4362 H   0  0  0  0  0  0  0  0  0  0  0  0
   -2.5141    2.7953   -2.3420 H   0  0  0  0  0  0  0  0  0  0  0  0
   -1.5447    2.7576   -0.8573 H   0  0  0  0  0  0  0  0  0  0  0  0
   -3.1361    0.3831   -3.7548 N   0  0  0  0  0  0  0  0  0  0  0  0
   -3.4747   -0.0840   -5.0789 C   0  0  0  0  0  0  0  0  0  0  0  0
   -3.8741    0.8025   -3.1971 H   0  0  0  0  0  0  0  0  0  0  0  0
   -3.3252    0.7292   -5.8045 H   0  0  0  0  0  0  0  0  0  0  0  0
   -2.8295   -0.9347   -5.3436 H   0  0  0  0  0  0  0  0  0  0  0  0
   -4.5274   -0.4025   -5.0971 H   0  0  0  0  0  0  0  0  0  0  0  0
 18 19  1  0  0  0  0
 19 31  1  0  0  0  0
 19 20  2  0  0  0  0
  8  9  1  0  0  0  0
  9 17  1  0  0  0  0
  9 10  2  0  0  0  0
  1  3  1  0  0  0  0
  1  7  1  0  0  0  0
  1  2  2  0  0  0  0
 32 33  1  0  0  0  0
 33 41  1  0  0  0  0
 33 34  2  0  0  0  0
 21 22  1  0  0  0  0
 22 23  1  0  0  0  0
 18 21  1  0  0  0  0
 17 23  1  0  0  0  0
 17 18  1  0  0  0  0
  8 11  1  0  0  0  0
 32 35  1  0  0  0  0
 41 42  1  0  0  0  0
  7  8  1  0  0  0  0
 31 32  1  0  0  0  0
 22 27  1  0  0  0  0
 22 28  1  0  0  0  0
 21 25  1  0  0  0  0
 21 26  1  0  0  0  0
 23 29  1  0  0  0  0
 23 30  1  0  0  0  0
 18 24  1  0  0  0  0
  3  4  1  0  0  0  0
  3  5  1  0  0  0  0
  3  6  1  0  0  0  0
 11 14  1  0  0  0  0
 11 15  1  0  0  0  0
 11 16  1  0  0  0  0
 35 38  1  0  0  0  0
 35 39  1  0  0  0  0
 35 40  1  0  0  0  0
 42 44  1  0  0  0  0
 42 45  1  0  0  0  0
 42 46  1  0  0  0  0
  8 13  1  0  0  0  0
 32 37  1  0  0  0  0
 31 36  1  0  0  0  0
 41 43  1  0  0  0  0
  7 12  1  0  0  0  0
M  END
$$$$

  -OEChem-05262214473D

 46 46  0     1  0  0  0  0  0999 V2000
   -0.6012   -3.2995    3.8205 C   0  0  0  0  0  0  0  0  0  0  0  0
   -0.6574   -4.4683    3.4568 O   0  0  0  0  0  0  0  0  0  0  0  0
   -0.4935   -2.9859    5.2760 C   0  0  0  0  0  0  0  0  0  0  0  0
   -1.4789   -2.8689    5.7550 H   0  0  0  0  0  0  0  0  0  0  0  0
    0.0123   -3.7847    5.8419 H   0  0  0  0  0  0  0  0  0  0  0  0
    0.0585   -2.0642    5.5199 H   0  0  0  0  0  0  0  0  0  0  0  0
   -0.6261   -2.1849    2.9917 N   0  0  0  0  0  0  0  0  0  0  0  0
   -0.7237   -2.2601    1.5650 C   0  0  2  0  0  0  0  0  0  0  0  0
    0.1695   -1.1513    1.0687 C   0  0  0  0  0  0  0  0  0  0  0  0
    0.3193   -0.1267    1.7365 O   0  0  0  0  0  0  0  0  0  0  0  0
   -2.1397   -2.0663    1.0750 C   0  0  0  0  0  0  0  0  0  0  0  0
   -0.5717   -1.2606    3.4238 H   0  0  0  0  0  0  0  0  0  0  0  0
   -0.3076   -3.2111    1.2363 H   0  0  0  0  0  0  0  0  0  0  0  0
   -2.5584   -1.1089    1.4061 H   0  0  0  0  0  0  0  0  0  0  0  0
   -2.1682   -2.0790   -0.0197 H   0  0  0  0  0  0  0  0  0  0  0  0
   -2.7965   -2.8601    1.4459 H   0  0  0  0  0  0  0  0  0  0  0  0
    0.7724   -1.3745   -0.1593 N   0  0  0  0  0  0  0  0  0  0  0  0
    1.6644   -0.4046   -0.7812 C   0  0  2  0  0  0  0  0  0  0  0  0
    0.8166    0.4953   -1.6290 C   0  0  0  0  0  0  0  0  0  0  0  0
    1.2950    1.0035   -2.6363 O   0  0  0  0  0  0  0  0  0  0  0  0
    2.6195   -1.2417   -1.6241 C   0  0  0  0  0  0  0  0  0  0  0  0
    2.1758   -2.2356   -0.5535 C   0  0  0  0  0  0  0  0  0  0  0  0
    0.7499   -2.6270   -0.9105 C   0  0  0  0  0  0  0  0  0  0  0  0
    2.1745    0.2007   -0.0258 H   0  0  0  0  0  0  0  0  0  0  0  0
    3.6296   -0.8175   -1.5784 H   0  0  0  0  0  0  0  0  0  0  0  0
    2.3218   -1.3211   -2.6742 H   0  0  0  0  0  0  0  0  0  0  0  0
    2.8084   -3.1304   -0.5781 H   0  0  0  0  0  0  0  0  0  0  0  0
    2.2249   -1.8085    0.4522 H   0  0  0  0  0  0  0  0  0  0  0  0
    0.5944   -2.7143   -1.9893 H   0  0  0  0  0  0  0  0  0  0  0  0
    0.4645   -3.5695   -0.4308 H   0  0  0  0  0  0  0  0  0  0  0  0
   -0.5653    0.5217   -0.9007 N   0  0  0  0  0  0  0  0  0  0  0  0
   -1.7009    1.2016   -1.4812 C   0  0  2  0  0  0  0  0  0  0  0  0
   -2.1048    0.4499   -2.7427 C   0  0  0  0  0  0  0  0  0  0  0  0
   -1.3350   -0.2795   -3.3643 O   0  0  0  0  0  0  0  0  0  0  0  0
   -1.3756    2.6538   -1.7944 C   0  0  0  0  0  0  0  0  0  0  0  0
   -0.6443    0.1737    0.0501 H   0  0  0  0  0  0  0  0  0  0  0  0
   -2.5120    1.1462   -0.7469 H   0  0  0  0  0  0  0  0  0  0  0  0
   -0.5651    2.7295   -2.5285 H   0  0  0  0  0  0  0  0  0  0  0  0
   -2.2455    3.1751   -2.2076 H   0  0  0  0  0  0  0  0  0  0  0  0
   -1.0567    3.1853   -0.8913 H   0  0  0  0  0  0  0  0  0  0  0  0
   -3.4130    0.7233   -3.1168 N   0  0  0  0  0  0  0  0  0  0  0  0
   -4.0269    0.1414   -4.2875 C   0  0  0  0  0  0  0  0  0  0  0  0
   -3.9847    1.3253   -2.5316 H   0  0  0  0  0  0  0  0  0  0  0  0
   -3.8919    0.8153   -5.1463 H   0  0  0  0  0  0  0  0  0  0  0  0
   -3.5554   -0.8284   -4.5049 H   0  0  0  0  0  0  0  0  0  0  0  0
   -5.1012   -0.0065   -4.1029 H   0  0  0  0  0  0  0  0  0  0  0  0
 18 19  1  0  0  0  0
 19 31  1  0  0  0  0
 19 20  2  0  0  0  0
  8  9  1  0  0  0  0
  9 17  1  0  0  0  0
  9 10  2  0  0  0  0
  1  3  1  0  0  0  0
  1  7  1  0  0  0  0
  1  2  2  0  0  0  0
 32 33  1  0  0  0  0
 33 41  1  0  0  0  0
 33 34  2  0  0  0  0
 21 22  1  0  0  0  0
 22 23  1  0  0  0  0
 18 21  1  0  0  0  0
 17 23  1  0  0  0  0
 17 18  1  0  0  0  0
  8 11  1  0  0  0  0
 32 35  1  0  0  0  0
 41 42  1  0  0  0  0
  7  8  1  0  0  0  0
 31 32  1  0  0  0  0
 22 27  1  0  0  0  0
 22 28  1  0  0  0  0
 21 25  1  0  0  0  0
 21 26  1  0  0  0  0
 23 29  1  0  0  0  0
 23 30  1  0  0  0  0
 18 24  1  0  0  0  0
  3  4  1  0  0  0  0
  3  5  1  0  0  0  0
  3  6  1  0  0  0  0
 11 14  1  0  0  0  0
 11 15  1  0  0  0  0
 11 16  1  0  0  0  0
 35 38  1  0  0  0  0
 35 39  1  0  0  0  0
 35 40  1  0  0  0  0
 42 44  1  0  0  0  0
 42 45  1  0  0  0  0
 42 46  1  0  0  0  0
  8 13  1  0  0  0  0
 32 37  1  0  0  0  0
 31 36  1  0  0  0  0
 41 43  1  0  0  0  0
  7 12  1  0  0  0  0
M  END
$$$$

  -OEChem-05262214473D

 46 46  0     1  0  0  0  0  0999 V2000
   -0.6012   -3.2995    3.8205 C   0  0  0  0  0  0  0  0  0  0  0  0
   -0.6574   -4.4683    3.4568 O   0  0  0  0  0  0  0  0  0  0  0  0
   -0.4935   -2.9859    5.2760 C   0  0  0  0  0  0  0  0  0  0  0  0
   -1.4789   -2.8689    5.7550 H   0  0  0  0  0  0  0  0  0  0  0  0
    0.0123   -3.7847    5.8419 H   0  0  0  0  0  0  0  0  0  0  0  0
    0.0585   -2.0642    5.5199 H   0  0  0  0  0  0  0  0  0  0  0  0
   -0.6261   -2.1849    2.9917 N   0  0  0  0  0  0  0  0  0  0  0  0
   -0.7237   -2.2601    1.5650 C   0  0  2  0  0  0  0  0  0  0  0  0
    0.1695   -1.1513    1.0687 C   0  0  0  0  0  0  0  0  0  0  0  0
    0.3193   -0.1267    1.7365 O   0  0  0  0  0  0  0  0  0  0  0  0
   -2.1397   -2.0663    1.0750 C   0  0  0  0  0  0  0  0  0  0  0  0
   -0.5717   -1.2606    3.4238 H   0  0  0  0  0  0  0  0  0  0  0  0
   -0.3076   -3.2111    1.2363 H   0  0  0  0  0  0  0  0  0  0  0  0
   -2.5584   -1.1089    1.4061 H   0  0  0  0  0  0  0  0  0  0  0  0
   -2.1682   -2.0790   -0.0197 H   0  0  0  0  0  0  0  0  0  0  0  0
   -2.7965   -2.8601    1.4459 H   0  0  0  0  0  0  0  0  0  0  0  0
    0.7724   -1.3745   -0.1593 N   0  0  0  0  0  0  0  0  0  0  0  0
    1.6644   -0.4046   -0.7812 C   0  0  2  0  0  0  0  0  0  0  0  0
    0.8166    0.4953   -1.6290 C   0  0  0  0  0  0  0  0  0  0  0  0
    1.1849    0.7811   -2.7623 O   0  0  0  0  0  0  0  0  0  0  0  0
    2.6195   -1.2417   -1.6241 C   0  0  0  0  0  0  0  0  0  0  0  0
    2.1758   -2.2356   -0.5535 C   0  0  0  0  0  0  0  0  0  0  0  0
    0.7499   -2.6270   -0.9105 C   0  0  0  0  0  0  0  0  0  0  0  0
    2.1745    0.2007   -0.0258 H   0  0  0  0  0  0  0  0  0  0  0  0
    3.6296   -0.8175   -1.5784 H   0  0  0  0  0  0  0  0  0  0  0  0
    2.3218   -1.3211   -2.6742 H   0  0  0  0  0  0  0  0  0  0  0  0
    2.8084   -3.1304   -0.5781 H   0  0  0  0  0  0  0  0  0  0  0  0
    2.2249   -1.8085    0.4522 H   0  0  0  0  0  0  0  0  0  0  0  0
    0.5944   -2.7143   -1.9893 H   0  0  0  0  0  0  0  0  0  0  0  0
    0.4645   -3.5695   -0.4308 H   0  0  0  0  0  0  0  0  0  0  0  0
   -0.4086    0.8375   -0.7221 N   0  0  0  0  0  0  0  0  0  0  0  0
   -1.5228    1.6038   -1.2324 C   0  0  2  0  0  0  0  0  0  0  0  0
   -2.2284    0.7622   -2.2876 C   0  0  0  0  0  0  0  0  0  0  0  0
   -1.6781   -0.1567   -2.8909 O   0  0  0  0  0  0  0  0  0  0  0  0
   -1.0613    2.9307   -1.8148 C   0  0  0  0  0  0  0  0  0  0  0  0
   -0.3746    0.6378    0.2730 H   0  0  0  0  0  0  0  0  0  0  0  0
   -2.2004    1.7766   -0.3892 H   0  0  0  0  0  0  0  0  0  0  0  0
   -0.3815    2.7777   -2.6609 H   0  0  0  0  0  0  0  0  0  0  0  0
   -1.9095    3.5223   -2.1750 H   0  0  0  0  0  0  0  0  0  0  0  0
   -0.5280    3.5220   -1.0626 H   0  0  0  0  0  0  0  0  0  0  0  0
   -3.5316    1.1857   -2.5072 N   0  0  0  0  0  0  0  0  0  0  0  0
   -4.4044    0.5557   -3.4702 C   0  0  0  0  0  0  0  0  0  0  0  0
   -3.9116    1.9438   -1.9481 H   0  0  0  0  0  0  0  0  0  0  0  0
   -4.3245    1.0779   -4.4351 H   0  0  0  0  0  0  0  0  0  0  0  0
   -4.1107   -0.4967   -3.5976 H   0  0  0  0  0  0  0  0  0  0  0  0
   -5.4430    0.6056   -3.1113 H   0  0  0  0  0  0  0  0  0  0  0  0
 18 19  1  0  0  0  0
 19 31  1  0  0  0  0
 19 20  2  0  0  0  0
  8  9  1  0  0  0  0
  9 17  1  0  0  0  0
  9 10  2  0  0  0  0
  1  3  1  0  0  0  0
  1  7  1  0  0  0  0
  1  2  2  0  0  0  0
 32 33  1  0  0  0  0
 33 41  1  0  0  0  0
 33 34  2  0  0  0  0
 21 22  1  0  0  0  0
 22 23  1  0  0  0  0
 18 21  1  0  0  0  0
 17 23  1  0  0  0  0
 17 18  1  0  0  0  0
  8 11  1  0  0  0  0
 32 35  1  0  0  0  0
 41 42  1  0  0  0  0
  7  8  1  0  0  0  0
 31 32  1  0  0  0  0
 22 27  1  0  0  0  0
 22 28  1  0  0  0  0
 21 25  1  0  0  0  0
 21 26  1  0  0  0  0
 23 29  1  0  0  0  0
 23 30  1  0  0  0  0
 18 24  1  0  0  0  0
  3  4  1  0  0  0  0
  3  5  1  0  0  0  0
  3  6  1  0  0  0  0
 11 14  1  0  0  0  0
 11 15  1  0  0  0  0
 11 16  1  0  0  0  0
 35 38  1  0  0  0  0
 35 39  1  0  0  0  0
 35 40  1  0  0  0  0
 42 44  1  0  0  0  0
 42 45  1  0  0  0  0
 42 46  1  0  0  0  0
  8 13  1  0  0  0  0
 32 37  1  0  0  0  0
 31 36  1  0  0  0  0
 41 43  1  0  0  0  0
  7 12  1  0  0  0  0
M  END
$$$$

  -OEChem-05262214473D

 46 46  0     1  0  0  0  0  0999 V2000
   -0.6012   -3.2995    3.8205 C   0  0  0  0  0  0  0  0  0  0  0  0
   -0.6574   -4.4683    3.4568 O   0  0  0  0  0  0  0  0  0  0  0  0
   -0.4935   -2.9859    5.2760 C   0  0  0  0  0  0  0  0  0  0  0  0
   -1.4789   -2.8689    5.7550 H   0  0  0  0  0  0  0  0  0  0  0  0
    0.0123   -3.7847    5.8419 H   0  0  0  0  0  0  0  0  0  0  0  0
    0.0585   -2.0642    5.5199 H   0  0  0  0  0  0  0  0  0  0  0  0
   -0.6261   -2.1849    2.9917 N   0  0  0  0  0  0  0  0  0  0  0  0
   -0.7237   -2.2601    1.5650 C   0  0  2  0  0  0  0  0  0  0  0  0
    0.1695   -1.1513    1.0687 C   0  0  0  0  0  0  0  0  0  0  0  0
    0.3193   -0.1267    1.7365 O   0  0  0  0  0  0  0  0  0  0  0  0
   -2.1397   -2.0663    1.0750 C   0  0  0  0  0  0  0  0  0  0  0  0
   -0.5717   -1.2606    3.4238 H   0  0  0  0  0  0  0  0  0  0  0  0
   -0.3076   -3.2111    1.2363 H   0  0  0  0  0  0  0  0  0  0  0  0
   -2.5584   -1.1089    1.4061 H   0  0  0  0  0  0  0  0  0  0  0  0
   -2.1682   -2.0790   -0.0197 H   0  0  0  0  0  0  0  0  0  0  0  0
   -2.7965   -2.8601    1.4459 H   0  0  0  0  0  0  0  0  0  0  0  0
    0.7724   -1.3745   -0.1593 N   0  0  0  0  0  0  0  0  0  0  0  0
    1.6644   -0.4046   -0.7812 C   0  0  2  0  0  0  0  0  0  0  0  0
    0.8166    0.4953   -1.6290 C   0  0  0  0  0  0  0  0  0  0  0  0
    1.0265    0.5640   -2.8344 O   0  0  0  0  0  0  0  0  0  0  0  0
    2.6195   -1.2417   -1.6241 C   0  0  0  0  0  0  0  0  0  0  0  0
    2.1758   -2.2356   -0.5535 C   0  0  0  0  0  0  0  0  0  0  0  0
    0.7499   -2.6270   -0.9105 C   0  0  0  0  0  0  0  0  0  0  0  0
    2.1745    0.2007   -0.0258 H   0  0  0  0  0  0  0  0  0  0  0  0
    3.6296   -0.8175   -1.5784 H   0  0  0  0  0  0  0  0  0  0  0  0
    2.3218   -1.3211   -2.6742 H   0  0  0  0  0  0  0  0  0  0  0  0
    2.8084   -3.1304   -0.5781 H   0  0  0  0  0  0  0  0  0  0  0  0
    2.2249   -1.8085    0.4522 H   0  0  0  0  0  0  0  0  0  0  0  0
    0.5944   -2.7143   -1.9893 H   0  0  0  0  0  0  0  0  0  0  0  0
    0.4645   -3.5695   -0.4308 H   0  0  0  0  0  0  0  0  0  0  0  0
   -0.1833    1.1458   -0.6202 N   0  0  0  0  0  0  0  0  0  0  0  0
   -1.2532    2.0025   -1.0787 C   0  0  2  0  0  0  0  0  0  0  0  0
   -2.2313    1.1485   -1.8746 C   0  0  0  0  0  0  0  0  0  0  0  0
   -1.9180    0.0814   -2.3982 O   0  0  0  0  0  0  0  0  0  0  0  0
   -0.7204    3.1491   -1.9238 C   0  0  0  0  0  0  0  0  0  0  0  0
   -0.0115    1.0792    0.3785 H   0  0  0  0  0  0  0  0  0  0  0  0
   -1.7516    2.3923   -0.1844 H   0  0  0  0  0  0  0  0  0  0  0  0
   -0.2176    2.7781   -2.8244 H   0  0  0  0  0  0  0  0  0  0  0  0
   -1.5290    3.8132   -2.2466 H   0  0  0  0  0  0  0  0  0  0  0  0
    0.0053    3.7447   -1.3595 H   0  0  0  0  0  0  0  0  0  0  0  0
   -3.4838    1.7390   -1.9677 N   0  0  0  0  0  0  0  0  0  0  0  0
   -4.5814    1.1307   -2.6828 C   0  0  0  0  0  0  0  0  0  0  0  0
   -3.6598    2.6160   -1.4863 H   0  0  0  0  0  0  0  0  0  0  0  0
   -4.5933    1.4988   -3.7193 H   0  0  0  0  0  0  0  0  0  0  0  0
   -4.4575    0.0377   -2.6834 H   0  0  0  0  0  0  0  0  0  0  0  0
   -5.5295    1.3920   -2.1900 H   0  0  0  0  0  0  0  0  0  0  0  0
 18 19  1  0  0  0  0
 19 31  1  0  0  0  0
 19 20  2  0  0  0  0
  8  9  1  0  0  0  0
  9 17  1  0  0  0  0
  9 10  2  0  0  0  0
  1  3  1  0  0  0  0
  1  7  1  0  0  0  0
  1  2  2  0  0  0  0
 32 33  1  0  0  0  0
 33 41  1  0  0  0  0
 33 34  2  0  0  0  0
 21 22  1  0  0  0  0
 22 23  1  0  0  0  0
 18 21  1  0  0  0  0
 17 23  1  0  0  0  0
 17 18  1  0  0  0  0
  8 11  1  0  0  0  0
 32 35  1  0  0  0  0
 41 42  1  0  0  0  0
  7  8  1  0  0  0  0
 31 32  1  0  0  0  0
 22 27  1  0  0  0  0
 22 28  1  0  0  0  0
 21 25  1  0  0  0  0
 21 26  1  0  0  0  0
 23 29  1  0  0  0  0
 23 30  1  0  0  0  0
 18 24  1  0  0  0  0
  3  4  1  0  0  0  0
  3  5  1  0  0  0  0
  3  6  1  0  0  0  0
 11 14  1  0  0  0  0
 11 15  1  0  0  0  0
 11 16  1  0  0  0  0
 35 38  1  0  0  0  0
 35 39  1  0  0  0  0
 35 40  1  0  0  0  0
 42 44  1  0  0  0  0
 42 45  1  0  0  0  0
 42 46  1  0  0  0  0
  8 13  1  0  0  0  0
 32 37  1  0  0  0  0
 31 36  1  0  0  0  0
 41 43  1  0  0  0  0
  7 12  1  0  0  0  0
M  END
$$$$

  -OEChem-05262214473D

 46 46  0     1  0  0  0  0  0999 V2000
   -0.6012   -3.2995    3.8205 C   0  0  0  0  0  0  0  0  0  0  0  0
   -0.6574   -4.4683    3.4568 O   0  0  0  0  0  0  0  0  0  0  0  0
   -0.4935   -2.9859    5.2760 C   0  0  0  0  0  0  0  0  0  0  0  0
   -1.4789   -2.8689    5.7550 H   0  0  0  0  0  0  0  0  0  0  0  0
    0.0123   -3.7847    5.8419 H   0  0  0  0  0  0  0  0  0  0  0  0
    0.0585   -2.0642    5.5199 H   0  0  0  0  0  0  0  0  0  0  0  0
   -0.6261   -2.1849    2.9917 N   0  0  0  0  0  0  0  0  0  0  0  0
   -0.7237   -2.2601    1.5650 C   0  0  2  0  0  0  0  0  0  0  0  0
    0.1695   -1.1513    1.0687 C   0  0  0  0  0  0  0  0  0  0  0  0
    0.3193   -0.1267    1.7365 O   0  0  0  0  0  0  0  0  0  0  0  0
   -2.1397   -2.0663    1.0750 C   0  0  0  0  0  0  0  0  0  0  0  0
   -0.5717   -1.2606    3.4238 H   0  0  0  0  0  0  0  0  0  0  0  0
   -0.3076   -3.2111    1.2363 H   0  0  0  0  0  0  0  0  0  0  0  0
   -2.5584   -1.1089    1.4061 H   0  0  0  0  0  0  0  0  0  0  0  0
   -2.1682   -2.0790   -0.0197 H   0  0  0  0  0  0  0  0  0  0  0  0
   -2.7965   -2.8601    1.4459 H   0  0  0  0  0  0  0  0  0  0  0  0
    0.7724   -1.3745   -0.1593 N   0  0  0  0  0  0  0  0  0  0  0  0
    1.6644   -0.4046   -0.7812 C   0  0  2  0  0  0  0  0  0  0  0  0
    0.8166    0.4953   -1.6290 C   0  0  0  0  0  0  0  0  0  0  0  0
    0.8304    0.3668   -2.8476 O   0  0  0  0  0  0  0  0  0  0  0  0
    2.6195   -1.2417   -1.6241 C   0  0  0  0  0  0  0  0  0  0  0  0
    2.1758   -2.2356   -0.5535 C   0  0  0  0  0  0  0  0  0  0  0  0
    0.7499   -2.6270   -0.9105 C   0  0  0  0  0  0  0  0  0  0  0  0
    2.1745    0.2007   -0.0258 H   0  0  0  0  0  0  0  0  0  0  0  0
    3.6296   -0.8175   -1.5784 H   0  0  0  0  0  0  0  0  0  0  0  0
    2.3218   -1.3211   -2.6742 H   0  0  0  0  0  0  0  0  0  0  0  0
    2.8084   -3.1304   -0.5781 H   0  0  0  0  0  0  0  0  0  0  0  0
    2.2249   -1.8085    0.4522 H   0  0  0  0  0  0  0  0  0  0  0  0
    0.5944   -2.7143   -1.9893 H   0  0  0  0  0  0  0  0  0  0  0  0
    0.4645   -3.5695   -0.4308 H   0  0  0  0  0  0  0  0  0  0  0  0
    0.0953    1.4255   -0.6019 N   0  0  0  0  0  0  0  0  0  0  0  0
   -0.9106    2.3708   -1.0305 C   0  0  2  0  0  0  0  0  0  0  0  0
   -2.1135    1.5825   -1.5317 C   0  0  0  0  0  0  0  0  0  0  0  0
   -2.0383    0.4186   -1.9200 O   0  0  0  0  0  0  0  0  0  0  0  0
   -0.3761    3.2943   -2.1140 C   0  0  0  0  0  0  0  0  0  0  0  0
    0.4201    1.4679    0.3594 H   0  0  0  0  0  0  0  0  0  0  0  0
   -1.1962    2.9513   -0.1465 H   0  0  0  0  0  0  0  0  0  0  0  0
   -0.0847    2.7306   -3.0078 H   0  0  0  0  0  0  0  0  0  0  0  0
   -1.1301    4.0281   -2.4174 H   0  0  0  0  0  0  0  0  0  0  0  0
    0.5069    3.8384   -1.7617 H   0  0  0  0  0  0  0  0  0  0  0  0
   -3.2728    2.3455   -1.5350 N   0  0  0  0  0  0  0  0  0  0  0  0
   -4.5458    1.8273   -1.9788 C   0  0  0  0  0  0  0  0  0  0  0  0
   -3.2465    3.2960   -1.1778 H   0  0  0  0  0  0  0  0  0  0  0  0
   -4.6802    2.0496   -3.0477 H   0  0  0  0  0  0  0  0  0  0  0  0
   -4.5723    0.7385   -1.8247 H   0  0  0  0  0  0  0  0  0  0  0  0
   -5.3548    2.2991   -1.4018 H   0  0  0  0  0  0  0  0  0  0  0  0
 18 19  1  0  0  0  0
 19 31  1  0  0  0  0
 19 20  2  0  0  0  0
  8  9  1  0  0  0  0
  9 17  1  0  0  0  0
  9 10  2  0  0  0  0
  1  3  1  0  0  0  0
  1  7  1  0  0  0  0
  1  2  2  0  0  0  0
 32 33  1  0  0  0  0
 33 41  1  0  0  0  0
 33 34  2  0  0  0  0
 21 22  1  0  0  0  0
 22 23  1  0  0  0  0
 18 21  1  0  0  0  0
 17 23  1  0  0  0  0
 17 18  1  0  0  0  0
  8 11  1  0  0  0  0
 32 35  1  0  0  0  0
 41 42  1  0  0  0  0
  7  8  1  0  0  0  0
 31 32  1  0  0  0  0
 22 27  1  0  0  0  0
 22 28  1  0  0  0  0
 21 25  1  0  0  0  0
 21 26  1  0  0  0  0
 23 29  1  0  0  0  0
 23 30  1  0  0  0  0
 18 24  1  0  0  0  0
  3  4  1  0  0  0  0
  3  5  1  0  0  0  0
  3  6  1  0  0  0  0
 11 14  1  0  0  0  0
 11 15  1  0  0  0  0
 11 16  1  0  0  0  0
 35 38  1  0  0  0  0
 35 39  1  0  0  0  0
 35 40  1  0  0  0  0
 42 44  1  0  0  0  0
 42 45  1  0  0  0  0
 42 46  1  0  0  0  0
  8 13  1  0  0  0  0
 32 37  1  0  0  0  0
 31 36  1  0  0  0  0
 41 43  1  0  0  0  0
  7 12  1  0  0  0  0
M  END
$$$$

  -OEChem-05262214473D

 46 46  0     1  0  0  0  0  0999 V2000
   -0.6012   -3.2995    3.8205 C   0  0  0  0  0  0  0  0  0  0  0  0
   -0.6574   -4.4683    3.4568 O   0  0  0  0  0  0  0  0  0  0  0  0
   -0.4935   -2.9859    5.2760 C   0  0  0  0  0  0  0  0  0  0  0  0
   -1.4789   -2.8689    5.7550 H   0  0  0  0  0  0  0  0  0  0  0  0
    0.0123   -3.7847    5.8419 H   0  0  0  0  0  0  0  0  0  0  0  0
    0.0585   -2.0642    5.5199 H   0  0  0  0  0  0  0  0  0  0  0  0
   -0.6261   -2.1849    2.9917 N   0  0  0  0  0  0  0  0  0  0  0  0
   -0.7237   -2.2601    1.5650 C   0  0  2  0  0  0  0  0  0  0  0  0
    0.1695   -1.1513    1.0687 C   0  0  0  0  0  0  0  0  0  0  0  0
    0.3193   -0.1267    1.7365 O   0  0  0  0  0  0  0  0  0  0  0  0
   -2.1397   -2.0663    1.0750 C   0  0  0  0  0  0  0  0  0  0  0  0
   -0.5717   -1.2606    3.4238 H   0  0  0  0  0  0  0  0  0  0  0  0
   -0.3076   -3.2111    1.2363 H   0  0  0  0  0  0  0  0  0  0  0  0
   -2.5584   -1.1089    1.4061 H   0  0  0  0  0  0  0  0  0  0  0  0
   -2.1682   -2.0790   -0.0197 H   0  0  0  0  0  0  0  0  0  0  0  0
   -2.7965   -2.8601    1.4459 H   0  0  0  0  0  0  0  0  0  0  0  0
    0.7724   -1.3745   -0.1593 N   0  0  0  0  0  0  0  0  0  0  0  0
    1.6644   -0.4046   -0.7812 C   0  0  2  0  0  0  0  0  0  0  0  0
    0.8166    0.4953   -1.6290 C   0  0  0  0  0  0  0  0  0  0  0  0
    0.6102    0.2032   -2.8011 O   0  0  0  0  0  0  0  0  0  0  0  0
    2.6195   -1.2417   -1.6241 C   0  0  0  0  0  0  0  0  0  0  0  0
    2.1758   -2.2356   -0.5535 C   0  0  0  0  0  0  0  0  0  0  0  0
    0.7499   -2.6270   -0.9105 C   0  0  0  0  0  0  0  0  0  0  0  0
    2.1745    0.2007   -0.0258 H   0  0  0  0  0  0  0  0  0  0  0  0
    3.6296   -0.8175   -1.5784 H   0  0  0  0  0  0  0  0  0  0  0  0
    2.3218   -1.3211   -2.6742 H   0  0  0  0  0  0  0  0  0  0  0  0
    2.8084   -3.1304   -0.5781 H   0  0  0  0  0  0  0  0  0  0  0  0
    2.2249   -1.8085    0.4522 H   0  0  0  0  0  0  0  0  0  0  0  0
    0.5944   -2.7143   -1.9893 H   0  0  0  0  0  0  0  0  0  0  0  0
    0.4645   -3.5695   -0.4308 H   0  0  0  0  0  0  0  0  0  0  0  0
    0.4082    1.6576   -0.6684 N   0  0  0  0  0  0  0  0  0  0  0  0
   -0.5182    2.6833   -1.0910 C   0  0  2  0  0  0  0  0  0  0  0  0
   -1.8828    2.0347   -1.2823 C   0  0  0  0  0  0  0  0  0  0  0  0
   -2.0308    0.8319   -1.4887 O   0  0  0  0  0  0  0  0  0  0  0  0
   -0.0518    3.3563   -2.3725 C   0  0  0  0  0  0  0  0  0  0  0  0
    0.8910    1.7773    0.2170 H   0  0  0  0  0  0  0  0  0  0  0  0
   -0.5720    3.4155   -0.2779 H   0  0  0  0  0  0  0  0  0  0  0  0
    0.0082    2.6383   -3.1986 H   0  0  0  0  0  0  0  0  0  0  0  0
   -0.7398    4.1523   -2.6758 H   0  0  0  0  0  0  0  0  0  0  0  0
    0.9427    3.7965   -2.2419 H   0  0  0  0  0  0  0  0  0  0  0  0
   -2.9130    2.9637   -1.2386 N   0  0  0  0  0  0  0  0  0  0  0  0
   -4.3001    2.5981   -1.4064 C   0  0  0  0  0  0  0  0  0  0  0  0
   -2.6998    3.9375   -1.0436 H   0  0  0  0  0  0  0  0  0  0  0  0
   -4.5792    2.6926   -2.4662 H   0  0  0  0  0  0  0  0  0  0  0  0
   -4.4471    1.5579   -1.0800 H   0  0  0  0  0  0  0  0  0  0  0  0
   -4.9309    3.2651   -0.8003 H   0  0  0  0  0  0  0  0  0  0  0  0
 18 19  1  0  0  0  0
 19 31  1  0  0  0  0
 19 20  2  0  0  0  0
  8  9  1  0  0  0  0
  9 17  1  0  0  0  0
  9 10  2  0  0  0  0
  1  3  1  0  0  0  0
  1  7  1  0  0  0  0
  1  2  2  0  0  0  0
 32 33  1  0  0  0  0
 33 41  1  0  0  0  0
 33 34  2  0  0  0  0
 21 22  1  0  0  0  0
 22 23  1  0  0  0  0
 18 21  1  0  0  0  0
 17 23  1  0  0  0  0
 17 18  1  0  0  0  0
  8 11  1  0  0  0  0
 32 35  1  0  0  0  0
 41 42  1  0  0  0  0
  7  8  1  0  0  0  0
 31 32  1  0  0  0  0
 22 27  1  0  0  0  0
 22 28  1  0  0  0  0
 21 25  1  0  0  0  0
 21 26  1  0  0  0  0
 23 29  1  0  0  0  0
 23 30  1  0  0  0  0
 18 24  1  0  0  0  0
  3  4  1  0  0  0  0
  3  5  1  0  0  0  0
  3  6  1  0  0  0  0
 11 14  1  0  0  0  0
 11 15  1  0  0  0  0
 11 16  1  0  0  0  0
 35 38  1  0  0  0  0
 35 39  1  0  0  0  0
 35 40  1  0  0  0  0
 42 44  1  0  0  0  0
 42 45  1  0  0  0  0
 42 46  1  0  0  0  0
  8 13  1  0  0  0  0
 32 37  1  0  0  0  0
 31 36  1  0  0  0  0
 41 43  1  0  0  0  0
  7 12  1  0  0  0  0
M  END
$$$$

  -OEChem-05262214473D

 46 46  0     1  0  0  0  0  0999 V2000
   -0.6012   -3.2995    3.8205 C   0  0  0  0  0  0  0  0  0  0  0  0
   -0.6574   -4.4683    3.4568 O   0  0  0  0  0  0  0  0  0  0  0  0
   -0.4935   -2.9859    5.2760 C   0  0  0  0  0  0  0  0  0  0  0  0
   -1.4789   -2.8689    5.7550 H   0  0  0  0  0  0  0  0  0  0  0  0
    0.0123   -3.7847    5.8419 H   0  0  0  0  0  0  0  0  0  0  0  0
    0.0585   -2.0642    5.5199 H   0  0  0  0  0  0  0  0  0  0  0  0
   -0.6261   -2.1849    2.9917 N   0  0  0  0  0  0  0  0  0  0  0  0
   -0.7237   -2.2601    1.5650 C   0  0  2  0  0  0  0  0  0  0  0  0
    0.1695   -1.1513    1.0687 C   0  0  0  0  0  0  0  0  0  0  0  0
    0.3193   -0.1267    1.7365 O   0  0  0  0  0  0  0  0  0  0  0  0
   -2.1397   -2.0663    1.0750 C   0  0  0  0  0  0  0  0  0  0  0  0
   -0.5717   -1.2606    3.4238 H   0  0  0  0  0  0  0  0  0  0  0  0
   -0.3076   -3.2111    1.2363 H   0  0  0  0  0  0  0  0  0  0  0  0
   -2.5584   -1.1089    1.4061 H   0  0  0  0  0  0  0  0  0  0  0  0
   -2.1682   -2.0790   -0.0197 H   0  0  0  0  0  0  0  0  0  0  0  0
   -2.7965   -2.8601    1.4459 H   0  0  0  0  0  0  0  0  0  0  0  0
    0.7724   -1.3745   -0.1593 N   0  0  0  0  0  0  0  0  0  0  0  0
    1.6644   -0.4046   -0.7812 C   0  0  2  0  0  0  0  0  0  0  0  0
    0.8166    0.4953   -1.6290 C   0  0  0  0  0  0  0  0  0  0  0  0
    0.3807    0.0841   -2.6980 O   0  0  0  0  0  0  0  0  0  0  0  0
    2.6195   -1.2417   -1.6241 C   0  0  0  0  0  0  0  0  0  0  0  0
    2.1758   -2.2356   -0.5535 C   0  0  0  0  0  0  0  0  0  0  0  0
    0.7499   -2.6270   -0.9105 C   0  0  0  0  0  0  0  0  0  0  0  0
    2.1745    0.2007   -0.0258 H   0  0  0  0  0  0  0  0  0  0  0  0
    3.6296   -0.8175   -1.5784 H   0  0  0  0  0  0  0  0  0  0  0  0
    2.3218   -1.3211   -2.6742 H   0  0  0  0  0  0  0  0  0  0  0  0
    2.8084   -3.1304   -0.5781 H   0  0  0  0  0  0  0  0  0  0  0  0
    2.2249   -1.8085    0.4522 H   0  0  0  0  0  0  0  0  0  0  0  0
    0.5944   -2.7143   -1.9893 H   0  0  0  0  0  0  0  0  0  0  0  0
    0.4645   -3.5695   -0.4308 H   0  0  0  0  0  0  0  0  0  0  0  0
    0.7341    1.8263   -0.8152 N   0  0  0  0  0  0  0  0  0  0  0  0
   -0.1029    2.9190   -1.2562 C   0  0  2  0  0  0  0  0  0  0  0  0
   -1.5551    2.4742   -1.1435 C   0  0  0  0  0  0  0  0  0  0  0  0
   -1.8961    1.2932   -1.1337 O   0  0  0  0  0  0  0  0  0  0  0  0
    0.2304    3.3308   -2.6817 C   0  0  0  0  0  0  0  0  0  0  0  0
    1.3691    1.9865   -0.0390 H   0  0  0  0  0  0  0  0  0  0  0  0
    0.0785    3.7532   -0.5698 H   0  0  0  0  0  0  0  0  0  0  0  0
    0.0549    2.5077   -3.3839 H   0  0  0  0  0  0  0  0  0  0  0  0
   -0.3849    4.1773   -3.0043 H   0  0  0  0  0  0  0  0  0  0  0  0
    1.2828    3.6220   -2.7673 H   0  0  0  0  0  0  0  0  0  0  0  0
   -2.4289    3.5515   -1.0986 N   0  0  0  0  0  0  0  0  0  0  0  0
   -3.8611    3.3904   -1.0044 C   0  0  0  0  0  0  0  0  0  0  0  0
   -2.0569    4.4967   -1.0928 H   0  0  0  0  0  0  0  0  0  0  0  0
   -4.2971    3.3841   -2.0142 H   0  0  0  0  0  0  0  0  0  0  0  0
   -4.0906    2.4401   -0.5001 H   0  0  0  0  0  0  0  0  0  0  0  0
   -4.2865    4.2241   -0.4266 H   0  0  0  0  0  0  0  0  0  0  0  0
 18 19  1  0  0  0  0
 19 31  1  0  0  0  0
 19 20  2  0  0  0  0
  8  9  1  0  0  0  0
  9 17  1  0  0  0  0
  9 10  2  0  0  0  0
  1  3  1  0  0  0  0
  1  7  1  0  0  0  0
  1  2  2  0  0  0  0
 32 33  1  0  0  0  0
 33 41  1  0  0  0  0
 33 34  2  0  0  0  0
 21 22  1  0  0  0  0
 22 23  1  0  0  0  0
 18 21  1  0  0  0  0
 17 23  1  0  0  0  0
 17 18  1  0  0  0  0
  8 11  1  0  0  0  0
 32 35  1  0  0  0  0
 41 42  1  0  0  0  0
  7  8  1  0  0  0  0
 31 32  1  0  0  0  0
 22 27  1  0  0  0  0
 22 28  1  0  0  0  0
 21 25  1  0  0  0  0
 21 26  1  0  0  0  0
 23 29  1  0  0  0  0
 23 30  1  0  0  0  0
 18 24  1  0  0  0  0
  3  4  1  0  0  0  0
  3  5  1  0  0  0  0
  3  6  1  0  0  0  0
 11 14  1  0  0  0  0
 11 15  1  0  0  0  0
 11 16  1  0  0  0  0
 35 38  1  0  0  0  0
 35 39  1  0  0  0  0
 35 40  1  0  0  0  0
 42 44  1  0  0  0  0
 42 45  1  0  0  0  0
 42 46  1  0  0  0  0
  8 13  1  0  0  0  0
 32 37  1  0  0  0  0
 31 36  1  0  0  0  0
 41 43  1  0  0  0  0
  7 12  1  0  0  0  0
M  END
$$$$

  -OEChem-05262214473D

 46 46  0     1  0  0  0  0  0999 V2000
   -0.6012   -3.2995    3.8205 C   0  0  0  0  0  0  0  0  0  0  0  0
   -0.6574   -4.4683    3.4568 O   0  0  0  0  0  0  0  0  0  0  0  0
   -0.4935   -2.9859    5.2760 C   0  0  0  0  0  0  0  0  0  0  0  0
   -1.4789   -2.8689    5.7550 H   0  0  0  0  0  0  0  0  0  0  0  0
    0.0123   -3.7847    5.8419 H   0  0  0  0  0  0  0  0  0  0  0  0
    0.0585   -2.0642    5.5199 H   0  0  0  0  0  0  0  0  0  0  0  0
   -0.6261   -2.1849    2.9917 N   0  0  0  0  0  0  0  0  0  0  0  0
   -0.7237   -2.2601    1.5650 C   0  0  2  0  0  0  0  0  0  0  0  0
    0.1695   -1.1513    1.0687 C   0  0  0  0  0  0  0  0  0  0  0  0
    0.3193   -0.1267    1.7365 O   0  0  0  0  0  0  0  0  0  0  0  0
   -2.1397   -2.0663    1.0750 C   0  0  0  0  0  0  0  0  0  0  0  0
   -0.5717   -1.2606    3.4238 H   0  0  0  0  0  0  0  0  0  0  0  0
   -0.3076   -3.2111    1.2363 H   0  0  0  0  0  0  0  0  0  0  0  0
   -2.5584   -1.1089    1.4061 H   0  0  0  0  0  0  0  0  0  0  0  0
   -2.1682   -2.0790   -0.0197 H   0  0  0  0  0  0  0  0  0  0  0  0
   -2.7965   -2.8601    1.4459 H   0  0  0  0  0  0  0  0  0  0  0  0
    0.7724   -1.3745   -0.1593 N   0  0  0  0  0  0  0  0  0  0  0  0
    1.6644   -0.4046   -0.7812 C   0  0  2  0  0  0  0  0  0  0  0  0
    0.8166    0.4953   -1.6290 C   0  0  0  0  0  0  0  0  0  0  0  0
    0.1577    0.0178   -2.5453 O   0  0  0  0  0  0  0  0  0  0  0  0
    2.6195   -1.2417   -1.6241 C   0  0  0  0  0  0  0  0  0  0  0  0
    2.1758   -2.2356   -0.5535 C   0  0  0  0  0  0  0  0  0  0  0  0
    0.7499   -2.6270   -0.9105 C   0  0  0  0  0  0  0  0  0  0  0  0
    2.1745    0.2007   -0.0258 H   0  0  0  0  0  0  0  0  0  0  0  0
    3.6296   -0.8175   -1.5784 H   0  0  0  0  0  0  0  0  0  0  0  0
    2.3218   -1.3211   -2.6742 H   0  0  0  0  0  0  0  0  0  0  0  0
    2.8084   -3.1304   -0.5781 H   0  0  0  0  0  0  0  0  0  0  0  0
    2.2249   -1.8085    0.4522 H   0  0  0  0  0  0  0  0  0  0  0  0
    0.5944   -2.7143   -1.9893 H   0  0  0  0  0  0  0  0  0  0  0  0
    0.4645   -3.5695   -0.4308 H   0  0  0  0  0  0  0  0  0  0  0  0
    1.0507    1.9200   -1.0324 N   0  0  0  0  0  0  0  0  0  0  0  0
    0.3071    3.0616   -1.5148 C   0  0  2  0  0  0  0  0  0  0  0  0
   -1.1527    2.8711   -1.1246 C   0  0  0  0  0  0  0  0  0  0  0  0
   -1.6433    1.7710   -0.8793 O   0  0  0  0  0  0  0  0  0  0  0  0
    0.4512    3.2197   -3.0204 C   0  0  0  0  0  0  0  0  0  0  0  0
    1.8216    2.0810   -0.3912 H   0  0  0  0  0  0  0  0  0  0  0  0
    0.7109    3.9416   -1.0023 H   0  0  0  0  0  0  0  0  0  0  0  0
    0.0520    2.3476   -3.5510 H   0  0  0  0  0  0  0  0  0  0  0  0
   -0.0894    4.1014   -3.3803 H   0  0  0  0  0  0  0  0  0  0  0  0
    1.5042    3.3268   -3.3021 H   0  0  0  0  0  0  0  0  0  0  0  0
   -1.8535    4.0690   -1.1247 N   0  0  0  0  0  0  0  0  0  0  0  0
   -3.2586    4.1502   -0.8003 C   0  0  0  0  0  0  0  0  0  0  0  0
   -1.3618    4.9356   -1.3220 H   0  0  0  0  0  0  0  0  0  0  0  0
   -3.8533    4.0768   -1.7228 H   0  0  0  0  0  0  0  0  0  0  0  0
   -3.5270    3.3249   -0.1245 H   0  0  0  0  0  0  0  0  0  0  0  0
   -3.4657    5.1109   -0.3061 H   0  0  0  0  0  0  0  0  0  0  0  0
 18 19  1  0  0  0  0
 19 31  1  0  0  0  0
 19 20  2  0  0  0  0
  8  9  1  0  0  0  0
  9 17  1  0  0  0  0
  9 10  2  0  0  0  0
  1  3  1  0  0  0  0
  1  7  1  0  0  0  0
  1  2  2  0  0  0  0
 32 33  1  0  0  0  0
 33 41  1  0  0  0  0
 33 34  2  0  0  0  0
 21 22  1  0  0  0  0
 22 23  1  0  0  0  0
 18 21  1  0  0  0  0
 17 23  1  0  0  0  0
 17 18  1  0  0  0  0
  8 11  1  0  0  0  0
 32 35  1  0  0  0  0
 41 42  1  0  0  0  0
  7  8  1  0  0  0  0
 31 32  1  0  0  0  0
 22 27  1  0  0  0  0
 22 28  1  0  0  0  0
 21 25  1  0  0  0  0
 21 26  1  0  0  0  0
 23 29  1  0  0  0  0
 23 30  1  0  0  0  0
 18 24  1  0  0  0  0
  3  4  1  0  0  0  0
  3  5  1  0  0  0  0
  3  6  1  0  0  0  0
 11 14  1  0  0  0  0
 11 15  1  0  0  0  0
 11 16  1  0  0  0  0
 35 38  1  0  0  0  0
 35 39  1  0  0  0  0
 35 40  1  0  0  0  0
 42 44  1  0  0  0  0
 42 45  1  0  0  0  0
 42 46  1  0  0  0  0
  8 13  1  0  0  0  0
 32 37  1  0  0  0  0
 31 36  1  0  0  0  0
 41 43  1  0  0  0  0
  7 12  1  0  0  0  0
M  END
$$$$

  -OEChem-05262214473D

 46 46  0     1  0  0  0  0  0999 V2000
   -0.6012   -3.2995    3.8205 C   0  0  0  0  0  0  0  0  0  0  0  0
   -0.6574   -4.4683    3.4568 O   0  0  0  0  0  0  0  0  0  0  0  0
   -0.4935   -2.9859    5.2760 C   0  0  0  0  0  0  0  0  0  0  0  0
   -1.4789   -2.8689    5.7550 H   0  0  0  0  0  0  0  0  0  0  0  0
    0.0123   -3.7847    5.8419 H   0  0  0  0  0  0  0  0  0  0  0  0
    0.0585   -2.0642    5.5199 H   0  0  0  0  0  0  0  0  0  0  0  0
   -0.6261   -2.1849    2.9917 N   0  0  0  0  0  0  0  0  0  0  0  0
   -0.7237   -2.2601    1.5650 C   0  0  2  0  0  0  0  0  0  0  0  0
    0.1695   -1.1513    1.0687 C   0  0  0  0  0  0  0  0  0  0  0  0
    0.3193   -0.1267    1.7365 O   0  0  0  0  0  0  0  0  0  0  0  0
   -2.1397   -2.0663    1.0750 C   0  0  0  0  0  0  0  0  0  0  0  0
   -0.5717   -1.2606    3.4238 H   0  0  0  0  0  0  0  0  0  0  0  0
   -0.3076   -3.2111    1.2363 H   0  0  0  0  0  0  0  0  0  0  0  0
   -2.5584   -1.1089    1.4061 H   0  0  0  0  0  0  0  0  0  0  0  0
   -2.1682   -2.0790   -0.0197 H   0  0  0  0  0  0  0  0  0  0  0  0
   -2.7965   -2.8601    1.4459 H   0  0  0  0  0  0  0  0  0  0  0  0
    0.7724   -1.3745   -0.1593 N   0  0  0  0  0  0  0  0  0  0  0  0
    1.6644   -0.4046   -0.7812 C   0  0  2  0  0  0  0  0  0  0  0  0
    0.8166    0.4953   -1.6290 C   0  0  0  0  0  0  0  0  0  0  0  0
   -0.0438    0.0088   -2.3534 O   0  0  0  0  0  0  0  0  0  0  0  0
    2.6195   -1.2417   -1.6241 C   0  0  0  0  0  0  0  0  0  0  0  0
    2.1758   -2.2356   -0.5535 C   0  0  0  0  0  0  0  0  0  0  0  0
    0.7499   -2.6270   -0.9105 C   0  0  0  0  0  0  0  0  0  0  0  0
    2.1745    0.2007   -0.0258 H   0  0  0  0  0  0  0  0  0  0  0  0
    3.6296   -0.8175   -1.5784 H   0  0  0  0  0  0  0  0  0  0  0  0
    2.3218   -1.3211   -2.6742 H   0  0  0  0  0  0  0  0  0  0  0  0
    2.8084   -3.1304   -0.5781 H   0  0  0  0  0  0  0  0  0  0  0  0
    2.2249   -1.8085    0.4522 H   0  0  0  0  0  0  0  0  0  0  0  0
    0.5944   -2.7143   -1.9893 H   0  0  0  0  0  0  0  0  0  0  0  0
    0.4645   -3.5695   -0.4308 H   0  0  0  0  0  0  0  0  0  0  0  0
    1.3365    1.9324   -1.3050 N   0  0  0  0  0  0  0  0  0  0  0  0
    0.6838    3.1016   -1.8492 C   0  0  2  0  0  0  0  0  0  0  0  0
   -0.7029    3.1983   -1.2271 C   0  0  0  0  0  0  0  0  0  0  0  0
   -1.2897    2.2328   -0.7428 O   0  0  0  0  0  0  0  0  0  0  0  0
    0.5955    3.0305   -3.3657 C   0  0  0  0  0  0  0  0  0  0  0  0
    2.2179    2.0546   -0.8155 H   0  0  0  0  0  0  0  0  0  0  0  0
    1.2821    3.9677   -1.5458 H   0  0  0  0  0  0  0  0  0  0  0  0
   -0.0002    2.1689   -3.6886 H   0  0  0  0  0  0  0  0  0  0  0  0
    0.1266    3.9298   -3.7784 H   0  0  0  0  0  0  0  0  0  0  0  0
    1.5918    2.9310   -3.8099 H   0  0  0  0  0  0  0  0  0  0  0  0
   -1.2261    4.4808   -1.3150 N   0  0  0  0  0  0  0  0  0  0  0  0
   -2.5337    4.8259   -0.8080 C   0  0  0  0  0  0  0  0  0  0  0  0
   -0.6617    5.2242   -1.7157 H   0  0  0  0  0  0  0  0  0  0  0  0
   -3.2778    4.7236   -1.6115 H   0  0  0  0  0  0  0  0  0  0  0  0
   -2.7948    4.1520    0.0213 H   0  0  0  0  0  0  0  0  0  0  0  0
   -2.5243    5.8649   -0.4471 H   0  0  0  0  0  0  0  0  0  0  0  0
 18 19  1  0  0  0  0
 19 31  1  0  0  0  0
 19 20  2  0  0  0  0
  8  9  1  0  0  0  0
  9 17  1  0  0  0  0
  9 10  2  0  0  0  0
  1  3  1  0  0  0  0
  1  7  1  0  0  0  0
  1  2  2  0  0  0  0
 32 33  1  0  0  0  0
 33 41  1  0  0  0  0
 33 34  2  0  0  0  0
 21 22  1  0  0  0  0
 22 23  1  0  0  0  0
 18 21  1  0  0  0  0
 17 23  1  0  0  0  0
 17 18  1  0  0  0  0
  8 11  1  0  0  0  0
 32 35  1  0  0  0  0
 41 42  1  0  0  0  0
  7  8  1  0  0  0  0
 31 32  1  0  0  0  0
 22 27  1  0  0  0  0
 22 28  1  0  0  0  0
 21 25  1  0  0  0  0
 21 26  1  0  0  0  0
 23 29  1  0  0  0  0
 23 30  1  0  0  0  0
 18 24  1  0  0  0  0
  3  4  1  0  0  0  0
  3  5  1  0  0  0  0
  3  6  1  0  0  0  0
 11 14  1  0  0  0  0
 11 15  1  0  0  0  0
 11 16  1  0  0  0  0
 35 38  1  0  0  0  0
 35 39  1  0  0  0  0
 35 40  1  0  0  0  0
 42 44  1  0  0  0  0
 42 45  1  0  0  0  0
 42 46  1  0  0  0  0
  8 13  1  0  0  0  0
 32 37  1  0  0  0  0
 31 36  1  0  0  0  0
 41 43  1  0  0  0  0
  7 12  1  0  0  0  0
M  END
$$$$

  -OEChem-05262214473D

 46 46  0     1  0  0  0  0  0999 V2000
   -0.6012   -3.2995    3.8205 C   0  0  0  0  0  0  0  0  0  0  0  0
   -0.6574   -4.4683    3.4568 O   0  0  0  0  0  0  0  0  0  0  0  0
   -0.4935   -2.9859    5.2760 C   0  0  0  0  0  0  0  0  0  0  0  0
   -1.4789   -2.8689    5.7550 H   0  0  0  0  0  0  0  0  0  0  0  0
    0.0123   -3.7847    5.8419 H   0  0  0  0  0  0  0  0  0  0  0  0
    0.0585   -2.0642    5.5199 H   0  0  0  0  0  0  0  0  0  0  0  0
   -0.6261   -2.1849    2.9917 N   0  0  0  0  0  0  0  0  0  0  0  0
   -0.7237   -2.2601    1.5650 C   0  0  2  0  0  0  0  0  0  0  0  0
    0.1695   -1.1513    1.0687 C   0  0  0  0  0  0  0  0  0  0  0  0
    0.3193   -0.1267    1.7365 O   0  0  0  0  0  0  0  0  0  0  0  0
   -2.1397   -2.0663    1.0750 C   0  0  0  0  0  0  0  0  0  0  0  0
   -0.5717   -1.2606    3.4238 H   0  0  0  0  0  0  0  0  0  0  0  0
   -0.3076   -3.2111    1.2363 H   0  0  0  0  0  0  0  0  0  0  0  0
   -2.5584   -1.1089    1.4061 H   0  0  0  0  0  0  0  0  0  0  0  0
   -2.1682   -2.0790   -0.0197 H   0  0  0  0  0  0  0  0  0  0  0  0
   -2.7965   -2.8601    1.4459 H   0  0  0  0  0  0  0  0  0  0  0  0
    0.7724   -1.3745   -0.1593 N   0  0  0  0  0  0  0  0  0  0  0  0
    1.6644   -0.4046   -0.7812 C   0  0  2  0  0  0  0  0  0  0  0  0
    0.8166    0.4953   -1.6290 C   0  0  0  0  0  0  0  0  0  0  0  0
   -0.2099    0.0576   -2.1355 O   0  0  0  0  0  0  0  0  0  0  0  0
    2.6195   -1.2417   -1.6241 C   0  0  0  0  0  0  0  0  0  0  0  0
    2.1758   -2.2356   -0.5535 C   0  0  0  0  0  0  0  0  0  0  0  0
    0.7499   -2.6270   -0.9105 C   0  0  0  0  0  0  0  0  0  0  0  0
    2.1745    0.2007   -0.0258 H   0  0  0  0  0  0  0  0  0  0  0  0
    3.6296   -0.8175   -1.5784 H   0  0  0  0  0  0  0  0  0  0  0  0
    2.3218   -1.3211   -2.6742 H   0  0  0  0  0  0  0  0  0  0  0  0
    2.8084   -3.1304   -0.5781 H   0  0  0  0  0  0  0  0  0  0  0  0
    2.2249   -1.8085    0.4522 H   0  0  0  0  0  0  0  0  0  0  0  0
    0.5944   -2.7143   -1.9893 H   0  0  0  0  0  0  0  0  0  0  0  0
    0.4645   -3.5695   -0.4308 H   0  0  0  0  0  0  0  0  0  0  0  0
    1.5721    1.8626   -1.6146 N   0  0  0  0  0  0  0  0  0  0  0  0
    1.0016    3.0361   -2.2365 C   0  0  2  0  0  0  0  0  0  0  0  0
   -0.2365    3.4336   -1.4437 C   0  0  0  0  0  0  0  0  0  0  0  0
   -0.8593    2.6471   -0.7334 O   0  0  0  0  0  0  0  0  0  0  0  0
    0.6536    2.7761   -3.6939 C   0  0  0  0  0  0  0  0  0  0  0  0
    2.5309    1.9090   -1.2831 H   0  0  0  0  0  0  0  0  0  0  0  0
    1.7532    3.8297   -2.1634 H   0  0  0  0  0  0  0  0  0  0  0  0
   -0.0981    1.9838   -3.7872 H   0  0  0  0  0  0  0  0  0  0  0  0
    0.2481    3.6742   -4.1713 H   0  0  0  0  0  0  0  0  0  0  0  0
    1.5396    2.4615   -4.2560 H   0  0  0  0  0  0  0  0  0  0  0  0
   -0.5893    4.7588   -1.6567 N   0  0  0  0  0  0  0  0  0  0  0  0
   -1.7357    5.3713   -1.0269 C   0  0  0  0  0  0  0  0  0  0  0  0
   -0.0044    5.3430   -2.2470 H   0  0  0  0  0  0  0  0  0  0  0  0
   -2.6101    5.2805   -1.6882 H   0  0  0  0  0  0  0  0  0  0  0  0
   -1.9437    4.8651   -0.0727 H   0  0  0  0  0  0  0  0  0  0  0  0
   -1.5265    6.4349   -0.8398 H   0  0  0  0  0  0  0  0  0  0  0  0
 18 19  1  0  0  0  0
 19 31  1  0  0  0  0
 19 20  2  0  0  0  0
  8  9  1  0  0  0  0
  9 17  1  0  0  0  0
  9 10  2  0  0  0  0
  1  3  1  0  0  0  0
  1  7  1  0  0  0  0
  1  2  2  0  0  0  0
 32 33  1  0  0  0  0
 33 41  1  0  0  0  0
 33 34  2  0  0  0  0
 21 22  1  0  0  0  0
 22 23  1  0  0  0  0
 18 21  1  0  0  0  0
 17 23  1  0  0  0  0
 17 18  1  0  0  0  0
  8 11  1  0  0  0  0
 32 35  1  0  0  0  0
 41 42  1  0  0  0  0
  7  8  1  0  0  0  0
 31 32  1  0  0  0  0
 22 27  1  0  0  0  0
 22 28  1  0  0  0  0
 21 25  1  0  0  0  0
 21 26  1  0  0  0  0
 23 29  1  0  0  0  0
 23 30  1  0  0  0  0
 18 24  1  0  0  0  0
  3  4  1  0  0  0  0
  3  5  1  0  0  0  0
  3  6  1  0  0  0  0
 11 14  1  0  0  0  0
 11 15  1  0  0  0  0
 11 16  1  0  0  0  0
 35 38  1  0  0  0  0
 35 39  1  0  0  0  0
 35 40  1  0  0  0  0
 42 44  1  0  0  0  0
 42 45  1  0  0  0  0
 42 46  1  0  0  0  0
  8 13  1  0  0  0  0
 32 37  1  0  0  0  0
 31 36  1  0  0  0  0
 41 43  1  0  0  0  0
  7 12  1  0  0  0  0
M  END
$$$$

  -OEChem-05262214473D

 46 46  0     1  0  0  0  0  0999 V2000
   -0.6012   -3.2995    3.8205 C   0  0  0  0  0  0  0  0  0  0  0  0
   -0.6574   -4.4683    3.4568 O   0  0  0  0  0  0  0  0  0  0  0  0
   -0.4935   -2.9859    5.2760 C   0  0  0  0  0  0  0  0  0  0  0  0
   -1.4789   -2.8689    5.7550 H   0  0  0  0  0  0  0  0  0  0  0  0
    0.0123   -3.7847    5.8419 H   0  0  0  0  0  0  0  0  0  0  0  0
    0.0585   -2.0642    5.5199 H   0  0  0  0  0  0  0  0  0  0  0  0
   -0.6261   -2.1849    2.9917 N   0  0  0  0  0  0  0  0  0  0  0  0
   -0.7237   -2.2601    1.5650 C   0  0  2  0  0  0  0  0  0  0  0  0
    0.1695   -1.1513    1.0687 C   0  0  0  0  0  0  0  0  0  0  0  0
    0.3193   -0.1267    1.7365 O   0  0  0  0  0  0  0  0  0  0  0  0
   -2.1397   -2.0663    1.0750 C   0  0  0  0  0  0  0  0  0  0  0  0
   -0.5717   -1.2606    3.4238 H   0  0  0  0  0  0  0  0  0  0  0  0
   -0.3076   -3.2111    1.2363 H   0  0  0  0  0  0  0  0  0  0  0  0
   -2.5584   -1.1089    1.4061 H   0  0  0  0  0  0  0  0  0  0  0  0
   -2.1682   -2.0790   -0.0197 H   0  0  0  0  0  0  0  0  0  0  0  0
   -2.7965   -2.8601    1.4459 H   0  0  0  0  0  0  0  0  0  0  0  0
    0.7724   -1.3745   -0.1593 N   0  0  0  0  0  0  0  0  0  0  0  0
    1.6644   -0.4046   -0.7812 C   0  0  2  0  0  0  0  0  0  0  0  0
    0.8166    0.4953   -1.6290 C   0  0  0  0  0  0  0  0  0  0  0  0
   -0.3293    0.1610   -1.9064 O   0  0  0  0  0  0  0  0  0  0  0  0
    2.6195   -1.2417   -1.6241 C   0  0  0  0  0  0  0  0  0  0  0  0
    2.1758   -2.2356   -0.5535 C   0  0  0  0  0  0  0  0  0  0  0  0
    0.7499   -2.6270   -0.9105 C   0  0  0  0  0  0  0  0  0  0  0  0
    2.1745    0.2007   -0.0258 H   0  0  0  0  0  0  0  0  0  0  0  0
    3.6296   -0.8175   -1.5784 H   0  0  0  0  0  0  0  0  0  0  0  0
    2.3218   -1.3211   -2.6742 H   0  0  0  0  0  0  0  0  0  0  0  0
    2.8084   -3.1304   -0.5781 H   0  0  0  0  0  0  0  0  0  0  0  0
    2.2249   -1.8085    0.4522 H   0  0  0  0  0  0  0  0  0  0  0  0
    0.5944   -2.7143   -1.9893 H   0  0  0  0  0  0  0  0  0  0  0  0
    0.4645   -3.5695   -0.4308 H   0  0  0  0  0  0  0  0  0  0  0  0
    1.7413    1.7155   -1.9401 N   0  0  0  0  0  0  0  0  0  0  0  0
    1.2388    2.8696   -2.6504 C   0  0  2  0  0  0  0  0  0  0  0  0
    0.2148    3.5608   -1.7599 C   0  0  0  0  0  0  0  0  0  0  0  0
   -0.3815    2.9856   -0.8519 O   0  0  0  0  0  0  0  0  0  0  0  0
    0.6215    2.4737   -3.9827 C   0  0  0  0  0  0  0  0  0  0  0  0
    2.7392    1.6540   -1.7621 H   0  0  0  0  0  0  0  0  0  0  0  0
    2.0921    3.5371   -2.8129 H   0  0  0  0  0  0  0  0  0  0  0  0
   -0.2351    1.8049   -3.8401 H   0  0  0  0  0  0  0  0  0  0  0  0
    0.2671    3.3520   -4.5323 H   0  0  0  0  0  0  0  0  0  0  0  0
    1.3510    1.9503   -4.6101 H   0  0  0  0  0  0  0  0  0  0  0  0
    0.0134    4.8842   -2.1263 N   0  0  0  0  0  0  0  0  0  0  0  0
   -0.9192    5.7493   -1.4422 C   0  0  0  0  0  0  0  0  0  0  0  0
    0.5653    5.2837   -2.8797 H   0  0  0  0  0  0  0  0  0  0  0  0
   -1.8955    5.7094   -1.9475 H   0  0  0  0  0  0  0  0  0  0  0  0
   -1.0320    5.4156   -0.4001 H   0  0  0  0  0  0  0  0  0  0  0  0
   -0.5404    6.7819   -1.4577 H   0  0  0  0  0  0  0  0  0  0  0  0
 18 19  1  0  0  0  0
 19 31  1  0  0  0  0
 19 20  2  0  0  0  0
  8  9  1  0  0  0  0
  9 17  1  0  0  0  0
  9 10  2  0  0  0  0
  1  3  1  0  0  0  0
  1  7  1  0  0  0  0
  1  2  2  0  0  0  0
 32 33  1  0  0  0  0
 33 41  1  0  0  0  0
 33 34  2  0  0  0  0
 21 22  1  0  0  0  0
 22 23  1  0  0  0  0
 18 21  1  0  0  0  0
 17 23  1  0  0  0  0
 17 18  1  0  0  0  0
  8 11  1  0  0  0  0
 32 35  1  0  0  0  0
 41 42  1  0  0  0  0
  7  8  1  0  0  0  0
 31 32  1  0  0  0  0
 22 27  1  0  0  0  0
 22 28  1  0  0  0  0
 21 25  1  0  0  0  0
 21 26  1  0  0  0  0
 23 29  1  0  0  0  0
 23 30  1  0  0  0  0
 18 24  1  0  0  0  0
  3  4  1  0  0  0  0
  3  5  1  0  0  0  0
  3  6  1  0  0  0  0
 11 14  1  0  0  0  0
 11 15  1  0  0  0  0
 11 16  1  0  0  0  0
 35 38  1  0  0  0  0
 35 39  1  0  0  0  0
 35 40  1  0  0  0  0
 42 44  1  0  0  0  0
 42 45  1  0  0  0  0
 42 46  1  0  0  0  0
  8 13  1  0  0  0  0
 32 37  1  0  0  0  0
 31 36  1  0  0  0  0
 41 43  1  0  0  0  0
  7 12  1  0  0  0  0
M  END
$$$$

  -OEChem-05262214473D

 46 46  0     1  0  0  0  0  0999 V2000
   -0.6012   -3.2995    3.8205 C   0  0  0  0  0  0  0  0  0  0  0  0
   -0.6574   -4.4683    3.4568 O   0  0  0  0  0  0  0  0  0  0  0  0
   -0.4935   -2.9859    5.2760 C   0  0  0  0  0  0  0  0  0  0  0  0
   -1.4789   -2.8689    5.7550 H   0  0  0  0  0  0  0  0  0  0  0  0
    0.0123   -3.7847    5.8419 H   0  0  0  0  0  0  0  0  0  0  0  0
    0.0585   -2.0642    5.5199 H   0  0  0  0  0  0  0  0  0  0  0  0
   -0.6261   -2.1849    2.9917 N   0  0  0  0  0  0  0  0  0  0  0  0
   -0.7237   -2.2601    1.5650 C   0  0  2  0  0  0  0  0  0  0  0  0
    0.1695   -1.1513    1.0687 C   0  0  0  0  0  0  0  0  0  0  0  0
    0.3193   -0.1267    1.7365 O   0  0  0  0  0  0  0  0  0  0  0  0
   -2.1397   -2.0663    1.0750 C   0  0  0  0  0  0  0  0  0  0  0  0
   -0.5717   -1.2606    3.4238 H   0  0  0  0  0  0  0  0  0  0  0  0
   -0.3076   -3.2111    1.2363 H   0  0  0  0  0  0  0  0  0  0  0  0
   -2.5584   -1.1089    1.4061 H   0  0  0  0  0  0  0  0  0  0  0  0
   -2.1682   -2.0790   -0.0197 H   0  0  0  0  0  0  0  0  0  0  0  0
   -2.7965   -2.8601    1.4459 H   0  0  0  0  0  0  0  0  0  0  0  0
    0.7724   -1.3745   -0.1593 N   0  0  0  0  0  0  0  0  0  0  0  0
    1.6644   -0.4046   -0.7812 C   0  0  2  0  0  0  0  0  0  0  0  0
    0.8166    0.4953   -1.6290 C   0  0  0  0  0  0  0  0  0  0  0  0
   -0.3939    0.3119   -1.6816 O   0  0  0  0  0  0  0  0  0  0  0  0
    2.6195   -1.2417   -1.6241 C   0  0  0  0  0  0  0  0  0  0  0  0
    2.1758   -2.2356   -0.5535 C   0  0  0  0  0  0  0  0  0  0  0  0
    0.7499   -2.6270   -0.9105 C   0  0  0  0  0  0  0  0  0  0  0  0
    2.1745    0.2007   -0.0258 H   0  0  0  0  0  0  0  0  0  0  0  0
    3.6296   -0.8175   -1.5784 H   0  0  0  0  0  0  0  0  0  0  0  0
    2.3218   -1.3211   -2.6742 H   0  0  0  0  0  0  0  0  0  0  0  0
    2.8084   -3.1304   -0.5781 H   0  0  0  0  0  0  0  0  0  0  0  0
    2.2249   -1.8085    0.4522 H   0  0  0  0  0  0  0  0  0  0  0  0
    0.5944   -2.7143   -1.9893 H   0  0  0  0  0  0  0  0  0  0  0  0
    0.4645   -3.5695   -0.4308 H   0  0  0  0  0  0  0  0  0  0  0  0
    1.8326    1.5009   -2.2592 N   0  0  0  0  0  0  0  0  0  0  0  0
    1.3793    2.6134   -3.0627 C   0  0  2  0  0  0  0  0  0  0  0  0
    0.6202    3.5714   -2.1541 C   0  0  0  0  0  0  0  0  0  0  0  0
    0.1112    3.2253   -1.0901 O   0  0  0  0  0  0  0  0  0  0  0  0
    0.5014    2.1441   -4.2124 C   0  0  0  0  0  0  0  0  0  0  0  0
    2.8287    1.3072   -2.2198 H   0  0  0  0  0  0  0  0  0  0  0  0
    2.2757    3.1097   -3.4502 H   0  0  0  0  0  0  0  0  0  0  0  0
   -0.4018    1.6444   -3.8437 H   0  0  0  0  0  0  0  0  0  0  0  0
    0.1822    2.9852   -4.8368 H   0  0  0  0  0  0  0  0  0  0  0  0
    1.0391    1.4323   -4.8480 H   0  0  0  0  0  0  0  0  0  0  0  0
    0.5410    4.8484   -2.6919 N   0  0  0  0  0  0  0  0  0  0  0  0
   -0.1397    5.9341   -2.0256 C   0  0  0  0  0  0  0  0  0  0  0  0
    1.0087    5.0504   -3.5706 H   0  0  0  0  0  0  0  0  0  0  0  0
   -1.1827    5.9812   -2.3718 H   0  0  0  0  0  0  0  0  0  0  0  0
   -0.1215    5.7660   -0.9386 H   0  0  0  0  0  0  0  0  0  0  0  0
    0.3670    6.8823   -2.2585 H   0  0  0  0  0  0  0  0  0  0  0  0
 18 19  1  0  0  0  0
 19 31  1  0  0  0  0
 19 20  2  0  0  0  0
  8  9  1  0  0  0  0
  9 17  1  0  0  0  0
  9 10  2  0  0  0  0
  1  3  1  0  0  0  0
  1  7  1  0  0  0  0
  1  2  2  0  0  0  0
 32 33  1  0  0  0  0
 33 41  1  0  0  0  0
 33 34  2  0  0  0  0
 21 22  1  0  0  0  0
 22 23  1  0  0  0  0
 18 21  1  0  0  0  0
 17 23  1  0  0  0  0
 17 18  1  0  0  0  0
  8 11  1  0  0  0  0
 32 35  1  0  0  0  0
 41 42  1  0  0  0  0
  7  8  1  0  0  0  0
 31 32  1  0  0  0  0
 22 27  1  0  0  0  0
 22 28  1  0  0  0  0
 21 25  1  0  0  0  0
 21 26  1  0  0  0  0
 23 29  1  0  0  0  0
 23 30  1  0  0  0  0
 18 24  1  0  0  0  0
  3  4  1  0  0  0  0
  3  5  1  0  0  0  0
  3  6  1  0  0  0  0
 11 14  1  0  0  0  0
 11 15  1  0  0  0  0
 11 16  1  0  0  0  0
 35 38  1  0  0  0  0
 35 39  1  0  0  0  0
 35 40  1  0  0  0  0
 42 44  1  0  0  0  0
 42 45  1  0  0  0  0
 42 46  1  0  0  0  0
  8 13  1  0  0  0  0
 32 37  1  0  0  0  0
 31 36  1  0  0  0  0
 41 43  1  0  0  0  0
  7 12  1  0  0  0  0
M  END
$$$$

  -OEChem-05262214473D

 46 46  0     1  0  0  0  0  0999 V2000
   -0.6012   -3.2995    3.8205 C   0  0  0  0  0  0  0  0  0  0  0  0
   -0.6574   -4.4683    3.4568 O   0  0  0  0  0  0  0  0  0  0  0  0
   -0.4935   -2.9859    5.2760 C   0  0  0  0  0  0  0  0  0  0  0  0
   -1.4789   -2.8689    5.7550 H   0  0  0  0  0  0  0  0  0  0  0  0
    0.0123   -3.7847    5.8419 H   0  0  0  0  0  0  0  0  0  0  0  0
    0.0585   -2.0642    5.5199 H   0  0  0  0  0  0  0  0  0  0  0  0
   -0.6261   -2.1849    2.9917 N   0  0  0  0  0  0  0  0  0  0  0  0
   -0.7237   -2.2601    1.5650 C   0  0  2  0  0  0  0  0  0  0  0  0
    0.1695   -1.1513    1.0687 C   0  0  0  0  0  0  0  0  0  0  0  0
    0.3193   -0.1267    1.7365 O   0  0  0  0  0  0  0  0  0  0  0  0
   -2.1397   -2.0663    1.0750 C   0  0  0  0  0  0  0  0  0  0  0  0
   -0.5717   -1.2606    3.4238 H   0  0  0  0  0  0  0  0  0  0  0  0
   -0.3076   -3.2111    1.2363 H   0  0  0  0  0  0  0  0  0  0  0  0
   -2.5584   -1.1089    1.4061 H   0  0  0  0  0  0  0  0  0  0  0  0
   -2.1682   -2.0790   -0.0197 H   0  0  0  0  0  0  0  0  0  0  0  0
   -2.7965   -2.8601    1.4459 H   0  0  0  0  0  0  0  0  0  0  0  0
    0.7724   -1.3745   -0.1593 N   0  0  0  0  0  0  0  0  0  0  0  0
    1.6644   -0.4046   -0.7812 C   0  0  2  0  0  0  0  0  0  0  0  0
    0.8166    0.4953   -1.6290 C   0  0  0  0  0  0  0  0  0  0  0  0
   -0.3993    0.5000   -1.4765 O   0  0  0  0  0  0  0  0  0  0  0  0
    2.6195   -1.2417   -1.6241 C   0  0  0  0  0  0  0  0  0  0  0  0
    2.1758   -2.2356   -0.5535 C   0  0  0  0  0  0  0  0  0  0  0  0
    0.7499   -2.6270   -0.9105 C   0  0  0  0  0  0  0  0  0  0  0  0
    2.1745    0.2007   -0.0258 H   0  0  0  0  0  0  0  0  0  0  0  0
    3.6296   -0.8175   -1.5784 H   0  0  0  0  0  0  0  0  0  0  0  0
    2.3218   -1.3211   -2.6742 H   0  0  0  0  0  0  0  0  0  0  0  0
    2.8084   -3.1304   -0.5781 H   0  0  0  0  0  0  0  0  0  0  0  0
    2.2249   -1.8085    0.4522 H   0  0  0  0  0  0  0  0  0  0  0  0
    0.5944   -2.7143   -1.9893 H   0  0  0  0  0  0  0  0  0  0  0  0
    0.4645   -3.5695   -0.4308 H   0  0  0  0  0  0  0  0  0  0  0  0
    1.8398    1.2336   -2.5502 N   0  0  0  0  0  0  0  0  0  0  0  0
    1.4134    2.2851   -3.4453 C   0  0  2  0  0  0  0  0  0  0  0  0
    0.9521    3.4646   -2.5994 C   0  0  0  0  0  0  0  0  0  0  0  0
    0.5851    3.3498   -1.4318 O   0  0  0  0  0  0  0  0  0  0  0  0
    0.3014    1.8097   -4.3674 C   0  0  0  0  0  0  0  0  0  0  0  0
    2.7933    0.8921   -2.6250 H   0  0  0  0  0  0  0  0  0  0  0  0
    2.2915    2.5768   -4.0317 H   0  0  0  0  0  0  0  0  0  0  0  0
   -0.5869    1.5132   -3.7978 H   0  0  0  0  0  0  0  0  0  0  0  0
   -0.0008    2.5987   -5.0641 H   0  0  0  0  0  0  0  0  0  0  0  0
    0.6251    0.9429   -4.9536 H   0  0  0  0  0  0  0  0  0  0  0  0
    0.9574    4.6538   -3.3149 N   0  0  0  0  0  0  0  0  0  0  0  0
    0.5497    5.9131   -2.7372 C   0  0  0  0  0  0  0  0  0  0  0  0
    1.2954    4.6591   -4.2728 H   0  0  0  0  0  0  0  0  0  0  0  0
   -0.5204    6.0772   -2.9322 H   0  0  0  0  0  0  0  0  0  0  0  0
    0.7255    5.8924   -1.6515 H   0  0  0  0  0  0  0  0  0  0  0  0
    1.1337    6.7292   -3.1877 H   0  0  0  0  0  0  0  0  0  0  0  0
 18 19  1  0  0  0  0
 19 31  1  0  0  0  0
 19 20  2  0  0  0  0
  8  9  1  0  0  0  0
  9 17  1  0  0  0  0
  9 10  2  0  0  0  0
  1  3  1  0  0  0  0
  1  7  1  0  0  0  0
  1  2  2  0  0  0  0
 32 33  1  0  0  0  0
 33 41  1  0  0  0  0
 33 34  2  0  0  0  0
 21 22  1  0  0  0  0
 22 23  1  0  0  0  0
 18 21  1  0  0  0  0
 17 23  1  0  0  0  0
 17 18  1  0  0  0  0
  8 11  1  0  0  0  0
 32 35  1  0  0  0  0
 41 42  1  0  0  0  0
  7  8  1  0  0  0  0
 31 32  1  0  0  0  0
 22 27  1  0  0  0  0
 22 28  1  0  0  0  0
 21 25  1  0  0  0  0
 21 26  1  0  0  0  0
 23 29  1  0  0  0  0
 23 30  1  0  0  0  0
 18 24  1  0  0  0  0
  3  4  1  0  0  0  0
  3  5  1  0  0  0  0
  3  6  1  0  0  0  0
 11 14  1  0  0  0  0
 11 15  1  0  0  0  0
 11 16  1  0  0  0  0
 35 38  1  0  0  0  0
 35 39  1  0  0  0  0
 35 40  1  0  0  0  0
 42 44  1  0  0  0  0
 42 45  1  0  0  0  0
 42 46  1  0  0  0  0
  8 13  1  0  0  0  0
 32 37  1  0  0  0  0
 31 36  1  0  0  0  0
 41 43  1  0  0  0  0
  7 12  1  0  0  0  0
M  END
$$$$

  -OEChem-05262214473D

 46 46  0     1  0  0  0  0  0999 V2000
   -0.6012   -3.2995    3.8205 C   0  0  0  0  0  0  0  0  0  0  0  0
   -0.6574   -4.4683    3.4568 O   0  0  0  0  0  0  0  0  0  0  0  0
   -0.4935   -2.9859    5.2760 C   0  0  0  0  0  0  0  0  0  0  0  0
   -1.4789   -2.8689    5.7550 H   0  0  0  0  0  0  0  0  0  0  0  0
    0.0123   -3.7847    5.8419 H   0  0  0  0  0  0  0  0  0  0  0  0
    0.0585   -2.0642    5.5199 H   0  0  0  0  0  0  0  0  0  0  0  0
   -0.6261   -2.1849    2.9917 N   0  0  0  0  0  0  0  0  0  0  0  0
   -0.7237   -2.2601    1.5650 C   0  0  2  0  0  0  0  0  0  0  0  0
    0.1695   -1.1513    1.0687 C   0  0  0  0  0  0  0  0  0  0  0  0
    0.3193   -0.1267    1.7365 O   0  0  0  0  0  0  0  0  0  0  0  0
   -2.1397   -2.0663    1.0750 C   0  0  0  0  0  0  0  0  0  0  0  0
   -0.5717   -1.2606    3.4238 H   0  0  0  0  0  0  0  0  0  0  0  0
   -0.3076   -3.2111    1.2363 H   0  0  0  0  0  0  0  0  0  0  0  0
   -2.5584   -1.1089    1.4061 H   0  0  0  0  0  0  0  0  0  0  0  0
   -2.1682   -2.0790   -0.0197 H   0  0  0  0  0  0  0  0  0  0  0  0
   -2.7965   -2.8601    1.4459 H   0  0  0  0  0  0  0  0  0  0  0  0
    0.7724   -1.3745   -0.1593 N   0  0  0  0  0  0  0  0  0  0  0  0
    1.6644   -0.4046   -0.7812 C   0  0  2  0  0  0  0  0  0  0  0  0
    0.8166    0.4953   -1.6290 C   0  0  0  0  0  0  0  0  0  0  0  0
   -0.3451    0.7125   -1.3051 O   0  0  0  0  0  0  0  0  0  0  0  0
    2.6195   -1.2417   -1.6241 C   0  0  0  0  0  0  0  0  0  0  0  0
    2.1758   -2.2356   -0.5535 C   0  0  0  0  0  0  0  0  0  0  0  0
    0.7499   -2.6270   -0.9105 C   0  0  0  0  0  0  0  0  0  0  0  0
    2.1745    0.2007   -0.0258 H   0  0  0  0  0  0  0  0  0  0  0  0
    3.6296   -0.8175   -1.5784 H   0  0  0  0  0  0  0  0  0  0  0  0
    2.3218   -1.3211   -2.6742 H   0  0  0  0  0  0  0  0  0  0  0  0
    2.8084   -3.1304   -0.5781 H   0  0  0  0  0  0  0  0  0  0  0  0
    2.2249   -1.8085    0.4522 H   0  0  0  0  0  0  0  0  0  0  0  0
    0.5944   -2.7143   -1.9893 H   0  0  0  0  0  0  0  0  0  0  0  0
    0.4645   -3.5695   -0.4308 H   0  0  0  0  0  0  0  0  0  0  0  0
    1.7625    0.9317   -2.7932 N   0  0  0  0  0  0  0  0  0  0  0  0
    1.3388    1.9070   -3.7721 C   0  0  2  0  0  0  0  0  0  0  0  0
    1.1878    3.2477   -3.0654 C   0  0  0  0  0  0  0  0  0  0  0  0
    1.0081    3.3507   -1.8538 O   0  0  0  0  0  0  0  0  0  0  0  0
    0.0352    1.4933   -4.4371 C   0  0  0  0  0  0  0  0  0  0  0  0
    2.6354    0.4370   -2.9502 H   0  0  0  0  0  0  0  0  0  0  0  0
    2.1384    1.9746   -4.5178 H   0  0  0  0  0  0  0  0  0  0  0  0
   -0.7778    1.4203   -3.7056 H   0  0  0  0  0  0  0  0  0  0  0  0
   -0.2695    2.2189   -5.1985 H   0  0  0  0  0  0  0  0  0  0  0  0
    0.1371    0.5152   -4.9195 H   0  0  0  0  0  0  0  0  0  0  0  0
    1.2344    4.3136   -3.9530 N   0  0  0  0  0  0  0  0  0  0  0  0
    1.1019    5.6878   -3.5286 C   0  0  0  0  0  0  0  0  0  0  0  0
    1.4060    4.1363   -4.9383 H   0  0  0  0  0  0  0  0  0  0  0  0
    0.0463    5.9910   -3.5904 H   0  0  0  0  0  0  0  0  0  0  0  0
    1.4514    5.7861   -2.4902 H   0  0  0  0  0  0  0  0  0  0  0  0
    1.7075    6.3332   -4.1819 H   0  0  0  0  0  0  0  0  0  0  0  0
 18 19  1  0  0  0  0
 19 31  1  0  0  0  0
 19 20  2  0  0  0  0
  8  9  1  0  0  0  0
  9 17  1  0  0  0  0
  9 10  2  0  0  0  0
  1  3  1  0  0  0  0
  1  7  1  0  0  0  0
  1  2  2  0  0  0  0
 32 33  1  0  0  0  0
 33 41  1  0  0  0  0
 33 34  2  0  0  0  0
 21 22  1  0  0  0  0
 22 23  1  0  0  0  0
 18 21  1  0  0  0  0
 17 23  1  0  0  0  0
 17 18  1  0  0  0  0
  8 11  1  0  0  0  0
 32 35  1  0  0  0  0
 41 42  1  0  0  0  0
  7  8  1  0  0  0  0
 31 32  1  0  0  0  0
 22 27  1  0  0  0  0
 22 28  1  0  0  0  0
 21 25  1  0  0  0  0
 21 26  1  0  0  0  0
 23 29  1  0  0  0  0
 23 30  1  0  0  0  0
 18 24  1  0  0  0  0
  3  4  1  0  0  0  0
  3  5  1  0  0  0  0
  3  6  1  0  0  0  0
 11 14  1  0  0  0  0
 11 15  1  0  0  0  0
 11 16  1  0  0  0  0
 35 38  1  0  0  0  0
 35 39  1  0  0  0  0
 35 40  1  0  0  0  0
 42 44  1  0  0  0  0
 42 45  1  0  0  0  0
 42 46  1  0  0  0  0
  8 13  1  0  0  0  0
 32 37  1  0  0  0  0
 31 36  1  0  0  0  0
 41 43  1  0  0  0  0
  7 12  1  0  0  0  0
M  END
$$$$

  -OEChem-05262214473D

 46 46  0     1  0  0  0  0  0999 V2000
   -0.6012   -3.2995    3.8205 C   0  0  0  0  0  0  0  0  0  0  0  0
   -0.6574   -4.4683    3.4568 O   0  0  0  0  0  0  0  0  0  0  0  0
   -0.4935   -2.9859    5.2760 C   0  0  0  0  0  0  0  0  0  0  0  0
   -1.4789   -2.8689    5.7550 H   0  0  0  0  0  0  0  0  0  0  0  0
    0.0123   -3.7847    5.8419 H   0  0  0  0  0  0  0  0  0  0  0  0
    0.0585   -2.0642    5.5199 H   0  0  0  0  0  0  0  0  0  0  0  0
   -0.6261   -2.1849    2.9917 N   0  0  0  0  0  0  0  0  0  0  0  0
   -0.7237   -2.2601    1.5650 C   0  0  2  0  0  0  0  0  0  0  0  0
    0.1695   -1.1513    1.0687 C   0  0  0  0  0  0  0  0  0  0  0  0
    0.3193   -0.1267    1.7365 O   0  0  0  0  0  0  0  0  0  0  0  0
   -2.1397   -2.0663    1.0750 C   0  0  0  0  0  0  0  0  0  0  0  0
   -0.5717   -1.2606    3.4238 H   0  0  0  0  0  0  0  0  0  0  0  0
   -0.3076   -3.2111    1.2363 H   0  0  0  0  0  0  0  0  0  0  0  0
   -2.5584   -1.1089    1.4061 H   0  0  0  0  0  0  0  0  0  0  0  0
   -2.1682   -2.0790   -0.0197 H   0  0  0  0  0  0  0  0  0  0  0  0
   -2.7965   -2.8601    1.4459 H   0  0  0  0  0  0  0  0  0  0  0  0
    0.7724   -1.3745   -0.1593 N   0  0  0  0  0  0  0  0  0  0  0  0
    1.6644   -0.4046   -0.7812 C   0  0  2  0  0  0  0  0  0  0  0  0
    0.8166    0.4953   -1.6290 C   0  0  0  0  0  0  0  0  0  0  0  0
   -0.2351    0.9349   -1.1791 O   0  0  0  0  0  0  0  0  0  0  0  0
    2.6195   -1.2417   -1.6241 C   0  0  0  0  0  0  0  0  0  0  0  0
    2.1758   -2.2356   -0.5535 C   0  0  0  0  0  0  0  0  0  0  0  0
    0.7499   -2.6270   -0.9105 C   0  0  0  0  0  0  0  0  0  0  0  0
    2.1745    0.2007   -0.0258 H   0  0  0  0  0  0  0  0  0  0  0  0
    3.6296   -0.8175   -1.5784 H   0  0  0  0  0  0  0  0  0  0  0  0
    2.3218   -1.3211   -2.6742 H   0  0  0  0  0  0  0  0  0  0  0  0
    2.8084   -3.1304   -0.5781 H   0  0  0  0  0  0  0  0  0  0  0  0
    2.2249   -1.8085    0.4522 H   0  0  0  0  0  0  0  0  0  0  0  0
    0.5944   -2.7143   -1.9893 H   0  0  0  0  0  0  0  0  0  0  0  0
    0.4645   -3.5695   -0.4308 H   0  0  0  0  0  0  0  0  0  0  0  0
    1.6058    0.6159   -2.9718 N   0  0  0  0  0  0  0  0  0  0  0  0
    1.1607    1.5049   -4.0209 C   0  0  2  0  0  0  0  0  0  0  0  0
    1.3114    2.9354   -3.5205 C   0  0  0  0  0  0  0  0  0  0  0  0
    1.3512    3.2280   -2.3272 O   0  0  0  0  0  0  0  0  0  0  0  0
   -0.2791    1.2164   -4.4168 C   0  0  0  0  0  0  0  0  0  0  0  0
    2.3657   -0.0271   -3.1731 H   0  0  0  0  0  0  0  0  0  0  0  0
    1.8269    1.3442   -4.8755 H   0  0  0  0  0  0  0  0  0  0  0  0
   -0.9614    1.3720   -3.5732 H   0  0  0  0  0  0  0  0  0  0  0  0
   -0.6055    1.8717   -5.2311 H   0  0  0  0  0  0  0  0  0  0  0  0
   -0.3916    0.1785   -4.7482 H   0  0  0  0  0  0  0  0  0  0  0  0
    1.3530    3.8512   -4.5625 N   0  0  0  0  0  0  0  0  0  0  0  0
    1.4794    5.2735   -4.3459 C   0  0  0  0  0  0  0  0  0  0  0  0
    1.3329    3.5178   -5.5218 H   0  0  0  0  0  0  0  0  0  0  0  0
    0.4789    5.7285   -4.3016 H   0  0  0  0  0  0  0  0  0  0  0  0
    2.0066    5.4544   -3.3976 H   0  0  0  0  0  0  0  0  0  0  0  0
    2.0493    5.7211   -5.1735 H   0  0  0  0  0  0  0  0  0  0  0  0
 18 19  1  0  0  0  0
 19 31  1  0  0  0  0
 19 20  2  0  0  0  0
  8  9  1  0  0  0  0
  9 17  1  0  0  0  0
  9 10  2  0  0  0  0
  1  3  1  0  0  0  0
  1  7  1  0  0  0  0
  1  2  2  0  0  0  0
 32 33  1  0  0  0  0
 33 41  1  0  0  0  0
 33 34  2  0  0  0  0
 21 22  1  0  0  0  0
 22 23  1  0  0  0  0
 18 21  1  0  0  0  0
 17 23  1  0  0  0  0
 17 18  1  0  0  0  0
  8 11  1  0  0  0  0
 32 35  1  0  0  0  0
 41 42  1  0  0  0  0
  7  8  1  0  0  0  0
 31 32  1  0  0  0  0
 22 27  1  0  0  0  0
 22 28  1  0  0  0  0
 21 25  1  0  0  0  0
 21 26  1  0  0  0  0
 23 29  1  0  0  0  0
 23 30  1  0  0  0  0
 18 24  1  0  0  0  0
  3  4  1  0  0  0  0
  3  5  1  0  0  0  0
  3  6  1  0  0  0  0
 11 14  1  0  0  0  0
 11 15  1  0  0  0  0
 11 16  1  0  0  0  0
 35 38  1  0  0  0  0
 35 39  1  0  0  0  0
 35 40  1  0  0  0  0
 42 44  1  0  0  0  0
 42 45  1  0  0  0  0
 42 46  1  0  0  0  0
  8 13  1  0  0  0  0
 32 37  1  0  0  0  0
 31 36  1  0  0  0  0
 41 43  1  0  0  0  0
  7 12  1  0  0  0  0
M  END
$$$$

  -OEChem-05262214473D

 46 46  0     1  0  0  0  0  0999 V2000
   -0.6012   -3.2995    3.8205 C   0  0  0  0  0  0  0  0  0  0  0  0
   -0.6574   -4.4683    3.4568 O   0  0  0  0  0  0  0  0  0  0  0  0
   -0.4935   -2.9859    5.2760 C   0  0  0  0  0  0  0  0  0  0  0  0
   -1.4789   -2.8689    5.7550 H   0  0  0  0  0  0  0  0  0  0  0  0
    0.0123   -3.7847    5.8419 H   0  0  0  0  0  0  0  0  0  0  0  0
    0.0585   -2.0642    5.5199 H   0  0  0  0  0  0  0  0  0  0  0  0
   -0.6261   -2.1849    2.9917 N   0  0  0  0  0  0  0  0  0  0  0  0
   -0.7237   -2.2601    1.5650 C   0  0  2  0  0  0  0  0  0  0  0  0
    0.1695   -1.1513    1.0687 C   0  0  0  0  0  0  0  0  0  0  0  0
    0.3193   -0.1267    1.7365 O   0  0  0  0  0  0  0  0  0  0  0  0
   -2.1397   -2.0663    1.0750 C   0  0  0  0  0  0  0  0  0  0  0  0
   -0.5717   -1.2606    3.4238 H   0  0  0  0  0  0  0  0  0  0  0  0
   -0.3076   -3.2111    1.2363 H   0  0  0  0  0  0  0  0  0  0  0  0
   -2.5584   -1.1089    1.4061 H   0  0  0  0  0  0  0  0  0  0  0  0
   -2.1682   -2.0790   -0.0197 H   0  0  0  0  0  0  0  0  0  0  0  0
   -2.7965   -2.8601    1.4459 H   0  0  0  0  0  0  0  0  0  0  0  0
    0.7724   -1.3745   -0.1593 N   0  0  0  0  0  0  0  0  0  0  0  0
    1.6644   -0.4046   -0.7812 C   0  0  2  0  0  0  0  0  0  0  0  0
    0.8166    0.4953   -1.6290 C   0  0  0  0  0  0  0  0  0  0  0  0
   -0.0767    1.1520   -1.1070 O   0  0  0  0  0  0  0  0  0  0  0  0
    2.6195   -1.2417   -1.6241 C   0  0  0  0  0  0  0  0  0  0  0  0
    2.1758   -2.2356   -0.5535 C   0  0  0  0  0  0  0  0  0  0  0  0
    0.7499   -2.6270   -0.9105 C   0  0  0  0  0  0  0  0  0  0  0  0
    2.1745    0.2007   -0.0258 H   0  0  0  0  0  0  0  0  0  0  0  0
    3.6296   -0.8175   -1.5784 H   0  0  0  0  0  0  0  0  0  0  0  0
    2.3218   -1.3211   -2.6742 H   0  0  0  0  0  0  0  0  0  0  0  0
    2.8084   -3.1304   -0.5781 H   0  0  0  0  0  0  0  0  0  0  0  0
    2.2249   -1.8085    0.4522 H   0  0  0  0  0  0  0  0  0  0  0  0
    0.5944   -2.7143   -1.9893 H   0  0  0  0  0  0  0  0  0  0  0  0
    0.4645   -3.5695   -0.4308 H   0  0  0  0  0  0  0  0  0  0  0  0
    1.3805    0.3076   -3.0738 N   0  0  0  0  0  0  0  0  0  0  0  0
    0.8911    1.1061   -4.1746 C   0  0  2  0  0  0  0  0  0  0  0  0
    1.3144    2.5491   -3.9335 C   0  0  0  0  0  0  0  0  0  0  0  0
    1.5910    2.9899   -2.8199 O   0  0  0  0  0  0  0  0  0  0  0  0
   -0.6200    0.9980   -4.3078 C   0  0  0  0  0  0  0  0  0  0  0  0
    2.0026   -0.4685   -3.2786 H   0  0  0  0  0  0  0  0  0  0  0  0
    1.3781    0.7285   -5.0803 H   0  0  0  0  0  0  0  0  0  0  0  0
   -1.1253    1.3717   -3.4097 H   0  0  0  0  0  0  0  0  0  0  0  0
   -0.9859    1.5807   -5.1595 H   0  0  0  0  0  0  0  0  0  0  0  0
   -0.9250   -0.0442   -4.4513 H   0  0  0  0  0  0  0  0  0  0  0  0
    1.3052    3.2979   -5.1021 N   0  0  0  0  0  0  0  0  0  0  0  0
    1.6564    4.6985   -5.1333 C   0  0  0  0  0  0  0  0  0  0  0  0
    1.0811    2.8456   -5.9835 H   0  0  0  0  0  0  0  0  0  0  0  0
    0.7478    5.3075   -5.0174 H   0  0  0  0  0  0  0  0  0  0  0  0
    2.3535    4.9200   -4.3118 H   0  0  0  0  0  0  0  0  0  0  0  0
    2.1358    4.9347   -6.0948 H   0  0  0  0  0  0  0  0  0  0  0  0
 18 19  1  0  0  0  0
 19 31  1  0  0  0  0
 19 20  2  0  0  0  0
  8  9  1  0  0  0  0
  9 17  1  0  0  0  0
  9 10  2  0  0  0  0
  1  3  1  0  0  0  0
  1  7  1  0  0  0  0
  1  2  2  0  0  0  0
 32 33  1  0  0  0  0
 33 41  1  0  0  0  0
 33 34  2  0  0  0  0
 21 22  1  0  0  0  0
 22 23  1  0  0  0  0
 18 21  1  0  0  0  0
 17 23  1  0  0  0  0
 17 18  1  0  0  0  0
  8 11  1  0  0  0  0
 32 35  1  0  0  0  0
 41 42  1  0  0  0  0
  7  8  1  0  0  0  0
 31 32  1  0  0  0  0
 22 27  1  0  0  0  0
 22 28  1  0  0  0  0
 21 25  1  0  0  0  0
 21 26  1  0  0  0  0
 23 29  1  0  0  0  0
 23 30  1  0  0  0  0
 18 24  1  0  0  0  0
  3  4  1  0  0  0  0
  3  5  1  0  0  0  0
  3  6  1  0  0  0  0
 11 14  1  0  0  0  0
 11 15  1  0  0  0  0
 11 16  1  0  0  0  0
 35 38  1  0  0  0  0
 35 39  1  0  0  0  0
 35 40  1  0  0  0  0
 42 44  1  0  0  0  0
 42 45  1  0  0  0  0
 42 46  1  0  0  0  0
  8 13  1  0  0  0  0
 32 37  1  0  0  0  0
 31 36  1  0  0  0  0
 41 43  1  0  0  0  0
  7 12  1  0  0  0  0
M  END
$$$$

  -OEChem-05262214473D

 46 46  0     1  0  0  0  0  0999 V2000
   -0.6012   -3.2995    3.8205 C   0  0  0  0  0  0  0  0  0  0  0  0
   -0.6574   -4.4683    3.4568 O   0  0  0  0  0  0  0  0  0  0  0  0
   -0.4935   -2.9859    5.2760 C   0  0  0  0  0  0  0  0  0  0  0  0
   -1.4789   -2.8689    5.7550 H   0  0  0  0  0  0  0  0  0  0  0  0
    0.0123   -3.7847    5.8419 H   0  0  0  0  0  0  0  0  0  0  0  0
    0.0585   -2.0642    5.5199 H   0  0  0  0  0  0  0  0  0  0  0  0
   -0.6261   -2.1849    2.9917 N   0  0  0  0  0  0  0  0  0  0  0  0
   -0.7237   -2.2601    1.5650 C   0  0  2  0  0  0  0  0  0  0  0  0
    0.1695   -1.1513    1.0687 C   0  0  0  0  0  0  0  0  0  0  0  0
    0.3193   -0.1267    1.7365 O   0  0  0  0  0  0  0  0  0  0  0  0
   -2.1397   -2.0663    1.0750 C   0  0  0  0  0  0  0  0  0  0  0  0
   -0.5717   -1.2606    3.4238 H   0  0  0  0  0  0  0  0  0  0  0  0
   -0.3076   -3.2111    1.2363 H   0  0  0  0  0  0  0  0  0  0  0  0
   -2.5584   -1.1089    1.4061 H   0  0  0  0  0  0  0  0  0  0  0  0
   -2.1682   -2.0790   -0.0197 H   0  0  0  0  0  0  0  0  0  0  0  0
   -2.7965   -2.8601    1.4459 H   0  0  0  0  0  0  0  0  0  0  0  0
    0.7724   -1.3745   -0.1593 N   0  0  0  0  0  0  0  0  0  0  0  0
    1.6644   -0.4046   -0.7812 C   0  0  2  0  0  0  0  0  0  0  0  0
    0.8166    0.4953   -1.6290 C   0  0  0  0  0  0  0  0  0  0  0  0
    0.1194    1.3492   -1.0938 O   0  0  0  0  0  0  0  0  0  0  0  0
    2.6195   -1.2417   -1.6241 C   0  0  0  0  0  0  0  0  0  0  0  0
    2.1758   -2.2356   -0.5535 C   0  0  0  0  0  0  0  0  0  0  0  0
    0.7499   -2.6270   -0.9105 C   0  0  0  0  0  0  0  0  0  0  0  0
    2.1745    0.2007   -0.0258 H   0  0  0  0  0  0  0  0  0  0  0  0
    3.6296   -0.8175   -1.5784 H   0  0  0  0  0  0  0  0  0  0  0  0
    2.3218   -1.3211   -2.6742 H   0  0  0  0  0  0  0  0  0  0  0  0
    2.8084   -3.1304   -0.5781 H   0  0  0  0  0  0  0  0  0  0  0  0
    2.2249   -1.8085    0.4522 H   0  0  0  0  0  0  0  0  0  0  0  0
    0.5944   -2.7143   -1.9893 H   0  0  0  0  0  0  0  0  0  0  0  0
    0.4645   -3.5695   -0.4308 H   0  0  0  0  0  0  0  0  0  0  0  0
    1.1019    0.0279   -3.0921 N   0  0  0  0  0  0  0  0  0  0  0  0
    0.5484    0.7379   -4.2228 C   0  0  2  0  0  0  0  0  0  0  0  0
    1.1965    2.1151   -4.2764 C   0  0  0  0  0  0  0  0  0  0  0  0
    1.7113    2.6527   -3.2981 O   0  0  0  0  0  0  0  0  0  0  0  0
   -0.9643    0.8528   -4.1175 C   0  0  0  0  0  0  0  0  0  0  0  0
    1.5710   -0.8572   -3.2595 H   0  0  0  0  0  0  0  0  0  0  0  0
    0.8227    0.1695   -5.1182 H   0  0  0  0  0  0  0  0  0  0  0  0
   -1.2582    1.4192   -3.2263 H   0  0  0  0  0  0  0  0  0  0  0  0
   -1.3849    1.3658   -4.9887 H   0  0  0  0  0  0  0  0  0  0  0  0
   -1.4266   -0.1379   -4.0491 H   0  0  0  0  0  0  0  0  0  0  0  0
    1.0942    2.6914   -5.5348 N   0  0  0  0  0  0  0  0  0  0  0  0
    1.6208    4.0018   -5.8373 C   0  0  0  0  0  0  0  0  0  0  0  0
    0.6678    2.1656   -6.2920 H   0  0  0  0  0  0  0  0  0  0  0  0
    0.8347    4.7568   -5.6890 H   0  0  0  0  0  0  0  0  0  0  0  0
    2.4682    4.2192   -5.1704 H   0  0  0  0  0  0  0  0  0  0  0  0
    1.9612    4.0276   -6.8830 H   0  0  0  0  0  0  0  0  0  0  0  0
 18 19  1  0  0  0  0
 19 31  1  0  0  0  0
 19 20  2  0  0  0  0
  8  9  1  0  0  0  0
  9 17  1  0  0  0  0
  9 10  2  0  0  0  0
  1  3  1  0  0  0  0
  1  7  1  0  0  0  0
  1  2  2  0  0  0  0
 32 33  1  0  0  0  0
 33 41  1  0  0  0  0
 33 34  2  0  0  0  0
 21 22  1  0  0  0  0
 22 23  1  0  0  0  0
 18 21  1  0  0  0  0
 17 23  1  0  0  0  0
 17 18  1  0  0  0  0
  8 11  1  0  0  0  0
 32 35  1  0  0  0  0
 41 42  1  0  0  0  0
  7  8  1  0  0  0  0
 31 32  1  0  0  0  0
 22 27  1  0  0  0  0
 22 28  1  0  0  0  0
 21 25  1  0  0  0  0
 21 26  1  0  0  0  0
 23 29  1  0  0  0  0
 23 30  1  0  0  0  0
 18 24  1  0  0  0  0
  3  4  1  0  0  0  0
  3  5  1  0  0  0  0
  3  6  1  0  0  0  0
 11 14  1  0  0  0  0
 11 15  1  0  0  0  0
 11 16  1  0  0  0  0
 35 38  1  0  0  0  0
 35 39  1  0  0  0  0
 35 40  1  0  0  0  0
 42 44  1  0  0  0  0
 42 45  1  0  0  0  0
 42 46  1  0  0  0  0
  8 13  1  0  0  0  0
 32 37  1  0  0  0  0
 31 36  1  0  0  0  0
 41 43  1  0  0  0  0
  7 12  1  0  0  0  0
M  END
$$$$

  -OEChem-05262214473D

 46 46  0     1  0  0  0  0  0999 V2000
   -0.6012   -3.2995    3.8205 C   0  0  0  0  0  0  0  0  0  0  0  0
   -0.6574   -4.4683    3.4568 O   0  0  0  0  0  0  0  0  0  0  0  0
   -0.4935   -2.9859    5.2760 C   0  0  0  0  0  0  0  0  0  0  0  0
   -1.4789   -2.8689    5.7550 H   0  0  0  0  0  0  0  0  0  0  0  0
    0.0123   -3.7847    5.8419 H   0  0  0  0  0  0  0  0  0  0  0  0
    0.0585   -2.0642    5.5199 H   0  0  0  0  0  0  0  0  0  0  0  0
   -0.6261   -2.1849    2.9917 N   0  0  0  0  0  0  0  0  0  0  0  0
   -0.7237   -2.2601    1.5650 C   0  0  2  0  0  0  0  0  0  0  0  0
    0.1695   -1.1513    1.0687 C   0  0  0  0  0  0  0  0  0  0  0  0
    0.3193   -0.1267    1.7365 O   0  0  0  0  0  0  0  0  0  0  0  0
   -2.1397   -2.0663    1.0750 C   0  0  0  0  0  0  0  0  0  0  0  0
   -0.5717   -1.2606    3.4238 H   0  0  0  0  0  0  0  0  0  0  0  0
   -0.3076   -3.2111    1.2363 H   0  0  0  0  0  0  0  0  0  0  0  0
   -2.5584   -1.1089    1.4061 H   0  0  0  0  0  0  0  0  0  0  0  0
   -2.1682   -2.0790   -0.0197 H   0  0  0  0  0  0  0  0  0  0  0  0
   -2.7965   -2.8601    1.4459 H   0  0  0  0  0  0  0  0  0  0  0  0
    0.7724   -1.3745   -0.1593 N   0  0  0  0  0  0  0  0  0  0  0  0
    1.6644   -0.4046   -0.7812 C   0  0  2  0  0  0  0  0  0  0  0  0
    0.8166    0.4953   -1.6290 C   0  0  0  0  0  0  0  0  0  0  0  0
    0.3396    1.5128   -1.1403 O   0  0  0  0  0  0  0  0  0  0  0  0
    2.6195   -1.2417   -1.6241 C   0  0  0  0  0  0  0  0  0  0  0  0
    2.1758   -2.2356   -0.5535 C   0  0  0  0  0  0  0  0  0  0  0  0
    0.7499   -2.6270   -0.9105 C   0  0  0  0  0  0  0  0  0  0  0  0
    2.1745    0.2007   -0.0258 H   0  0  0  0  0  0  0  0  0  0  0  0
    3.6296   -0.8175   -1.5784 H   0  0  0  0  0  0  0  0  0  0  0  0
    2.3218   -1.3211   -2.6742 H   0  0  0  0  0  0  0  0  0  0  0  0
    2.8084   -3.1304   -0.5781 H   0  0  0  0  0  0  0  0  0  0  0  0
    2.2249   -1.8085    0.4522 H   0  0  0  0  0  0  0  0  0  0  0  0
    0.5944   -2.7143   -1.9893 H   0  0  0  0  0  0  0  0  0  0  0  0
    0.4645   -3.5695   -0.4308 H   0  0  0  0  0  0  0  0  0  0  0  0
    0.7890   -0.2042   -3.0256 N   0  0  0  0  0  0  0  0  0  0  0  0
    0.1561    0.4253   -4.1623 C   0  0  2  0  0  0  0  0  0  0  0  0
    0.9659    1.6629   -4.5258 C   0  0  0  0  0  0  0  0  0  0  0  0
    1.7039    2.2393   -3.7294 O   0  0  0  0  0  0  0  0  0  0  0  0
   -1.2886    0.7908   -3.8590 C   0  0  0  0  0  0  0  0  0  0  0  0
    1.1000   -1.1667   -3.1171 H   0  0  0  0  0  0  0  0  0  0  0  0
    0.1984   -0.2947   -4.9868 H   0  0  0  0  0  0  0  0  0  0  0  0
   -1.3512    1.5114   -3.0354 H   0  0  0  0  0  0  0  0  0  0  0  0
   -1.7751    1.2416   -4.7303 H   0  0  0  0  0  0  0  0  0  0  0  0
   -1.8623   -0.0960   -3.5689 H   0  0  0  0  0  0  0  0  0  0  0  0
    0.7344    2.0732   -5.8312 N   0  0  0  0  0  0  0  0  0  0  0  0
    1.3752    3.2311   -6.4098 C   0  0  0  0  0  0  0  0  0  0  0  0
    0.1210    1.5242   -6.4263 H   0  0  0  0  0  0  0  0  0  0  0  0
    0.7336    4.1137   -6.2705 H   0  0  0  0  0  0  0  0  0  0  0  0
    2.3431    3.3998   -5.9151 H   0  0  0  0  0  0  0  0  0  0  0  0
    1.5372    3.0616   -7.4845 H   0  0  0  0  0  0  0  0  0  0  0  0
 18 19  1  0  0  0  0
 19 31  1  0  0  0  0
 19 20  2  0  0  0  0
  8  9  1  0  0  0  0
  9 17  1  0  0  0  0
  9 10  2  0  0  0  0
  1  3  1  0  0  0  0
  1  7  1  0  0  0  0
  1  2  2  0  0  0  0
 32 33  1  0  0  0  0
 33 41  1  0  0  0  0
 33 34  2  0  0  0  0
 21 22  1  0  0  0  0
 22 23  1  0  0  0  0
 18 21  1  0  0  0  0
 17 23  1  0  0  0  0
 17 18  1  0  0  0  0
  8 11  1  0  0  0  0
 32 35  1  0  0  0  0
 41 42  1  0  0  0  0
  7  8  1  0  0  0  0
 31 32  1  0  0  0  0
 22 27  1  0  0  0  0
 22 28  1  0  0  0  0
 21 25  1  0  0  0  0
 21 26  1  0  0  0  0
 23 29  1  0  0  0  0
 23 30  1  0  0  0  0
 18 24  1  0  0  0  0
  3  4  1  0  0  0  0
  3  5  1  0  0  0  0
  3  6  1  0  0  0  0
 11 14  1  0  0  0  0
 11 15  1  0  0  0  0
 11 16  1  0  0  0  0
 35 38  1  0  0  0  0
 35 39  1  0  0  0  0
 35 40  1  0  0  0  0
 42 44  1  0  0  0  0
 42 45  1  0  0  0  0
 42 46  1  0  0  0  0
  8 13  1  0  0  0  0
 32 37  1  0  0  0  0
 31 36  1  0  0  0  0
 41 43  1  0  0  0  0
  7 12  1  0  0  0  0
M  END
$$$$

  -OEChem-05262214473D

 46 46  0     1  0  0  0  0  0999 V2000
   -0.6012   -3.2995    3.8205 C   0  0  0  0  0  0  0  0  0  0  0  0
   -0.6574   -4.4683    3.4568 O   0  0  0  0  0  0  0  0  0  0  0  0
   -0.4935   -2.9859    5.2760 C   0  0  0  0  0  0  0  0  0  0  0  0
   -1.4789   -2.8689    5.7550 H   0  0  0  0  0  0  0  0  0  0  0  0
    0.0123   -3.7847    5.8419 H   0  0  0  0  0  0  0  0  0  0  0  0
    0.0585   -2.0642    5.5199 H   0  0  0  0  0  0  0  0  0  0  0  0
   -0.6261   -2.1849    2.9917 N   0  0  0  0  0  0  0  0  0  0  0  0
   -0.7237   -2.2601    1.5650 C   0  0  2  0  0  0  0  0  0  0  0  0
    0.1695   -1.1513    1.0687 C   0  0  0  0  0  0  0  0  0  0  0  0
    0.3193   -0.1267    1.7365 O   0  0  0  0  0  0  0  0  0  0  0  0
   -2.1397   -2.0663    1.0750 C   0  0  0  0  0  0  0  0  0  0  0  0
   -0.5717   -1.2606    3.4238 H   0  0  0  0  0  0  0  0  0  0  0  0
   -0.3076   -3.2111    1.2363 H   0  0  0  0  0  0  0  0  0  0  0  0
   -2.5584   -1.1089    1.4061 H   0  0  0  0  0  0  0  0  0  0  0  0
   -2.1682   -2.0790   -0.0197 H   0  0  0  0  0  0  0  0  0  0  0  0
   -2.7965   -2.8601    1.4459 H   0  0  0  0  0  0  0  0  0  0  0  0
    0.7724   -1.3745   -0.1593 N   0  0  0  0  0  0  0  0  0  0  0  0
    1.6644   -0.4046   -0.7812 C   0  0  2  0  0  0  0  0  0  0  0  0
    0.8166    0.4953   -1.6290 C   0  0  0  0  0  0  0  0  0  0  0  0
    0.5691    1.6318   -1.2434 O   0  0  0  0  0  0  0  0  0  0  0  0
    2.6195   -1.2417   -1.6241 C   0  0  0  0  0  0  0  0  0  0  0  0
    2.1758   -2.2356   -0.5535 C   0  0  0  0  0  0  0  0  0  0  0  0
    0.7499   -2.6270   -0.9105 C   0  0  0  0  0  0  0  0  0  0  0  0
    2.1745    0.2007   -0.0258 H   0  0  0  0  0  0  0  0  0  0  0  0
    3.6296   -0.8175   -1.5784 H   0  0  0  0  0  0  0  0  0  0  0  0
    2.3218   -1.3211   -2.6742 H   0  0  0  0  0  0  0  0  0  0  0  0
    2.8084   -3.1304   -0.5781 H   0  0  0  0  0  0  0  0  0  0  0  0
    2.2249   -1.8085    0.4522 H   0  0  0  0  0  0  0  0  0  0  0  0
    0.5944   -2.7143   -1.9893 H   0  0  0  0  0  0  0  0  0  0  0  0
    0.4645   -3.5695   -0.4308 H   0  0  0  0  0  0  0  0  0  0  0  0
    0.4631   -0.3729   -2.8788 N   0  0  0  0  0  0  0  0  0  0  0  0
   -0.2593    0.1897   -3.9971 C   0  0  2  0  0  0  0  0  0  0  0  0
    0.6382    1.2234   -4.6646 C   0  0  0  0  0  0  0  0  0  0  0  0
    1.5692    1.7781   -4.0844 O   0  0  0  0  0  0  0  0  0  0  0  0
   -1.5708    0.8163   -3.5499 C   0  0  0  0  0  0  0  0  0  0  0  0
    0.6220   -1.3758   -2.8611 H   0  0  0  0  0  0  0  0  0  0  0  0
   -0.4520   -0.6325   -4.6949 H   0  0  0  0  0  0  0  0  0  0  0  0
   -1.3978    1.6421   -2.8501 H   0  0  0  0  0  0  0  0  0  0  0  0
   -2.1301    1.2166   -4.4018 H   0  0  0  0  0  0  0  0  0  0  0  0
   -2.2025    0.0785   -3.0435 H   0  0  0  0  0  0  0  0  0  0  0  0
    0.2503    1.4854   -5.9711 N   0  0  0  0  0  0  0  0  0  0  0  0
    0.9361    2.4388   -6.8117 C   0  0  0  0  0  0  0  0  0  0  0  0
   -0.5218    0.9649   -6.3771 H   0  0  0  0  0  0  0  0  0  0  0  0
    0.4516    3.4223   -6.7224 H   0  0  0  0  0  0  0  0  0  0  0  0
    1.9866    2.5176   -6.4950 H   0  0  0  0  0  0  0  0  0  0  0  0
    0.8929    2.1026   -7.8582 H   0  0  0  0  0  0  0  0  0  0  0  0
 18 19  1  0  0  0  0
 19 31  1  0  0  0  0
 19 20  2  0  0  0  0
  8  9  1  0  0  0  0
  9 17  1  0  0  0  0
  9 10  2  0  0  0  0
  1  3  1  0  0  0  0
  1  7  1  0  0  0  0
  1  2  2  0  0  0  0
 32 33  1  0  0  0  0
 33 41  1  0  0  0  0
 33 34  2  0  0  0  0
 21 22  1  0  0  0  0
 22 23  1  0  0  0  0
 18 21  1  0  0  0  0
 17 23  1  0  0  0  0
 17 18  1  0  0  0  0
  8 11  1  0  0  0  0
 32 35  1  0  0  0  0
 41 42  1  0  0  0  0
  7  8  1  0  0  0  0
 31 32  1  0  0  0  0
 22 27  1  0  0  0  0
 22 28  1  0  0  0  0
 21 25  1  0  0  0  0
 21 26  1  0  0  0  0
 23 29  1  0  0  0  0
 23 30  1  0  0  0  0
 18 24  1  0  0  0  0
  3  4  1  0  0  0  0
  3  5  1  0  0  0  0
  3  6  1  0  0  0  0
 11 14  1  0  0  0  0
 11 15  1  0  0  0  0
 11 16  1  0  0  0  0
 35 38  1  0  0  0  0
 35 39  1  0  0  0  0
 35 40  1  0  0  0  0
 42 44  1  0  0  0  0
 42 45  1  0  0  0  0
 42 46  1  0  0  0  0
  8 13  1  0  0  0  0
 32 37  1  0  0  0  0
 31 36  1  0  0  0  0
 41 43  1  0  0  0  0
  7 12  1  0  0  0  0
M  END
$$$$

  -OEChem-05262214473D

 46 46  0     1  0  0  0  0  0999 V2000
   -0.6012   -3.2995    3.8205 C   0  0  0  0  0  0  0  0  0  0  0  0
   -0.6574   -4.4683    3.4568 O   0  0  0  0  0  0  0  0  0  0  0  0
   -0.4935   -2.9859    5.2760 C   0  0  0  0  0  0  0  0  0  0  0  0
   -1.4789   -2.8689    5.7550 H   0  0  0  0  0  0  0  0  0  0  0  0
    0.0123   -3.7847    5.8419 H   0  0  0  0  0  0  0  0  0  0  0  0
    0.0585   -2.0642    5.5199 H   0  0  0  0  0  0  0  0  0  0  0  0
   -0.6261   -2.1849    2.9917 N   0  0  0  0  0  0  0  0  0  0  0  0
   -0.7237   -2.2601    1.5650 C   0  0  2  0  0  0  0  0  0  0  0  0
    0.1695   -1.1513    1.0687 C   0  0  0  0  0  0  0  0  0  0  0  0
    0.3193   -0.1267    1.7365 O   0  0  0  0  0  0  0  0  0  0  0  0
   -2.1397   -2.0663    1.0750 C   0  0  0  0  0  0  0  0  0  0  0  0
   -0.5717   -1.2606    3.4238 H   0  0  0  0  0  0  0  0  0  0  0  0
   -0.3076   -3.2111    1.2363 H   0  0  0  0  0  0  0  0  0  0  0  0
   -2.5584   -1.1089    1.4061 H   0  0  0  0  0  0  0  0  0  0  0  0
   -2.1682   -2.0790   -0.0197 H   0  0  0  0  0  0  0  0  0  0  0  0
   -2.7965   -2.8601    1.4459 H   0  0  0  0  0  0  0  0  0  0  0  0
    0.7724   -1.3745   -0.1593 N   0  0  0  0  0  0  0  0  0  0  0  0
    1.6644   -0.4046   -0.7812 C   0  0  2  0  0  0  0  0  0  0  0  0
    0.8166    0.4953   -1.6290 C   0  0  0  0  0  0  0  0  0  0  0  0
    0.7922    1.6981   -1.3961 O   0  0  0  0  0  0  0  0  0  0  0  0
    2.6195   -1.2417   -1.6241 C   0  0  0  0  0  0  0  0  0  0  0  0
    2.1758   -2.2356   -0.5535 C   0  0  0  0  0  0  0  0  0  0  0  0
    0.7499   -2.6270   -0.9105 C   0  0  0  0  0  0  0  0  0  0  0  0
    2.1745    0.2007   -0.0258 H   0  0  0  0  0  0  0  0  0  0  0  0
    3.6296   -0.8175   -1.5784 H   0  0  0  0  0  0  0  0  0  0  0  0
    2.3218   -1.3211   -2.6742 H   0  0  0  0  0  0  0  0  0  0  0  0
    2.8084   -3.1304   -0.5781 H   0  0  0  0  0  0  0  0  0  0  0  0
    2.2249   -1.8085    0.4522 H   0  0  0  0  0  0  0  0  0  0  0  0
    0.5944   -2.7143   -1.9893 H   0  0  0  0  0  0  0  0  0  0  0  0
    0.4645   -3.5695   -0.4308 H   0  0  0  0  0  0  0  0  0  0  0  0
    0.1465   -0.4666   -2.6616 N   0  0  0  0  0  0  0  0  0  0  0  0
   -0.6693    0.0470   -3.7385 C   0  0  2  0  0  0  0  0  0  0  0  0
    0.2357    0.8265   -4.6835 C   0  0  0  0  0  0  0  0  0  0  0  0
    1.3164    1.3003   -4.3388 O   0  0  0  0  0  0  0  0  0  0  0  0
   -1.7916    0.9274   -3.2111 C   0  0  0  0  0  0  0  0  0  0  0  0
    0.1695   -1.4704   -2.5089 H   0  0  0  0  0  0  0  0  0  0  0  0
   -1.0844   -0.8208   -4.2624 H   0  0  0  0  0  0  0  0  0  0  0  0
   -1.3949    1.8022   -2.6830 H   0  0  0  0  0  0  0  0  0  0  0  0
   -2.4256    1.2925   -4.0258 H   0  0  0  0  0  0  0  0  0  0  0  0
   -2.4239    0.3737   -2.5087 H   0  0  0  0  0  0  0  0  0  0  0  0
   -0.3251    0.9679   -5.9451 N   0  0  0  0  0  0  0  0  0  0  0  0
    0.3336    1.6789   -7.0158 C   0  0  0  0  0  0  0  0  0  0  0  0
   -1.2169    0.5260   -6.1478 H   0  0  0  0  0  0  0  0  0  0  0  0
    0.0077    2.7296   -7.0139 H   0  0  0  0  0  0  0  0  0  0  0  0
    1.4230    1.6328   -6.8707 H   0  0  0  0  0  0  0  0  0  0  0  0
    0.0720    1.2158   -7.9787 H   0  0  0  0  0  0  0  0  0  0  0  0
 18 19  1  0  0  0  0
 19 31  1  0  0  0  0
 19 20  2  0  0  0  0
  8  9  1  0  0  0  0
  9 17  1  0  0  0  0
  9 10  2  0  0  0  0
  1  3  1  0  0  0  0
  1  7  1  0  0  0  0
  1  2  2  0  0  0  0
 32 33  1  0  0  0  0
 33 41  1  0  0  0  0
 33 34  2  0  0  0  0
 21 22  1  0  0  0  0
 22 23  1  0  0  0  0
 18 21  1  0  0  0  0
 17 23  1  0  0  0  0
 17 18  1  0  0  0  0
  8 11  1  0  0  0  0
 32 35  1  0  0  0  0
 41 42  1  0  0  0  0
  7  8  1  0  0  0  0
 31 32  1  0  0  0  0
 22 27  1  0  0  0  0
 22 28  1  0  0  0  0
 21 25  1  0  0  0  0
 21 26  1  0  0  0  0
 23 29  1  0  0  0  0
 23 30  1  0  0  0  0
 18 24  1  0  0  0  0
  3  4  1  0  0  0  0
  3  5  1  0  0  0  0
  3  6  1  0  0  0  0
 11 14  1  0  0  0  0
 11 15  1  0  0  0  0
 11 16  1  0  0  0  0
 35 38  1  0  0  0  0
 35 39  1  0  0  0  0
 35 40  1  0  0  0  0
 42 44  1  0  0  0  0
 42 45  1  0  0  0  0
 42 46  1  0  0  0  0
  8 13  1  0  0  0  0
 32 37  1  0  0  0  0
 31 36  1  0  0  0  0
 41 43  1  0  0  0  0
  7 12  1  0  0  0  0
M  END
$$$$

  -OEChem-05262214473D

 46 46  0     1  0  0  0  0  0999 V2000
   -0.6012   -3.2995    3.8205 C   0  0  0  0  0  0  0  0  0  0  0  0
   -0.6574   -4.4683    3.4568 O   0  0  0  0  0  0  0  0  0  0  0  0
   -0.4935   -2.9859    5.2760 C   0  0  0  0  0  0  0  0  0  0  0  0
   -1.4789   -2.8689    5.7550 H   0  0  0  0  0  0  0  0  0  0  0  0
    0.0123   -3.7847    5.8419 H   0  0  0  0  0  0  0  0  0  0  0  0
    0.0585   -2.0642    5.5199 H   0  0  0  0  0  0  0  0  0  0  0  0
   -0.6261   -2.1849    2.9917 N   0  0  0  0  0  0  0  0  0  0  0  0
   -0.7237   -2.2601    1.5650 C   0  0  2  0  0  0  0  0  0  0  0  0
    0.1695   -1.1513    1.0687 C   0  0  0  0  0  0  0  0  0  0  0  0
    0.3193   -0.1267    1.7365 O   0  0  0  0  0  0  0  0  0  0  0  0
   -2.1397   -2.0663    1.0750 C   0  0  0  0  0  0  0  0  0  0  0  0
   -0.5717   -1.2606    3.4238 H   0  0  0  0  0  0  0  0  0  0  0  0
   -0.3076   -3.2111    1.2363 H   0  0  0  0  0  0  0  0  0  0  0  0
   -2.5584   -1.1089    1.4061 H   0  0  0  0  0  0  0  0  0  0  0  0
   -2.1682   -2.0790   -0.0197 H   0  0  0  0  0  0  0  0  0  0  0  0
   -2.7965   -2.8601    1.4459 H   0  0  0  0  0  0  0  0  0  0  0  0
    0.7724   -1.3745   -0.1593 N   0  0  0  0  0  0  0  0  0  0  0  0
    1.6644   -0.4046   -0.7812 C   0  0  2  0  0  0  0  0  0  0  0  0
    0.8166    0.4953   -1.6290 C   0  0  0  0  0  0  0  0  0  0  0  0
    0.9936    1.7072   -1.5879 O   0  0  0  0  0  0  0  0  0  0  0  0
    2.6195   -1.2417   -1.6241 C   0  0  0  0  0  0  0  0  0  0  0  0
    2.1758   -2.2356   -0.5535 C   0  0  0  0  0  0  0  0  0  0  0  0
    0.7499   -2.6270   -0.9105 C   0  0  0  0  0  0  0  0  0  0  0  0
    2.1745    0.2007   -0.0258 H   0  0  0  0  0  0  0  0  0  0  0  0
    3.6296   -0.8175   -1.5784 H   0  0  0  0  0  0  0  0  0  0  0  0
    2.3218   -1.3211   -2.6742 H   0  0  0  0  0  0  0  0  0  0  0  0
    2.8084   -3.1304   -0.5781 H   0  0  0  0  0  0  0  0  0  0  0  0
    2.2249   -1.8085    0.4522 H   0  0  0  0  0  0  0  0  0  0  0  0
    0.5944   -2.7143   -1.9893 H   0  0  0  0  0  0  0  0  0  0  0  0
    0.4645   -3.5695   -0.4308 H   0  0  0  0  0  0  0  0  0  0  0  0
   -0.1393   -0.4790   -2.3890 N   0  0  0  0  0  0  0  0  0  0  0  0
   -1.0460    0.0071   -3.4042 C   0  0  2  0  0  0  0  0  0  0  0  0
   -0.2140    0.4993   -4.5811 C   0  0  0  0  0  0  0  0  0  0  0  0
    0.9628    0.8385   -4.4753 O   0  0  0  0  0  0  0  0  0  0  0  0
   -1.9359    1.1166   -2.8659 C   0  0  0  0  0  0  0  0  0  0  0  0
   -0.2268   -1.4439   -2.0846 H   0  0  0  0  0  0  0  0  0  0  0  0
   -1.6556   -0.8469   -3.7189 H   0  0  0  0  0  0  0  0  0  0  0  0
   -1.3428    1.9809   -2.5455 H   0  0  0  0  0  0  0  0  0  0  0  0
   -2.6415    1.4641   -3.6277 H   0  0  0  0  0  0  0  0  0  0  0  0
   -2.5115    0.7695   -2.0010 H   0  0  0  0  0  0  0  0  0  0  0  0
   -0.9526    0.5561   -5.7547 N   0  0  0  0  0  0  0  0  0  0  0  0
   -0.3913    1.0033   -7.0081 C   0  0  0  0  0  0  0  0  0  0  0  0
   -1.9170    0.2374   -5.7542 H   0  0  0  0  0  0  0  0  0  0  0  0
   -0.5677    2.0827   -7.1251 H   0  0  0  0  0  0  0  0  0  0  0  0
    0.6907    0.8057   -7.0165 H   0  0  0  0  0  0  0  0  0  0  0  0
   -0.8694    0.4617   -7.8377 H   0  0  0  0  0  0  0  0  0  0  0  0
 18 19  1  0  0  0  0
 19 31  1  0  0  0  0
 19 20  2  0  0  0  0
  8  9  1  0  0  0  0
  9 17  1  0  0  0  0
  9 10  2  0  0  0  0
  1  3  1  0  0  0  0
  1  7  1  0  0  0  0
  1  2  2  0  0  0  0
 32 33  1  0  0  0  0
 33 41  1  0  0  0  0
 33 34  2  0  0  0  0
 21 22  1  0  0  0  0
 22 23  1  0  0  0  0
 18 21  1  0  0  0  0
 17 23  1  0  0  0  0
 17 18  1  0  0  0  0
  8 11  1  0  0  0  0
 32 35  1  0  0  0  0
 41 42  1  0  0  0  0
  7  8  1  0  0  0  0
 31 32  1  0  0  0  0
 22 27  1  0  0  0  0
 22 28  1  0  0  0  0
 21 25  1  0  0  0  0
 21 26  1  0  0  0  0
 23 29  1  0  0  0  0
 23 30  1  0  0  0  0
 18 24  1  0  0  0  0
  3  4  1  0  0  0  0
  3  5  1  0  0  0  0
  3  6  1  0  0  0  0
 11 14  1  0  0  0  0
 11 15  1  0  0  0  0
 11 16  1  0  0  0  0
 35 38  1  0  0  0  0
 35 39  1  0  0  0  0
 35 40  1  0  0  0  0
 42 44  1  0  0  0  0
 42 45  1  0  0  0  0
 42 46  1  0  0  0  0
  8 13  1  0  0  0  0
 32 37  1  0  0  0  0
 31 36  1  0  0  0  0
 41 43  1  0  0  0  0
  7 12  1  0  0  0  0
M  END
$$$$

  -OEChem-05262214473D

 46 46  0     1  0  0  0  0  0999 V2000
   -0.6012   -3.2995    3.8205 C   0  0  0  0  0  0  0  0  0  0  0  0
   -0.6574   -4.4683    3.4568 O   0  0  0  0  0  0  0  0  0  0  0  0
   -0.4935   -2.9859    5.2760 C   0  0  0  0  0  0  0  0  0  0  0  0
   -1.4789   -2.8689    5.7550 H   0  0  0  0  0  0  0  0  0  0  0  0
    0.0123   -3.7847    5.8419 H   0  0  0  0  0  0  0  0  0  0  0  0
    0.0585   -2.0642    5.5199 H   0  0  0  0  0  0  0  0  0  0  0  0
   -0.6261   -2.1849    2.9917 N   0  0  0  0  0  0  0  0  0  0  0  0
   -0.7237   -2.2601    1.5650 C   0  0  2  0  0  0  0  0  0  0  0  0
    0.1695   -1.1513    1.0687 C   0  0  0  0  0  0  0  0  0  0  0  0
    0.3193   -0.1267    1.7365 O   0  0  0  0  0  0  0  0  0  0  0  0
   -2.1397   -2.0663    1.0750 C   0  0  0  0  0  0  0  0  0  0  0  0
   -0.5717   -1.2606    3.4238 H   0  0  0  0  0  0  0  0  0  0  0  0
   -0.3076   -3.2111    1.2363 H   0  0  0  0  0  0  0  0  0  0  0  0
   -2.5584   -1.1089    1.4061 H   0  0  0  0  0  0  0  0  0  0  0  0
   -2.1682   -2.0790   -0.0197 H   0  0  0  0  0  0  0  0  0  0  0  0
   -2.7965   -2.8601    1.4459 H   0  0  0  0  0  0  0  0  0  0  0  0
    0.7724   -1.3745   -0.1593 N   0  0  0  0  0  0  0  0  0  0  0  0
    1.6644   -0.4046   -0.7812 C   0  0  2  0  0  0  0  0  0  0  0  0
    0.8166    0.4953   -1.6290 C   0  0  0  0  0  0  0  0  0  0  0  0
    1.1597    1.6584   -1.8059 O   0  0  0  0  0  0  0  0  0  0  0  0
    2.6195   -1.2417   -1.6241 C   0  0  0  0  0  0  0  0  0  0  0  0
    2.1758   -2.2356   -0.5535 C   0  0  0  0  0  0  0  0  0  0  0  0
    0.7499   -2.6270   -0.9105 C   0  0  0  0  0  0  0  0  0  0  0  0
    2.1745    0.2007   -0.0258 H   0  0  0  0  0  0  0  0  0  0  0  0
    3.6296   -0.8175   -1.5784 H   0  0  0  0  0  0  0  0  0  0  0  0
    2.3218   -1.3211   -2.6742 H   0  0  0  0  0  0  0  0  0  0  0  0
    2.8084   -3.1304   -0.5781 H   0  0  0  0  0  0  0  0  0  0  0  0
    2.2249   -1.8085    0.4522 H   0  0  0  0  0  0  0  0  0  0  0  0
    0.5944   -2.7143   -1.9893 H   0  0  0  0  0  0  0  0  0  0  0  0
    0.4645   -3.5695   -0.4308 H   0  0  0  0  0  0  0  0  0  0  0  0
   -0.3749   -0.4093   -2.0794 N   0  0  0  0  0  0  0  0  0  0  0  0
   -1.3638    0.0726   -3.0168 C   0  0  2  0  0  0  0  0  0  0  0  0
   -0.6804    0.2640   -4.3644 C   0  0  0  0  0  0  0  0  0  0  0  0
    0.5324    0.4242   -4.4847 O   0  0  0  0  0  0  0  0  0  0  0  0
   -1.9940    1.3710   -2.5377 C   0  0  0  0  0  0  0  0  0  0  0  0
   -0.5398   -1.2983   -1.6170 H   0  0  0  0  0  0  0  0  0  0  0  0
   -2.1267   -0.7089   -3.1013 H   0  0  0  0  0  0  0  0  0  0  0  0
   -1.2448    2.1660   -2.4469 H   0  0  0  0  0  0  0  0  0  0  0  0
   -2.7631    1.7197   -3.2348 H   0  0  0  0  0  0  0  0  0  0  0  0
   -2.4592    1.2390   -1.5548 H   0  0  0  0  0  0  0  0  0  0  0  0
   -1.5893    0.2781   -5.4131 N   0  0  0  0  0  0  0  0  0  0  0  0
   -1.1892    0.4579   -6.7892 C   0  0  0  0  0  0  0  0  0  0  0  0
   -2.5743    0.1186   -5.2229 H   0  0  0  0  0  0  0  0  0  0  0  0
   -1.2355    1.5259   -7.0485 H   0  0  0  0  0  0  0  0  0  0  0  0
   -0.1603    0.0926   -6.9225 H   0  0  0  0  0  0  0  0  0  0  0  0
   -1.8671   -0.1082   -7.4450 H   0  0  0  0  0  0  0  0  0  0  0  0
 18 19  1  0  0  0  0
 19 31  1  0  0  0  0
 19 20  2  0  0  0  0
  8  9  1  0  0  0  0
  9 17  1  0  0  0  0
  9 10  2  0  0  0  0
  1  3  1  0  0  0  0
  1  7  1  0  0  0  0
  1  2  2  0  0  0  0
 32 33  1  0  0  0  0
 33 41  1  0  0  0  0
 33 34  2  0  0  0  0
 21 22  1  0  0  0  0
 22 23  1  0  0  0  0
 18 21  1  0  0  0  0
 17 23  1  0  0  0  0
 17 18  1  0  0  0  0
  8 11  1  0  0  0  0
 32 35  1  0  0  0  0
 41 42  1  0  0  0  0
  7  8  1  0  0  0  0
 31 32  1  0  0  0  0
 22 27  1  0  0  0  0
 22 28  1  0  0  0  0
 21 25  1  0  0  0  0
 21 26  1  0  0  0  0
 23 29  1  0  0  0  0
 23 30  1  0  0  0  0
 18 24  1  0  0  0  0
  3  4  1  0  0  0  0
  3  5  1  0  0  0  0
  3  6  1  0  0  0  0
 11 14  1  0  0  0  0
 11 15  1  0  0  0  0
 11 16  1  0  0  0  0
 35 38  1  0  0  0  0
 35 39  1  0  0  0  0
 35 40  1  0  0  0  0
 42 44  1  0  0  0  0
 42 45  1  0  0  0  0
 42 46  1  0  0  0  0
  8 13  1  0  0  0  0
 32 37  1  0  0  0  0
 31 36  1  0  0  0  0
 41 43  1  0  0  0  0
  7 12  1  0  0  0  0
M  END
$$$$

  -OEChem-05262214473D

 46 46  0     1  0  0  0  0  0999 V2000
   -0.6012   -3.2995    3.8205 C   0  0  0  0  0  0  0  0  0  0  0  0
   -0.6574   -4.4683    3.4568 O   0  0  0  0  0  0  0  0  0  0  0  0
   -0.4935   -2.9859    5.2760 C   0  0  0  0  0  0  0  0  0  0  0  0
   -1.4789   -2.8689    5.7550 H   0  0  0  0  0  0  0  0  0  0  0  0
    0.0123   -3.7847    5.8419 H   0  0  0  0  0  0  0  0  0  0  0  0
    0.0585   -2.0642    5.5199 H   0  0  0  0  0  0  0  0  0  0  0  0
   -0.6261   -2.1849    2.9917 N   0  0  0  0  0  0  0  0  0  0  0  0
   -0.7237   -2.2601    1.5650 C   0  0  2  0  0  0  0  0  0  0  0  0
    0.1695   -1.1513    1.0687 C   0  0  0  0  0  0  0  0  0  0  0  0
    0.3193   -0.1267    1.7365 O   0  0  0  0  0  0  0  0  0  0  0  0
   -2.1397   -2.0663    1.0750 C   0  0  0  0  0  0  0  0  0  0  0  0
   -0.5717   -1.2606    3.4238 H   0  0  0  0  0  0  0  0  0  0  0  0
   -0.3076   -3.2111    1.2363 H   0  0  0  0  0  0  0  0  0  0  0  0
   -2.5584   -1.1089    1.4061 H   0  0  0  0  0  0  0  0  0  0  0  0
   -2.1682   -2.0790   -0.0197 H   0  0  0  0  0  0  0  0  0  0  0  0
   -2.7965   -2.8601    1.4459 H   0  0  0  0  0  0  0  0  0  0  0  0
    0.7724   -1.3745   -0.1593 N   0  0  0  0  0  0  0  0  0  0  0  0
    1.6644   -0.4046   -0.7812 C   0  0  2  0  0  0  0  0  0  0  0  0
    0.8166    0.4953   -1.6290 C   0  0  0  0  0  0  0  0  0  0  0  0
    1.2791    1.5550   -2.0350 O   0  0  0  0  0  0  0  0  0  0  0  0
    2.6195   -1.2417   -1.6241 C   0  0  0  0  0  0  0  0  0  0  0  0
    2.1758   -2.2356   -0.5535 C   0  0  0  0  0  0  0  0  0  0  0  0
    0.7499   -2.6270   -0.9105 C   0  0  0  0  0  0  0  0  0  0  0  0
    2.1745    0.2007   -0.0258 H   0  0  0  0  0  0  0  0  0  0  0  0
    3.6296   -0.8175   -1.5784 H   0  0  0  0  0  0  0  0  0  0  0  0
    2.3218   -1.3211   -2.6742 H   0  0  0  0  0  0  0  0  0  0  0  0
    2.8084   -3.1304   -0.5781 H   0  0  0  0  0  0  0  0  0  0  0  0
    2.2249   -1.8085    0.4522 H   0  0  0  0  0  0  0  0  0  0  0  0
    0.5944   -2.7143   -1.9893 H   0  0  0  0  0  0  0  0  0  0  0  0
    0.4645   -3.5695   -0.4308 H   0  0  0  0  0  0  0  0  0  0  0  0
   -0.5441   -0.2621   -1.7539 N   0  0  0  0  0  0  0  0  0  0  0  0
   -1.6010    0.2391   -2.6029 C   0  0  2  0  0  0  0  0  0  0  0  0
   -1.1317    0.1368   -4.0482 C   0  0  0  0  0  0  0  0  0  0  0  0
    0.0546    0.0857   -4.3662 O   0  0  0  0  0  0  0  0  0  0  0  0
   -1.9619    1.6734   -2.2489 C   0  0  0  0  0  0  0  0  0  0  0  0
   -0.7481   -1.0434   -1.1380 H   0  0  0  0  0  0  0  0  0  0  0  0
   -2.4656   -0.4163   -2.4518 H   0  0  0  0  0  0  0  0  0  0  0  0
   -1.1079    2.3449   -2.3940 H   0  0  0  0  0  0  0  0  0  0  0  0
   -2.7821    2.0419   -2.8738 H   0  0  0  0  0  0  0  0  0  0  0  0
   -2.2707    1.7502   -1.2007 H   0  0  0  0  0  0  0  0  0  0  0  0
   -2.1920    0.1527   -4.9435 N   0  0  0  0  0  0  0  0  0  0  0  0
   -2.0058    0.0799   -6.3739 C   0  0  0  0  0  0  0  0  0  0  0  0
   -3.1440    0.1779   -4.5902 H   0  0  0  0  0  0  0  0  0  0  0  0
   -1.9501    1.0970   -6.7891 H   0  0  0  0  0  0  0  0  0  0  0  0
   -1.0721   -0.4579   -6.5950 H   0  0  0  0  0  0  0  0  0  0  0  0
   -2.8533   -0.4552   -6.8271 H   0  0  0  0  0  0  0  0  0  0  0  0
 18 19  1  0  0  0  0
 19 31  1  0  0  0  0
 19 20  2  0  0  0  0
  8  9  1  0  0  0  0
  9 17  1  0  0  0  0
  9 10  2  0  0  0  0
  1  3  1  0  0  0  0
  1  7  1  0  0  0  0
  1  2  2  0  0  0  0
 32 33  1  0  0  0  0
 33 41  1  0  0  0  0
 33 34  2  0  0  0  0
 21 22  1  0  0  0  0
 22 23  1  0  0  0  0
 18 21  1  0  0  0  0
 17 23  1  0  0  0  0
 17 18  1  0  0  0  0
  8 11  1  0  0  0  0
 32 35  1  0  0  0  0
 41 42  1  0  0  0  0
  7  8  1  0  0  0  0
 31 32  1  0  0  0  0
 22 27  1  0  0  0  0
 22 28  1  0  0  0  0
 21 25  1  0  0  0  0
 21 26  1  0  0  0  0
 23 29  1  0  0  0  0
 23 30  1  0  0  0  0
 18 24  1  0  0  0  0
  3  4  1  0  0  0  0
  3  5  1  0  0  0  0
  3  6  1  0  0  0  0
 11 14  1  0  0  0  0
 11 15  1  0  0  0  0
 11 16  1  0  0  0  0
 35 38  1  0  0  0  0
 35 39  1  0  0  0  0
 35 40  1  0  0  0  0
 42 44  1  0  0  0  0
 42 45  1  0  0  0  0
 42 46  1  0  0  0  0
  8 13  1  0  0  0  0
 32 37  1  0  0  0  0
 31 36  1  0  0  0  0
 41 43  1  0  0  0  0
  7 12  1  0  0  0  0
M  END
$$$$

  -OEChem-05262214473D

 46 46  0     1  0  0  0  0  0999 V2000
   -0.6012   -3.2995    3.8205 C   0  0  0  0  0  0  0  0  0  0  0  0
   -0.6574   -4.4683    3.4568 O   0  0  0  0  0  0  0  0  0  0  0  0
   -0.4935   -2.9859    5.2760 C   0  0  0  0  0  0  0  0  0  0  0  0
   -1.4789   -2.8689    5.7550 H   0  0  0  0  0  0  0  0  0  0  0  0
    0.0123   -3.7847    5.8419 H   0  0  0  0  0  0  0  0  0  0  0  0
    0.0585   -2.0642    5.5199 H   0  0  0  0  0  0  0  0  0  0  0  0
   -0.6261   -2.1849    2.9917 N   0  0  0  0  0  0  0  0  0  0  0  0
   -0.7237   -2.2601    1.5650 C   0  0  2  0  0  0  0  0  0  0  0  0
    0.1695   -1.1513    1.0687 C   0  0  0  0  0  0  0  0  0  0  0  0
    0.3193   -0.1267    1.7365 O   0  0  0  0  0  0  0  0  0  0  0  0
   -2.1397   -2.0663    1.0750 C   0  0  0  0  0  0  0  0  0  0  0  0
   -0.5717   -1.2606    3.4238 H   0  0  0  0  0  0  0  0  0  0  0  0
   -0.3076   -3.2111    1.2363 H   0  0  0  0  0  0  0  0  0  0  0  0
   -2.5584   -1.1089    1.4061 H   0  0  0  0  0  0  0  0  0  0  0  0
   -2.1682   -2.0790   -0.0197 H   0  0  0  0  0  0  0  0  0  0  0  0
   -2.7965   -2.8601    1.4459 H   0  0  0  0  0  0  0  0  0  0  0  0
    0.7724   -1.3745   -0.1593 N   0  0  0  0  0  0  0  0  0  0  0  0
    1.6644   -0.4046   -0.7812 C   0  0  2  0  0  0  0  0  0  0  0  0
    0.8166    0.4953   -1.6290 C   0  0  0  0  0  0  0  0  0  0  0  0
    1.3437    1.4041   -2.2598 O   0  0  0  0  0  0  0  0  0  0  0  0
    2.6195   -1.2417   -1.6241 C   0  0  0  0  0  0  0  0  0  0  0  0
    2.1758   -2.2356   -0.5535 C   0  0  0  0  0  0  0  0  0  0  0  0
    0.7499   -2.6270   -0.9105 C   0  0  0  0  0  0  0  0  0  0  0  0
    2.1745    0.2007   -0.0258 H   0  0  0  0  0  0  0  0  0  0  0  0
    3.6296   -0.8175   -1.5784 H   0  0  0  0  0  0  0  0  0  0  0  0
    2.3218   -1.3211   -2.6742 H   0  0  0  0  0  0  0  0  0  0  0  0
    2.8084   -3.1304   -0.5781 H   0  0  0  0  0  0  0  0  0  0  0  0
    2.2249   -1.8085    0.4522 H   0  0  0  0  0  0  0  0  0  0  0  0
    0.5944   -2.7143   -1.9893 H   0  0  0  0  0  0  0  0  0  0  0  0
    0.4645   -3.5695   -0.4308 H   0  0  0  0  0  0  0  0  0  0  0  0
   -0.6354   -0.0475   -1.4348 N   0  0  0  0  0  0  0  0  0  0  0  0
   -1.7414    0.4952   -2.1906 C   0  0  2  0  0  0  0  0  0  0  0  0
   -1.5371    0.1262   -3.6540 C   0  0  0  0  0  0  0  0  0  0  0  0
   -0.4381   -0.1540   -4.1280 O   0  0  0  0  0  0  0  0  0  0  0  0
   -1.8418    2.0030   -2.0191 C   0  0  0  0  0  0  0  0  0  0  0  0
   -0.8376   -0.6965   -0.6803 H   0  0  0  0  0  0  0  0  0  0  0  0
   -2.6493    0.0110   -1.8145 H   0  0  0  0  0  0  0  0  0  0  0  0
   -0.9411    2.5054   -2.3904 H   0  0  0  0  0  0  0  0  0  0  0  0
   -2.6972    2.4088   -2.5693 H   0  0  0  0  0  0  0  0  0  0  0  0
   -1.9588    2.2681   -0.9628 H   0  0  0  0  0  0  0  0  0  0  0  0
   -2.7196    0.1885   -4.3779 N   0  0  0  0  0  0  0  0  0  0  0  0
   -2.7853   -0.1049   -5.7905 C   0  0  0  0  0  0  0  0  0  0  0  0
   -3.5874    0.4112   -3.8992 H   0  0  0  0  0  0  0  0  0  0  0  0
   -2.6628    0.8252   -6.3649 H   0  0  0  0  0  0  0  0  0  0  0  0
   -1.9825   -0.8083   -6.0565 H   0  0  0  0  0  0  0  0  0  0  0  0
   -3.7606   -0.5556   -6.0263 H   0  0  0  0  0  0  0  0  0  0  0  0
 18 19  1  0  0  0  0
 19 31  1  0  0  0  0
 19 20  2  0  0  0  0
  8  9  1  0  0  0  0
  9 17  1  0  0  0  0
  9 10  2  0  0  0  0
  1  3  1  0  0  0  0
  1  7  1  0  0  0  0
  1  2  2  0  0  0  0
 32 33  1  0  0  0  0
 33 41  1  0  0  0  0
 33 34  2  0  0  0  0
 21 22  1  0  0  0  0
 22 23  1  0  0  0  0
 18 21  1  0  0  0  0
 17 23  1  0  0  0  0
 17 18  1  0  0  0  0
  8 11  1  0  0  0  0
 32 35  1  0  0  0  0
 41 42  1  0  0  0  0
  7  8  1  0  0  0  0
 31 32  1  0  0  0  0
 22 27  1  0  0  0  0
 22 28  1  0  0  0  0
 21 25  1  0  0  0  0
 21 26  1  0  0  0  0
 23 29  1  0  0  0  0
 23 30  1  0  0  0  0
 18 24  1  0  0  0  0
  3  4  1  0  0  0  0
  3  5  1  0  0  0  0
  3  6  1  0  0  0  0
 11 14  1  0  0  0  0
 11 15  1  0  0  0  0
 11 16  1  0  0  0  0
 35 38  1  0  0  0  0
 35 39  1  0  0  0  0
 35 40  1  0  0  0  0
 42 44  1  0  0  0  0
 42 45  1  0  0  0  0
 42 46  1  0  0  0  0
  8 13  1  0  0  0  0
 32 37  1  0  0  0  0
 31 36  1  0  0  0  0
 41 43  1  0  0  0  0
  7 12  1  0  0  0  0
M  END
$$$$

  -OEChem-05262214473D

 46 46  0     1  0  0  0  0  0999 V2000
   -0.6012   -3.2995    3.8205 C   0  0  0  0  0  0  0  0  0  0  0  0
   -0.6574   -4.4683    3.4568 O   0  0  0  0  0  0  0  0  0  0  0  0
   -0.4935   -2.9859    5.2760 C   0  0  0  0  0  0  0  0  0  0  0  0
   -1.4789   -2.8689    5.7550 H   0  0  0  0  0  0  0  0  0  0  0  0
    0.0123   -3.7847    5.8419 H   0  0  0  0  0  0  0  0  0  0  0  0
    0.0585   -2.0642    5.5199 H   0  0  0  0  0  0  0  0  0  0  0  0
   -0.6261   -2.1849    2.9917 N   0  0  0  0  0  0  0  0  0  0  0  0
   -0.7237   -2.2601    1.5650 C   0  0  2  0  0  0  0  0  0  0  0  0
    0.1695   -1.1513    1.0687 C   0  0  0  0  0  0  0  0  0  0  0  0
    0.3193   -0.1267    1.7365 O   0  0  0  0  0  0  0  0  0  0  0  0
   -2.1397   -2.0663    1.0750 C   0  0  0  0  0  0  0  0  0  0  0  0
   -0.5717   -1.2606    3.4238 H   0  0  0  0  0  0  0  0  0  0  0  0
   -0.3076   -3.2111    1.2363 H   0  0  0  0  0  0  0  0  0  0  0  0
   -2.5584   -1.1089    1.4061 H   0  0  0  0  0  0  0  0  0  0  0  0
   -2.1682   -2.0790   -0.0197 H   0  0  0  0  0  0  0  0  0  0  0  0
   -2.7965   -2.8601    1.4459 H   0  0  0  0  0  0  0  0  0  0  0  0
    0.7724   -1.3745   -0.1593 N   0  0  0  0  0  0  0  0  0  0  0  0
    1.6644   -0.4046   -0.7812 C   0  0  2  0  0  0  0  0  0  0  0  0
    0.8166    0.4953   -1.6290 C   0  0  0  0  0  0  0  0  0  0  0  0
    1.3491    1.2160   -2.4649 O   0  0  0  0  0  0  0  0  0  0  0  0
    2.6195   -1.2417   -1.6241 C   0  0  0  0  0  0  0  0  0  0  0  0
    2.1758   -2.2356   -0.5535 C   0  0  0  0  0  0  0  0  0  0  0  0
    0.7499   -2.6270   -0.9105 C   0  0  0  0  0  0  0  0  0  0  0  0
    2.1745    0.2007   -0.0258 H   0  0  0  0  0  0  0  0  0  0  0  0
    3.6296   -0.8175   -1.5784 H   0  0  0  0  0  0  0  0  0  0  0  0
    2.3218   -1.3211   -2.6742 H   0  0  0  0  0  0  0  0  0  0  0  0
    2.8084   -3.1304   -0.5781 H   0  0  0  0  0  0  0  0  0  0  0  0
    2.2249   -1.8085    0.4522 H   0  0  0  0  0  0  0  0  0  0  0  0
    0.5944   -2.7143   -1.9893 H   0  0  0  0  0  0  0  0  0  0  0  0
    0.4645   -3.5695   -0.4308 H   0  0  0  0  0  0  0  0  0  0  0  0
   -0.6426    0.2198   -1.1438 N   0  0  0  0  0  0  0  0  0  0  0  0
   -1.7755    0.8235   -1.8080 C   0  0  2  0  0  0  0  0  0  0  0  0
   -1.8690    0.2330   -3.2087 C   0  0  0  0  0  0  0  0  0  0  0  0
   -0.9120   -0.2785   -3.7863 O   0  0  0  0  0  0  0  0  0  0  0  0
   -1.6418    2.3374   -1.8641 C   0  0  0  0  0  0  0  0  0  0  0  0
   -0.8022   -0.2814   -0.2751 H   0  0  0  0  0  0  0  0  0  0  0  0
   -2.6650    0.5440   -1.2330 H   0  0  0  0  0  0  0  0  0  0  0  0
   -0.7560    2.6366   -2.4362 H   0  0  0  0  0  0  0  0  0  0  0  0
   -2.5141    2.7953   -2.3420 H   0  0  0  0  0  0  0  0  0  0  0  0
   -1.5447    2.7576   -0.8573 H   0  0  0  0  0  0  0  0  0  0  0  0
   -3.1361    0.3831   -3.7548 N   0  0  0  0  0  0  0  0  0  0  0  0
   -3.4747   -0.0840   -5.0789 C   0  0  0  0  0  0  0  0  0  0  0  0
   -3.8741    0.8025   -3.1971 H   0  0  0  0  0  0  0  0  0  0  0  0
   -3.3252    0.7292   -5.8045 H   0  0  0  0  0  0  0  0  0  0  0  0
   -2.8295   -0.9347   -5.3436 H   0  0  0  0  0  0  0  0  0  0  0  0
   -4.5274   -0.4025   -5.0971 H   0  0  0  0  0  0  0  0  0  0  0  0
 18 19  1  0  0  0  0
 19 31  1  0  0  0  0
 19 20  2  0  0  0  0
  8  9  1  0  0  0  0
  9 17  1  0  0  0  0
  9 10  2  0  0  0  0
  1  3  1  0  0  0  0
  1  7  1  0  0  0  0
  1  2  2  0  0  0  0
 32 33  1  0  0  0  0
 33 41  1  0  0  0  0
 33 34  2  0  0  0  0
 21 22  1  0  0  0  0
 22 23  1  0  0  0  0
 18 21  1  0  0  0  0
 17 23  1  0  0  0  0
 17 18  1  0  0  0  0
  8 11  1  0  0  0  0
 32 35  1  0  0  0  0
 41 42  1  0  0  0  0
  7  8  1  0  0  0  0
 31 32  1  0  0  0  0
 22 27  1  0  0  0  0
 22 28  1  0  0  0  0
 21 25  1  0  0  0  0
 21 26  1  0  0  0  0
 23 29  1  0  0  0  0
 23 30  1  0  0  0  0
 18 24  1  0  0  0  0
  3  4  1  0  0  0  0
  3  5  1  0  0  0  0
  3  6  1  0  0  0  0
 11 14  1  0  0  0  0
 11 15  1  0  0  0  0
 11 16  1  0  0  0  0
 35 38  1  0  0  0  0
 35 39  1  0  0  0  0
 35 40  1  0  0  0  0
 42 44  1  0  0  0  0
 42 45  1  0  0  0  0
 42 46  1  0  0  0  0
  8 13  1  0  0  0  0
 32 37  1  0  0  0  0
 31 36  1  0  0  0  0
 41 43  1  0  0  0  0
  7 12  1  0  0  0  0
M  END
$$$$

  -OEChem-05262214473D

 46 46  0     1  0  0  0  0  0999 V2000
   -0.6012   -3.2995    3.8205 C   0  0  0  0  0  0  0  0  0  0  0  0
   -0.6574   -4.4683    3.4568 O   0  0  0  0  0  0  0  0  0  0  0  0
   -0.4935   -2.9859    5.2760 C   0  0  0  0  0  0  0  0  0  0  0  0
   -1.4789   -2.8689    5.7550 H   0  0  0  0  0  0  0  0  0  0  0  0
    0.0123   -3.7847    5.8419 H   0  0  0  0  0  0  0  0  0  0  0  0
    0.0585   -2.0642    5.5199 H   0  0  0  0  0  0  0  0  0  0  0  0
   -0.6261   -2.1849    2.9917 N   0  0  0  0  0  0  0  0  0  0  0  0
   -0.7237   -2.2601    1.5650 C   0  0  2  0  0  0  0  0  0  0  0  0
    0.1695   -1.1513    1.0687 C   0  0  0  0  0  0  0  0  0  0  0  0
    0.3193   -0.1267    1.7365 O   0  0  0  0  0  0  0  0  0  0  0  0
   -2.1397   -2.0663    1.0750 C   0  0  0  0  0  0  0  0  0  0  0  0
   -0.5717   -1.2606    3.4238 H   0  0  0  0  0  0  0  0  0  0  0  0
   -0.3076   -3.2111    1.2363 H   0  0  0  0  0  0  0  0  0  0  0  0
   -2.5584   -1.1089    1.4061 H   0  0  0  0  0  0  0  0  0  0  0  0
   -2.1682   -2.0790   -0.0197 H   0  0  0  0  0  0  0  0  0  0  0  0
   -2.7965   -2.8601    1.4459 H   0  0  0  0  0  0  0  0  0  0  0  0
    0.7724   -1.3745   -0.1593 N   0  0  0  0  0  0  0  0  0  0  0  0
    1.6644   -0.4046   -0.7812 C   0  0  2  0  0  0  0  0  0  0  0  0
    0.8166    0.4953   -1.6290 C   0  0  0  0  0  0  0  0  0  0  0  0
    1.2950    1.0035   -2.6363 O   0  0  0  0  0  0  0  0  0  0  0  0
    2.6195   -1.2417   -1.6241 C   0  0  0  0  0  0  0  0  0  0  0  0
    2.1758   -2.2356   -0.5535 C   0  0  0  0  0  0  0  0  0  0  0  0
    0.7499   -2.6270   -0.9105 C   0  0  0  0  0  0  0  0  0  0  0  0
    2.1745    0.2007   -0.0258 H   0  0  0  0  0  0  0  0  0  0  0  0
    3.6296   -0.8175   -1.5784 H   0  0  0  0  0  0  0  0  0  0  0  0
    2.3218   -1.3211   -2.6742 H   0  0  0  0  0  0  0  0  0  0  0  0
    2.8084   -3.1304   -0.5781 H   0  0  0  0  0  0  0  0  0  0  0  0
    2.2249   -1.8085    0.4522 H   0  0  0  0  0  0  0  0  0  0  0  0
    0.5944   -2.7143   -1.9893 H   0  0  0  0  0  0  0  0  0  0  0  0
    0.4645   -3.5695   -0.4308 H   0  0  0  0  0  0  0  0  0  0  0  0
   -0.5653    0.5217   -0.9007 N   0  0  0  0  0  0  0  0  0  0  0  0
   -1.7009    1.2016   -1.4812 C   0  0  2  0  0  0  0  0  0  0  0  0
   -2.1048    0.4499   -2.7427 C   0  0  0  0  0  0  0  0  0  0  0  0
   -1.3350   -0.2795   -3.3643 O   0  0  0  0  0  0  0  0  0  0  0  0
   -1.3756    2.6538   -1.7944 C   0  0  0  0  0  0  0  0  0  0  0  0
   -0.6443    0.1737    0.0501 H   0  0  0  0  0  0  0  0  0  0  0  0
   -2.5119    1.1462   -0.7469 H   0  0  0  0  0  0  0  0  0  0  0  0
   -0.5651    2.7295   -2.5285 H   0  0  0  0  0  0  0  0  0  0  0  0
   -2.2455    3.1751   -2.2076 H   0  0  0  0  0  0  0  0  0  0  0  0
   -1.0567    3.1853   -0.8913 H   0  0  0  0  0  0  0  0  0  0  0  0
   -3.4130    0.7233   -3.1168 N   0  0  0  0  0  0  0  0  0  0  0  0
   -4.0269    0.1414   -4.2875 C   0  0  0  0  0  0  0  0  0  0  0  0
   -3.9847    1.3253   -2.5316 H   0  0  0  0  0  0  0  0  0  0  0  0
   -3.8919    0.8153   -5.1463 H   0  0  0  0  0  0  0  0  0  0  0  0
   -3.5554   -0.8284   -4.5049 H   0  0  0  0  0  0  0  0  0  0  0  0
   -5.1012   -0.0065   -4.1029 H   0  0  0  0  0  0  0  0  0  0  0  0
 18 19  1  0  0  0  0
 19 31  1  0  0  0  0
 19 20  2  0  0  0  0
  8  9  1  0  0  0  0
  9 17  1  0  0  0  0
  9 10  2  0  0  0  0
  1  3  1  0  0  0  0
  1  7  1  0  0  0  0
  1  2  2  0  0  0  0
 32 33  1  0  0  0  0
 33 41  1  0  0  0  0
 33 34  2  0  0  0  0
 21 22  1  0  0  0  0
 22 23  1  0  0  0  0
 18 21  1  0  0  0  0
 17 23  1  0  0  0  0
 17 18  1  0  0  0  0
  8 11  1  0  0  0  0
 32 35  1  0  0  0  0
 41 42  1  0  0  0  0
  7  8  1  0  0  0  0
 31 32  1  0  0  0  0
 22 27  1  0  0  0  0
 22 28  1  0  0  0  0
 21 25  1  0  0  0  0
 21 26  1  0  0  0  0
 23 29  1  0  0  0  0
 23 30  1  0  0  0  0
 18 24  1  0  0  0  0
  3  4  1  0  0  0  0
  3  5  1  0  0  0  0
  3  6  1  0  0  0  0
 11 14  1  0  0  0  0
 11 15  1  0  0  0  0
 11 16  1  0  0  0  0
 35 38  1  0  0  0  0
 35 39  1  0  0  0  0
 35 40  1  0  0  0  0
 42 44  1  0  0  0  0
 42 45  1  0  0  0  0
 42 46  1  0  0  0  0
  8 13  1  0  0  0  0
 32 37  1  0  0  0  0
 31 36  1  0  0  0  0
 41 43  1  0  0  0  0
  7 12  1  0  0  0  0
M  END
$$$$

  -OEChem-05262214473D

 46 46  0     1  0  0  0  0  0999 V2000
   -0.6012   -3.2995    3.8205 C   0  0  0  0  0  0  0  0  0  0  0  0
   -0.6574   -4.4683    3.4568 O   0  0  0  0  0  0  0  0  0  0  0  0
   -0.4935   -2.9859    5.2760 C   0  0  0  0  0  0  0  0  0  0  0  0
   -1.4789   -2.8689    5.7550 H   0  0  0  0  0  0  0  0  0  0  0  0
    0.0123   -3.7847    5.8419 H   0  0  0  0  0  0  0  0  0  0  0  0
    0.0585   -2.0642    5.5199 H   0  0  0  0  0  0  0  0  0  0  0  0
   -0.6261   -2.1849    2.9917 N   0  0  0  0  0  0  0  0  0  0  0  0
   -0.7237   -2.2601    1.5650 C   0  0  2  0  0  0  0  0  0  0  0  0
    0.1695   -1.1513    1.0687 C   0  0  0  0  0  0  0  0  0  0  0  0
    0.3193   -0.1267    1.7365 O   0  0  0  0  0  0  0  0  0  0  0  0
   -2.1397   -2.0663    1.0750 C   0  0  0  0  0  0  0  0  0  0  0  0
   -0.5717   -1.2606    3.4238 H   0  0  0  0  0  0  0  0  0  0  0  0
   -0.3076   -3.2111    1.2363 H   0  0  0  0  0  0  0  0  0  0  0  0
   -2.5584   -1.1089    1.4061 H   0  0  0  0  0  0  0  0  0  0  0  0
   -2.1682   -2.0790   -0.0197 H   0  0  0  0  0  0  0  0  0  0  0  0
   -2.7965   -2.8601    1.4459 H   0  0  0  0  0  0  0  0  0  0  0  0
    0.7724   -1.3745   -0.1593 N   0  0  0  0  0  0  0  0  0  0  0  0
    1.6644   -0.4046   -0.7812 C   0  0  2  0  0  0  0  0  0  0  0  0
    0.8166    0.4953   -1.6290 C   0  0  0  0  0  0  0  0  0  0  0  0
    1.1849    0.7811   -2.7623 O   0  0  0  0  0  0  0  0  0  0  0  0
    2.6195   -1.2417   -1.6241 C   0  0  0  0  0  0  0  0  0  0  0  0
    2.1758   -2.2356   -0.5535 C   0  0  0  0  0  0  0  0  0  0  0  0
    0.7499   -2.6270   -0.9105 C   0  0  0  0  0  0  0  0  0  0  0  0
    2.1745    0.2007   -0.0258 H   0  0  0  0  0  0  0  0  0  0  0  0
    3.6296   -0.8175   -1.5784 H   0  0  0  0  0  0  0  0  0  0  0  0
    2.3218   -1.3211   -2.6742 H   0  0  0  0  0  0  0  0  0  0  0  0
    2.8084   -3.1304   -0.5781 H   0  0  0  0  0  0  0  0  0  0  0  0
    2.2249   -1.8085    0.4522 H   0  0  0  0  0  0  0  0  0  0  0  0
    0.5944   -2.7143   -1.9893 H   0  0  0  0  0  0  0  0  0  0  0  0
    0.4645   -3.5695   -0.4308 H   0  0  0  0  0  0  0  0  0  0  0  0
   -0.4086    0.8375   -0.7221 N   0  0  0  0  0  0  0  0  0  0  0  0
   -1.5228    1.6038   -1.2324 C   0  0  2  0  0  0  0  0  0  0  0  0
   -2.2284    0.7622   -2.2876 C   0  0  0  0  0  0  0  0  0  0  0  0
   -1.6781   -0.1567   -2.8909 O   0  0  0  0  0  0  0  0  0  0  0  0
   -1.0613    2.9307   -1.8148 C   0  0  0  0  0  0  0  0  0  0  0  0
   -0.3746    0.6378    0.2730 H   0  0  0  0  0  0  0  0  0  0  0  0
   -2.2004    1.7766   -0.3892 H   0  0  0  0  0  0  0  0  0  0  0  0
   -0.3815    2.7777   -2.6609 H   0  0  0  0  0  0  0  0  0  0  0  0
   -1.9095    3.5223   -2.1750 H   0  0  0  0  0  0  0  0  0  0  0  0
   -0.5280    3.5220   -1.0626 H   0  0  0  0  0  0  0  0  0  0  0  0
   -3.5316    1.1857   -2.5072 N   0  0  0  0  0  0  0  0  0  0  0  0
   -4.4044    0.5557   -3.4702 C   0  0  0  0  0  0  0  0  0  0  0  0
   -3.9116    1.9438   -1.9481 H   0  0  0  0  0  0  0  0  0  0  0  0
   -4.3245    1.0779   -4.4351 H   0  0  0  0  0  0  0  0  0  0  0  0
   -4.1107   -0.4967   -3.5976 H   0  0  0  0  0  0  0  0  0  0  0  0
   -5.4430    0.6056   -3.1113 H   0  0  0  0  0  0  0  0  0  0  0  0
 18 19  1  0  0  0  0
 19 31  1  0  0  0  0
 19 20  2  0  0  0  0
  8  9  1  0  0  0  0
  9 17  1  0  0  0  0
  9 10  2  0  0  0  0
  1  3  1  0  0  0  0
  1  7  1  0  0  0  0
  1  2  2  0  0  0  0
 32 33  1  0  0  0  0
 33 41  1  0  0  0  0
 33 34  2  0  0  0  0
 21 22  1  0  0  0  0
 22 23  1  0  0  0  0
 18 21  1  0  0  0  0
 17 23  1  0  0  0  0
 17 18  1  0  0  0  0
  8 11  1  0  0  0  0
 32 35  1  0  0  0  0
 41 42  1  0  0  0  0
  7  8  1  0  0  0  0
 31 32  1  0  0  0  0
 22 27  1  0  0  0  0
 22 28  1  0  0  0  0
 21 25  1  0  0  0  0
 21 26  1  0  0  0  0
 23 29  1  0  0  0  0
 23 30  1  0  0  0  0
 18 24  1  0  0  0  0
  3  4  1  0  0  0  0
  3  5  1  0  0  0  0
  3  6  1  0  0  0  0
 11 14  1  0  0  0  0
 11 15  1  0  0  0  0
 11 16  1  0  0  0  0
 35 38  1  0  0  0  0
 35 39  1  0  0  0  0
 35 40  1  0  0  0  0
 42 44  1  0  0  0  0
 42 45  1  0  0  0  0
 42 46  1  0  0  0  0
  8 13  1  0  0  0  0
 32 37  1  0  0  0  0
 31 36  1  0  0  0  0
 41 43  1  0  0  0  0
  7 12  1  0  0  0  0
M  END
$$$$

  -OEChem-05262214473D

 46 46  0     1  0  0  0  0  0999 V2000
   -0.6012   -3.2995    3.8205 C   0  0  0  0  0  0  0  0  0  0  0  0
   -0.6574   -4.4683    3.4568 O   0  0  0  0  0  0  0  0  0  0  0  0
   -0.4935   -2.9859    5.2760 C   0  0  0  0  0  0  0  0  0  0  0  0
   -1.4789   -2.8689    5.7550 H   0  0  0  0  0  0  0  0  0  0  0  0
    0.0123   -3.7847    5.8419 H   0  0  0  0  0  0  0  0  0  0  0  0
    0.0585   -2.0642    5.5199 H   0  0  0  0  0  0  0  0  0  0  0  0
   -0.6261   -2.1849    2.9917 N   0  0  0  0  0  0  0  0  0  0  0  0
   -0.7237   -2.2601    1.5650 C   0  0  2  0  0  0  0  0  0  0  0  0
    0.1695   -1.1513    1.0687 C   0  0  0  0  0  0  0  0  0  0  0  0
    0.3193   -0.1267    1.7365 O   0  0  0  0  0  0  0  0  0  0  0  0
   -2.1397   -2.0663    1.0750 C   0  0  0  0  0  0  0  0  0  0  0  0
   -0.5717   -1.2606    3.4238 H   0  0  0  0  0  0  0  0  0  0  0  0
   -0.3076   -3.2111    1.2363 H   0  0  0  0  0  0  0  0  0  0  0  0
   -2.5584   -1.1089    1.4061 H   0  0  0  0  0  0  0  0  0  0  0  0
   -2.1682   -2.0790   -0.0197 H   0  0  0  0  0  0  0  0  0  0  0  0
   -2.7965   -2.8601    1.4459 H   0  0  0  0  0  0  0  0  0  0  0  0
    0.7724   -1.3745   -0.1593 N   0  0  0  0  0  0  0  0  0  0  0  0
    1.6644   -0.4046   -0.7812 C   0  0  2  0  0  0  0  0  0  0  0  0
    0.8166    0.4953   -1.6290 C   0  0  0  0  0  0  0  0  0  0  0  0
    1.0265    0.5640   -2.8344 O   0  0  0  0  0  0  0  0  0  0  0  0
    2.6195   -1.2417   -1.6241 C   0  0  0  0  0  0  0  0  0  0  0  0
    2.1758   -2.2356   -0.5535 C   0  0  0  0  0  0  0  0  0  0  0  0
    0.7499   -2.6270   -0.9105 C   0  0  0  0  0  0  0  0  0  0  0  0
    2.1745    0.2007   -0.0258 H   0  0  0  0  0  0  0  0  0  0  0  0
    3.6296   -0.8175   -1.5784 H   0  0  0  0  0  0  0  0  0  0  0  0
    2.3218   -1.3211   -2.6742 H   0  0  0  0  0  0  0  0  0  0  0  0
    2.8084   -3.1304   -0.5781 H   0  0  0  0  0  0  0  0  0  0  0  0
    2.2249   -1.8085    0.4522 H   0  0  0  0  0  0  0  0  0  0  0  0
    0.5944   -2.7143   -1.9893 H   0  0  0  0  0  0  0  0  0  0  0  0
    0.4645   -3.5695   -0.4308 H   0  0  0  0  0  0  0  0  0  0  0  0
   -0.1833    1.1458   -0.6202 N   0  0  0  0  0  0  0  0  0  0  0  0
   -1.2532    2.0025   -1.0787 C   0  0  2  0  0  0  0  0  0  0  0  0
   -2.2313    1.1485   -1.8746 C   0  0  0  0  0  0  0  0  0  0  0  0
   -1.9180    0.0814   -2.3982 O   0  0  0  0  0  0  0  0  0  0  0  0
   -0.7204    3.1491   -1.9238 C   0  0  0  0  0  0  0  0  0  0  0  0
   -0.0115    1.0792    0.3785 H   0  0  0  0  0  0  0  0  0  0  0  0
   -1.7516    2.3923   -0.1844 H   0  0  0  0  0  0  0  0  0  0  0  0
   -0.2176    2.7781   -2.8244 H   0  0  0  0  0  0  0  0  0  0  0  0
   -1.5290    3.8132   -2.2466 H   0  0  0  0  0  0  0  0  0  0  0  0
    0.0053    3.7447   -1.3595 H   0  0  0  0  0  0  0  0  0  0  0  0
   -3.4838    1.7390   -1.9677 N   0  0  0  0  0  0  0  0  0  0  0  0
   -4.5814    1.1307   -2.6828 C   0  0  0  0  0  0  0  0  0  0  0  0
   -3.6598    2.6160   -1.4863 H   0  0  0  0  0  0  0  0  0  0  0  0
   -4.5933    1.4988   -3.7193 H   0  0  0  0  0  0  0  0  0  0  0  0
   -4.4575    0.0377   -2.6834 H   0  0  0  0  0  0  0  0  0  0  0  0
   -5.5295    1.3920   -2.1900 H   0  0  0  0  0  0  0  0  0  0  0  0
 18 19  1  0  0  0  0
 19 31  1  0  0  0  0
 19 20  2  0  0  0  0
  8  9  1  0  0  0  0
  9 17  1  0  0  0  0
  9 10  2  0  0  0  0
  1  3  1  0  0  0  0
  1  7  1  0  0  0  0
  1  2  2  0  0  0  0
 32 33  1  0  0  0  0
 33 41  1  0  0  0  0
 33 34  2  0  0  0  0
 21 22  1  0  0  0  0
 22 23  1  0  0  0  0
 18 21  1  0  0  0  0
 17 23  1  0  0  0  0
 17 18  1  0  0  0  0
  8 11  1  0  0  0  0
 32 35  1  0  0  0  0
 41 42  1  0  0  0  0
  7  8  1  0  0  0  0
 31 32  1  0  0  0  0
 22 27  1  0  0  0  0
 22 28  1  0  0  0  0
 21 25  1  0  0  0  0
 21 26  1  0  0  0  0
 23 29  1  0  0  0  0
 23 30  1  0  0  0  0
 18 24  1  0  0  0  0
  3  4  1  0  0  0  0
  3  5  1  0  0  0  0
  3  6  1  0  0  0  0
 11 14  1  0  0  0  0
 11 15  1  0  0  0  0
 11 16  1  0  0  0  0
 35 38  1  0  0  0  0
 35 39  1  0  0  0  0
 35 40  1  0  0  0  0
 42 44  1  0  0  0  0
 42 45  1  0  0  0  0
 42 46  1  0  0  0  0
  8 13  1  0  0  0  0
 32 37  1  0  0  0  0
 31 36  1  0  0  0  0
 41 43  1  0  0  0  0
  7 12  1  0  0  0  0
M  END
$$$$

  -OEChem-05262214473D

 46 46  0     1  0  0  0  0  0999 V2000
   -0.6012   -3.2995    3.8205 C   0  0  0  0  0  0  0  0  0  0  0  0
   -0.6574   -4.4683    3.4568 O   0  0  0  0  0  0  0  0  0  0  0  0
   -0.4935   -2.9859    5.2760 C   0  0  0  0  0  0  0  0  0  0  0  0
   -1.4789   -2.8689    5.7550 H   0  0  0  0  0  0  0  0  0  0  0  0
    0.0123   -3.7847    5.8419 H   0  0  0  0  0  0  0  0  0  0  0  0
    0.0585   -2.0642    5.5199 H   0  0  0  0  0  0  0  0  0  0  0  0
   -0.6261   -2.1849    2.9917 N   0  0  0  0  0  0  0  0  0  0  0  0
   -0.7237   -2.2601    1.5650 C   0  0  2  0  0  0  0  0  0  0  0  0
    0.1695   -1.1513    1.0687 C   0  0  0  0  0  0  0  0  0  0  0  0
    0.3193   -0.1267    1.7365 O   0  0  0  0  0  0  0  0  0  0  0  0
   -2.1397   -2.0663    1.0750 C   0  0  0  0  0  0  0  0  0  0  0  0
   -0.5717   -1.2606    3.4238 H   0  0  0  0  0  0  0  0  0  0  0  0
   -0.3076   -3.2111    1.2363 H   0  0  0  0  0  0  0  0  0  0  0  0
   -2.5584   -1.1089    1.4061 H   0  0  0  0  0  0  0  0  0  0  0  0
   -2.1682   -2.0790   -0.0197 H   0  0  0  0  0  0  0  0  0  0  0  0
   -2.7965   -2.8601    1.4459 H   0  0  0  0  0  0  0  0  0  0  0  0
    0.7724   -1.3745   -0.1593 N   0  0  0  0  0  0  0  0  0  0  0  0
    1.6644   -0.4046   -0.7812 C   0  0  2  0  0  0  0  0  0  0  0  0
    0.8166    0.4953   -1.6290 C   0  0  0  0  0  0  0  0  0  0  0  0
    0.8304    0.3668   -2.8476 O   0  0  0  0  0  0  0  0  0  0  0  0
    2.6195   -1.2417   -1.6241 C   0  0  0  0  0  0  0  0  0  0  0  0
    2.1758   -2.2356   -0.5535 C   0  0  0  0  0  0  0  0  0  0  0  0
    0.7499   -2.6270   -0.9105 C   0  0  0  0  0  0  0  0  0  0  0  0
    2.1745    0.2007   -0.0258 H   0  0  0  0  0  0  0  0  0  0  0  0
    3.6296   -0.8175   -1.5784 H   0  0  0  0  0  0  0  0  0  0  0  0
    2.3218   -1.3211   -2.6742 H   0  0  0  0  0  0  0  0  0  0  0  0
    2.8084   -3.1304   -0.5781 H   0  0  0  0  0  0  0  0  0  0  0  0
    2.2249   -1.8085    0.4522 H   0  0  0  0  0  0  0  0  0  0  0  0
    0.5944   -2.7143   -1.9893 H   0  0  0  0  0  0  0  0  0  0  0  0
    0.4645   -3.5695   -0.4308 H   0  0  0  0  0  0  0  0  0  0  0  0
    0.0953    1.4255   -0.6019 N   0  0  0  0  0  0  0  0  0  0  0  0
   -0.9106    2.3708   -1.0305 C   0  0  2  0  0  0  0  0  0  0  0  0
   -2.1135    1.5825   -1.5317 C   0  0  0  0  0  0  0  0  0  0  0  0
   -2.0383    0.4186   -1.9200 O   0  0  0  0  0  0  0  0  0  0  0  0
   -0.3761    3.2943   -2.1140 C   0  0  0  0  0  0  0  0  0  0  0  0
    0.4201    1.4679    0.3594 H   0  0  0  0  0  0  0  0  0  0  0  0
   -1.1962    2.9513   -0.1465 H   0  0  0  0  0  0  0  0  0  0  0  0
   -0.0847    2.7306   -3.0078 H   0  0  0  0  0  0  0  0  0  0  0  0
   -1.1301    4.0281   -2.4174 H   0  0  0  0  0  0  0  0  0  0  0  0
    0.5069    3.8384   -1.7617 H   0  0  0  0  0  0  0  0  0  0  0  0
   -3.2728    2.3455   -1.5350 N   0  0  0  0  0  0  0  0  0  0  0  0
   -4.5458    1.8273   -1.9788 C   0  0  0  0  0  0  0  0  0  0  0  0
   -3.2465    3.2960   -1.1778 H   0  0  0  0  0  0  0  0  0  0  0  0
   -4.6802    2.0496   -3.0477 H   0  0  0  0  0  0  0  0  0  0  0  0
   -4.5723    0.7385   -1.8247 H   0  0  0  0  0  0  0  0  0  0  0  0
   -5.3548    2.2991   -1.4018 H   0  0  0  0  0  0  0  0  0  0  0  0
 18 19  1  0  0  0  0
 19 31  1  0  0  0  0
 19 20  2  0  0  0  0
  8  9  1  0  0  0  0
  9 17  1  0  0  0  0
  9 10  2  0  0  0  0
  1  3  1  0  0  0  0
  1  7  1  0  0  0  0
  1  2  2  0  0  0  0
 32 33  1  0  0  0  0
 33 41  1  0  0  0  0
 33 34  2  0  0  0  0
 21 22  1  0  0  0  0
 22 23  1  0  0  0  0
 18 21  1  0  0  0  0
 17 23  1  0  0  0  0
 17 18  1  0  0  0  0
  8 11  1  0  0  0  0
 32 35  1  0  0  0  0
 41 42  1  0  0  0  0
  7  8  1  0  0  0  0
 31 32  1  0  0  0  0
 22 27  1  0  0  0  0
 22 28  1  0  0  0  0
 21 25  1  0  0  0  0
 21 26  1  0  0  0  0
 23 29  1  0  0  0  0
 23 30  1  0  0  0  0
 18 24  1  0  0  0  0
  3  4  1  0  0  0  0
  3  5  1  0  0  0  0
  3  6  1  0  0  0  0
 11 14  1  0  0  0  0
 11 15  1  0  0  0  0
 11 16  1  0  0  0  0
 35 38  1  0  0  0  0
 35 39  1  0  0  0  0
 35 40  1  0  0  0  0
 42 44  1  0  0  0  0
 42 45  1  0  0  0  0
 42 46  1  0  0  0  0
  8 13  1  0  0  0  0
 32 37  1  0  0  0  0
 31 36  1  0  0  0  0
 41 43  1  0  0  0  0
  7 12  1  0  0  0  0
M  END
$$$$

  -OEChem-05262214473D

 46 46  0     1  0  0  0  0  0999 V2000
   -0.6012   -3.2995    3.8205 C   0  0  0  0  0  0  0  0  0  0  0  0
   -0.6574   -4.4683    3.4568 O   0  0  0  0  0  0  0  0  0  0  0  0
   -0.4935   -2.9859    5.2760 C   0  0  0  0  0  0  0  0  0  0  0  0
   -1.4789   -2.8689    5.7550 H   0  0  0  0  0  0  0  0  0  0  0  0
    0.0123   -3.7847    5.8419 H   0  0  0  0  0  0  0  0  0  0  0  0
    0.0585   -2.0642    5.5199 H   0  0  0  0  0  0  0  0  0  0  0  0
   -0.6261   -2.1849    2.9917 N   0  0  0  0  0  0  0  0  0  0  0  0
   -0.7237   -2.2601    1.5650 C   0  0  2  0  0  0  0  0  0  0  0  0
    0.1695   -1.1513    1.0687 C   0  0  0  0  0  0  0  0  0  0  0  0
    0.3193   -0.1267    1.7365 O   0  0  0  0  0  0  0  0  0  0  0  0
   -2.1397   -2.0663    1.0750 C   0  0  0  0  0  0  0  0  0  0  0  0
   -0.5717   -1.2606    3.4238 H   0  0  0  0  0  0  0  0  0  0  0  0
   -0.3076   -3.2111    1.2363 H   0  0  0  0  0  0  0  0  0  0  0  0
   -2.5584   -1.1089    1.4061 H   0  0  0  0  0  0  0  0  0  0  0  0
   -2.1682   -2.0790   -0.0197 H   0  0  0  0  0  0  0  0  0  0  0  0
   -2.7965   -2.8601    1.4459 H   0  0  0  0  0  0  0  0  0  0  0  0
    0.7724   -1.3745   -0.1593 N   0  0  0  0  0  0  0  0  0  0  0  0
    1.6644   -0.4046   -0.7812 C   0  0  2  0  0  0  0  0  0  0  0  0
    0.8166    0.4953   -1.6290 C   0  0  0  0  0  0  0  0  0  0  0  0
    0.6102    0.2032   -2.8011 O   0  0  0  0  0  0  0  0  0  0  0  0
    2.6195   -1.2417   -1.6241 C   0  0  0  0  0  0  0  0  0  0  0  0
    2.1758   -2.2356   -0.5535 C   0  0  0  0  0  0  0  0  0  0  0  0
    0.7499   -2.6270   -0.9105 C   0  0  0  0  0  0  0  0  0  0  0  0
    2.1745    0.2007   -0.0258 H   0  0  0  0  0  0  0  0  0  0  0  0
    3.6296   -0.8175   -1.5784 H   0  0  0  0  0  0  0  0  0  0  0  0
    2.3218   -1.3211   -2.6742 H   0  0  0  0  0  0  0  0  0  0  0  0
    2.8084   -3.1304   -0.5781 H   0  0  0  0  0  0  0  0  0  0  0  0
    2.2249   -1.8085    0.4522 H   0  0  0  0  0  0  0  0  0  0  0  0
    0.5944   -2.7143   -1.9893 H   0  0  0  0  0  0  0  0  0  0  0  0
    0.4645   -3.5695   -0.4308 H   0  0  0  0  0  0  0  0  0  0  0  0
    0.4082    1.6576   -0.6684 N   0  0  0  0  0  0  0  0  0  0  0  0
   -0.5182    2.6833   -1.0910 C   0  0  2  0  0  0  0  0  0  0  0  0
   -1.8828    2.0347   -1.2823 C   0  0  0  0  0  0  0  0  0  0  0  0
   -2.0308    0.8319   -1.4887 O   0  0  0  0  0  0  0  0  0  0  0  0
   -0.0518    3.3563   -2.3725 C   0  0  0  0  0  0  0  0  0  0  0  0
    0.8910    1.7773    0.2170 H   0  0  0  0  0  0  0  0  0  0  0  0
   -0.5720    3.4155   -0.2779 H   0  0  0  0  0  0  0  0  0  0  0  0
    0.0082    2.6383   -3.1986 H   0  0  0  0  0  0  0  0  0  0  0  0
   -0.7398    4.1523   -2.6758 H   0  0  0  0  0  0  0  0  0  0  0  0
    0.9427    3.7965   -2.2419 H   0  0  0  0  0  0  0  0  0  0  0  0
   -2.9130    2.9637   -1.2386 N   0  0  0  0  0  0  0  0  0  0  0  0
   -4.3001    2.5981   -1.4064 C   0  0  0  0  0  0  0  0  0  0  0  0
   -2.6998    3.9375   -1.0436 H   0  0  0  0  0  0  0  0  0  0  0  0
   -4.5792    2.6926   -2.4662 H   0  0  0  0  0  0  0  0  0  0  0  0
   -4.4471    1.5579   -1.0800 H   0  0  0  0  0  0  0  0  0  0  0  0
   -4.9309    3.2651   -0.8003 H   0  0  0  0  0  0  0  0  0  0  0  0
 18 19  1  0  0  0  0
 19 31  1  0  0  0  0
 19 20  2  0  0  0  0
  8  9  1  0  0  0  0
  9 17  1  0  0  0  0
  9 10  2  0  0  0  0
  1  3  1  0  0  0  0
  1  7  1  0  0  0  0
  1  2  2  0  0  0  0
 32 33  1  0  0  0  0
 33 41  1  0  0  0  0
 33 34  2  0  0  0  0
 21 22  1  0  0  0  0
 22 23  1  0  0  0  0
 18 21  1  0  0  0  0
 17 23  1  0  0  0  0
 17 18  1  0  0  0  0
  8 11  1  0  0  0  0
 32 35  1  0  0  0  0
 41 42  1  0  0  0  0
  7  8  1  0  0  0  0
 31 32  1  0  0  0  0
 22 27  1  0  0  0  0
 22 28  1  0  0  0  0
 21 25  1  0  0  0  0
 21 26  1  0  0  0  0
 23 29  1  0  0  0  0
 23 30  1  0  0  0  0
 18 24  1  0  0  0  0
  3  4  1  0  0  0  0
  3  5  1  0  0  0  0
  3  6  1  0  0  0  0
 11 14  1  0  0  0  0
 11 15  1  0  0  0  0
 11 16  1  0  0  0  0
 35 38  1  0  0  0  0
 35 39  1  0  0  0  0
 35 40  1  0  0  0  0
 42 44  1  0  0  0  0
 42 45  1  0  0  0  0
 42 46  1  0  0  0  0
  8 13  1  0  0  0  0
 32 37  1  0  0  0  0
 31 36  1  0  0  0  0
 41 43  1  0  0  0  0
  7 12  1  0  0  0  0
M  END
$$$$

  -OEChem-05262214473D

 46 46  0     1  0  0  0  0  0999 V2000
   -0.6012   -3.2995    3.8205 C   0  0  0  0  0  0  0  0  0  0  0  0
   -0.6574   -4.4683    3.4568 O   0  0  0  0  0  0  0  0  0  0  0  0
   -0.4935   -2.9859    5.2760 C   0  0  0  0  0  0  0  0  0  0  0  0
   -1.4789   -2.8689    5.7550 H   0  0  0  0  0  0  0  0  0  0  0  0
    0.0123   -3.7847    5.8419 H   0  0  0  0  0  0  0  0  0  0  0  0
    0.0585   -2.0642    5.5199 H   0  0  0  0  0  0  0  0  0  0  0  0
   -0.6261   -2.1849    2.9917 N   0  0  0  0  0  0  0  0  0  0  0  0
   -0.7237   -2.2601    1.5650 C   0  0  2  0  0  0  0  0  0  0  0  0
    0.1695   -1.1513    1.0687 C   0  0  0  0  0  0  0  0  0  0  0  0
    0.3193   -0.1267    1.7365 O   0  0  0  0  0  0  0  0  0  0  0  0
   -2.1397   -2.0663    1.0750 C   0  0  0  0  0  0  0  0  0  0  0  0
   -0.5717   -1.2606    3.4238 H   0  0  0  0  0  0  0  0  0  0  0  0
   -0.3076   -3.2111    1.2363 H   0  0  0  0  0  0  0  0  0  0  0  0
   -2.5584   -1.1089    1.4061 H   0  0  0  0  0  0  0  0  0  0  0  0
   -2.1682   -2.0790   -0.0197 H   0  0  0  0  0  0  0  0  0  0  0  0
   -2.7965   -2.8601    1.4459 H   0  0  0  0  0  0  0  0  0  0  0  0
    0.7724   -1.3745   -0.1593 N   0  0  0  0  0  0  0  0  0  0  0  0
    1.6644   -0.4046   -0.7812 C   0  0  2  0  0  0  0  0  0  0  0  0
    0.8166    0.4953   -1.6290 C   0  0  0  0  0  0  0  0  0  0  0  0
    0.3807    0.0841   -2.6980 O   0  0  0  0  0  0  0  0  0  0  0  0
    2.6195   -1.2417   -1.6241 C   0  0  0  0  0  0  0  0  0  0  0  0
    2.1758   -2.2356   -0.5535 C   0  0  0  0  0  0  0  0  0  0  0  0
    0.7499   -2.6270   -0.9105 C   0  0  0  0  0  0  0  0  0  0  0  0
    2.1745    0.2007   -0.0258 H   0  0  0  0  0  0  0  0  0  0  0  0
    3.6296   -0.8175   -1.5784 H   0  0  0  0  0  0  0  0  0  0  0  0
    2.3218   -1.3211   -2.6742 H   0  0  0  0  0  0  0  0  0  0  0  0
    2.8084   -3.1304   -0.5781 H   0  0  0  0  0  0  0  0  0  0  0  0
    2.2249   -1.8085    0.4522 H   0  0  0  0  0  0  0  0  0  0  0  0
    0.5944   -2.7143   -1.9893 H   0  0  0  0  0  0  0  0  0  0  0  0
    0.4645   -3.5695   -0.4308 H   0  0  0  0  0  0  0  0  0  0  0  0
    0.7341    1.8263   -0.8152 N   0  0  0  0  0  0  0  0  0  0  0  0
   -0.1029    2.9190   -1.2562 C   0  0  2  0  0  0  0  0  0  0  0  0
   -1.5551    2.4742   -1.1435 C   0  0  0  0  0  0  0  0  0  0  0  0
   -1.8961    1.2932   -1.1337 O   0  0  0  0  0  0  0  0  0  0  0  0
    0.2304    3.3308   -2.6817 C   0  0  0  0  0  0  0  0  0  0  0  0
    1.3691    1.9865   -0.0390 H   0  0  0  0  0  0  0  0  0  0  0  0
    0.0785    3.7532   -0.5698 H   0  0  0  0  0  0  0  0  0  0  0  0
    0.0549    2.5077   -3.3839 H   0  0  0  0  0  0  0  0  0  0  0  0
   -0.3849    4.1773   -3.0043 H   0  0  0  0  0  0  0  0  0  0  0  0
    1.2828    3.6220   -2.7673 H   0  0  0  0  0  0  0  0  0  0  0  0
   -2.4289    3.5515   -1.0986 N   0  0  0  0  0  0  0  0  0  0  0  0
   -3.8611    3.3904   -1.0044 C   0  0  0  0  0  0  0  0  0  0  0  0
   -2.0569    4.4967   -1.0928 H   0  0  0  0  0  0  0  0  0  0  0  0
   -4.2971    3.3841   -2.0142 H   0  0  0  0  0  0  0  0  0  0  0  0
   -4.0906    2.4401   -0.5001 H   0  0  0  0  0  0  0  0  0  0  0  0
   -4.2865    4.2241   -0.4266 H   0  0  0  0  0  0  0  0  0  0  0  0
 18 19  1  0  0  0  0
 19 31  1  0  0  0  0
 19 20  2  0  0  0  0
  8  9  1  0  0  0  0
  9 17  1  0  0  0  0
  9 10  2  0  0  0  0
  1  3  1  0  0  0  0
  1  7  1  0  0  0  0
  1  2  2  0  0  0  0
 32 33  1  0  0  0  0
 33 41  1  0  0  0  0
 33 34  2  0  0  0  0
 21 22  1  0  0  0  0
 22 23  1  0  0  0  0
 18 21  1  0  0  0  0
 17 23  1  0  0  0  0
 17 18  1  0  0  0  0
  8 11  1  0  0  0  0
 32 35  1  0  0  0  0
 41 42  1  0  0  0  0
  7  8  1  0  0  0  0
 31 32  1  0  0  0  0
 22 27  1  0  0  0  0
 22 28  1  0  0  0  0
 21 25  1  0  0  0  0
 21 26  1  0  0  0  0
 23 29  1  0  0  0  0
 23 30  1  0  0  0  0
 18 24  1  0  0  0  0
  3  4  1  0  0  0  0
  3  5  1  0  0  0  0
  3  6  1  0  0  0  0
 11 14  1  0  0  0  0
 11 15  1  0  0  0  0
 11 16  1  0  0  0  0
 35 38  1  0  0  0  0
 35 39  1  0  0  0  0
 35 40  1  0  0  0  0
 42 44  1  0  0  0  0
 42 45  1  0  0  0  0
 42 46  1  0  0  0  0
  8 13  1  0  0  0  0
 32 37  1  0  0  0  0
 31 36  1  0  0  0  0
 41 43  1  0  0  0  0
  7 12  1  0  0  0  0
M  END
$$$$

  -OEChem-05262214473D

 46 46  0     1  0  0  0  0  0999 V2000
   -0.6012   -3.2995    3.8205 C   0  0  0  0  0  0  0  0  0  0  0  0
   -0.6574   -4.4683    3.4568 O   0  0  0  0  0  0  0  0  0  0  0  0
   -0.4935   -2.9859    5.2760 C   0  0  0  0  0  0  0  0  0  0  0  0
   -1.4789   -2.8689    5.7550 H   0  0  0  0  0  0  0  0  0  0  0  0
    0.0123   -3.7847    5.8419 H   0  0  0  0  0  0  0  0  0  0  0  0
    0.0585   -2.0642    5.5199 H   0  0  0  0  0  0  0  0  0  0  0  0
   -0.6261   -2.1849    2.9917 N   0  0  0  0  0  0  0  0  0  0  0  0
   -0.7237   -2.2601    1.5650 C   0  0  2  0  0  0  0  0  0  0  0  0
    0.1695   -1.1513    1.0687 C   0  0  0  0  0  0  0  0  0  0  0  0
    0.3193   -0.1267    1.7365 O   0  0  0  0  0  0  0  0  0  0  0  0
   -2.1397   -2.0663    1.0750 C   0  0  0  0  0  0  0  0  0  0  0  0
   -0.5717   -1.2606    3.4238 H   0  0  0  0  0  0  0  0  0  0  0  0
   -0.3076   -3.2111    1.2363 H   0  0  0  0  0  0  0  0  0  0  0  0
   -2.5584   -1.1089    1.4061 H   0  0  0  0  0  0  0  0  0  0  0  0
   -2.1682   -2.0790   -0.0197 H   0  0  0  0  0  0  0  0  0  0  0  0
   -2.7965   -2.8601    1.4459 H   0  0  0  0  0  0  0  0  0  0  0  0
    0.7724   -1.3745   -0.1593 N   0  0  0  0  0  0  0  0  0  0  0  0
    1.6644   -0.4046   -0.7812 C   0  0  2  0  0  0  0  0  0  0  0  0
    0.8166    0.4953   -1.6290 C   0  0  0  0  0  0  0  0  0  0  0  0
    0.1577    0.0178   -2.5453 O   0  0  0  0  0  0  0  0  0  0  0  0
    2.6195   -1.2417   -1.6241 C   0  0  0  0  0  0  0  0  0  0  0  0
    2.1758   -2.2356   -0.5535 C   0  0  0  0  0  0  0  0  0  0  0  0
    0.7499   -2.6270   -0.9105 C   0  0  0  0  0  0  0  0  0  0  0  0
    2.1745    0.2007   -0.0258 H   0  0  0  0  0  0  0  0  0  0  0  0
    3.6296   -0.8175   -1.5784 H   0  0  0  0  0  0  0  0  0  0  0  0
    2.3218   -1.3211   -2.6742 H   0  0  0  0  0  0  0  0  0  0  0  0
    2.8084   -3.1304   -0.5781 H   0  0  0  0  0  0  0  0  0  0  0  0
    2.2249   -1.8085    0.4522 H   0  0  0  0  0  0  0  0  0  0  0  0
    0.5944   -2.7143   -1.9893 H   0  0  0  0  0  0  0  0  0  0  0  0
    0.4645   -3.5695   -0.4308 H   0  0  0  0  0  0  0  0  0  0  0  0
    1.0507    1.9200   -1.0324 N   0  0  0  0  0  0  0  0  0  0  0  0
    0.3071    3.0616   -1.5148 C   0  0  2  0  0  0  0  0  0  0  0  0
   -1.1527    2.8711   -1.1246 C   0  0  0  0  0  0  0  0  0  0  0  0
   -1.6433    1.7710   -0.8793 O   0  0  0  0  0  0  0  0  0  0  0  0
    0.4512    3.2197   -3.0204 C   0  0  0  0  0  0  0  0  0  0  0  0
    1.8216    2.0810   -0.3912 H   0  0  0  0  0  0  0  0  0  0  0  0
    0.7109    3.9416   -1.0023 H   0  0  0  0  0  0  0  0  0  0  0  0
    0.0520    2.3476   -3.5510 H   0  0  0  0  0  0  0  0  0  0  0  0
   -0.0894    4.1014   -3.3803 H   0  0  0  0  0  0  0  0  0  0  0  0
    1.5042    3.3268   -3.3021 H   0  0  0  0  0  0  0  0  0  0  0  0
   -1.8535    4.0690   -1.1247 N   0  0  0  0  0  0  0  0  0  0  0  0
   -3.2586    4.1502   -0.8003 C   0  0  0  0  0  0  0  0  0  0  0  0
   -1.3618    4.9356   -1.3220 H   0  0  0  0  0  0  0  0  0  0  0  0
   -3.8533    4.0768   -1.7228 H   0  0  0  0  0  0  0  0  0  0  0  0
   -3.5270    3.3249   -0.1245 H   0  0  0  0  0  0  0  0  0  0  0  0
   -3.4657    5.1109   -0.3061 H   0  0  0  0  0  0  0  0  0  0  0  0
 18 19  1  0  0  0  0
 19 31  1  0  0  0  0
 19 20  2  0  0  0  0
  8  9  1  0  0  0  0
  9 17  1  0  0  0  0
  9 10  2  0  0  0  0
  1  3  1  0  0  0  0
  1  7  1  0  0  0  0
  1  2  2  0  0  0  0
 32 33  1  0  0  0  0
 33 41  1  0  0  0  0
 33 34  2  0  0  0  0
 21 22  1  0  0  0  0
 22 23  1  0  0  0  0
 18 21  1  0  0  0  0
 17 23  1  0  0  0  0
 17 18  1  0  0  0  0
  8 11  1  0  0  0  0
 32 35  1  0  0  0  0
 41 42  1  0  0  0  0
  7  8  1  0  0  0  0
 31 32  1  0  0  0  0
 22 27  1  0  0  0  0
 22 28  1  0  0  0  0
 21 25  1  0  0  0  0
 21 26  1  0  0  0  0
 23 29  1  0  0  0  0
 23 30  1  0  0  0  0
 18 24  1  0  0  0  0
  3  4  1  0  0  0  0
  3  5  1  0  0  0  0
  3  6  1  0  0  0  0
 11 14  1  0  0  0  0
 11 15  1  0  0  0  0
 11 16  1  0  0  0  0
 35 38  1  0  0  0  0
 35 39  1  0  0  0  0
 35 40  1  0  0  0  0
 42 44  1  0  0  0  0
 42 45  1  0  0  0  0
 42 46  1  0  0  0  0
  8 13  1  0  0  0  0
 32 37  1  0  0  0  0
 31 36  1  0  0  0  0
 41 43  1  0  0  0  0
  7 12  1  0  0  0  0
M  END
$$$$

  -OEChem-05262214473D

 46 46  0     1  0  0  0  0  0999 V2000
   -0.6012   -3.2995    3.8205 C   0  0  0  0  0  0  0  0  0  0  0  0
   -0.6574   -4.4683    3.4568 O   0  0  0  0  0  0  0  0  0  0  0  0
   -0.4935   -2.9859    5.2760 C   0  0  0  0  0  0  0  0  0  0  0  0
   -1.4789   -2.8689    5.7550 H   0  0  0  0  0  0  0  0  0  0  0  0
    0.0123   -3.7847    5.8419 H   0  0  0  0  0  0  0  0  0  0  0  0
    0.0585   -2.0642    5.5199 H   0  0  0  0  0  0  0  0  0  0  0  0
   -0.6261   -2.1849    2.9917 N   0  0  0  0  0  0  0  0  0  0  0  0
   -0.7237   -2.2601    1.5650 C   0  0  2  0  0  0  0  0  0  0  0  0
    0.1695   -1.1513    1.0687 C   0  0  0  0  0  0  0  0  0  0  0  0
    0.3193   -0.1267    1.7365 O   0  0  0  0  0  0  0  0  0  0  0  0
   -2.1397   -2.0663    1.0750 C   0  0  0  0  0  0  0  0  0  0  0  0
   -0.5717   -1.2606    3.4238 H   0  0  0  0  0  0  0  0  0  0  0  0
   -0.3076   -3.2111    1.2363 H   0  0  0  0  0  0  0  0  0  0  0  0
   -2.5584   -1.1089    1.4061 H   0  0  0  0  0  0  0  0  0  0  0  0
   -2.1682   -2.0790   -0.0197 H   0  0  0  0  0  0  0  0  0  0  0  0
   -2.7965   -2.8601    1.4459 H   0  0  0  0  0  0  0  0  0  0  0  0
    0.7724   -1.3745   -0.1593 N   0  0  0  0  0  0  0  0  0  0  0  0
    1.6644   -0.4046   -0.7812 C   0  0  2  0  0  0  0  0  0  0  0  0
    0.8166    0.4953   -1.6290 C   0  0  0  0  0  0  0  0  0  0  0  0
   -0.0438    0.0088   -2.3534 O   0  0  0  0  0  0  0  0  0  0  0  0
    2.6195   -1.2417   -1.6241 C   0  0  0  0  0  0  0  0  0  0  0  0
    2.1758   -2.2356   -0.5535 C   0  0  0  0  0  0  0  0  0  0  0  0
    0.7499   -2.6270   -0.9105 C   0  0  0  0  0  0  0  0  0  0  0  0
    2.1745    0.2007   -0.0258 H   0  0  0  0  0  0  0  0  0  0  0  0
    3.6296   -0.8175   -1.5784 H   0  0  0  0  0  0  0  0  0  0  0  0
    2.3218   -1.3211   -2.6742 H   0  0  0  0  0  0  0  0  0  0  0  0
    2.8084   -3.1304   -0.5781 H   0  0  0  0  0  0  0  0  0  0  0  0
    2.2249   -1.8085    0.4522 H   0  0  0  0  0  0  0  0  0  0  0  0
    0.5944   -2.7143   -1.9893 H   0  0  0  0  0  0  0  0  0  0  0  0
    0.4645   -3.5695   -0.4308 H   0  0  0  0  0  0  0  0  0  0  0  0
    1.3365    1.9324   -1.3050 N   0  0  0  0  0  0  0  0  0  0  0  0
    0.6838    3.1016   -1.8492 C   0  0  2  0  0  0  0  0  0  0  0  0
   -0.7029    3.1983   -1.2271 C   0  0  0  0  0  0  0  0  0  0  0  0
   -1.2897    2.2328   -0.7428 O   0  0  0  0  0  0  0  0  0  0  0  0
    0.5955    3.0305   -3.3657 C   0  0  0  0  0  0  0  0  0  0  0  0
    2.2179    2.0546   -0.8155 H   0  0  0  0  0  0  0  0  0  0  0  0
    1.2821    3.9677   -1.5458 H   0  0  0  0  0  0  0  0  0  0  0  0
   -0.0002    2.1689   -3.6886 H   0  0  0  0  0  0  0  0  0  0  0  0
    0.1266    3.9298   -3.7784 H   0  0  0  0  0  0  0  0  0  0  0  0
    1.5918    2.9310   -3.8099 H   0  0  0  0  0  0  0  0  0  0  0  0
   -1.2261    4.4808   -1.3150 N   0  0  0  0  0  0  0  0  0  0  0  0
   -2.5337    4.8259   -0.8080 C   0  0  0  0  0  0  0  0  0  0  0  0
   -0.6617    5.2242   -1.7157 H   0  0  0  0  0  0  0  0  0  0  0  0
   -3.2778    4.7236   -1.6115 H   0  0  0  0  0  0  0  0  0  0  0  0
   -2.7948    4.1520    0.0213 H   0  0  0  0  0  0  0  0  0  0  0  0
   -2.5243    5.8649   -0.4471 H   0  0  0  0  0  0  0  0  0  0  0  0
 18 19  1  0  0  0  0
 19 31  1  0  0  0  0
 19 20  2  0  0  0  0
  8  9  1  0  0  0  0
  9 17  1  0  0  0  0
  9 10  2  0  0  0  0
  1  3  1  0  0  0  0
  1  7  1  0  0  0  0
  1  2  2  0  0  0  0
 32 33  1  0  0  0  0
 33 41  1  0  0  0  0
 33 34  2  0  0  0  0
 21 22  1  0  0  0  0
 22 23  1  0  0  0  0
 18 21  1  0  0  0  0
 17 23  1  0  0  0  0
 17 18  1  0  0  0  0
  8 11  1  0  0  0  0
 32 35  1  0  0  0  0
 41 42  1  0  0  0  0
  7  8  1  0  0  0  0
 31 32  1  0  0  0  0
 22 27  1  0  0  0  0
 22 28  1  0  0  0  0
 21 25  1  0  0  0  0
 21 26  1  0  0  0  0
 23 29  1  0  0  0  0
 23 30  1  0  0  0  0
 18 24  1  0  0  0  0
  3  4  1  0  0  0  0
  3  5  1  0  0  0  0
  3  6  1  0  0  0  0
 11 14  1  0  0  0  0
 11 15  1  0  0  0  0
 11 16  1  0  0  0  0
 35 38  1  0  0  0  0
 35 39  1  0  0  0  0
 35 40  1  0  0  0  0
 42 44  1  0  0  0  0
 42 45  1  0  0  0  0
 42 46  1  0  0  0  0
  8 13  1  0  0  0  0
 32 37  1  0  0  0  0
 31 36  1  0  0  0  0
 41 43  1  0  0  0  0
  7 12  1  0  0  0  0
M  END
$$$$

  -OEChem-05262214473D

 46 46  0     1  0  0  0  0  0999 V2000
   -0.6012   -3.2995    3.8205 C   0  0  0  0  0  0  0  0  0  0  0  0
   -0.6574   -4.4683    3.4568 O   0  0  0  0  0  0  0  0  0  0  0  0
   -0.4935   -2.9859    5.2760 C   0  0  0  0  0  0  0  0  0  0  0  0
   -1.4789   -2.8689    5.7550 H   0  0  0  0  0  0  0  0  0  0  0  0
    0.0123   -3.7847    5.8419 H   0  0  0  0  0  0  0  0  0  0  0  0
    0.0585   -2.0642    5.5199 H   0  0  0  0  0  0  0  0  0  0  0  0
   -0.6261   -2.1849    2.9917 N   0  0  0  0  0  0  0  0  0  0  0  0
   -0.7237   -2.2601    1.5650 C   0  0  2  0  0  0  0  0  0  0  0  0
    0.1695   -1.1513    1.0687 C   0  0  0  0  0  0  0  0  0  0  0  0
    0.3193   -0.1267    1.7365 O   0  0  0  0  0  0  0  0  0  0  0  0
   -2.1397   -2.0663    1.0750 C   0  0  0  0  0  0  0  0  0  0  0  0
   -0.5717   -1.2606    3.4238 H   0  0  0  0  0  0  0  0  0  0  0  0
   -0.3076   -3.2111    1.2363 H   0  0  0  0  0  0  0  0  0  0  0  0
   -2.5584   -1.1089    1.4061 H   0  0  0  0  0  0  0  0  0  0  0  0
   -2.1682   -2.0790   -0.0197 H   0  0  0  0  0  0  0  0  0  0  0  0
   -2.7965   -2.8601    1.4459 H   0  0  0  0  0  0  0  0  0  0  0  0
    0.7724   -1.3745   -0.1593 N   0  0  0  0  0  0  0  0  0  0  0  0
    1.6644   -0.4046   -0.7812 C   0  0  2  0  0  0  0  0  0  0  0  0
    0.8166    0.4953   -1.6290 C   0  0  0  0  0  0  0  0  0  0  0  0
   -0.2099    0.0576   -2.1355 O   0  0  0  0  0  0  0  0  0  0  0  0
    2.6195   -1.2417   -1.6241 C   0  0  0  0  0  0  0  0  0  0  0  0
    2.1758   -2.2356   -0.5535 C   0  0  0  0  0  0  0  0  0  0  0  0
    0.7499   -2.6270   -0.9105 C   0  0  0  0  0  0  0  0  0  0  0  0
    2.1745    0.2007   -0.0258 H   0  0  0  0  0  0  0  0  0  0  0  0
    3.6296   -0.8175   -1.5784 H   0  0  0  0  0  0  0  0  0  0  0  0
    2.3218   -1.3211   -2.6742 H   0  0  0  0  0  0  0  0  0  0  0  0
    2.8084   -3.1304   -0.5781 H   0  0  0  0  0  0  0  0  0  0  0  0
    2.2249   -1.8085    0.4522 H   0  0  0  0  0  0  0  0  0  0  0  0
    0.5944   -2.7143   -1.9893 H   0  0  0  0  0  0  0  0  0  0  0  0
    0.4645   -3.5695   -0.4308 H   0  0  0  0  0  0  0  0  0  0  0  0
    1.5721    1.8626   -1.6146 N   0  0  0  0  0  0  0  0  0  0  0  0
    1.0016    3.0361   -2.2365 C   0  0  2  0  0  0  0  0  0  0  0  0
   -0.2365    3.4336   -1.4437 C   0  0  0  0  0  0  0  0  0  0  0  0
   -0.8593    2.6471   -0.7334 O   0  0  0  0  0  0  0  0  0  0  0  0
    0.6536    2.7761   -3.6939 C   0  0  0  0  0  0  0  0  0  0  0  0
    2.5309    1.9090   -1.2831 H   0  0  0  0  0  0  0  0  0  0  0  0
    1.7532    3.8297   -2.1634 H   0  0  0  0  0  0  0  0  0  0  0  0
   -0.0981    1.9838   -3.7872 H   0  0  0  0  0  0  0  0  0  0  0  0
    0.2481    3.6742   -4.1713 H   0  0  0  0  0  0  0  0  0  0  0  0
    1.5396    2.4615   -4.2560 H   0  0  0  0  0  0  0  0  0  0  0  0
   -0.5893    4.7588   -1.6567 N   0  0  0  0  0  0  0  0  0  0  0  0
   -1.7357    5.3713   -1.0269 C   0  0  0  0  0  0  0  0  0  0  0  0
   -0.0044    5.3430   -2.2470 H   0  0  0  0  0  0  0  0  0  0  0  0
   -2.6101    5.2805   -1.6882 H   0  0  0  0  0  0  0  0  0  0  0  0
   -1.9437    4.8651   -0.0727 H   0  0  0  0  0  0  0  0  0  0  0  0
   -1.5265    6.4349   -0.8398 H   0  0  0  0  0  0  0  0  0  0  0  0
 18 19  1  0  0  0  0
 19 31  1  0  0  0  0
 19 20  2  0  0  0  0
  8  9  1  0  0  0  0
  9 17  1  0  0  0  0
  9 10  2  0  0  0  0
  1  3  1  0  0  0  0
  1  7  1  0  0  0  0
  1  2  2  0  0  0  0
 32 33  1  0  0  0  0
 33 41  1  0  0  0  0
 33 34  2  0  0  0  0
 21 22  1  0  0  0  0
 22 23  1  0  0  0  0
 18 21  1  0  0  0  0
 17 23  1  0  0  0  0
 17 18  1  0  0  0  0
  8 11  1  0  0  0  0
 32 35  1  0  0  0  0
 41 42  1  0  0  0  0
  7  8  1  0  0  0  0
 31 32  1  0  0  0  0
 22 27  1  0  0  0  0
 22 28  1  0  0  0  0
 21 25  1  0  0  0  0
 21 26  1  0  0  0  0
 23 29  1  0  0  0  0
 23 30  1  0  0  0  0
 18 24  1  0  0  0  0
  3  4  1  0  0  0  0
  3  5  1  0  0  0  0
  3  6  1  0  0  0  0
 11 14  1  0  0  0  0
 11 15  1  0  0  0  0
 11 16  1  0  0  0  0
 35 38  1  0  0  0  0
 35 39  1  0  0  0  0
 35 40  1  0  0  0  0
 42 44  1  0  0  0  0
 42 45  1  0  0  0  0
 42 46  1  0  0  0  0
  8 13  1  0  0  0  0
 32 37  1  0  0  0  0
 31 36  1  0  0  0  0
 41 43  1  0  0  0  0
  7 12  1  0  0  0  0
M  END
$$$$

  -OEChem-05262214473D

 46 46  0     1  0  0  0  0  0999 V2000
   -0.6012   -3.2995    3.8205 C   0  0  0  0  0  0  0  0  0  0  0  0
   -0.6574   -4.4683    3.4568 O   0  0  0  0  0  0  0  0  0  0  0  0
   -0.4935   -2.9859    5.2760 C   0  0  0  0  0  0  0  0  0  0  0  0
   -1.4789   -2.8689    5.7550 H   0  0  0  0  0  0  0  0  0  0  0  0
    0.0123   -3.7847    5.8419 H   0  0  0  0  0  0  0  0  0  0  0  0
    0.0585   -2.0642    5.5199 H   0  0  0  0  0  0  0  0  0  0  0  0
   -0.6261   -2.1849    2.9917 N   0  0  0  0  0  0  0  0  0  0  0  0
   -0.7237   -2.2601    1.5650 C   0  0  2  0  0  0  0  0  0  0  0  0
    0.1695   -1.1513    1.0687 C   0  0  0  0  0  0  0  0  0  0  0  0
    0.3193   -0.1267    1.7365 O   0  0  0  0  0  0  0  0  0  0  0  0
   -2.1397   -2.0663    1.0750 C   0  0  0  0  0  0  0  0  0  0  0  0
   -0.5717   -1.2606    3.4238 H   0  0  0  0  0  0  0  0  0  0  0  0
   -0.3076   -3.2111    1.2363 H   0  0  0  0  0  0  0  0  0  0  0  0
   -2.5584   -1.1089    1.4061 H   0  0  0  0  0  0  0  0  0  0  0  0
   -2.1682   -2.0790   -0.0197 H   0  0  0  0  0  0  0  0  0  0  0  0
   -2.7965   -2.8601    1.4459 H   0  0  0  0  0  0  0  0  0  0  0  0
    0.7724   -1.3745   -0.1593 N   0  0  0  0  0  0  0  0  0  0  0  0
    1.6644   -0.4046   -0.7812 C   0  0  2  0  0  0  0  0  0  0  0  0
    0.8166    0.4953   -1.6290 C   0  0  0  0  0  0  0  0  0  0  0  0
   -0.3293    0.1610   -1.9064 O   0  0  0  0  0  0  0  0  0  0  0  0
    2.6195   -1.2417   -1.6241 C   0  0  0  0  0  0  0  0  0  0  0  0
    2.1758   -2.2356   -0.5535 C   0  0  0  0  0  0  0  0  0  0  0  0
    0.7499   -2.6270   -0.9105 C   0  0  0  0  0  0  0  0  0  0  0  0
    2.1745    0.2007   -0.0258 H   0  0  0  0  0  0  0  0  0  0  0  0
    3.6296   -0.8175   -1.5784 H   0  0  0  0  0  0  0  0  0  0  0  0
    2.3218   -1.3211   -2.6742 H   0  0  0  0  0  0  0  0  0  0  0  0
    2.8084   -3.1304   -0.5781 H   0  0  0  0  0  0  0  0  0  0  0  0
    2.2249   -1.8085    0.4522 H   0  0  0  0  0  0  0  0  0  0  0  0
    0.5944   -2.7143   -1.9893 H   0  0  0  0  0  0  0  0  0  0  0  0
    0.4645   -3.5695   -0.4308 H   0  0  0  0  0  0  0  0  0  0  0  0
    1.7413    1.7155   -1.9401 N   0  0  0  0  0  0  0  0  0  0  0  0
    1.2388    2.8696   -2.6504 C   0  0  2  0  0  0  0  0  0  0  0  0
    0.2148    3.5608   -1.7599 C   0  0  0  0  0  0  0  0  0  0  0  0
   -0.3815    2.9856   -0.8519 O   0  0  0  0  0  0  0  0  0  0  0  0
    0.6215    2.4737   -3.9827 C   0  0  0  0  0  0  0  0  0  0  0  0
    2.7392    1.6540   -1.7621 H   0  0  0  0  0  0  0  0  0  0  0  0
    2.0921    3.5371   -2.8129 H   0  0  0  0  0  0  0  0  0  0  0  0
   -0.2351    1.8049   -3.8401 H   0  0  0  0  0  0  0  0  0  0  0  0
    0.2671    3.3520   -4.5323 H   0  0  0  0  0  0  0  0  0  0  0  0
    1.3510    1.9503   -4.6101 H   0  0  0  0  0  0  0  0  0  0  0  0
    0.0134    4.8842   -2.1263 N   0  0  0  0  0  0  0  0  0  0  0  0
   -0.9192    5.7493   -1.4422 C   0  0  0  0  0  0  0  0  0  0  0  0
    0.5653    5.2837   -2.8797 H   0  0  0  0  0  0  0  0  0  0  0  0
   -1.8955    5.7094   -1.9475 H   0  0  0  0  0  0  0  0  0  0  0  0
   -1.0320    5.4156   -0.4001 H   0  0  0  0  0  0  0  0  0  0  0  0
   -0.5404    6.7819   -1.4577 H   0  0  0  0  0  0  0  0  0  0  0  0
 18 19  1  0  0  0  0
 19 31  1  0  0  0  0
 19 20  2  0  0  0  0
  8  9  1  0  0  0  0
  9 17  1  0  0  0  0
  9 10  2  0  0  0  0
  1  3  1  0  0  0  0
  1  7  1  0  0  0  0
  1  2  2  0  0  0  0
 32 33  1  0  0  0  0
 33 41  1  0  0  0  0
 33 34  2  0  0  0  0
 21 22  1  0  0  0  0
 22 23  1  0  0  0  0
 18 21  1  0  0  0  0
 17 23  1  0  0  0  0
 17 18  1  0  0  0  0
  8 11  1  0  0  0  0
 32 35  1  0  0  0  0
 41 42  1  0  0  0  0
  7  8  1  0  0  0  0
 31 32  1  0  0  0  0
 22 27  1  0  0  0  0
 22 28  1  0  0  0  0
 21 25  1  0  0  0  0
 21 26  1  0  0  0  0
 23 29  1  0  0  0  0
 23 30  1  0  0  0  0
 18 24  1  0  0  0  0
  3  4  1  0  0  0  0
  3  5  1  0  0  0  0
  3  6  1  0  0  0  0
 11 14  1  0  0  0  0
 11 15  1  0  0  0  0
 11 16  1  0  0  0  0
 35 38  1  0  0  0  0
 35 39  1  0  0  0  0
 35 40  1  0  0  0  0
 42 44  1  0  0  0  0
 42 45  1  0  0  0  0
 42 46  1  0  0  0  0
  8 13  1  0  0  0  0
 32 37  1  0  0  0  0
 31 36  1  0  0  0  0
 41 43  1  0  0  0  0
  7 12  1  0  0  0  0
M  END
$$$$

  -OEChem-05262214473D

 46 46  0     1  0  0  0  0  0999 V2000
   -0.6012   -3.2995    3.8205 C   0  0  0  0  0  0  0  0  0  0  0  0
   -0.6574   -4.4683    3.4568 O   0  0  0  0  0  0  0  0  0  0  0  0
   -0.4935   -2.9859    5.2760 C   0  0  0  0  0  0  0  0  0  0  0  0
   -1.4789   -2.8689    5.7550 H   0  0  0  0  0  0  0  0  0  0  0  0
    0.0123   -3.7847    5.8419 H   0  0  0  0  0  0  0  0  0  0  0  0
    0.0585   -2.0642    5.5199 H   0  0  0  0  0  0  0  0  0  0  0  0
   -0.6261   -2.1849    2.9917 N   0  0  0  0  0  0  0  0  0  0  0  0
   -0.7237   -2.2601    1.5650 C   0  0  2  0  0  0  0  0  0  0  0  0
    0.1695   -1.1513    1.0687 C   0  0  0  0  0  0  0  0  0  0  0  0
    0.3193   -0.1267    1.7365 O   0  0  0  0  0  0  0  0  0  0  0  0
   -2.1397   -2.0663    1.0750 C   0  0  0  0  0  0  0  0  0  0  0  0
   -0.5717   -1.2606    3.4238 H   0  0  0  0  0  0  0  0  0  0  0  0
   -0.3076   -3.2111    1.2363 H   0  0  0  0  0  0  0  0  0  0  0  0
   -2.5584   -1.1089    1.4061 H   0  0  0  0  0  0  0  0  0  0  0  0
   -2.1682   -2.0790   -0.0197 H   0  0  0  0  0  0  0  0  0  0  0  0
   -2.7965   -2.8601    1.4459 H   0  0  0  0  0  0  0  0  0  0  0  0
    0.7724   -1.3745   -0.1593 N   0  0  0  0  0  0  0  0  0  0  0  0
    1.6644   -0.4046   -0.7812 C   0  0  2  0  0  0  0  0  0  0  0  0
    0.8166    0.4953   -1.6290 C   0  0  0  0  0  0  0  0  0  0  0  0
   -0.3939    0.3119   -1.6816 O   0  0  0  0  0  0  0  0  0  0  0  0
    2.6195   -1.2417   -1.6241 C   0  0  0  0  0  0  0  0  0  0  0  0
    2.1758   -2.2356   -0.5535 C   0  0  0  0  0  0  0  0  0  0  0  0
    0.7499   -2.6270   -0.9105 C   0  0  0  0  0  0  0  0  0  0  0  0
    2.1745    0.2007   -0.0258 H   0  0  0  0  0  0  0  0  0  0  0  0
    3.6296   -0.8175   -1.5784 H   0  0  0  0  0  0  0  0  0  0  0  0
    2.3218   -1.3211   -2.6742 H   0  0  0  0  0  0  0  0  0  0  0  0
    2.8084   -3.1304   -0.5781 H   0  0  0  0  0  0  0  0  0  0  0  0
    2.2249   -1.8085    0.4522 H   0  0  0  0  0  0  0  0  0  0  0  0
    0.5944   -2.7143   -1.9893 H   0  0  0  0  0  0  0  0  0  0  0  0
    0.4645   -3.5695   -0.4308 H   0  0  0  0  0  0  0  0  0  0  0  0
    1.8326    1.5009   -2.2592 N   0  0  0  0  0  0  0  0  0  0  0  0
    1.3793    2.6134   -3.0627 C   0  0  2  0  0  0  0  0  0  0  0  0
    0.6202    3.5714   -2.1541 C   0  0  0  0  0  0  0  0  0  0  0  0
    0.1112    3.2253   -1.0901 O   0  0  0  0  0  0  0  0  0  0  0  0
    0.5014    2.1441   -4.2124 C   0  0  0  0  0  0  0  0  0  0  0  0
    2.8287    1.3072   -2.2198 H   0  0  0  0  0  0  0  0  0  0  0  0
    2.2757    3.1097   -3.4502 H   0  0  0  0  0  0  0  0  0  0  0  0
   -0.4018    1.6444   -3.8437 H   0  0  0  0  0  0  0  0  0  0  0  0
    0.1822    2.9852   -4.8368 H   0  0  0  0  0  0  0  0  0  0  0  0
    1.0391    1.4323   -4.8480 H   0  0  0  0  0  0  0  0  0  0  0  0
    0.5410    4.8484   -2.6919 N   0  0  0  0  0  0  0  0  0  0  0  0
   -0.1397    5.9341   -2.0256 C   0  0  0  0  0  0  0  0  0  0  0  0
    1.0087    5.0504   -3.5706 H   0  0  0  0  0  0  0  0  0  0  0  0
   -1.1827    5.9812   -2.3718 H   0  0  0  0  0  0  0  0  0  0  0  0
   -0.1215    5.7660   -0.9386 H   0  0  0  0  0  0  0  0  0  0  0  0
    0.3670    6.8823   -2.2585 H   0  0  0  0  0  0  0  0  0  0  0  0
 18 19  1  0  0  0  0
 19 31  1  0  0  0  0
 19 20  2  0  0  0  0
  8  9  1  0  0  0  0
  9 17  1  0  0  0  0
  9 10  2  0  0  0  0
  1  3  1  0  0  0  0
  1  7  1  0  0  0  0
  1  2  2  0  0  0  0
 32 33  1  0  0  0  0
 33 41  1  0  0  0  0
 33 34  2  0  0  0  0
 21 22  1  0  0  0  0
 22 23  1  0  0  0  0
 18 21  1  0  0  0  0
 17 23  1  0  0  0  0
 17 18  1  0  0  0  0
  8 11  1  0  0  0  0
 32 35  1  0  0  0  0
 41 42  1  0  0  0  0
  7  8  1  0  0  0  0
 31 32  1  0  0  0  0
 22 27  1  0  0  0  0
 22 28  1  0  0  0  0
 21 25  1  0  0  0  0
 21 26  1  0  0  0  0
 23 29  1  0  0  0  0
 23 30  1  0  0  0  0
 18 24  1  0  0  0  0
  3  4  1  0  0  0  0
  3  5  1  0  0  0  0
  3  6  1  0  0  0  0
 11 14  1  0  0  0  0
 11 15  1  0  0  0  0
 11 16  1  0  0  0  0
 35 38  1  0  0  0  0
 35 39  1  0  0  0  0
 35 40  1  0  0  0  0
 42 44  1  0  0  0  0
 42 45  1  0  0  0  0
 42 46  1  0  0  0  0
  8 13  1  0  0  0  0
 32 37  1  0  0  0  0
 31 36  1  0  0  0  0
 41 43  1  0  0  0  0
  7 12  1  0  0  0  0
M  END
$$$$

  -OEChem-05262214473D

 46 46  0     1  0  0  0  0  0999 V2000
   -0.6012   -3.2995    3.8205 C   0  0  0  0  0  0  0  0  0  0  0  0
   -0.6574   -4.4683    3.4568 O   0  0  0  0  0  0  0  0  0  0  0  0
   -0.4935   -2.9859    5.2760 C   0  0  0  0  0  0  0  0  0  0  0  0
   -1.4789   -2.8689    5.7550 H   0  0  0  0  0  0  0  0  0  0  0  0
    0.0123   -3.7847    5.8419 H   0  0  0  0  0  0  0  0  0  0  0  0
    0.0585   -2.0642    5.5199 H   0  0  0  0  0  0  0  0  0  0  0  0
   -0.6261   -2.1849    2.9917 N   0  0  0  0  0  0  0  0  0  0  0  0
   -0.7237   -2.2601    1.5650 C   0  0  2  0  0  0  0  0  0  0  0  0
    0.1695   -1.1513    1.0687 C   0  0  0  0  0  0  0  0  0  0  0  0
    0.3193   -0.1267    1.7365 O   0  0  0  0  0  0  0  0  0  0  0  0
   -2.1397   -2.0663    1.0750 C   0  0  0  0  0  0  0  0  0  0  0  0
   -0.5717   -1.2606    3.4238 H   0  0  0  0  0  0  0  0  0  0  0  0
   -0.3076   -3.2111    1.2363 H   0  0  0  0  0  0  0  0  0  0  0  0
   -2.5584   -1.1089    1.4061 H   0  0  0  0  0  0  0  0  0  0  0  0
   -2.1682   -2.0790   -0.0197 H   0  0  0  0  0  0  0  0  0  0  0  0
   -2.7965   -2.8601    1.4459 H   0  0  0  0  0  0  0  0  0  0  0  0
    0.7724   -1.3745   -0.1593 N   0  0  0  0  0  0  0  0  0  0  0  0
    1.6644   -0.4046   -0.7812 C   0  0  2  0  0  0  0  0  0  0  0  0
    0.8166    0.4953   -1.6290 C   0  0  0  0  0  0  0  0  0  0  0  0
   -0.3993    0.5000   -1.4765 O   0  0  0  0  0  0  0  0  0  0  0  0
    2.6195   -1.2417   -1.6241 C   0  0  0  0  0  0  0  0  0  0  0  0
    2.1758   -2.2356   -0.5535 C   0  0  0  0  0  0  0  0  0  0  0  0
    0.7499   -2.6270   -0.9105 C   0  0  0  0  0  0  0  0  0  0  0  0
    2.1745    0.2007   -0.0258 H   0  0  0  0  0  0  0  0  0  0  0  0
    3.6296   -0.8175   -1.5784 H   0  0  0  0  0  0  0  0  0  0  0  0
    2.3218   -1.3211   -2.6742 H   0  0  0  0  0  0  0  0  0  0  0  0
    2.8084   -3.1304   -0.5781 H   0  0  0  0  0  0  0  0  0  0  0  0
    2.2249   -1.8085    0.4522 H   0  0  0  0  0  0  0  0  0  0  0  0
    0.5944   -2.7143   -1.9893 H   0  0  0  0  0  0  0  0  0  0  0  0
    0.4645   -3.5695   -0.4308 H   0  0  0  0  0  0  0  0  0  0  0  0
    1.8398    1.2336   -2.5502 N   0  0  0  0  0  0  0  0  0  0  0  0
    1.4134    2.2851   -3.4453 C   0  0  2  0  0  0  0  0  0  0  0  0
    0.9521    3.4646   -2.5994 C   0  0  0  0  0  0  0  0  0  0  0  0
    0.5851    3.3498   -1.4318 O   0  0  0  0  0  0  0  0  0  0  0  0
    0.3014    1.8097   -4.3674 C   0  0  0  0  0  0  0  0  0  0  0  0
    2.7933    0.8921   -2.6250 H   0  0  0  0  0  0  0  0  0  0  0  0
    2.2915    2.5768   -4.0317 H   0  0  0  0  0  0  0  0  0  0  0  0
   -0.5869    1.5132   -3.7978 H   0  0  0  0  0  0  0  0  0  0  0  0
   -0.0008    2.5987   -5.0641 H   0  0  0  0  0  0  0  0  0  0  0  0
    0.6251    0.9429   -4.9536 H   0  0  0  0  0  0  0  0  0  0  0  0
    0.9574    4.6538   -3.3149 N   0  0  0  0  0  0  0  0  0  0  0  0
    0.5497    5.9131   -2.7372 C   0  0  0  0  0  0  0  0  0  0  0  0
    1.2954    4.6591   -4.2728 H   0  0  0  0  0  0  0  0  0  0  0  0
   -0.5204    6.0772   -2.9322 H   0  0  0  0  0  0  0  0  0  0  0  0
    0.7255    5.8924   -1.6515 H   0  0  0  0  0  0  0  0  0  0  0  0
    1.1337    6.7292   -3.1877 H   0  0  0  0  0  0  0  0  0  0  0  0
 18 19  1  0  0  0  0
 19 31  1  0  0  0  0
 19 20  2  0  0  0  0
  8  9  1  0  0  0  0
  9 17  1  0  0  0  0
  9 10  2  0  0  0  0
  1  3  1  0  0  0  0
  1  7  1  0  0  0  0
  1  2  2  0  0  0  0
 32 33  1  0  0  0  0
 33 41  1  0  0  0  0
 33 34  2  0  0  0  0
 21 22  1  0  0  0  0
 22 23  1  0  0  0  0
 18 21  1  0  0  0  0
 17 23  1  0  0  0  0
 17 18  1  0  0  0  0
  8 11  1  0  0  0  0
 32 35  1  0  0  0  0
 41 42  1  0  0  0  0
  7  8  1  0  0  0  0
 31 32  1  0  0  0  0
 22 27  1  0  0  0  0
 22 28  1  0  0  0  0
 21 25  1  0  0  0  0
 21 26  1  0  0  0  0
 23 29  1  0  0  0  0
 23 30  1  0  0  0  0
 18 24  1  0  0  0  0
  3  4  1  0  0  0  0
  3  5  1  0  0  0  0
  3  6  1  0  0  0  0
 11 14  1  0  0  0  0
 11 15  1  0  0  0  0
 11 16  1  0  0  0  0
 35 38  1  0  0  0  0
 35 39  1  0  0  0  0
 35 40  1  0  0  0  0
 42 44  1  0  0  0  0
 42 45  1  0  0  0  0
 42 46  1  0  0  0  0
  8 13  1  0  0  0  0
 32 37  1  0  0  0  0
 31 36  1  0  0  0  0
 41 43  1  0  0  0  0
  7 12  1  0  0  0  0
M  END
$$$$

  -OEChem-05262214473D

 46 46  0     1  0  0  0  0  0999 V2000
   -0.6012   -3.2995    3.8205 C   0  0  0  0  0  0  0  0  0  0  0  0
   -0.6574   -4.4683    3.4568 O   0  0  0  0  0  0  0  0  0  0  0  0
   -0.4935   -2.9859    5.2760 C   0  0  0  0  0  0  0  0  0  0  0  0
   -1.4789   -2.8689    5.7550 H   0  0  0  0  0  0  0  0  0  0  0  0
    0.0123   -3.7847    5.8419 H   0  0  0  0  0  0  0  0  0  0  0  0
    0.0585   -2.0642    5.5199 H   0  0  0  0  0  0  0  0  0  0  0  0
   -0.6261   -2.1849    2.9917 N   0  0  0  0  0  0  0  0  0  0  0  0
   -0.7237   -2.2601    1.5650 C   0  0  2  0  0  0  0  0  0  0  0  0
    0.1695   -1.1513    1.0687 C   0  0  0  0  0  0  0  0  0  0  0  0
    0.3193   -0.1267    1.7365 O   0  0  0  0  0  0  0  0  0  0  0  0
   -2.1397   -2.0663    1.0750 C   0  0  0  0  0  0  0  0  0  0  0  0
   -0.5717   -1.2606    3.4238 H   0  0  0  0  0  0  0  0  0  0  0  0
   -0.3076   -3.2111    1.2363 H   0  0  0  0  0  0  0  0  0  0  0  0
   -2.5584   -1.1089    1.4061 H   0  0  0  0  0  0  0  0  0  0  0  0
   -2.1682   -2.0790   -0.0197 H   0  0  0  0  0  0  0  0  0  0  0  0
   -2.7965   -2.8601    1.4459 H   0  0  0  0  0  0  0  0  0  0  0  0
    0.7724   -1.3745   -0.1593 N   0  0  0  0  0  0  0  0  0  0  0  0
    1.6644   -0.4046   -0.7812 C   0  0  2  0  0  0  0  0  0  0  0  0
    0.8166    0.4953   -1.6290 C   0  0  0  0  0  0  0  0  0  0  0  0
   -0.3451    0.7125   -1.3051 O   0  0  0  0  0  0  0  0  0  0  0  0
    2.6195   -1.2417   -1.6241 C   0  0  0  0  0  0  0  0  0  0  0  0
    2.1758   -2.2356   -0.5535 C   0  0  0  0  0  0  0  0  0  0  0  0
    0.7499   -2.6270   -0.9105 C   0  0  0  0  0  0  0  0  0  0  0  0
    2.1745    0.2007   -0.0258 H   0  0  0  0  0  0  0  0  0  0  0  0
    3.6296   -0.8175   -1.5784 H   0  0  0  0  0  0  0  0  0  0  0  0
    2.3218   -1.3211   -2.6742 H   0  0  0  0  0  0  0  0  0  0  0  0
    2.8084   -3.1304   -0.5781 H   0  0  0  0  0  0  0  0  0  0  0  0
    2.2249   -1.8085    0.4522 H   0  0  0  0  0  0  0  0  0  0  0  0
    0.5944   -2.7143   -1.9893 H   0  0  0  0  0  0  0  0  0  0  0  0
    0.4645   -3.5695   -0.4308 H   0  0  0  0  0  0  0  0  0  0  0  0
    1.7625    0.9317   -2.7932 N   0  0  0  0  0  0  0  0  0  0  0  0
    1.3388    1.9070   -3.7721 C   0  0  2  0  0  0  0  0  0  0  0  0
    1.1878    3.2477   -3.0654 C   0  0  0  0  0  0  0  0  0  0  0  0
    1.0081    3.3507   -1.8538 O   0  0  0  0  0  0  0  0  0  0  0  0
    0.0352    1.4933   -4.4371 C   0  0  0  0  0  0  0  0  0  0  0  0
    2.6354    0.4370   -2.9502 H   0  0  0  0  0  0  0  0  0  0  0  0
    2.1384    1.9746   -4.5178 H   0  0  0  0  0  0  0  0  0  0  0  0
   -0.7778    1.4203   -3.7056 H   0  0  0  0  0  0  0  0  0  0  0  0
   -0.2695    2.2189   -5.1985 H   0  0  0  0  0  0  0  0  0  0  0  0
    0.1371    0.5152   -4.9195 H   0  0  0  0  0  0  0  0  0  0  0  0
    1.2344    4.3136   -3.9530 N   0  0  0  0  0  0  0  0  0  0  0  0
    1.1019    5.6878   -3.5286 C   0  0  0  0  0  0  0  0  0  0  0  0
    1.4060    4.1363   -4.9383 H   0  0  0  0  0  0  0  0  0  0  0  0
    0.0463    5.9910   -3.5904 H   0  0  0  0  0  0  0  0  0  0  0  0
    1.4514    5.7861   -2.4902 H   0  0  0  0  0  0  0  0  0  0  0  0
    1.7075    6.3332   -4.1819 H   0  0  0  0  0  0  0  0  0  0  0  0
 18 19  1  0  0  0  0
 19 31  1  0  0  0  0
 19 20  2  0  0  0  0
  8  9  1  0  0  0  0
  9 17  1  0  0  0  0
  9 10  2  0  0  0  0
  1  3  1  0  0  0  0
  1  7  1  0  0  0  0
  1  2  2  0  0  0  0
 32 33  1  0  0  0  0
 33 41  1  0  0  0  0
 33 34  2  0  0  0  0
 21 22  1  0  0  0  0
 22 23  1  0  0  0  0
 18 21  1  0  0  0  0
 17 23  1  0  0  0  0
 17 18  1  0  0  0  0
  8 11  1  0  0  0  0
 32 35  1  0  0  0  0
 41 42  1  0  0  0  0
  7  8  1  0  0  0  0
 31 32  1  0  0  0  0
 22 27  1  0  0  0  0
 22 28  1  0  0  0  0
 21 25  1  0  0  0  0
 21 26  1  0  0  0  0
 23 29  1  0  0  0  0
 23 30  1  0  0  0  0
 18 24  1  0  0  0  0
  3  4  1  0  0  0  0
  3  5  1  0  0  0  0
  3  6  1  0  0  0  0
 11 14  1  0  0  0  0
 11 15  1  0  0  0  0
 11 16  1  0  0  0  0
 35 38  1  0  0  0  0
 35 39  1  0  0  0  0
 35 40  1  0  0  0  0
 42 44  1  0  0  0  0
 42 45  1  0  0  0  0
 42 46  1  0  0  0  0
  8 13  1  0  0  0  0
 32 37  1  0  0  0  0
 31 36  1  0  0  0  0
 41 43  1  0  0  0  0
  7 12  1  0  0  0  0
M  END
$$$$

  -OEChem-05262214473D

 46 46  0     1  0  0  0  0  0999 V2000
   -0.6012   -3.2995    3.8205 C   0  0  0  0  0  0  0  0  0  0  0  0
   -0.6574   -4.4683    3.4568 O   0  0  0  0  0  0  0  0  0  0  0  0
   -0.4935   -2.9859    5.2760 C   0  0  0  0  0  0  0  0  0  0  0  0
   -1.4789   -2.8689    5.7550 H   0  0  0  0  0  0  0  0  0  0  0  0
    0.0123   -3.7847    5.8419 H   0  0  0  0  0  0  0  0  0  0  0  0
    0.0585   -2.0642    5.5199 H   0  0  0  0  0  0  0  0  0  0  0  0
   -0.6261   -2.1849    2.9917 N   0  0  0  0  0  0  0  0  0  0  0  0
   -0.7237   -2.2601    1.5650 C   0  0  2  0  0  0  0  0  0  0  0  0
    0.1695   -1.1513    1.0687 C   0  0  0  0  0  0  0  0  0  0  0  0
    0.3193   -0.1267    1.7365 O   0  0  0  0  0  0  0  0  0  0  0  0
   -2.1397   -2.0663    1.0750 C   0  0  0  0  0  0  0  0  0  0  0  0
   -0.5717   -1.2606    3.4238 H   0  0  0  0  0  0  0  0  0  0  0  0
   -0.3076   -3.2111    1.2363 H   0  0  0  0  0  0  0  0  0  0  0  0
   -2.5584   -1.1089    1.4061 H   0  0  0  0  0  0  0  0  0  0  0  0
   -2.1682   -2.0790   -0.0197 H   0  0  0  0  0  0  0  0  0  0  0  0
   -2.7965   -2.8601    1.4459 H   0  0  0  0  0  0  0  0  0  0  0  0
    0.7724   -1.3745   -0.1593 N   0  0  0  0  0  0  0  0  0  0  0  0
    1.6644   -0.4046   -0.7812 C   0  0  2  0  0  0  0  0  0  0  0  0
    0.8166    0.4953   -1.6290 C   0  0  0  0  0  0  0  0  0  0  0  0
   -0.2351    0.9349   -1.1791 O   0  0  0  0  0  0  0  0  0  0  0  0
    2.6195   -1.2417   -1.6241 C   0  0  0  0  0  0  0  0  0  0  0  0
    2.1758   -2.2356   -0.5535 C   0  0  0  0  0  0  0  0  0  0  0  0
    0.7499   -2.6270   -0.9105 C   0  0  0  0  0  0  0  0  0  0  0  0
    2.1745    0.2007   -0.0258 H   0  0  0  0  0  0  0  0  0  0  0  0
    3.6296   -0.8175   -1.5784 H   0  0  0  0  0  0  0  0  0  0  0  0
    2.3218   -1.3211   -2.6742 H   0  0  0  0  0  0  0  0  0  0  0  0
    2.8084   -3.1304   -0.5781 H   0  0  0  0  0  0  0  0  0  0  0  0
    2.2249   -1.8085    0.4522 H   0  0  0  0  0  0  0  0  0  0  0  0
    0.5944   -2.7143   -1.9893 H   0  0  0  0  0  0  0  0  0  0  0  0
    0.4645   -3.5695   -0.4308 H   0  0  0  0  0  0  0  0  0  0  0  0
    1.6058    0.6159   -2.9718 N   0  0  0  0  0  0  0  0  0  0  0  0
    1.1607    1.5049   -4.0209 C   0  0  2  0  0  0  0  0  0  0  0  0
    1.3114    2.9354   -3.5205 C   0  0  0  0  0  0  0  0  0  0  0  0
    1.3512    3.2280   -2.3272 O   0  0  0  0  0  0  0  0  0  0  0  0
   -0.2791    1.2164   -4.4168 C   0  0  0  0  0  0  0  0  0  0  0  0
    2.3657   -0.0271   -3.1731 H   0  0  0  0  0  0  0  0  0  0  0  0
    1.8269    1.3442   -4.8755 H   0  0  0  0  0  0  0  0  0  0  0  0
   -0.9614    1.3720   -3.5732 H   0  0  0  0  0  0  0  0  0  0  0  0
   -0.6055    1.8717   -5.2311 H   0  0  0  0  0  0  0  0  0  0  0  0
   -0.3916    0.1785   -4.7482 H   0  0  0  0  0  0  0  0  0  0  0  0
    1.3530    3.8512   -4.5625 N   0  0  0  0  0  0  0  0  0  0  0  0
    1.4794    5.2735   -4.3459 C   0  0  0  0  0  0  0  0  0  0  0  0
    1.3329    3.5178   -5.5218 H   0  0  0  0  0  0  0  0  0  0  0  0
    0.4789    5.7285   -4.3016 H   0  0  0  0  0  0  0  0  0  0  0  0
    2.0066    5.4544   -3.3976 H   0  0  0  0  0  0  0  0  0  0  0  0
    2.0493    5.7211   -5.1735 H   0  0  0  0  0  0  0  0  0  0  0  0
 18 19  1  0  0  0  0
 19 31  1  0  0  0  0
 19 20  2  0  0  0  0
  8  9  1  0  0  0  0
  9 17  1  0  0  0  0
  9 10  2  0  0  0  0
  1  3  1  0  0  0  0
  1  7  1  0  0  0  0
  1  2  2  0  0  0  0
 32 33  1  0  0  0  0
 33 41  1  0  0  0  0
 33 34  2  0  0  0  0
 21 22  1  0  0  0  0
 22 23  1  0  0  0  0
 18 21  1  0  0  0  0
 17 23  1  0  0  0  0
 17 18  1  0  0  0  0
  8 11  1  0  0  0  0
 32 35  1  0  0  0  0
 41 42  1  0  0  0  0
  7  8  1  0  0  0  0
 31 32  1  0  0  0  0
 22 27  1  0  0  0  0
 22 28  1  0  0  0  0
 21 25  1  0  0  0  0
 21 26  1  0  0  0  0
 23 29  1  0  0  0  0
 23 30  1  0  0  0  0
 18 24  1  0  0  0  0
  3  4  1  0  0  0  0
  3  5  1  0  0  0  0
  3  6  1  0  0  0  0
 11 14  1  0  0  0  0
 11 15  1  0  0  0  0
 11 16  1  0  0  0  0
 35 38  1  0  0  0  0
 35 39  1  0  0  0  0
 35 40  1  0  0  0  0
 42 44  1  0  0  0  0
 42 45  1  0  0  0  0
 42 46  1  0  0  0  0
  8 13  1  0  0  0  0
 32 37  1  0  0  0  0
 31 36  1  0  0  0  0
 41 43  1  0  0  0  0
  7 12  1  0  0  0  0
M  END
$$$$

  -OEChem-05262214473D

 46 46  0     1  0  0  0  0  0999 V2000
   -0.6012   -3.2995    3.8205 C   0  0  0  0  0  0  0  0  0  0  0  0
   -0.6574   -4.4683    3.4568 O   0  0  0  0  0  0  0  0  0  0  0  0
   -0.4935   -2.9859    5.2760 C   0  0  0  0  0  0  0  0  0  0  0  0
   -1.4789   -2.8689    5.7550 H   0  0  0  0  0  0  0  0  0  0  0  0
    0.0123   -3.7847    5.8419 H   0  0  0  0  0  0  0  0  0  0  0  0
    0.0585   -2.0642    5.5199 H   0  0  0  0  0  0  0  0  0  0  0  0
   -0.6261   -2.1849    2.9917 N   0  0  0  0  0  0  0  0  0  0  0  0
   -0.7237   -2.2601    1.5650 C   0  0  2  0  0  0  0  0  0  0  0  0
    0.1695   -1.1513    1.0687 C   0  0  0  0  0  0  0  0  0  0  0  0
    0.3193   -0.1267    1.7365 O   0  0  0  0  0  0  0  0  0  0  0  0
   -2.1397   -2.0663    1.0750 C   0  0  0  0  0  0  0  0  0  0  0  0
   -0.5717   -1.2606    3.4238 H   0  0  0  0  0  0  0  0  0  0  0  0
   -0.3076   -3.2111    1.2363 H   0  0  0  0  0  0  0  0  0  0  0  0
   -2.5584   -1.1089    1.4061 H   0  0  0  0  0  0  0  0  0  0  0  0
   -2.1682   -2.0790   -0.0197 H   0  0  0  0  0  0  0  0  0  0  0  0
   -2.7965   -2.8601    1.4459 H   0  0  0  0  0  0  0  0  0  0  0  0
    0.7724   -1.3745   -0.1593 N   0  0  0  0  0  0  0  0  0  0  0  0
    1.6644   -0.4046   -0.7812 C   0  0  2  0  0  0  0  0  0  0  0  0
    0.8166    0.4953   -1.6290 C   0  0  0  0  0  0  0  0  0  0  0  0
   -0.0767    1.1520   -1.1070 O   0  0  0  0  0  0  0  0  0  0  0  0
    2.6195   -1.2417   -1.6241 C   0  0  0  0  0  0  0  0  0  0  0  0
    2.1758   -2.2356   -0.5535 C   0  0  0  0  0  0  0  0  0  0  0  0
    0.7499   -2.6270   -0.9105 C   0  0  0  0  0  0  0  0  0  0  0  0
    2.1745    0.2007   -0.0258 H   0  0  0  0  0  0  0  0  0  0  0  0
    3.6296   -0.8175   -1.5784 H   0  0  0  0  0  0  0  0  0  0  0  0
    2.3218   -1.3211   -2.6742 H   0  0  0  0  0  0  0  0  0  0  0  0
    2.8084   -3.1304   -0.5781 H   0  0  0  0  0  0  0  0  0  0  0  0
    2.2249   -1.8085    0.4522 H   0  0  0  0  0  0  0  0  0  0  0  0
    0.5944   -2.7143   -1.9893 H   0  0  0  0  0  0  0  0  0  0  0  0
    0.4645   -3.5695   -0.4308 H   0  0  0  0  0  0  0  0  0  0  0  0
    1.3805    0.3076   -3.0738 N   0  0  0  0  0  0  0  0  0  0  0  0
    0.8911    1.1061   -4.1746 C   0  0  2  0  0  0  0  0  0  0  0  0
    1.3144    2.5491   -3.9335 C   0  0  0  0  0  0  0  0  0  0  0  0
    1.5910    2.9899   -2.8199 O   0  0  0  0  0  0  0  0  0  0  0  0
   -0.6200    0.9980   -4.3078 C   0  0  0  0  0  0  0  0  0  0  0  0
    2.0026   -0.4685   -3.2786 H   0  0  0  0  0  0  0  0  0  0  0  0
    1.3781    0.7285   -5.0803 H   0  0  0  0  0  0  0  0  0  0  0  0
   -1.1253    1.3717   -3.4097 H   0  0  0  0  0  0  0  0  0  0  0  0
   -0.9859    1.5807   -5.1596 H   0  0  0  0  0  0  0  0  0  0  0  0
   -0.9250   -0.0442   -4.4513 H   0  0  0  0  0  0  0  0  0  0  0  0
    1.3052    3.2979   -5.1021 N   0  0  0  0  0  0  0  0  0  0  0  0
    1.6564    4.6985   -5.1333 C   0  0  0  0  0  0  0  0  0  0  0  0
    1.0811    2.8456   -5.9835 H   0  0  0  0  0  0  0  0  0  0  0  0
    0.7478    5.3075   -5.0174 H   0  0  0  0  0  0  0  0  0  0  0  0
    2.3535    4.9200   -4.3118 H   0  0  0  0  0  0  0  0  0  0  0  0
    2.1358    4.9347   -6.0948 H   0  0  0  0  0  0  0  0  0  0  0  0
 18 19  1  0  0  0  0
 19 31  1  0  0  0  0
 19 20  2  0  0  0  0
  8  9  1  0  0  0  0
  9 17  1  0  0  0  0
  9 10  2  0  0  0  0
  1  3  1  0  0  0  0
  1  7  1  0  0  0  0
  1  2  2  0  0  0  0
 32 33  1  0  0  0  0
 33 41  1  0  0  0  0
 33 34  2  0  0  0  0
 21 22  1  0  0  0  0
 22 23  1  0  0  0  0
 18 21  1  0  0  0  0
 17 23  1  0  0  0  0
 17 18  1  0  0  0  0
  8 11  1  0  0  0  0
 32 35  1  0  0  0  0
 41 42  1  0  0  0  0
  7  8  1  0  0  0  0
 31 32  1  0  0  0  0
 22 27  1  0  0  0  0
 22 28  1  0  0  0  0
 21 25  1  0  0  0  0
 21 26  1  0  0  0  0
 23 29  1  0  0  0  0
 23 30  1  0  0  0  0
 18 24  1  0  0  0  0
  3  4  1  0  0  0  0
  3  5  1  0  0  0  0
  3  6  1  0  0  0  0
 11 14  1  0  0  0  0
 11 15  1  0  0  0  0
 11 16  1  0  0  0  0
 35 38  1  0  0  0  0
 35 39  1  0  0  0  0
 35 40  1  0  0  0  0
 42 44  1  0  0  0  0
 42 45  1  0  0  0  0
 42 46  1  0  0  0  0
  8 13  1  0  0  0  0
 32 37  1  0  0  0  0
 31 36  1  0  0  0  0
 41 43  1  0  0  0  0
  7 12  1  0  0  0  0
M  END
$$$$

  -OEChem-05262214473D

 46 46  0     1  0  0  0  0  0999 V2000
   -0.6012   -3.2995    3.8205 C   0  0  0  0  0  0  0  0  0  0  0  0
   -0.6574   -4.4683    3.4568 O   0  0  0  0  0  0  0  0  0  0  0  0
   -0.4935   -2.9859    5.2760 C   0  0  0  0  0  0  0  0  0  0  0  0
   -1.4789   -2.8689    5.7550 H   0  0  0  0  0  0  0  0  0  0  0  0
    0.0123   -3.7847    5.8419 H   0  0  0  0  0  0  0  0  0  0  0  0
    0.0585   -2.0642    5.5199 H   0  0  0  0  0  0  0  0  0  0  0  0
   -0.6261   -2.1849    2.9917 N   0  0  0  0  0  0  0  0  0  0  0  0
   -0.7237   -2.2601    1.5650 C   0  0  2  0  0  0  0  0  0  0  0  0
    0.1695   -1.1513    1.0687 C   0  0  0  0  0  0  0  0  0  0  0  0
    0.3193   -0.1267    1.7365 O   0  0  0  0  0  0  0  0  0  0  0  0
   -2.1397   -2.0663    1.0750 C   0  0  0  0  0  0  0  0  0  0  0  0
   -0.5717   -1.2606    3.4238 H   0  0  0  0  0  0  0  0  0  0  0  0
   -0.3076   -3.2111    1.2363 H   0  0  0  0  0  0  0  0  0  0  0  0
   -2.5584   -1.1089    1.4061 H   0  0  0  0  0  0  0  0  0  0  0  0
   -2.1682   -2.0790   -0.0197 H   0  0  0  0  0  0  0  0  0  0  0  0
   -2.7965   -2.8601    1.4459 H   0  0  0  0  0  0  0  0  0  0  0  0
    0.7724   -1.3745   -0.1593 N   0  0  0  0  0  0  0  0  0  0  0  0
    1.6644   -0.4046   -0.7812 C   0  0  2  0  0  0  0  0  0  0  0  0
    0.8166    0.4953   -1.6290 C   0  0  0  0  0  0  0  0  0  0  0  0
    0.1194    1.3492   -1.0938 O   0  0  0  0  0  0  0  0  0  0  0  0
    2.6195   -1.2417   -1.6241 C   0  0  0  0  0  0  0  0  0  0  0  0
    2.1758   -2.2356   -0.5535 C   0  0  0  0  0  0  0  0  0  0  0  0
    0.7499   -2.6270   -0.9105 C   0  0  0  0  0  0  0  0  0  0  0  0
    2.1745    0.2007   -0.0258 H   0  0  0  0  0  0  0  0  0  0  0  0
    3.6296   -0.8175   -1.5784 H   0  0  0  0  0  0  0  0  0  0  0  0
    2.3218   -1.3211   -2.6742 H   0  0  0  0  0  0  0  0  0  0  0  0
    2.8084   -3.1304   -0.5781 H   0  0  0  0  0  0  0  0  0  0  0  0
    2.2249   -1.8085    0.4522 H   0  0  0  0  0  0  0  0  0  0  0  0
    0.5944   -2.7143   -1.9893 H   0  0  0  0  0  0  0  0  0  0  0  0
    0.4645   -3.5695   -0.4308 H   0  0  0  0  0  0  0  0  0  0  0  0
    1.1019    0.0279   -3.0921 N   0  0  0  0  0  0  0  0  0  0  0  0
    0.5484    0.7379   -4.2228 C   0  0  2  0  0  0  0  0  0  0  0  0
    1.1965    2.1151   -4.2764 C   0  0  0  0  0  0  0  0  0  0  0  0
    1.7113    2.6527   -3.2981 O   0  0  0  0  0  0  0  0  0  0  0  0
   -0.9643    0.8528   -4.1175 C   0  0  0  0  0  0  0  0  0  0  0  0
    1.5710   -0.8572   -3.2595 H   0  0  0  0  0  0  0  0  0  0  0  0
    0.8227    0.1695   -5.1182 H   0  0  0  0  0  0  0  0  0  0  0  0
   -1.2582    1.4192   -3.2263 H   0  0  0  0  0  0  0  0  0  0  0  0
   -1.3849    1.3658   -4.9887 H   0  0  0  0  0  0  0  0  0  0  0  0
   -1.4266   -0.1379   -4.0491 H   0  0  0  0  0  0  0  0  0  0  0  0
    1.0942    2.6914   -5.5348 N   0  0  0  0  0  0  0  0  0  0  0  0
    1.6208    4.0018   -5.8373 C   0  0  0  0  0  0  0  0  0  0  0  0
    0.6678    2.1656   -6.2920 H   0  0  0  0  0  0  0  0  0  0  0  0
    0.8347    4.7568   -5.6890 H   0  0  0  0  0  0  0  0  0  0  0  0
    2.4682    4.2192   -5.1704 H   0  0  0  0  0  0  0  0  0  0  0  0
    1.9612    4.0276   -6.8830 H   0  0  0  0  0  0  0  0  0  0  0  0
 18 19  1  0  0  0  0
 19 31  1  0  0  0  0
 19 20  2  0  0  0  0
  8  9  1  0  0  0  0
  9 17  1  0  0  0  0
  9 10  2  0  0  0  0
  1  3  1  0  0  0  0
  1  7  1  0  0  0  0
  1  2  2  0  0  0  0
 32 33  1  0  0  0  0
 33 41  1  0  0  0  0
 33 34  2  0  0  0  0
 21 22  1  0  0  0  0
 22 23  1  0  0  0  0
 18 21  1  0  0  0  0
 17 23  1  0  0  0  0
 17 18  1  0  0  0  0
  8 11  1  0  0  0  0
 32 35  1  0  0  0  0
 41 42  1  0  0  0  0
  7  8  1  0  0  0  0
 31 32  1  0  0  0  0
 22 27  1  0  0  0  0
 22 28  1  0  0  0  0
 21 25  1  0  0  0  0
 21 26  1  0  0  0  0
 23 29  1  0  0  0  0
 23 30  1  0  0  0  0
 18 24  1  0  0  0  0
  3  4  1  0  0  0  0
  3  5  1  0  0  0  0
  3  6  1  0  0  0  0
 11 14  1  0  0  0  0
 11 15  1  0  0  0  0
 11 16  1  0  0  0  0
 35 38  1  0  0  0  0
 35 39  1  0  0  0  0
 35 40  1  0  0  0  0
 42 44  1  0  0  0  0
 42 45  1  0  0  0  0
 42 46  1  0  0  0  0
  8 13  1  0  0  0  0
 32 37  1  0  0  0  0
 31 36  1  0  0  0  0
 41 43  1  0  0  0  0
  7 12  1  0  0  0  0
M  END
$$$$

  -OEChem-05262214473D

 46 46  0     1  0  0  0  0  0999 V2000
   -0.6012   -3.2995    3.8205 C   0  0  0  0  0  0  0  0  0  0  0  0
   -0.6574   -4.4683    3.4568 O   0  0  0  0  0  0  0  0  0  0  0  0
   -0.4935   -2.9859    5.2760 C   0  0  0  0  0  0  0  0  0  0  0  0
   -1.4789   -2.8689    5.7550 H   0  0  0  0  0  0  0  0  0  0  0  0
    0.0123   -3.7847    5.8419 H   0  0  0  0  0  0  0  0  0  0  0  0
    0.0585   -2.0642    5.5199 H   0  0  0  0  0  0  0  0  0  0  0  0
   -0.6261   -2.1849    2.9917 N   0  0  0  0  0  0  0  0  0  0  0  0
   -0.7237   -2.2601    1.5650 C   0  0  2  0  0  0  0  0  0  0  0  0
    0.1695   -1.1513    1.0687 C   0  0  0  0  0  0  0  0  0  0  0  0
    0.3193   -0.1267    1.7365 O   0  0  0  0  0  0  0  0  0  0  0  0
   -2.1397   -2.0663    1.0750 C   0  0  0  0  0  0  0  0  0  0  0  0
   -0.5717   -1.2606    3.4238 H   0  0  0  0  0  0  0  0  0  0  0  0
   -0.3076   -3.2111    1.2363 H   0  0  0  0  0  0  0  0  0  0  0  0
   -2.5584   -1.1089    1.4061 H   0  0  0  0  0  0  0  0  0  0  0  0
   -2.1682   -2.0790   -0.0197 H   0  0  0  0  0  0  0  0  0  0  0  0
   -2.7965   -2.8601    1.4459 H   0  0  0  0  0  0  0  0  0  0  0  0
    0.7724   -1.3745   -0.1593 N   0  0  0  0  0  0  0  0  0  0  0  0
    1.6644   -0.4046   -0.7812 C   0  0  2  0  0  0  0  0  0  0  0  0
    0.8166    0.4953   -1.6290 C   0  0  0  0  0  0  0  0  0  0  0  0
    0.3396    1.5128   -1.1403 O   0  0  0  0  0  0  0  0  0  0  0  0
    2.6195   -1.2417   -1.6241 C   0  0  0  0  0  0  0  0  0  0  0  0
    2.1758   -2.2356   -0.5535 C   0  0  0  0  0  0  0  0  0  0  0  0
    0.7499   -2.6270   -0.9105 C   0  0  0  0  0  0  0  0  0  0  0  0
    2.1745    0.2007   -0.0258 H   0  0  0  0  0  0  0  0  0  0  0  0
    3.6296   -0.8175   -1.5784 H   0  0  0  0  0  0  0  0  0  0  0  0
    2.3218   -1.3211   -2.6742 H   0  0  0  0  0  0  0  0  0  0  0  0
    2.8084   -3.1304   -0.5781 H   0  0  0  0  0  0  0  0  0  0  0  0
    2.2249   -1.8085    0.4522 H   0  0  0  0  0  0  0  0  0  0  0  0
    0.5944   -2.7143   -1.9893 H   0  0  0  0  0  0  0  0  0  0  0  0
    0.4645   -3.5695   -0.4308 H   0  0  0  0  0  0  0  0  0  0  0  0
    0.7890   -0.2042   -3.0256 N   0  0  0  0  0  0  0  0  0  0  0  0
    0.1561    0.4253   -4.1623 C   0  0  2  0  0  0  0  0  0  0  0  0
    0.9659    1.6629   -4.5258 C   0  0  0  0  0  0  0  0  0  0  0  0
    1.7039    2.2393   -3.7294 O   0  0  0  0  0  0  0  0  0  0  0  0
   -1.2886    0.7908   -3.8590 C   0  0  0  0  0  0  0  0  0  0  0  0
    1.1000   -1.1667   -3.1171 H   0  0  0  0  0  0  0  0  0  0  0  0
    0.1984   -0.2947   -4.9868 H   0  0  0  0  0  0  0  0  0  0  0  0
   -1.3512    1.5114   -3.0354 H   0  0  0  0  0  0  0  0  0  0  0  0
   -1.7751    1.2416   -4.7303 H   0  0  0  0  0  0  0  0  0  0  0  0
   -1.8623   -0.0960   -3.5689 H   0  0  0  0  0  0  0  0  0  0  0  0
    0.7344    2.0732   -5.8312 N   0  0  0  0  0  0  0  0  0  0  0  0
    1.3752    3.2311   -6.4098 C   0  0  0  0  0  0  0  0  0  0  0  0
    0.1210    1.5242   -6.4263 H   0  0  0  0  0  0  0  0  0  0  0  0
    0.7336    4.1137   -6.2705 H   0  0  0  0  0  0  0  0  0  0  0  0
    2.3431    3.3998   -5.9151 H   0  0  0  0  0  0  0  0  0  0  0  0
    1.5372    3.0616   -7.4845 H   0  0  0  0  0  0  0  0  0  0  0  0
 18 19  1  0  0  0  0
 19 31  1  0  0  0  0
 19 20  2  0  0  0  0
  8  9  1  0  0  0  0
  9 17  1  0  0  0  0
  9 10  2  0  0  0  0
  1  3  1  0  0  0  0
  1  7  1  0  0  0  0
  1  2  2  0  0  0  0
 32 33  1  0  0  0  0
 33 41  1  0  0  0  0
 33 34  2  0  0  0  0
 21 22  1  0  0  0  0
 22 23  1  0  0  0  0
 18 21  1  0  0  0  0
 17 23  1  0  0  0  0
 17 18  1  0  0  0  0
  8 11  1  0  0  0  0
 32 35  1  0  0  0  0
 41 42  1  0  0  0  0
  7  8  1  0  0  0  0
 31 32  1  0  0  0  0
 22 27  1  0  0  0  0
 22 28  1  0  0  0  0
 21 25  1  0  0  0  0
 21 26  1  0  0  0  0
 23 29  1  0  0  0  0
 23 30  1  0  0  0  0
 18 24  1  0  0  0  0
  3  4  1  0  0  0  0
  3  5  1  0  0  0  0
  3  6  1  0  0  0  0
 11 14  1  0  0  0  0
 11 15  1  0  0  0  0
 11 16  1  0  0  0  0
 35 38  1  0  0  0  0
 35 39  1  0  0  0  0
 35 40  1  0  0  0  0
 42 44  1  0  0  0  0
 42 45  1  0  0  0  0
 42 46  1  0  0  0  0
  8 13  1  0  0  0  0
 32 37  1  0  0  0  0
 31 36  1  0  0  0  0
 41 43  1  0  0  0  0
  7 12  1  0  0  0  0
M  END
$$$$

  -OEChem-05262214473D

 46 46  0     1  0  0  0  0  0999 V2000
   -0.6012   -3.2995    3.8205 C   0  0  0  0  0  0  0  0  0  0  0  0
   -0.6574   -4.4683    3.4568 O   0  0  0  0  0  0  0  0  0  0  0  0
   -0.4935   -2.9859    5.2760 C   0  0  0  0  0  0  0  0  0  0  0  0
   -1.4789   -2.8689    5.7550 H   0  0  0  0  0  0  0  0  0  0  0  0
    0.0123   -3.7847    5.8419 H   0  0  0  0  0  0  0  0  0  0  0  0
    0.0585   -2.0642    5.5199 H   0  0  0  0  0  0  0  0  0  0  0  0
   -0.6261   -2.1849    2.9917 N   0  0  0  0  0  0  0  0  0  0  0  0
   -0.7237   -2.2601    1.5650 C   0  0  2  0  0  0  0  0  0  0  0  0
    0.1695   -1.1513    1.0687 C   0  0  0  0  0  0  0  0  0  0  0  0
    0.3193   -0.1267    1.7365 O   0  0  0  0  0  0  0  0  0  0  0  0
   -2.1397   -2.0663    1.0750 C   0  0  0  0  0  0  0  0  0  0  0  0
   -0.5717   -1.2606    3.4238 H   0  0  0  0  0  0  0  0  0  0  0  0
   -0.3076   -3.2111    1.2363 H   0  0  0  0  0  0  0  0  0  0  0  0
   -2.5584   -1.1089    1.4061 H   0  0  0  0  0  0  0  0  0  0  0  0
   -2.1682   -2.0790   -0.0197 H   0  0  0  0  0  0  0  0  0  0  0  0
   -2.7965   -2.8601    1.4459 H   0  0  0  0  0  0  0  0  0  0  0  0
    0.7724   -1.3745   -0.1593 N   0  0  0  0  0  0  0  0  0  0  0  0
    1.6644   -0.4046   -0.7812 C   0  0  2  0  0  0  0  0  0  0  0  0
    0.8166    0.4953   -1.6290 C   0  0  0  0  0  0  0  0  0  0  0  0
    0.5691    1.6318   -1.2434 O   0  0  0  0  0  0  0  0  0  0  0  0
    2.6195   -1.2417   -1.6241 C   0  0  0  0  0  0  0  0  0  0  0  0
    2.1758   -2.2356   -0.5535 C   0  0  0  0  0  0  0  0  0  0  0  0
    0.7499   -2.6270   -0.9105 C   0  0  0  0  0  0  0  0  0  0  0  0
    2.1745    0.2007   -0.0258 H   0  0  0  0  0  0  0  0  0  0  0  0
    3.6296   -0.8175   -1.5784 H   0  0  0  0  0  0  0  0  0  0  0  0
    2.3218   -1.3211   -2.6742 H   0  0  0  0  0  0  0  0  0  0  0  0
    2.8084   -3.1304   -0.5781 H   0  0  0  0  0  0  0  0  0  0  0  0
    2.2249   -1.8085    0.4522 H   0  0  0  0  0  0  0  0  0  0  0  0
    0.5944   -2.7143   -1.9893 H   0  0  0  0  0  0  0  0  0  0  0  0
    0.4645   -3.5695   -0.4308 H   0  0  0  0  0  0  0  0  0  0  0  0
    0.4631   -0.3729   -2.8788 N   0  0  0  0  0  0  0  0  0  0  0  0
   -0.2593    0.1897   -3.9971 C   0  0  2  0  0  0  0  0  0  0  0  0
    0.6382    1.2234   -4.6646 C   0  0  0  0  0  0  0  0  0  0  0  0
    1.5692    1.7781   -4.0844 O   0  0  0  0  0  0  0  0  0  0  0  0
   -1.5708    0.8163   -3.5499 C   0  0  0  0  0  0  0  0  0  0  0  0
    0.6220   -1.3758   -2.8611 H   0  0  0  0  0  0  0  0  0  0  0  0
   -0.4520   -0.6325   -4.6949 H   0  0  0  0  0  0  0  0  0  0  0  0
   -1.3978    1.6421   -2.8501 H   0  0  0  0  0  0  0  0  0  0  0  0
   -2.1301    1.2166   -4.4018 H   0  0  0  0  0  0  0  0  0  0  0  0
   -2.2025    0.0785   -3.0435 H   0  0  0  0  0  0  0  0  0  0  0  0
    0.2503    1.4854   -5.9711 N   0  0  0  0  0  0  0  0  0  0  0  0
    0.9361    2.4388   -6.8117 C   0  0  0  0  0  0  0  0  0  0  0  0
   -0.5218    0.9649   -6.3771 H   0  0  0  0  0  0  0  0  0  0  0  0
    0.4516    3.4223   -6.7224 H   0  0  0  0  0  0  0  0  0  0  0  0
    1.9866    2.5176   -6.4950 H   0  0  0  0  0  0  0  0  0  0  0  0
    0.8929    2.1026   -7.8582 H   0  0  0  0  0  0  0  0  0  0  0  0
 18 19  1  0  0  0  0
 19 31  1  0  0  0  0
 19 20  2  0  0  0  0
  8  9  1  0  0  0  0
  9 17  1  0  0  0  0
  9 10  2  0  0  0  0
  1  3  1  0  0  0  0
  1  7  1  0  0  0  0
  1  2  2  0  0  0  0
 32 33  1  0  0  0  0
 33 41  1  0  0  0  0
 33 34  2  0  0  0  0
 21 22  1  0  0  0  0
 22 23  1  0  0  0  0
 18 21  1  0  0  0  0
 17 23  1  0  0  0  0
 17 18  1  0  0  0  0
  8 11  1  0  0  0  0
 32 35  1  0  0  0  0
 41 42  1  0  0  0  0
  7  8  1  0  0  0  0
 31 32  1  0  0  0  0
 22 27  1  0  0  0  0
 22 28  1  0  0  0  0
 21 25  1  0  0  0  0
 21 26  1  0  0  0  0
 23 29  1  0  0  0  0
 23 30  1  0  0  0  0
 18 24  1  0  0  0  0
  3  4  1  0  0  0  0
  3  5  1  0  0  0  0
  3  6  1  0  0  0  0
 11 14  1  0  0  0  0
 11 15  1  0  0  0  0
 11 16  1  0  0  0  0
 35 38  1  0  0  0  0
 35 39  1  0  0  0  0
 35 40  1  0  0  0  0
 42 44  1  0  0  0  0
 42 45  1  0  0  0  0
 42 46  1  0  0  0  0
  8 13  1  0  0  0  0
 32 37  1  0  0  0  0
 31 36  1  0  0  0  0
 41 43  1  0  0  0  0
  7 12  1  0  0  0  0
M  END
$$$$

  -OEChem-05262214473D

 46 46  0     1  0  0  0  0  0999 V2000
   -0.6012   -3.2995    3.8205 C   0  0  0  0  0  0  0  0  0  0  0  0
   -0.6574   -4.4683    3.4568 O   0  0  0  0  0  0  0  0  0  0  0  0
   -0.4935   -2.9859    5.2760 C   0  0  0  0  0  0  0  0  0  0  0  0
   -1.4789   -2.8689    5.7550 H   0  0  0  0  0  0  0  0  0  0  0  0
    0.0123   -3.7847    5.8419 H   0  0  0  0  0  0  0  0  0  0  0  0
    0.0585   -2.0642    5.5199 H   0  0  0  0  0  0  0  0  0  0  0  0
   -0.6261   -2.1849    2.9917 N   0  0  0  0  0  0  0  0  0  0  0  0
   -0.7237   -2.2601    1.5650 C   0  0  2  0  0  0  0  0  0  0  0  0
    0.1695   -1.1513    1.0687 C   0  0  0  0  0  0  0  0  0  0  0  0
    0.3193   -0.1267    1.7365 O   0  0  0  0  0  0  0  0  0  0  0  0
   -2.1397   -2.0663    1.0750 C   0  0  0  0  0  0  0  0  0  0  0  0
   -0.5717   -1.2606    3.4238 H   0  0  0  0  0  0  0  0  0  0  0  0
   -0.3076   -3.2111    1.2363 H   0  0  0  0  0  0  0  0  0  0  0  0
   -2.5584   -1.1089    1.4061 H   0  0  0  0  0  0  0  0  0  0  0  0
   -2.1682   -2.0790   -0.0197 H   0  0  0  0  0  0  0  0  0  0  0  0
   -2.7965   -2.8601    1.4459 H   0  0  0  0  0  0  0  0  0  0  0  0
    0.7724   -1.3745   -0.1593 N   0  0  0  0  0  0  0  0  0  0  0  0
    1.6644   -0.4046   -0.7812 C   0  0  2  0  0  0  0  0  0  0  0  0
    0.8166    0.4953   -1.6290 C   0  0  0  0  0  0  0  0  0  0  0  0
    0.7922    1.6981   -1.3961 O   0  0  0  0  0  0  0  0  0  0  0  0
    2.6195   -1.2417   -1.6241 C   0  0  0  0  0  0  0  0  0  0  0  0
    2.1758   -2.2356   -0.5535 C   0  0  0  0  0  0  0  0  0  0  0  0
    0.7499   -2.6270   -0.9105 C   0  0  0  0  0  0  0  0  0  0  0  0
    2.1745    0.2007   -0.0258 H   0  0  0  0  0  0  0  0  0  0  0  0
    3.6296   -0.8175   -1.5784 H   0  0  0  0  0  0  0  0  0  0  0  0
    2.3218   -1.3211   -2.6742 H   0  0  0  0  0  0  0  0  0  0  0  0
    2.8084   -3.1304   -0.5781 H   0  0  0  0  0  0  0  0  0  0  0  0
    2.2249   -1.8085    0.4522 H   0  0  0  0  0  0  0  0  0  0  0  0
    0.5944   -2.7143   -1.9893 H   0  0  0  0  0  0  0  0  0  0  0  0
    0.4645   -3.5695   -0.4308 H   0  0  0  0  0  0  0  0  0  0  0  0
    0.1465   -0.4666   -2.6616 N   0  0  0  0  0  0  0  0  0  0  0  0
   -0.6693    0.0470   -3.7385 C   0  0  2  0  0  0  0  0  0  0  0  0
    0.2357    0.8265   -4.6835 C   0  0  0  0  0  0  0  0  0  0  0  0
    1.3164    1.3003   -4.3388 O   0  0  0  0  0  0  0  0  0  0  0  0
   -1.7916    0.9274   -3.2111 C   0  0  0  0  0  0  0  0  0  0  0  0
    0.1695   -1.4704   -2.5089 H   0  0  0  0  0  0  0  0  0  0  0  0
   -1.0844   -0.8208   -4.2624 H   0  0  0  0  0  0  0  0  0  0  0  0
   -1.3949    1.8022   -2.6830 H   0  0  0  0  0  0  0  0  0  0  0  0
   -2.4256    1.2925   -4.0258 H   0  0  0  0  0  0  0  0  0  0  0  0
   -2.4239    0.3737   -2.5087 H   0  0  0  0  0  0  0  0  0  0  0  0
   -0.3251    0.9679   -5.9451 N   0  0  0  0  0  0  0  0  0  0  0  0
    0.3336    1.6789   -7.0158 C   0  0  0  0  0  0  0  0  0  0  0  0
   -1.2169    0.5260   -6.1478 H   0  0  0  0  0  0  0  0  0  0  0  0
    0.0077    2.7296   -7.0139 H   0  0  0  0  0  0  0  0  0  0  0  0
    1.4230    1.6328   -6.8707 H   0  0  0  0  0  0  0  0  0  0  0  0
    0.0720    1.2158   -7.9787 H   0  0  0  0  0  0  0  0  0  0  0  0
 18 19  1  0  0  0  0
 19 31  1  0  0  0  0
 19 20  2  0  0  0  0
  8  9  1  0  0  0  0
  9 17  1  0  0  0  0
  9 10  2  0  0  0  0
  1  3  1  0  0  0  0
  1  7  1  0  0  0  0
  1  2  2  0  0  0  0
 32 33  1  0  0  0  0
 33 41  1  0  0  0  0
 33 34  2  0  0  0  0
 21 22  1  0  0  0  0
 22 23  1  0  0  0  0
 18 21  1  0  0  0  0
 17 23  1  0  0  0  0
 17 18  1  0  0  0  0
  8 11  1  0  0  0  0
 32 35  1  0  0  0  0
 41 42  1  0  0  0  0
  7  8  1  0  0  0  0
 31 32  1  0  0  0  0
 22 27  1  0  0  0  0
 22 28  1  0  0  0  0
 21 25  1  0  0  0  0
 21 26  1  0  0  0  0
 23 29  1  0  0  0  0
 23 30  1  0  0  0  0
 18 24  1  0  0  0  0
  3  4  1  0  0  0  0
  3  5  1  0  0  0  0
  3  6  1  0  0  0  0
 11 14  1  0  0  0  0
 11 15  1  0  0  0  0
 11 16  1  0  0  0  0
 35 38  1  0  0  0  0
 35 39  1  0  0  0  0
 35 40  1  0  0  0  0
 42 44  1  0  0  0  0
 42 45  1  0  0  0  0
 42 46  1  0  0  0  0
  8 13  1  0  0  0  0
 32 37  1  0  0  0  0
 31 36  1  0  0  0  0
 41 43  1  0  0  0  0
  7 12  1  0  0  0  0
M  END
$$$$

  -OEChem-05262214473D

 46 46  0     1  0  0  0  0  0999 V2000
   -0.6012   -3.2995    3.8205 C   0  0  0  0  0  0  0  0  0  0  0  0
   -0.6574   -4.4683    3.4568 O   0  0  0  0  0  0  0  0  0  0  0  0
   -0.4935   -2.9859    5.2760 C   0  0  0  0  0  0  0  0  0  0  0  0
   -1.4789   -2.8689    5.7550 H   0  0  0  0  0  0  0  0  0  0  0  0
    0.0123   -3.7847    5.8419 H   0  0  0  0  0  0  0  0  0  0  0  0
    0.0585   -2.0642    5.5199 H   0  0  0  0  0  0  0  0  0  0  0  0
   -0.6261   -2.1849    2.9917 N   0  0  0  0  0  0  0  0  0  0  0  0
   -0.7237   -2.2601    1.5650 C   0  0  2  0  0  0  0  0  0  0  0  0
    0.1695   -1.1513    1.0687 C   0  0  0  0  0  0  0  0  0  0  0  0
    0.3193   -0.1267    1.7365 O   0  0  0  0  0  0  0  0  0  0  0  0
   -2.1397   -2.0663    1.0750 C   0  0  0  0  0  0  0  0  0  0  0  0
   -0.5717   -1.2606    3.4238 H   0  0  0  0  0  0  0  0  0  0  0  0
   -0.3076   -3.2111    1.2363 H   0  0  0  0  0  0  0  0  0  0  0  0
   -2.5584   -1.1089    1.4061 H   0  0  0  0  0  0  0  0  0  0  0  0
   -2.1682   -2.0790   -0.0197 H   0  0  0  0  0  0  0  0  0  0  0  0
   -2.7965   -2.8601    1.4459 H   0  0  0  0  0  0  0  0  0  0  0  0
    0.7724   -1.3745   -0.1593 N   0  0  0  0  0  0  0  0  0  0  0  0
    1.6644   -0.4046   -0.7812 C   0  0  2  0  0  0  0  0  0  0  0  0
    0.8166    0.4953   -1.6290 C   0  0  0  0  0  0  0  0  0  0  0  0
    0.9936    1.7072   -1.5879 O   0  0  0  0  0  0  0  0  0  0  0  0
    2.6195   -1.2417   -1.6241 C   0  0  0  0  0  0  0  0  0  0  0  0
    2.1758   -2.2356   -0.5535 C   0  0  0  0  0  0  0  0  0  0  0  0
    0.7499   -2.6270   -0.9105 C   0  0  0  0  0  0  0  0  0  0  0  0
    2.1745    0.2007   -0.0258 H   0  0  0  0  0  0  0  0  0  0  0  0
    3.6296   -0.8175   -1.5784 H   0  0  0  0  0  0  0  0  0  0  0  0
    2.3218   -1.3211   -2.6742 H   0  0  0  0  0  0  0  0  0  0  0  0
    2.8084   -3.1304   -0.5781 H   0  0  0  0  0  0  0  0  0  0  0  0
    2.2249   -1.8085    0.4522 H   0  0  0  0  0  0  0  0  0  0  0  0
    0.5944   -2.7143   -1.9893 H   0  0  0  0  0  0  0  0  0  0  0  0
    0.4645   -3.5695   -0.4308 H   0  0  0  0  0  0  0  0  0  0  0  0
   -0.1393   -0.4790   -2.3890 N   0  0  0  0  0  0  0  0  0  0  0  0
   -1.0460    0.0071   -3.4042 C   0  0  2  0  0  0  0  0  0  0  0  0
   -0.2140    0.4993   -4.5811 C   0  0  0  0  0  0  0  0  0  0  0  0
    0.9628    0.8385   -4.4753 O   0  0  0  0  0  0  0  0  0  0  0  0
   -1.9359    1.1166   -2.8659 C   0  0  0  0  0  0  0  0  0  0  0  0
   -0.2268   -1.4439   -2.0846 H   0  0  0  0  0  0  0  0  0  0  0  0
   -1.6556   -0.8469   -3.7189 H   0  0  0  0  0  0  0  0  0  0  0  0
   -1.3428    1.9809   -2.5455 H   0  0  0  0  0  0  0  0  0  0  0  0
   -2.6415    1.4641   -3.6277 H   0  0  0  0  0  0  0  0  0  0  0  0
   -2.5115    0.7695   -2.0010 H   0  0  0  0  0  0  0  0  0  0  0  0
   -0.9526    0.5561   -5.7547 N   0  0  0  0  0  0  0  0  0  0  0  0
   -0.3913    1.0033   -7.0081 C   0  0  0  0  0  0  0  0  0  0  0  0
   -1.9170    0.2374   -5.7542 H   0  0  0  0  0  0  0  0  0  0  0  0
   -0.5677    2.0827   -7.1251 H   0  0  0  0  0  0  0  0  0  0  0  0
    0.6907    0.8057   -7.0165 H   0  0  0  0  0  0  0  0  0  0  0  0
   -0.8694    0.4617   -7.8377 H   0  0  0  0  0  0  0  0  0  0  0  0
 18 19  1  0  0  0  0
 19 31  1  0  0  0  0
 19 20  2  0  0  0  0
  8  9  1  0  0  0  0
  9 17  1  0  0  0  0
  9 10  2  0  0  0  0
  1  3  1  0  0  0  0
  1  7  1  0  0  0  0
  1  2  2  0  0  0  0
 32 33  1  0  0  0  0
 33 41  1  0  0  0  0
 33 34  2  0  0  0  0
 21 22  1  0  0  0  0
 22 23  1  0  0  0  0
 18 21  1  0  0  0  0
 17 23  1  0  0  0  0
 17 18  1  0  0  0  0
  8 11  1  0  0  0  0
 32 35  1  0  0  0  0
 41 42  1  0  0  0  0
  7  8  1  0  0  0  0
 31 32  1  0  0  0  0
 22 27  1  0  0  0  0
 22 28  1  0  0  0  0
 21 25  1  0  0  0  0
 21 26  1  0  0  0  0
 23 29  1  0  0  0  0
 23 30  1  0  0  0  0
 18 24  1  0  0  0  0
  3  4  1  0  0  0  0
  3  5  1  0  0  0  0
  3  6  1  0  0  0  0
 11 14  1  0  0  0  0
 11 15  1  0  0  0  0
 11 16  1  0  0  0  0
 35 38  1  0  0  0  0
 35 39  1  0  0  0  0
 35 40  1  0  0  0  0
 42 44  1  0  0  0  0
 42 45  1  0  0  0  0
 42 46  1  0  0  0  0
  8 13  1  0  0  0  0
 32 37  1  0  0  0  0
 31 36  1  0  0  0  0
 41 43  1  0  0  0  0
  7 12  1  0  0  0  0
M  END
$$$$

  -OEChem-05262214473D

 46 46  0     1  0  0  0  0  0999 V2000
   -0.6012   -3.2995    3.8205 C   0  0  0  0  0  0  0  0  0  0  0  0
   -0.6574   -4.4683    3.4568 O   0  0  0  0  0  0  0  0  0  0  0  0
   -0.4935   -2.9859    5.2760 C   0  0  0  0  0  0  0  0  0  0  0  0
   -1.4789   -2.8689    5.7550 H   0  0  0  0  0  0  0  0  0  0  0  0
    0.0123   -3.7847    5.8419 H   0  0  0  0  0  0  0  0  0  0  0  0
    0.0585   -2.0642    5.5199 H   0  0  0  0  0  0  0  0  0  0  0  0
   -0.6261   -2.1849    2.9917 N   0  0  0  0  0  0  0  0  0  0  0  0
   -0.7237   -2.2601    1.5650 C   0  0  2  0  0  0  0  0  0  0  0  0
    0.1695   -1.1513    1.0687 C   0  0  0  0  0  0  0  0  0  0  0  0
    0.3193   -0.1267    1.7365 O   0  0  0  0  0  0  0  0  0  0  0  0
   -2.1397   -2.0663    1.0750 C   0  0  0  0  0  0  0  0  0  0  0  0
   -0.5717   -1.2606    3.4238 H   0  0  0  0  0  0  0  0  0  0  0  0
   -0.3076   -3.2111    1.2363 H   0  0  0  0  0  0  0  0  0  0  0  0
   -2.5584   -1.1089    1.4061 H   0  0  0  0  0  0  0  0  0  0  0  0
   -2.1682   -2.0790   -0.0197 H   0  0  0  0  0  0  0  0  0  0  0  0
   -2.7965   -2.8601    1.4459 H   0  0  0  0  0  0  0  0  0  0  0  0
    0.7724   -1.3745   -0.1593 N   0  0  0  0  0  0  0  0  0  0  0  0
    1.6644   -0.4046   -0.7812 C   0  0  2  0  0  0  0  0  0  0  0  0
    0.8166    0.4953   -1.6290 C   0  0  0  0  0  0  0  0  0  0  0  0
    1.1597    1.6584   -1.8059 O   0  0  0  0  0  0  0  0  0  0  0  0
    2.6195   -1.2417   -1.6241 C   0  0  0  0  0  0  0  0  0  0  0  0
    2.1758   -2.2356   -0.5535 C   0  0  0  0  0  0  0  0  0  0  0  0
    0.7499   -2.6270   -0.9105 C   0  0  0  0  0  0  0  0  0  0  0  0
    2.1745    0.2007   -0.0258 H   0  0  0  0  0  0  0  0  0  0  0  0
    3.6296   -0.8175   -1.5784 H   0  0  0  0  0  0  0  0  0  0  0  0
    2.3218   -1.3211   -2.6742 H   0  0  0  0  0  0  0  0  0  0  0  0
    2.8084   -3.1304   -0.5781 H   0  0  0  0  0  0  0  0  0  0  0  0
    2.2249   -1.8085    0.4522 H   0  0  0  0  0  0  0  0  0  0  0  0
    0.5944   -2.7143   -1.9893 H   0  0  0  0  0  0  0  0  0  0  0  0
    0.4645   -3.5695   -0.4308 H   0  0  0  0  0  0  0  0  0  0  0  0
   -0.3749   -0.4093   -2.0794 N   0  0  0  0  0  0  0  0  0  0  0  0
   -1.3638    0.0726   -3.0168 C   0  0  2  0  0  0  0  0  0  0  0  0
   -0.6804    0.2640   -4.3644 C   0  0  0  0  0  0  0  0  0  0  0  0
    0.5324    0.4242   -4.4847 O   0  0  0  0  0  0  0  0  0  0  0  0
   -1.9940    1.3710   -2.5377 C   0  0  0  0  0  0  0  0  0  0  0  0
   -0.5398   -1.2983   -1.6170 H   0  0  0  0  0  0  0  0  0  0  0  0
   -2.1267   -0.7089   -3.1013 H   0  0  0  0  0  0  0  0  0  0  0  0
   -1.2448    2.1660   -2.4469 H   0  0  0  0  0  0  0  0  0  0  0  0
   -2.7631    1.7197   -3.2348 H   0  0  0  0  0  0  0  0  0  0  0  0
   -2.4592    1.2390   -1.5548 H   0  0  0  0  0  0  0  0  0  0  0  0
   -1.5893    0.2781   -5.4131 N   0  0  0  0  0  0  0  0  0  0  0  0
   -1.1892    0.4579   -6.7892 C   0  0  0  0  0  0  0  0  0  0  0  0
   -2.5743    0.1186   -5.2229 H   0  0  0  0  0  0  0  0  0  0  0  0
   -1.2355    1.5259   -7.0485 H   0  0  0  0  0  0  0  0  0  0  0  0
   -0.1603    0.0926   -6.9225 H   0  0  0  0  0  0  0  0  0  0  0  0
   -1.8671   -0.1082   -7.4450 H   0  0  0  0  0  0  0  0  0  0  0  0
 18 19  1  0  0  0  0
 19 31  1  0  0  0  0
 19 20  2  0  0  0  0
  8  9  1  0  0  0  0
  9 17  1  0  0  0  0
  9 10  2  0  0  0  0
  1  3  1  0  0  0  0
  1  7  1  0  0  0  0
  1  2  2  0  0  0  0
 32 33  1  0  0  0  0
 33 41  1  0  0  0  0
 33 34  2  0  0  0  0
 21 22  1  0  0  0  0
 22 23  1  0  0  0  0
 18 21  1  0  0  0  0
 17 23  1  0  0  0  0
 17 18  1  0  0  0  0
  8 11  1  0  0  0  0
 32 35  1  0  0  0  0
 41 42  1  0  0  0  0
  7  8  1  0  0  0  0
 31 32  1  0  0  0  0
 22 27  1  0  0  0  0
 22 28  1  0  0  0  0
 21 25  1  0  0  0  0
 21 26  1  0  0  0  0
 23 29  1  0  0  0  0
 23 30  1  0  0  0  0
 18 24  1  0  0  0  0
  3  4  1  0  0  0  0
  3  5  1  0  0  0  0
  3  6  1  0  0  0  0
 11 14  1  0  0  0  0
 11 15  1  0  0  0  0
 11 16  1  0  0  0  0
 35 38  1  0  0  0  0
 35 39  1  0  0  0  0
 35 40  1  0  0  0  0
 42 44  1  0  0  0  0
 42 45  1  0  0  0  0
 42 46  1  0  0  0  0
  8 13  1  0  0  0  0
 32 37  1  0  0  0  0
 31 36  1  0  0  0  0
 41 43  1  0  0  0  0
  7 12  1  0  0  0  0
M  END
$$$$

  -OEChem-05262214473D

 46 46  0     1  0  0  0  0  0999 V2000
   -0.6012   -3.2995    3.8205 C   0  0  0  0  0  0  0  0  0  0  0  0
   -0.6574   -4.4683    3.4568 O   0  0  0  0  0  0  0  0  0  0  0  0
   -0.4935   -2.9859    5.2760 C   0  0  0  0  0  0  0  0  0  0  0  0
   -1.4789   -2.8689    5.7550 H   0  0  0  0  0  0  0  0  0  0  0  0
    0.0123   -3.7847    5.8419 H   0  0  0  0  0  0  0  0  0  0  0  0
    0.0585   -2.0642    5.5199 H   0  0  0  0  0  0  0  0  0  0  0  0
   -0.6261   -2.1849    2.9917 N   0  0  0  0  0  0  0  0  0  0  0  0
   -0.7237   -2.2601    1.5650 C   0  0  2  0  0  0  0  0  0  0  0  0
    0.1695   -1.1513    1.0687 C   0  0  0  0  0  0  0  0  0  0  0  0
    0.3193   -0.1267    1.7365 O   0  0  0  0  0  0  0  0  0  0  0  0
   -2.1397   -2.0663    1.0750 C   0  0  0  0  0  0  0  0  0  0  0  0
   -0.5717   -1.2606    3.4238 H   0  0  0  0  0  0  0  0  0  0  0  0
   -0.3076   -3.2111    1.2363 H   0  0  0  0  0  0  0  0  0  0  0  0
   -2.5584   -1.1089    1.4061 H   0  0  0  0  0  0  0  0  0  0  0  0
   -2.1682   -2.0790   -0.0197 H   0  0  0  0  0  0  0  0  0  0  0  0
   -2.7965   -2.8601    1.4459 H   0  0  0  0  0  0  0  0  0  0  0  0
    0.7724   -1.3745   -0.1593 N   0  0  0  0  0  0  0  0  0  0  0  0
    1.6644   -0.4046   -0.7812 C   0  0  2  0  0  0  0  0  0  0  0  0
    0.8166    0.4953   -1.6290 C   0  0  0  0  0  0  0  0  0  0  0  0
    1.2791    1.5550   -2.0350 O   0  0  0  0  0  0  0  0  0  0  0  0
    2.6195   -1.2417   -1.6241 C   0  0  0  0  0  0  0  0  0  0  0  0
    2.1758   -2.2356   -0.5535 C   0  0  0  0  0  0  0  0  0  0  0  0
    0.7499   -2.6270   -0.9105 C   0  0  0  0  0  0  0  0  0  0  0  0
    2.1745    0.2007   -0.0258 H   0  0  0  0  0  0  0  0  0  0  0  0
    3.6296   -0.8175   -1.5784 H   0  0  0  0  0  0  0  0  0  0  0  0
    2.3218   -1.3211   -2.6742 H   0  0  0  0  0  0  0  0  0  0  0  0
    2.8084   -3.1304   -0.5781 H   0  0  0  0  0  0  0  0  0  0  0  0
    2.2249   -1.8085    0.4522 H   0  0  0  0  0  0  0  0  0  0  0  0
    0.5944   -2.7143   -1.9893 H   0  0  0  0  0  0  0  0  0  0  0  0
    0.4645   -3.5695   -0.4308 H   0  0  0  0  0  0  0  0  0  0  0  0
   -0.5441   -0.2621   -1.7539 N   0  0  0  0  0  0  0  0  0  0  0  0
   -1.6010    0.2391   -2.6029 C   0  0  2  0  0  0  0  0  0  0  0  0
   -1.1317    0.1368   -4.0482 C   0  0  0  0  0  0  0  0  0  0  0  0
    0.0546    0.0857   -4.3662 O   0  0  0  0  0  0  0  0  0  0  0  0
   -1.9619    1.6734   -2.2489 C   0  0  0  0  0  0  0  0  0  0  0  0
   -0.7481   -1.0434   -1.1380 H   0  0  0  0  0  0  0  0  0  0  0  0
   -2.4656   -0.4163   -2.4518 H   0  0  0  0  0  0  0  0  0  0  0  0
   -1.1079    2.3449   -2.3940 H   0  0  0  0  0  0  0  0  0  0  0  0
   -2.7821    2.0419   -2.8738 H   0  0  0  0  0  0  0  0  0  0  0  0
   -2.2707    1.7502   -1.2007 H   0  0  0  0  0  0  0  0  0  0  0  0
   -2.1920    0.1527   -4.9435 N   0  0  0  0  0  0  0  0  0  0  0  0
   -2.0058    0.0799   -6.3739 C   0  0  0  0  0  0  0  0  0  0  0  0
   -3.1440    0.1779   -4.5902 H   0  0  0  0  0  0  0  0  0  0  0  0
   -1.9501    1.0970   -6.7891 H   0  0  0  0  0  0  0  0  0  0  0  0
   -1.0721   -0.4579   -6.5950 H   0  0  0  0  0  0  0  0  0  0  0  0
   -2.8533   -0.4552   -6.8271 H   0  0  0  0  0  0  0  0  0  0  0  0
 18 19  1  0  0  0  0
 19 31  1  0  0  0  0
 19 20  2  0  0  0  0
  8  9  1  0  0  0  0
  9 17  1  0  0  0  0
  9 10  2  0  0  0  0
  1  3  1  0  0  0  0
  1  7  1  0  0  0  0
  1  2  2  0  0  0  0
 32 33  1  0  0  0  0
 33 41  1  0  0  0  0
 33 34  2  0  0  0  0
 21 22  1  0  0  0  0
 22 23  1  0  0  0  0
 18 21  1  0  0  0  0
 17 23  1  0  0  0  0
 17 18  1  0  0  0  0
  8 11  1  0  0  0  0
 32 35  1  0  0  0  0
 41 42  1  0  0  0  0
  7  8  1  0  0  0  0
 31 32  1  0  0  0  0
 22 27  1  0  0  0  0
 22 28  1  0  0  0  0
 21 25  1  0  0  0  0
 21 26  1  0  0  0  0
 23 29  1  0  0  0  0
 23 30  1  0  0  0  0
 18 24  1  0  0  0  0
  3  4  1  0  0  0  0
  3  5  1  0  0  0  0
  3  6  1  0  0  0  0
 11 14  1  0  0  0  0
 11 15  1  0  0  0  0
 11 16  1  0  0  0  0
 35 38  1  0  0  0  0
 35 39  1  0  0  0  0
 35 40  1  0  0  0  0
 42 44  1  0  0  0  0
 42 45  1  0  0  0  0
 42 46  1  0  0  0  0
  8 13  1  0  0  0  0
 32 37  1  0  0  0  0
 31 36  1  0  0  0  0
 41 43  1  0  0  0  0
  7 12  1  0  0  0  0
M  END
$$$$

  -OEChem-05262214473D

 46 46  0     1  0  0  0  0  0999 V2000
   -0.6012   -3.2995    3.8205 C   0  0  0  0  0  0  0  0  0  0  0  0
   -0.6574   -4.4683    3.4568 O   0  0  0  0  0  0  0  0  0  0  0  0
   -0.4935   -2.9859    5.2760 C   0  0  0  0  0  0  0  0  0  0  0  0
   -1.4789   -2.8689    5.7550 H   0  0  0  0  0  0  0  0  0  0  0  0
    0.0123   -3.7847    5.8419 H   0  0  0  0  0  0  0  0  0  0  0  0
    0.0585   -2.0642    5.5199 H   0  0  0  0  0  0  0  0  0  0  0  0
   -0.6261   -2.1849    2.9917 N   0  0  0  0  0  0  0  0  0  0  0  0
   -0.7237   -2.2601    1.5650 C   0  0  2  0  0  0  0  0  0  0  0  0
    0.1695   -1.1513    1.0687 C   0  0  0  0  0  0  0  0  0  0  0  0
    0.3193   -0.1267    1.7365 O   0  0  0  0  0  0  0  0  0  0  0  0
   -2.1397   -2.0663    1.0750 C   0  0  0  0  0  0  0  0  0  0  0  0
   -0.5717   -1.2606    3.4238 H   0  0  0  0  0  0  0  0  0  0  0  0
   -0.3076   -3.2111    1.2363 H   0  0  0  0  0  0  0  0  0  0  0  0
   -2.5584   -1.1089    1.4061 H   0  0  0  0  0  0  0  0  0  0  0  0
   -2.1682   -2.0790   -0.0197 H   0  0  0  0  0  0  0  0  0  0  0  0
   -2.7965   -2.8601    1.4459 H   0  0  0  0  0  0  0  0  0  0  0  0
    0.7724   -1.3745   -0.1593 N   0  0  0  0  0  0  0  0  0  0  0  0
    1.6644   -0.4046   -0.7812 C   0  0  2  0  0  0  0  0  0  0  0  0
    0.8166    0.4953   -1.6290 C   0  0  0  0  0  0  0  0  0  0  0  0
    1.3437    1.4041   -2.2598 O   0  0  0  0  0  0  0  0  0  0  0  0
    2.6195   -1.2417   -1.6241 C   0  0  0  0  0  0  0  0  0  0  0  0
    2.1758   -2.2356   -0.5535 C   0  0  0  0  0  0  0  0  0  0  0  0
    0.7499   -2.6270   -0.9105 C   0  0  0  0  0  0  0  0  0  0  0  0
    2.1745    0.2007   -0.0258 H   0  0  0  0  0  0  0  0  0  0  0  0
    3.6296   -0.8175   -1.5784 H   0  0  0  0  0  0  0  0  0  0  0  0
    2.3218   -1.3211   -2.6742 H   0  0  0  0  0  0  0  0  0  0  0  0
    2.8084   -3.1304   -0.5781 H   0  0  0  0  0  0  0  0  0  0  0  0
    2.2249   -1.8085    0.4522 H   0  0  0  0  0  0  0  0  0  0  0  0
    0.5944   -2.7143   -1.9893 H   0  0  0  0  0  0  0  0  0  0  0  0
    0.4645   -3.5695   -0.4308 H   0  0  0  0  0  0  0  0  0  0  0  0
   -0.6354   -0.0475   -1.4348 N   0  0  0  0  0  0  0  0  0  0  0  0
   -1.7414    0.4952   -2.1906 C   0  0  2  0  0  0  0  0  0  0  0  0
   -1.5371    0.1262   -3.6540 C   0  0  0  0  0  0  0  0  0  0  0  0
   -0.4381   -0.1540   -4.1280 O   0  0  0  0  0  0  0  0  0  0  0  0
   -1.8418    2.0030   -2.0191 C   0  0  0  0  0  0  0  0  0  0  0  0
   -0.8376   -0.6965   -0.6803 H   0  0  0  0  0  0  0  0  0  0  0  0
   -2.6493    0.0110   -1.8145 H   0  0  0  0  0  0  0  0  0  0  0  0
   -0.9411    2.5054   -2.3904 H   0  0  0  0  0  0  0  0  0  0  0  0
   -2.6972    2.4088   -2.5693 H   0  0  0  0  0  0  0  0  0  0  0  0
   -1.9588    2.2681   -0.9628 H   0  0  0  0  0  0  0  0  0  0  0  0
   -2.7196    0.1885   -4.3779 N   0  0  0  0  0  0  0  0  0  0  0  0
   -2.7853   -0.1049   -5.7905 C   0  0  0  0  0  0  0  0  0  0  0  0
   -3.5874    0.4112   -3.8992 H   0  0  0  0  0  0  0  0  0  0  0  0
   -2.6628    0.8252   -6.3649 H   0  0  0  0  0  0  0  0  0  0  0  0
   -1.9825   -0.8083   -6.0565 H   0  0  0  0  0  0  0  0  0  0  0  0
   -3.7606   -0.5556   -6.0263 H   0  0  0  0  0  0  0  0  0  0  0  0
 18 19  1  0  0  0  0
 19 31  1  0  0  0  0
 19 20  2  0  0  0  0
  8  9  1  0  0  0  0
  9 17  1  0  0  0  0
  9 10  2  0  0  0  0
  1  3  1  0  0  0  0
  1  7  1  0  0  0  0
  1  2  2  0  0  0  0
 32 33  1  0  0  0  0
 33 41  1  0  0  0  0
 33 34  2  0  0  0  0
 21 22  1  0  0  0  0
 22 23  1  0  0  0  0
 18 21  1  0  0  0  0
 17 23  1  0  0  0  0
 17 18  1  0  0  0  0
  8 11  1  0  0  0  0
 32 35  1  0  0  0  0
 41 42  1  0  0  0  0
  7  8  1  0  0  0  0
 31 32  1  0  0  0  0
 22 27  1  0  0  0  0
 22 28  1  0  0  0  0
 21 25  1  0  0  0  0
 21 26  1  0  0  0  0
 23 29  1  0  0  0  0
 23 30  1  0  0  0  0
 18 24  1  0  0  0  0
  3  4  1  0  0  0  0
  3  5  1  0  0  0  0
  3  6  1  0  0  0  0
 11 14  1  0  0  0  0
 11 15  1  0  0  0  0
 11 16  1  0  0  0  0
 35 38  1  0  0  0  0
 35 39  1  0  0  0  0
 35 40  1  0  0  0  0
 42 44  1  0  0  0  0
 42 45  1  0  0  0  0
 42 46  1  0  0  0  0
  8 13  1  0  0  0  0
 32 37  1  0  0  0  0
 31 36  1  0  0  0  0
 41 43  1  0  0  0  0
  7 12  1  0  0  0  0
M  END
$$$$

  -OEChem-05262214473D

 46 46  0     1  0  0  0  0  0999 V2000
   -0.6012   -3.2995    3.8205 C   0  0  0  0  0  0  0  0  0  0  0  0
   -0.6574   -4.4683    3.4568 O   0  0  0  0  0  0  0  0  0  0  0  0
   -0.4935   -2.9859    5.2760 C   0  0  0  0  0  0  0  0  0  0  0  0
   -1.4789   -2.8689    5.7550 H   0  0  0  0  0  0  0  0  0  0  0  0
    0.0123   -3.7847    5.8419 H   0  0  0  0  0  0  0  0  0  0  0  0
    0.0585   -2.0642    5.5199 H   0  0  0  0  0  0  0  0  0  0  0  0
   -0.6261   -2.1849    2.9917 N   0  0  0  0  0  0  0  0  0  0  0  0
   -0.7237   -2.2601    1.5650 C   0  0  2  0  0  0  0  0  0  0  0  0
    0.1695   -1.1513    1.0687 C   0  0  0  0  0  0  0  0  0  0  0  0
    0.3193   -0.1267    1.7365 O   0  0  0  0  0  0  0  0  0  0  0  0
   -2.1397   -2.0663    1.0750 C   0  0  0  0  0  0  0  0  0  0  0  0
   -0.5717   -1.2606    3.4238 H   0  0  0  0  0  0  0  0  0  0  0  0
   -0.3076   -3.2111    1.2363 H   0  0  0  0  0  0  0  0  0  0  0  0
   -2.5584   -1.1089    1.4061 H   0  0  0  0  0  0  0  0  0  0  0  0
   -2.1682   -2.0790   -0.0197 H   0  0  0  0  0  0  0  0  0  0  0  0
   -2.7965   -2.8601    1.4459 H   0  0  0  0  0  0  0  0  0  0  0  0
    0.7724   -1.3745   -0.1593 N   0  0  0  0  0  0  0  0  0  0  0  0
    1.6644   -0.4046   -0.7812 C   0  0  2  0  0  0  0  0  0  0  0  0
    0.8166    0.4953   -1.6290 C   0  0  0  0  0  0  0  0  0  0  0  0
    1.3491    1.2160   -2.4649 O   0  0  0  0  0  0  0  0  0  0  0  0
    2.6195   -1.2417   -1.6241 C   0  0  0  0  0  0  0  0  0  0  0  0
    2.1758   -2.2356   -0.5535 C   0  0  0  0  0  0  0  0  0  0  0  0
    0.7499   -2.6270   -0.9105 C   0  0  0  0  0  0  0  0  0  0  0  0
    2.1745    0.2007   -0.0258 H   0  0  0  0  0  0  0  0  0  0  0  0
    3.6296   -0.8175   -1.5784 H   0  0  0  0  0  0  0  0  0  0  0  0
    2.3218   -1.3211   -2.6742 H   0  0  0  0  0  0  0  0  0  0  0  0
    2.8084   -3.1304   -0.5781 H   0  0  0  0  0  0  0  0  0  0  0  0
    2.2249   -1.8085    0.4522 H   0  0  0  0  0  0  0  0  0  0  0  0
    0.5944   -2.7143   -1.9893 H   0  0  0  0  0  0  0  0  0  0  0  0
    0.4645   -3.5695   -0.4308 H   0  0  0  0  0  0  0  0  0  0  0  0
   -0.6426    0.2198   -1.1438 N   0  0  0  0  0  0  0  0  0  0  0  0
   -1.7755    0.8235   -1.8080 C   0  0  2  0  0  0  0  0  0  0  0  0
   -1.8690    0.2330   -3.2087 C   0  0  0  0  0  0  0  0  0  0  0  0
   -0.9120   -0.2785   -3.7863 O   0  0  0  0  0  0  0  0  0  0  0  0
   -1.6418    2.3374   -1.8641 C   0  0  0  0  0  0  0  0  0  0  0  0
   -0.8022   -0.2814   -0.2751 H   0  0  0  0  0  0  0  0  0  0  0  0
   -2.6650    0.5440   -1.2330 H   0  0  0  0  0  0  0  0  0  0  0  0
   -0.7560    2.6366   -2.4362 H   0  0  0  0  0  0  0  0  0  0  0  0
   -2.5141    2.7953   -2.3420 H   0  0  0  0  0  0  0  0  0  0  0  0
   -1.5447    2.7576   -0.8573 H   0  0  0  0  0  0  0  0  0  0  0  0
   -3.1361    0.3831   -3.7548 N   0  0  0  0  0  0  0  0  0  0  0  0
   -3.4747   -0.0840   -5.0789 C   0  0  0  0  0  0  0  0  0  0  0  0
   -3.8741    0.8025   -3.1971 H   0  0  0  0  0  0  0  0  0  0  0  0
   -3.3252    0.7292   -5.8045 H   0  0  0  0  0  0  0  0  0  0  0  0
   -2.8295   -0.9347   -5.3436 H   0  0  0  0  0  0  0  0  0  0  0  0
   -4.5274   -0.4025   -5.0971 H   0  0  0  0  0  0  0  0  0  0  0  0
 18 19  1  0  0  0  0
 19 31  1  0  0  0  0
 19 20  2  0  0  0  0
  8  9  1  0  0  0  0
  9 17  1  0  0  0  0
  9 10  2  0  0  0  0
  1  3  1  0  0  0  0
  1  7  1  0  0  0  0
  1  2  2  0  0  0  0
 32 33  1  0  0  0  0
 33 41  1  0  0  0  0
 33 34  2  0  0  0  0
 21 22  1  0  0  0  0
 22 23  1  0  0  0  0
 18 21  1  0  0  0  0
 17 23  1  0  0  0  0
 17 18  1  0  0  0  0
  8 11  1  0  0  0  0
 32 35  1  0  0  0  0
 41 42  1  0  0  0  0
  7  8  1  0  0  0  0
 31 32  1  0  0  0  0
 22 27  1  0  0  0  0
 22 28  1  0  0  0  0
 21 25  1  0  0  0  0
 21 26  1  0  0  0  0
 23 29  1  0  0  0  0
 23 30  1  0  0  0  0
 18 24  1  0  0  0  0
  3  4  1  0  0  0  0
  3  5  1  0  0  0  0
  3  6  1  0  0  0  0
 11 14  1  0  0  0  0
 11 15  1  0  0  0  0
 11 16  1  0  0  0  0
 35 38  1  0  0  0  0
 35 39  1  0  0  0  0
 35 40  1  0  0  0  0
 42 44  1  0  0  0  0
 42 45  1  0  0  0  0
 42 46  1  0  0  0  0
  8 13  1  0  0  0  0
 32 37  1  0  0  0  0
 31 36  1  0  0  0  0
 41 43  1  0  0  0  0
  7 12  1  0  0  0  0
M  END
$$$$

  -OEChem-05262214473D

 46 46  0     1  0  0  0  0  0999 V2000
   -0.6012   -3.2995    3.8205 C   0  0  0  0  0  0  0  0  0  0  0  0
   -0.6574   -4.4683    3.4568 O   0  0  0  0  0  0  0  0  0  0  0  0
   -0.4935   -2.9859    5.2760 C   0  0  0  0  0  0  0  0  0  0  0  0
   -1.4789   -2.8689    5.7550 H   0  0  0  0  0  0  0  0  0  0  0  0
    0.0123   -3.7847    5.8419 H   0  0  0  0  0  0  0  0  0  0  0  0
    0.0585   -2.0642    5.5199 H   0  0  0  0  0  0  0  0  0  0  0  0
   -0.6261   -2.1849    2.9917 N   0  0  0  0  0  0  0  0  0  0  0  0
   -0.7237   -2.2601    1.5650 C   0  0  2  0  0  0  0  0  0  0  0  0
    0.1695   -1.1513    1.0687 C   0  0  0  0  0  0  0  0  0  0  0  0
    0.3193   -0.1267    1.7365 O   0  0  0  0  0  0  0  0  0  0  0  0
   -2.1397   -2.0663    1.0750 C   0  0  0  0  0  0  0  0  0  0  0  0
   -0.5717   -1.2606    3.4238 H   0  0  0  0  0  0  0  0  0  0  0  0
   -0.3076   -3.2111    1.2363 H   0  0  0  0  0  0  0  0  0  0  0  0
   -2.5584   -1.1089    1.4061 H   0  0  0  0  0  0  0  0  0  0  0  0
   -2.1682   -2.0790   -0.0197 H   0  0  0  0  0  0  0  0  0  0  0  0
   -2.7965   -2.8601    1.4459 H   0  0  0  0  0  0  0  0  0  0  0  0
    0.7724   -1.3745   -0.1593 N   0  0  0  0  0  0  0  0  0  0  0  0
    1.6644   -0.4046   -0.7812 C   0  0  2  0  0  0  0  0  0  0  0  0
    0.8166    0.4953   -1.6290 C   0  0  0  0  0  0  0  0  0  0  0  0
    1.2950    1.0035   -2.6363 O   0  0  0  0  0  0  0  0  0  0  0  0
    2.6195   -1.2417   -1.6241 C   0  0  0  0  0  0  0  0  0  0  0  0
    2.1758   -2.2356   -0.5535 C   0  0  0  0  0  0  0  0  0  0  0  0
    0.7499   -2.6270   -0.9105 C   0  0  0  0  0  0  0  0  0  0  0  0
    2.1745    0.2007   -0.0258 H   0  0  0  0  0  0  0  0  0  0  0  0
    3.6296   -0.8175   -1.5784 H   0  0  0  0  0  0  0  0  0  0  0  0
    2.3218   -1.3211   -2.6742 H   0  0  0  0  0  0  0  0  0  0  0  0
    2.8084   -3.1304   -0.5781 H   0  0  0  0  0  0  0  0  0  0  0  0
    2.2249   -1.8085    0.4522 H   0  0  0  0  0  0  0  0  0  0  0  0
    0.5944   -2.7143   -1.9893 H   0  0  0  0  0  0  0  0  0  0  0  0
    0.4645   -3.5695   -0.4308 H   0  0  0  0  0  0  0  0  0  0  0  0
   -0.5653    0.5217   -0.9007 N   0  0  0  0  0  0  0  0  0  0  0  0
   -1.7009    1.2016   -1.4812 C   0  0  2  0  0  0  0  0  0  0  0  0
   -2.1048    0.4499   -2.7427 C   0  0  0  0  0  0  0  0  0  0  0  0
   -1.3350   -0.2795   -3.3643 O   0  0  0  0  0  0  0  0  0  0  0  0
   -1.3756    2.6538   -1.7944 C   0  0  0  0  0  0  0  0  0  0  0  0
   -0.6443    0.1737    0.0501 H   0  0  0  0  0  0  0  0  0  0  0  0
   -2.5120    1.1462   -0.7469 H   0  0  0  0  0  0  0  0  0  0  0  0
   -0.5651    2.7295   -2.5285 H   0  0  0  0  0  0  0  0  0  0  0  0
   -2.2455    3.1751   -2.2076 H   0  0  0  0  0  0  0  0  0  0  0  0
   -1.0567    3.1853   -0.8913 H   0  0  0  0  0  0  0  0  0  0  0  0
   -3.4130    0.7233   -3.1168 N   0  0  0  0  0  0  0  0  0  0  0  0
   -4.0269    0.1414   -4.2875 C   0  0  0  0  0  0  0  0  0  0  0  0
   -3.9847    1.3253   -2.5316 H   0  0  0  0  0  0  0  0  0  0  0  0
   -3.8919    0.8153   -5.1463 H   0  0  0  0  0  0  0  0  0  0  0  0
   -3.5554   -0.8284   -4.5049 H   0  0  0  0  0  0  0  0  0  0  0  0
   -5.1012   -0.0065   -4.1029 H   0  0  0  0  0  0  0  0  0  0  0  0
 18 19  1  0  0  0  0
 19 31  1  0  0  0  0
 19 20  2  0  0  0  0
  8  9  1  0  0  0  0
  9 17  1  0  0  0  0
  9 10  2  0  0  0  0
  1  3  1  0  0  0  0
  1  7  1  0  0  0  0
  1  2  2  0  0  0  0
 32 33  1  0  0  0  0
 33 41  1  0  0  0  0
 33 34  2  0  0  0  0
 21 22  1  0  0  0  0
 22 23  1  0  0  0  0
 18 21  1  0  0  0  0
 17 23  1  0  0  0  0
 17 18  1  0  0  0  0
  8 11  1  0  0  0  0
 32 35  1  0  0  0  0
 41 42  1  0  0  0  0
  7  8  1  0  0  0  0
 31 32  1  0  0  0  0
 22 27  1  0  0  0  0
 22 28  1  0  0  0  0
 21 25  1  0  0  0  0
 21 26  1  0  0  0  0
 23 29  1  0  0  0  0
 23 30  1  0  0  0  0
 18 24  1  0  0  0  0
  3  4  1  0  0  0  0
  3  5  1  0  0  0  0
  3  6  1  0  0  0  0
 11 14  1  0  0  0  0
 11 15  1  0  0  0  0
 11 16  1  0  0  0  0
 35 38  1  0  0  0  0
 35 39  1  0  0  0  0
 35 40  1  0  0  0  0
 42 44  1  0  0  0  0
 42 45  1  0  0  0  0
 42 46  1  0  0  0  0
  8 13  1  0  0  0  0
 32 37  1  0  0  0  0
 31 36  1  0  0  0  0
 41 43  1  0  0  0  0
  7 12  1  0  0  0  0
M  END
$$$$

  -OEChem-05262214473D

 46 46  0     1  0  0  0  0  0999 V2000
   -0.6012   -3.2995    3.8205 C   0  0  0  0  0  0  0  0  0  0  0  0
   -0.6574   -4.4683    3.4568 O   0  0  0  0  0  0  0  0  0  0  0  0
   -0.4935   -2.9859    5.2760 C   0  0  0  0  0  0  0  0  0  0  0  0
   -1.4789   -2.8689    5.7550 H   0  0  0  0  0  0  0  0  0  0  0  0
    0.0123   -3.7847    5.8419 H   0  0  0  0  0  0  0  0  0  0  0  0
    0.0585   -2.0642    5.5199 H   0  0  0  0  0  0  0  0  0  0  0  0
   -0.6261   -2.1849    2.9917 N   0  0  0  0  0  0  0  0  0  0  0  0
   -0.7237   -2.2601    1.5650 C   0  0  2  0  0  0  0  0  0  0  0  0
    0.1695   -1.1513    1.0687 C   0  0  0  0  0  0  0  0  0  0  0  0
    0.3193   -0.1267    1.7365 O   0  0  0  0  0  0  0  0  0  0  0  0
   -2.1397   -2.0663    1.0750 C   0  0  0  0  0  0  0  0  0  0  0  0
   -0.5717   -1.2606    3.4238 H   0  0  0  0  0  0  0  0  0  0  0  0
   -0.3076   -3.2111    1.2363 H   0  0  0  0  0  0  0  0  0  0  0  0
   -2.5584   -1.1089    1.4061 H   0  0  0  0  0  0  0  0  0  0  0  0
   -2.1682   -2.0790   -0.0197 H   0  0  0  0  0  0  0  0  0  0  0  0
   -2.7965   -2.8601    1.4459 H   0  0  0  0  0  0  0  0  0  0  0  0
    0.7724   -1.3745   -0.1593 N   0  0  0  0  0  0  0  0  0  0  0  0
    1.6644   -0.4046   -0.7812 C   0  0  2  0  0  0  0  0  0  0  0  0
    0.8166    0.4953   -1.6290 C   0  0  0  0  0  0  0  0  0  0  0  0
    1.1849    0.7811   -2.7623 O   0  0  0  0  0  0  0  0  0  0  0  0
    2.6195   -1.2417   -1.6241 C   0  0  0  0  0  0  0  0  0  0  0  0
    2.1758   -2.2356   -0.5535 C   0  0  0  0  0  0  0  0  0  0  0  0
    0.7499   -2.6270   -0.9105 C   0  0  0  0  0  0  0  0  0  0  0  0
    2.1745    0.2007   -0.0258 H   0  0  0  0  0  0  0  0  0  0  0  0
    3.6296   -0.8175   -1.5784 H   0  0  0  0  0  0  0  0  0  0  0  0
    2.3218   -1.3211   -2.6742 H   0  0  0  0  0  0  0  0  0  0  0  0
    2.8084   -3.1304   -0.5781 H   0  0  0  0  0  0  0  0  0  0  0  0
    2.2249   -1.8085    0.4522 H   0  0  0  0  0  0  0  0  0  0  0  0
    0.5944   -2.7143   -1.9893 H   0  0  0  0  0  0  0  0  0  0  0  0
    0.4645   -3.5695   -0.4308 H   0  0  0  0  0  0  0  0  0  0  0  0
   -0.4086    0.8375   -0.7221 N   0  0  0  0  0  0  0  0  0  0  0  0
   -1.5228    1.6038   -1.2324 C   0  0  2  0  0  0  0  0  0  0  0  0
   -2.2284    0.7622   -2.2876 C   0  0  0  0  0  0  0  0  0  0  0  0
   -1.6781   -0.1567   -2.8909 O   0  0  0  0  0  0  0  0  0  0  0  0
   -1.0613    2.9307   -1.8148 C   0  0  0  0  0  0  0  0  0  0  0  0
   -0.3746    0.6378    0.2730 H   0  0  0  0  0  0  0  0  0  0  0  0
   -2.2004    1.7766   -0.3892 H   0  0  0  0  0  0  0  0  0  0  0  0
   -0.3815    2.7777   -2.6609 H   0  0  0  0  0  0  0  0  0  0  0  0
   -1.9095    3.5223   -2.1750 H   0  0  0  0  0  0  0  0  0  0  0  0
   -0.5280    3.5220   -1.0626 H   0  0  0  0  0  0  0  0  0  0  0  0
   -3.5316    1.1857   -2.5072 N   0  0  0  0  0  0  0  0  0  0  0  0
   -4.4044    0.5557   -3.4702 C   0  0  0  0  0  0  0  0  0  0  0  0
   -3.9116    1.9438   -1.9481 H   0  0  0  0  0  0  0  0  0  0  0  0
   -4.3245    1.0779   -4.4351 H   0  0  0  0  0  0  0  0  0  0  0  0
   -4.1107   -0.4967   -3.5976 H   0  0  0  0  0  0  0  0  0  0  0  0
   -5.4430    0.6056   -3.1113 H   0  0  0  0  0  0  0  0  0  0  0  0
 18 19  1  0  0  0  0
 19 31  1  0  0  0  0
 19 20  2  0  0  0  0
  8  9  1  0  0  0  0
  9 17  1  0  0  0  0
  9 10  2  0  0  0  0
  1  3  1  0  0  0  0
  1  7  1  0  0  0  0
  1  2  2  0  0  0  0
 32 33  1  0  0  0  0
 33 41  1  0  0  0  0
 33 34  2  0  0  0  0
 21 22  1  0  0  0  0
 22 23  1  0  0  0  0
 18 21  1  0  0  0  0
 17 23  1  0  0  0  0
 17 18  1  0  0  0  0
  8 11  1  0  0  0  0
 32 35  1  0  0  0  0
 41 42  1  0  0  0  0
  7  8  1  0  0  0  0
 31 32  1  0  0  0  0
 22 27  1  0  0  0  0
 22 28  1  0  0  0  0
 21 25  1  0  0  0  0
 21 26  1  0  0  0  0
 23 29  1  0  0  0  0
 23 30  1  0  0  0  0
 18 24  1  0  0  0  0
  3  4  1  0  0  0  0
  3  5  1  0  0  0  0
  3  6  1  0  0  0  0
 11 14  1  0  0  0  0
 11 15  1  0  0  0  0
 11 16  1  0  0  0  0
 35 38  1  0  0  0  0
 35 39  1  0  0  0  0
 35 40  1  0  0  0  0
 42 44  1  0  0  0  0
 42 45  1  0  0  0  0
 42 46  1  0  0  0  0
  8 13  1  0  0  0  0
 32 37  1  0  0  0  0
 31 36  1  0  0  0  0
 41 43  1  0  0  0  0
  7 12  1  0  0  0  0
M  END
$$$$

  -OEChem-05262214473D

 46 46  0     1  0  0  0  0  0999 V2000
   -0.6012   -3.2995    3.8205 C   0  0  0  0  0  0  0  0  0  0  0  0
   -0.6574   -4.4683    3.4568 O   0  0  0  0  0  0  0  0  0  0  0  0
   -0.4935   -2.9859    5.2760 C   0  0  0  0  0  0  0  0  0  0  0  0
   -1.4789   -2.8689    5.7550 H   0  0  0  0  0  0  0  0  0  0  0  0
    0.0123   -3.7847    5.8419 H   0  0  0  0  0  0  0  0  0  0  0  0
    0.0585   -2.0642    5.5199 H   0  0  0  0  0  0  0  0  0  0  0  0
   -0.6261   -2.1849    2.9917 N   0  0  0  0  0  0  0  0  0  0  0  0
   -0.7237   -2.2601    1.5650 C   0  0  2  0  0  0  0  0  0  0  0  0
    0.1695   -1.1513    1.0687 C   0  0  0  0  0  0  0  0  0  0  0  0
    0.3193   -0.1267    1.7365 O   0  0  0  0  0  0  0  0  0  0  0  0
   -2.1397   -2.0663    1.0750 C   0  0  0  0  0  0  0  0  0  0  0  0
   -0.5717   -1.2606    3.4238 H   0  0  0  0  0  0  0  0  0  0  0  0
   -0.3076   -3.2111    1.2363 H   0  0  0  0  0  0  0  0  0  0  0  0
   -2.5584   -1.1089    1.4061 H   0  0  0  0  0  0  0  0  0  0  0  0
   -2.1682   -2.0790   -0.0197 H   0  0  0  0  0  0  0  0  0  0  0  0
   -2.7965   -2.8601    1.4459 H   0  0  0  0  0  0  0  0  0  0  0  0
    0.7724   -1.3745   -0.1593 N   0  0  0  0  0  0  0  0  0  0  0  0
    1.6644   -0.4046   -0.7812 C   0  0  2  0  0  0  0  0  0  0  0  0
    0.8166    0.4953   -1.6290 C   0  0  0  0  0  0  0  0  0  0  0  0
    1.0265    0.5640   -2.8344 O   0  0  0  0  0  0  0  0  0  0  0  0
    2.6195   -1.2417   -1.6241 C   0  0  0  0  0  0  0  0  0  0  0  0
    2.1758   -2.2356   -0.5535 C   0  0  0  0  0  0  0  0  0  0  0  0
    0.7499   -2.6270   -0.9105 C   0  0  0  0  0  0  0  0  0  0  0  0
    2.1745    0.2007   -0.0258 H   0  0  0  0  0  0  0  0  0  0  0  0
    3.6296   -0.8175   -1.5784 H   0  0  0  0  0  0  0  0  0  0  0  0
    2.3218   -1.3211   -2.6742 H   0  0  0  0  0  0  0  0  0  0  0  0
    2.8084   -3.1304   -0.5781 H   0  0  0  0  0  0  0  0  0  0  0  0
    2.2249   -1.8085    0.4522 H   0  0  0  0  0  0  0  0  0  0  0  0
    0.5944   -2.7143   -1.9893 H   0  0  0  0  0  0  0  0  0  0  0  0
    0.4645   -3.5695   -0.4308 H   0  0  0  0  0  0  0  0  0  0  0  0
   -0.1833    1.1458   -0.6202 N   0  0  0  0  0  0  0  0  0  0  0  0
   -1.2532    2.0025   -1.0787 C   0  0  2  0  0  0  0  0  0  0  0  0
   -2.2313    1.1485   -1.8746 C   0  0  0  0  0  0  0  0  0  0  0  0
   -1.9180    0.0814   -2.3982 O   0  0  0  0  0  0  0  0  0  0  0  0
   -0.7204    3.1491   -1.9238 C   0  0  0  0  0  0  0  0  0  0  0  0
   -0.0115    1.0792    0.3785 H   0  0  0  0  0  0  0  0  0  0  0  0
   -1.7516    2.3923   -0.1844 H   0  0  0  0  0  0  0  0  0  0  0  0
   -0.2176    2.7781   -2.8244 H   0  0  0  0  0  0  0  0  0  0  0  0
   -1.5290    3.8132   -2.2466 H   0  0  0  0  0  0  0  0  0  0  0  0
    0.0053    3.7447   -1.3595 H   0  0  0  0  0  0  0  0  0  0  0  0
   -3.4838    1.7390   -1.9677 N   0  0  0  0  0  0  0  0  0  0  0  0
   -4.5814    1.1307   -2.6828 C   0  0  0  0  0  0  0  0  0  0  0  0
   -3.6598    2.6160   -1.4863 H   0  0  0  0  0  0  0  0  0  0  0  0
   -4.5933    1.4988   -3.7193 H   0  0  0  0  0  0  0  0  0  0  0  0
   -4.4575    0.0377   -2.6834 H   0  0  0  0  0  0  0  0  0  0  0  0
   -5.5295    1.3920   -2.1900 H   0  0  0  0  0  0  0  0  0  0  0  0
 18 19  1  0  0  0  0
 19 31  1  0  0  0  0
 19 20  2  0  0  0  0
  8  9  1  0  0  0  0
  9 17  1  0  0  0  0
  9 10  2  0  0  0  0
  1  3  1  0  0  0  0
  1  7  1  0  0  0  0
  1  2  2  0  0  0  0
 32 33  1  0  0  0  0
 33 41  1  0  0  0  0
 33 34  2  0  0  0  0
 21 22  1  0  0  0  0
 22 23  1  0  0  0  0
 18 21  1  0  0  0  0
 17 23  1  0  0  0  0
 17 18  1  0  0  0  0
  8 11  1  0  0  0  0
 32 35  1  0  0  0  0
 41 42  1  0  0  0  0
  7  8  1  0  0  0  0
 31 32  1  0  0  0  0
 22 27  1  0  0  0  0
 22 28  1  0  0  0  0
 21 25  1  0  0  0  0
 21 26  1  0  0  0  0
 23 29  1  0  0  0  0
 23 30  1  0  0  0  0
 18 24  1  0  0  0  0
  3  4  1  0  0  0  0
  3  5  1  0  0  0  0
  3  6  1  0  0  0  0
 11 14  1  0  0  0  0
 11 15  1  0  0  0  0
 11 16  1  0  0  0  0
 35 38  1  0  0  0  0
 35 39  1  0  0  0  0
 35 40  1  0  0  0  0
 42 44  1  0  0  0  0
 42 45  1  0  0  0  0
 42 46  1  0  0  0  0
  8 13  1  0  0  0  0
 32 37  1  0  0  0  0
 31 36  1  0  0  0  0
 41 43  1  0  0  0  0
  7 12  1  0  0  0  0
M  END
$$$$

  -OEChem-05262214473D

 46 46  0     1  0  0  0  0  0999 V2000
   -0.6012   -3.2995    3.8205 C   0  0  0  0  0  0  0  0  0  0  0  0
   -0.6574   -4.4683    3.4568 O   0  0  0  0  0  0  0  0  0  0  0  0
   -0.4935   -2.9859    5.2760 C   0  0  0  0  0  0  0  0  0  0  0  0
   -1.4789   -2.8689    5.7550 H   0  0  0  0  0  0  0  0  0  0  0  0
    0.0123   -3.7847    5.8419 H   0  0  0  0  0  0  0  0  0  0  0  0
    0.0585   -2.0642    5.5199 H   0  0  0  0  0  0  0  0  0  0  0  0
   -0.6261   -2.1849    2.9917 N   0  0  0  0  0  0  0  0  0  0  0  0
   -0.7237   -2.2601    1.5650 C   0  0  2  0  0  0  0  0  0  0  0  0
    0.1695   -1.1513    1.0687 C   0  0  0  0  0  0  0  0  0  0  0  0
    0.3193   -0.1267    1.7365 O   0  0  0  0  0  0  0  0  0  0  0  0
   -2.1397   -2.0663    1.0750 C   0  0  0  0  0  0  0  0  0  0  0  0
   -0.5717   -1.2606    3.4238 H   0  0  0  0  0  0  0  0  0  0  0  0
   -0.3076   -3.2111    1.2363 H   0  0  0  0  0  0  0  0  0  0  0  0
   -2.5584   -1.1089    1.4061 H   0  0  0  0  0  0  0  0  0  0  0  0
   -2.1682   -2.0790   -0.0197 H   0  0  0  0  0  0  0  0  0  0  0  0
   -2.7965   -2.8601    1.4459 H   0  0  0  0  0  0  0  0  0  0  0  0
    0.7724   -1.3745   -0.1593 N   0  0  0  0  0  0  0  0  0  0  0  0
    1.6644   -0.4046   -0.7812 C   0  0  2  0  0  0  0  0  0  0  0  0
    0.8166    0.4953   -1.6290 C   0  0  0  0  0  0  0  0  0  0  0  0
    0.8304    0.3668   -2.8476 O   0  0  0  0  0  0  0  0  0  0  0  0
    2.6195   -1.2417   -1.6241 C   0  0  0  0  0  0  0  0  0  0  0  0
    2.1758   -2.2356   -0.5535 C   0  0  0  0  0  0  0  0  0  0  0  0
    0.7499   -2.6270   -0.9105 C   0  0  0  0  0  0  0  0  0  0  0  0
    2.1745    0.2007   -0.0258 H   0  0  0  0  0  0  0  0  0  0  0  0
    3.6296   -0.8175   -1.5784 H   0  0  0  0  0  0  0  0  0  0  0  0
    2.3218   -1.3211   -2.6742 H   0  0  0  0  0  0  0  0  0  0  0  0
    2.8084   -3.1304   -0.5781 H   0  0  0  0  0  0  0  0  0  0  0  0
    2.2249   -1.8085    0.4522 H   0  0  0  0  0  0  0  0  0  0  0  0
    0.5944   -2.7143   -1.9893 H   0  0  0  0  0  0  0  0  0  0  0  0
    0.4645   -3.5695   -0.4308 H   0  0  0  0  0  0  0  0  0  0  0  0
    0.0953    1.4255   -0.6019 N   0  0  0  0  0  0  0  0  0  0  0  0
   -0.9106    2.3708   -1.0305 C   0  0  2  0  0  0  0  0  0  0  0  0
   -2.1135    1.5825   -1.5317 C   0  0  0  0  0  0  0  0  0  0  0  0
   -2.0383    0.4186   -1.9200 O   0  0  0  0  0  0  0  0  0  0  0  0
   -0.3761    3.2943   -2.1140 C   0  0  0  0  0  0  0  0  0  0  0  0
    0.4201    1.4679    0.3594 H   0  0  0  0  0  0  0  0  0  0  0  0
   -1.1962    2.9513   -0.1465 H   0  0  0  0  0  0  0  0  0  0  0  0
   -0.0847    2.7306   -3.0078 H   0  0  0  0  0  0  0  0  0  0  0  0
   -1.1301    4.0281   -2.4174 H   0  0  0  0  0  0  0  0  0  0  0  0
    0.5069    3.8384   -1.7617 H   0  0  0  0  0  0  0  0  0  0  0  0
   -3.2728    2.3455   -1.5350 N   0  0  0  0  0  0  0  0  0  0  0  0
   -4.5458    1.8273   -1.9788 C   0  0  0  0  0  0  0  0  0  0  0  0
   -3.2465    3.2960   -1.1778 H   0  0  0  0  0  0  0  0  0  0  0  0
   -4.6802    2.0496   -3.0477 H   0  0  0  0  0  0  0  0  0  0  0  0
   -4.5723    0.7385   -1.8247 H   0  0  0  0  0  0  0  0  0  0  0  0
   -5.3548    2.2991   -1.4018 H   0  0  0  0  0  0  0  0  0  0  0  0
 18 19  1  0  0  0  0
 19 31  1  0  0  0  0
 19 20  2  0  0  0  0
  8  9  1  0  0  0  0
  9 17  1  0  0  0  0
  9 10  2  0  0  0  0
  1  3  1  0  0  0  0
  1  7  1  0  0  0  0
  1  2  2  0  0  0  0
 32 33  1  0  0  0  0
 33 41  1  0  0  0  0
 33 34  2  0  0  0  0
 21 22  1  0  0  0  0
 22 23  1  0  0  0  0
 18 21  1  0  0  0  0
 17 23  1  0  0  0  0
 17 18  1  0  0  0  0
  8 11  1  0  0  0  0
 32 35  1  0  0  0  0
 41 42  1  0  0  0  0
  7  8  1  0  0  0  0
 31 32  1  0  0  0  0
 22 27  1  0  0  0  0
 22 28  1  0  0  0  0
 21 25  1  0  0  0  0
 21 26  1  0  0  0  0
 23 29  1  0  0  0  0
 23 30  1  0  0  0  0
 18 24  1  0  0  0  0
  3  4  1  0  0  0  0
  3  5  1  0  0  0  0
  3  6  1  0  0  0  0
 11 14  1  0  0  0  0
 11 15  1  0  0  0  0
 11 16  1  0  0  0  0
 35 38  1  0  0  0  0
 35 39  1  0  0  0  0
 35 40  1  0  0  0  0
 42 44  1  0  0  0  0
 42 45  1  0  0  0  0
 42 46  1  0  0  0  0
  8 13  1  0  0  0  0
 32 37  1  0  0  0  0
 31 36  1  0  0  0  0
 41 43  1  0  0  0  0
  7 12  1  0  0  0  0
M  END
$$$$

  -OEChem-05262214473D

 46 46  0     1  0  0  0  0  0999 V2000
   -0.6012   -3.2995    3.8205 C   0  0  0  0  0  0  0  0  0  0  0  0
   -0.6574   -4.4683    3.4568 O   0  0  0  0  0  0  0  0  0  0  0  0
   -0.4935   -2.9859    5.2760 C   0  0  0  0  0  0  0  0  0  0  0  0
   -1.4789   -2.8689    5.7550 H   0  0  0  0  0  0  0  0  0  0  0  0
    0.0123   -3.7847    5.8419 H   0  0  0  0  0  0  0  0  0  0  0  0
    0.0585   -2.0642    5.5199 H   0  0  0  0  0  0  0  0  0  0  0  0
   -0.6261   -2.1849    2.9917 N   0  0  0  0  0  0  0  0  0  0  0  0
   -0.7237   -2.2601    1.5650 C   0  0  2  0  0  0  0  0  0  0  0  0
    0.1695   -1.1513    1.0687 C   0  0  0  0  0  0  0  0  0  0  0  0
    0.3193   -0.1267    1.7365 O   0  0  0  0  0  0  0  0  0  0  0  0
   -2.1397   -2.0663    1.0750 C   0  0  0  0  0  0  0  0  0  0  0  0
   -0.5717   -1.2606    3.4238 H   0  0  0  0  0  0  0  0  0  0  0  0
   -0.3076   -3.2111    1.2363 H   0  0  0  0  0  0  0  0  0  0  0  0
   -2.5584   -1.1089    1.4061 H   0  0  0  0  0  0  0  0  0  0  0  0
   -2.1682   -2.0790   -0.0197 H   0  0  0  0  0  0  0  0  0  0  0  0
   -2.7965   -2.8601    1.4459 H   0  0  0  0  0  0  0  0  0  0  0  0
    0.7724   -1.3745   -0.1593 N   0  0  0  0  0  0  0  0  0  0  0  0
    1.6644   -0.4046   -0.7812 C   0  0  2  0  0  0  0  0  0  0  0  0
    0.8166    0.4953   -1.6290 C   0  0  0  0  0  0  0  0  0  0  0  0
    0.6102    0.2032   -2.8011 O   0  0  0  0  0  0  0  0  0  0  0  0
    2.6195   -1.2417   -1.6241 C   0  0  0  0  0  0  0  0  0  0  0  0
    2.1758   -2.2356   -0.5535 C   0  0  0  0  0  0  0  0  0  0  0  0
    0.7499   -2.6270   -0.9105 C   0  0  0  0  0  0  0  0  0  0  0  0
    2.1745    0.2007   -0.0258 H   0  0  0  0  0  0  0  0  0  0  0  0
    3.6296   -0.8175   -1.5784 H   0  0  0  0  0  0  0  0  0  0  0  0
    2.3218   -1.3211   -2.6742 H   0  0  0  0  0  0  0  0  0  0  0  0
    2.8084   -3.1304   -0.5781 H   0  0  0  0  0  0  0  0  0  0  0  0
    2.2249   -1.8085    0.4522 H   0  0  0  0  0  0  0  0  0  0  0  0
    0.5944   -2.7143   -1.9893 H   0  0  0  0  0  0  0  0  0  0  0  0
    0.4645   -3.5695   -0.4308 H   0  0  0  0  0  0  0  0  0  0  0  0
    0.4082    1.6576   -0.6684 N   0  0  0  0  0  0  0  0  0  0  0  0
   -0.5182    2.6833   -1.0910 C   0  0  2  0  0  0  0  0  0  0  0  0
   -1.8828    2.0347   -1.2823 C   0  0  0  0  0  0  0  0  0  0  0  0
   -2.0308    0.8319   -1.4887 O   0  0  0  0  0  0  0  0  0  0  0  0
   -0.0518    3.3563   -2.3725 C   0  0  0  0  0  0  0  0  0  0  0  0
    0.8910    1.7773    0.2170 H   0  0  0  0  0  0  0  0  0  0  0  0
   -0.5720    3.4155   -0.2779 H   0  0  0  0  0  0  0  0  0  0  0  0
    0.0082    2.6383   -3.1986 H   0  0  0  0  0  0  0  0  0  0  0  0
   -0.7398    4.1523   -2.6758 H   0  0  0  0  0  0  0  0  0  0  0  0
    0.9427    3.7965   -2.2419 H   0  0  0  0  0  0  0  0  0  0  0  0
   -2.9130    2.9637   -1.2386 N   0  0  0  0  0  0  0  0  0  0  0  0
   -4.3001    2.5981   -1.4064 C   0  0  0  0  0  0  0  0  0  0  0  0
   -2.6998    3.9375   -1.0436 H   0  0  0  0  0  0  0  0  0  0  0  0
   -4.5792    2.6926   -2.4662 H   0  0  0  0  0  0  0  0  0  0  0  0
   -4.4471    1.5579   -1.0800 H   0  0  0  0  0  0  0  0  0  0  0  0
   -4.9309    3.2651   -0.8003 H   0  0  0  0  0  0  0  0  0  0  0  0
 18 19  1  0  0  0  0
 19 31  1  0  0  0  0
 19 20  2  0  0  0  0
  8  9  1  0  0  0  0
  9 17  1  0  0  0  0
  9 10  2  0  0  0  0
  1  3  1  0  0  0  0
  1  7  1  0  0  0  0
  1  2  2  0  0  0  0
 32 33  1  0  0  0  0
 33 41  1  0  0  0  0
 33 34  2  0  0  0  0
 21 22  1  0  0  0  0
 22 23  1  0  0  0  0
 18 21  1  0  0  0  0
 17 23  1  0  0  0  0
 17 18  1  0  0  0  0
  8 11  1  0  0  0  0
 32 35  1  0  0  0  0
 41 42  1  0  0  0  0
  7  8  1  0  0  0  0
 31 32  1  0  0  0  0
 22 27  1  0  0  0  0
 22 28  1  0  0  0  0
 21 25  1  0  0  0  0
 21 26  1  0  0  0  0
 23 29  1  0  0  0  0
 23 30  1  0  0  0  0
 18 24  1  0  0  0  0
  3  4  1  0  0  0  0
  3  5  1  0  0  0  0
  3  6  1  0  0  0  0
 11 14  1  0  0  0  0
 11 15  1  0  0  0  0
 11 16  1  0  0  0  0
 35 38  1  0  0  0  0
 35 39  1  0  0  0  0
 35 40  1  0  0  0  0
 42 44  1  0  0  0  0
 42 45  1  0  0  0  0
 42 46  1  0  0  0  0
  8 13  1  0  0  0  0
 32 37  1  0  0  0  0
 31 36  1  0  0  0  0
 41 43  1  0  0  0  0
  7 12  1  0  0  0  0
M  END
$$$$

  -OEChem-05262214473D

 46 46  0     1  0  0  0  0  0999 V2000
   -0.6012   -3.2995    3.8205 C   0  0  0  0  0  0  0  0  0  0  0  0
   -0.6574   -4.4683    3.4568 O   0  0  0  0  0  0  0  0  0  0  0  0
   -0.4935   -2.9859    5.2760 C   0  0  0  0  0  0  0  0  0  0  0  0
   -1.4789   -2.8689    5.7550 H   0  0  0  0  0  0  0  0  0  0  0  0
    0.0123   -3.7847    5.8419 H   0  0  0  0  0  0  0  0  0  0  0  0
    0.0585   -2.0642    5.5199 H   0  0  0  0  0  0  0  0  0  0  0  0
   -0.6261   -2.1849    2.9917 N   0  0  0  0  0  0  0  0  0  0  0  0
   -0.7237   -2.2601    1.5650 C   0  0  2  0  0  0  0  0  0  0  0  0
    0.1695   -1.1513    1.0687 C   0  0  0  0  0  0  0  0  0  0  0  0
    0.3193   -0.1267    1.7365 O   0  0  0  0  0  0  0  0  0  0  0  0
   -2.1397   -2.0663    1.0750 C   0  0  0  0  0  0  0  0  0  0  0  0
   -0.5717   -1.2606    3.4238 H   0  0  0  0  0  0  0  0  0  0  0  0
   -0.3076   -3.2111    1.2363 H   0  0  0  0  0  0  0  0  0  0  0  0
   -2.5584   -1.1089    1.4061 H   0  0  0  0  0  0  0  0  0  0  0  0
   -2.1682   -2.0790   -0.0197 H   0  0  0  0  0  0  0  0  0  0  0  0
   -2.7965   -2.8601    1.4459 H   0  0  0  0  0  0  0  0  0  0  0  0
    0.7724   -1.3745   -0.1593 N   0  0  0  0  0  0  0  0  0  0  0  0
    1.6644   -0.4046   -0.7812 C   0  0  2  0  0  0  0  0  0  0  0  0
    0.8166    0.4953   -1.6290 C   0  0  0  0  0  0  0  0  0  0  0  0
    0.3807    0.0841   -2.6980 O   0  0  0  0  0  0  0  0  0  0  0  0
    2.6195   -1.2417   -1.6241 C   0  0  0  0  0  0  0  0  0  0  0  0
    2.1758   -2.2356   -0.5535 C   0  0  0  0  0  0  0  0  0  0  0  0
    0.7499   -2.6270   -0.9105 C   0  0  0  0  0  0  0  0  0  0  0  0
    2.1745    0.2007   -0.0258 H   0  0  0  0  0  0  0  0  0  0  0  0
    3.6296   -0.8175   -1.5784 H   0  0  0  0  0  0  0  0  0  0  0  0
    2.3218   -1.3211   -2.6742 H   0  0  0  0  0  0  0  0  0  0  0  0
    2.8084   -3.1304   -0.5781 H   0  0  0  0  0  0  0  0  0  0  0  0
    2.2249   -1.8085    0.4522 H   0  0  0  0  0  0  0  0  0  0  0  0
    0.5944   -2.7143   -1.9893 H   0  0  0  0  0  0  0  0  0  0  0  0
    0.4645   -3.5695   -0.4308 H   0  0  0  0  0  0  0  0  0  0  0  0
    0.7341    1.8263   -0.8152 N   0  0  0  0  0  0  0  0  0  0  0  0
   -0.1029    2.9190   -1.2562 C   0  0  2  0  0  0  0  0  0  0  0  0
   -1.5551    2.4742   -1.1435 C   0  0  0  0  0  0  0  0  0  0  0  0
   -1.8961    1.2932   -1.1337 O   0  0  0  0  0  0  0  0  0  0  0  0
    0.2304    3.3308   -2.6817 C   0  0  0  0  0  0  0  0  0  0  0  0
    1.3691    1.9865   -0.0390 H   0  0  0  0  0  0  0  0  0  0  0  0
    0.0785    3.7532   -0.5698 H   0  0  0  0  0  0  0  0  0  0  0  0
    0.0549    2.5077   -3.3839 H   0  0  0  0  0  0  0  0  0  0  0  0
   -0.3849    4.1773   -3.0043 H   0  0  0  0  0  0  0  0  0  0  0  0
    1.2828    3.6220   -2.7673 H   0  0  0  0  0  0  0  0  0  0  0  0
   -2.4289    3.5515   -1.0986 N   0  0  0  0  0  0  0  0  0  0  0  0
   -3.8611    3.3904   -1.0044 C   0  0  0  0  0  0  0  0  0  0  0  0
   -2.0569    4.4967   -1.0928 H   0  0  0  0  0  0  0  0  0  0  0  0
   -4.2971    3.3841   -2.0142 H   0  0  0  0  0  0  0  0  0  0  0  0
   -4.0906    2.4401   -0.5001 H   0  0  0  0  0  0  0  0  0  0  0  0
   -4.2865    4.2241   -0.4266 H   0  0  0  0  0  0  0  0  0  0  0  0
 18 19  1  0  0  0  0
 19 31  1  0  0  0  0
 19 20  2  0  0  0  0
  8  9  1  0  0  0  0
  9 17  1  0  0  0  0
  9 10  2  0  0  0  0
  1  3  1  0  0  0  0
  1  7  1  0  0  0  0
  1  2  2  0  0  0  0
 32 33  1  0  0  0  0
 33 41  1  0  0  0  0
 33 34  2  0  0  0  0
 21 22  1  0  0  0  0
 22 23  1  0  0  0  0
 18 21  1  0  0  0  0
 17 23  1  0  0  0  0
 17 18  1  0  0  0  0
  8 11  1  0  0  0  0
 32 35  1  0  0  0  0
 41 42  1  0  0  0  0
  7  8  1  0  0  0  0
 31 32  1  0  0  0  0
 22 27  1  0  0  0  0
 22 28  1  0  0  0  0
 21 25  1  0  0  0  0
 21 26  1  0  0  0  0
 23 29  1  0  0  0  0
 23 30  1  0  0  0  0
 18 24  1  0  0  0  0
  3  4  1  0  0  0  0
  3  5  1  0  0  0  0
  3  6  1  0  0  0  0
 11 14  1  0  0  0  0
 11 15  1  0  0  0  0
 11 16  1  0  0  0  0
 35 38  1  0  0  0  0
 35 39  1  0  0  0  0
 35 40  1  0  0  0  0
 42 44  1  0  0  0  0
 42 45  1  0  0  0  0
 42 46  1  0  0  0  0
  8 13  1  0  0  0  0
 32 37  1  0  0  0  0
 31 36  1  0  0  0  0
 41 43  1  0  0  0  0
  7 12  1  0  0  0  0
M  END
$$$$

  -OEChem-05262214473D

 46 46  0     1  0  0  0  0  0999 V2000
   -0.6012   -3.2995    3.8205 C   0  0  0  0  0  0  0  0  0  0  0  0
   -0.6574   -4.4683    3.4568 O   0  0  0  0  0  0  0  0  0  0  0  0
   -0.4935   -2.9859    5.2760 C   0  0  0  0  0  0  0  0  0  0  0  0
   -1.4789   -2.8689    5.7550 H   0  0  0  0  0  0  0  0  0  0  0  0
    0.0123   -3.7847    5.8419 H   0  0  0  0  0  0  0  0  0  0  0  0
    0.0585   -2.0642    5.5199 H   0  0  0  0  0  0  0  0  0  0  0  0
   -0.6261   -2.1849    2.9917 N   0  0  0  0  0  0  0  0  0  0  0  0
   -0.7237   -2.2601    1.5650 C   0  0  2  0  0  0  0  0  0  0  0  0
    0.1695   -1.1513    1.0687 C   0  0  0  0  0  0  0  0  0  0  0  0
    0.3193   -0.1267    1.7365 O   0  0  0  0  0  0  0  0  0  0  0  0
   -2.1397   -2.0663    1.0750 C   0  0  0  0  0  0  0  0  0  0  0  0
   -0.5717   -1.2606    3.4238 H   0  0  0  0  0  0  0  0  0  0  0  0
   -0.3076   -3.2111    1.2363 H   0  0  0  0  0  0  0  0  0  0  0  0
   -2.5584   -1.1089    1.4061 H   0  0  0  0  0  0  0  0  0  0  0  0
   -2.1682   -2.0790   -0.0197 H   0  0  0  0  0  0  0  0  0  0  0  0
   -2.7965   -2.8601    1.4459 H   0  0  0  0  0  0  0  0  0  0  0  0
    0.7724   -1.3745   -0.1593 N   0  0  0  0  0  0  0  0  0  0  0  0
    1.6644   -0.4046   -0.7812 C   0  0  2  0  0  0  0  0  0  0  0  0
    0.8166    0.4953   -1.6290 C   0  0  0  0  0  0  0  0  0  0  0  0
    0.1577    0.0178   -2.5453 O   0  0  0  0  0  0  0  0  0  0  0  0
    2.6195   -1.2417   -1.6241 C   0  0  0  0  0  0  0  0  0  0  0  0
    2.1758   -2.2356   -0.5535 C   0  0  0  0  0  0  0  0  0  0  0  0
    0.7499   -2.6270   -0.9105 C   0  0  0  0  0  0  0  0  0  0  0  0
    2.1745    0.2007   -0.0258 H   0  0  0  0  0  0  0  0  0  0  0  0
    3.6296   -0.8175   -1.5784 H   0  0  0  0  0  0  0  0  0  0  0  0
    2.3218   -1.3211   -2.6742 H   0  0  0  0  0  0  0  0  0  0  0  0
    2.8084   -3.1304   -0.5781 H   0  0  0  0  0  0  0  0  0  0  0  0
    2.2249   -1.8085    0.4522 H   0  0  0  0  0  0  0  0  0  0  0  0
    0.5944   -2.7143   -1.9893 H   0  0  0  0  0  0  0  0  0  0  0  0
    0.4645   -3.5695   -0.4308 H   0  0  0  0  0  0  0  0  0  0  0  0
    1.0507    1.9200   -1.0324 N   0  0  0  0  0  0  0  0  0  0  0  0
    0.3071    3.0616   -1.5148 C   0  0  2  0  0  0  0  0  0  0  0  0
   -1.1527    2.8711   -1.1246 C   0  0  0  0  0  0  0  0  0  0  0  0
   -1.6433    1.7710   -0.8793 O   0  0  0  0  0  0  0  0  0  0  0  0
    0.4512    3.2197   -3.0204 C   0  0  0  0  0  0  0  0  0  0  0  0
    1.8216    2.0810   -0.3912 H   0  0  0  0  0  0  0  0  0  0  0  0
    0.7109    3.9416   -1.0023 H   0  0  0  0  0  0  0  0  0  0  0  0
    0.0520    2.3476   -3.5510 H   0  0  0  0  0  0  0  0  0  0  0  0
   -0.0893    4.1014   -3.3803 H   0  0  0  0  0  0  0  0  0  0  0  0
    1.5042    3.3268   -3.3021 H   0  0  0  0  0  0  0  0  0  0  0  0
   -1.8535    4.0690   -1.1247 N   0  0  0  0  0  0  0  0  0  0  0  0
   -3.2586    4.1502   -0.8003 C   0  0  0  0  0  0  0  0  0  0  0  0
   -1.3618    4.9356   -1.3220 H   0  0  0  0  0  0  0  0  0  0  0  0
   -3.8533    4.0768   -1.7228 H   0  0  0  0  0  0  0  0  0  0  0  0
   -3.5270    3.3249   -0.1245 H   0  0  0  0  0  0  0  0  0  0  0  0
   -3.4657    5.1109   -0.3061 H   0  0  0  0  0  0  0  0  0  0  0  0
 18 19  1  0  0  0  0
 19 31  1  0  0  0  0
 19 20  2  0  0  0  0
  8  9  1  0  0  0  0
  9 17  1  0  0  0  0
  9 10  2  0  0  0  0
  1  3  1  0  0  0  0
  1  7  1  0  0  0  0
  1  2  2  0  0  0  0
 32 33  1  0  0  0  0
 33 41  1  0  0  0  0
 33 34  2  0  0  0  0
 21 22  1  0  0  0  0
 22 23  1  0  0  0  0
 18 21  1  0  0  0  0
 17 23  1  0  0  0  0
 17 18  1  0  0  0  0
  8 11  1  0  0  0  0
 32 35  1  0  0  0  0
 41 42  1  0  0  0  0
  7  8  1  0  0  0  0
 31 32  1  0  0  0  0
 22 27  1  0  0  0  0
 22 28  1  0  0  0  0
 21 25  1  0  0  0  0
 21 26  1  0  0  0  0
 23 29  1  0  0  0  0
 23 30  1  0  0  0  0
 18 24  1  0  0  0  0
  3  4  1  0  0  0  0
  3  5  1  0  0  0  0
  3  6  1  0  0  0  0
 11 14  1  0  0  0  0
 11 15  1  0  0  0  0
 11 16  1  0  0  0  0
 35 38  1  0  0  0  0
 35 39  1  0  0  0  0
 35 40  1  0  0  0  0
 42 44  1  0  0  0  0
 42 45  1  0  0  0  0
 42 46  1  0  0  0  0
  8 13  1  0  0  0  0
 32 37  1  0  0  0  0
 31 36  1  0  0  0  0
 41 43  1  0  0  0  0
  7 12  1  0  0  0  0
M  END
$$$$

  -OEChem-05262214473D

 46 46  0     1  0  0  0  0  0999 V2000
   -0.6012   -3.2995    3.8205 C   0  0  0  0  0  0  0  0  0  0  0  0
   -0.6574   -4.4683    3.4568 O   0  0  0  0  0  0  0  0  0  0  0  0
   -0.4935   -2.9859    5.2760 C   0  0  0  0  0  0  0  0  0  0  0  0
   -1.4789   -2.8689    5.7550 H   0  0  0  0  0  0  0  0  0  0  0  0
    0.0123   -3.7847    5.8419 H   0  0  0  0  0  0  0  0  0  0  0  0
    0.0585   -2.0642    5.5199 H   0  0  0  0  0  0  0  0  0  0  0  0
   -0.6261   -2.1849    2.9917 N   0  0  0  0  0  0  0  0  0  0  0  0
   -0.7237   -2.2601    1.5650 C   0  0  2  0  0  0  0  0  0  0  0  0
    0.1695   -1.1513    1.0687 C   0  0  0  0  0  0  0  0  0  0  0  0
    0.3193   -0.1267    1.7365 O   0  0  0  0  0  0  0  0  0  0  0  0
   -2.1397   -2.0663    1.0750 C   0  0  0  0  0  0  0  0  0  0  0  0
   -0.5717   -1.2606    3.4238 H   0  0  0  0  0  0  0  0  0  0  0  0
   -0.3076   -3.2111    1.2363 H   0  0  0  0  0  0  0  0  0  0  0  0
   -2.5584   -1.1089    1.4061 H   0  0  0  0  0  0  0  0  0  0  0  0
   -2.1682   -2.0790   -0.0197 H   0  0  0  0  0  0  0  0  0  0  0  0
   -2.7965   -2.8601    1.4459 H   0  0  0  0  0  0  0  0  0  0  0  0
    0.7724   -1.3745   -0.1593 N   0  0  0  0  0  0  0  0  0  0  0  0
    1.6644   -0.4046   -0.7812 C   0  0  2  0  0  0  0  0  0  0  0  0
    0.8166    0.4953   -1.6290 C   0  0  0  0  0  0  0  0  0  0  0  0
   -0.0438    0.0088   -2.3534 O   0  0  0  0  0  0  0  0  0  0  0  0
    2.6195   -1.2417   -1.6241 C   0  0  0  0  0  0  0  0  0  0  0  0
    2.1758   -2.2356   -0.5535 C   0  0  0  0  0  0  0  0  0  0  0  0
    0.7499   -2.6270   -0.9105 C   0  0  0  0  0  0  0  0  0  0  0  0
    2.1745    0.2007   -0.0258 H   0  0  0  0  0  0  0  0  0  0  0  0
    3.6296   -0.8175   -1.5784 H   0  0  0  0  0  0  0  0  0  0  0  0
    2.3218   -1.3211   -2.6742 H   0  0  0  0  0  0  0  0  0  0  0  0
    2.8084   -3.1304   -0.5781 H   0  0  0  0  0  0  0  0  0  0  0  0
    2.2249   -1.8085    0.4522 H   0  0  0  0  0  0  0  0  0  0  0  0
    0.5944   -2.7143   -1.9893 H   0  0  0  0  0  0  0  0  0  0  0  0
    0.4645   -3.5695   -0.4308 H   0  0  0  0  0  0  0  0  0  0  0  0
    1.3365    1.9324   -1.3050 N   0  0  0  0  0  0  0  0  0  0  0  0
    0.6838    3.1016   -1.8492 C   0  0  2  0  0  0  0  0  0  0  0  0
   -0.7029    3.1983   -1.2271 C   0  0  0  0  0  0  0  0  0  0  0  0
   -1.2897    2.2328   -0.7428 O   0  0  0  0  0  0  0  0  0  0  0  0
    0.5955    3.0305   -3.3657 C   0  0  0  0  0  0  0  0  0  0  0  0
    2.2179    2.0546   -0.8155 H   0  0  0  0  0  0  0  0  0  0  0  0
    1.2821    3.9677   -1.5458 H   0  0  0  0  0  0  0  0  0  0  0  0
   -0.0002    2.1689   -3.6886 H   0  0  0  0  0  0  0  0  0  0  0  0
    0.1266    3.9298   -3.7784 H   0  0  0  0  0  0  0  0  0  0  0  0
    1.5918    2.9310   -3.8099 H   0  0  0  0  0  0  0  0  0  0  0  0
   -1.2261    4.4808   -1.3150 N   0  0  0  0  0  0  0  0  0  0  0  0
   -2.5337    4.8259   -0.8080 C   0  0  0  0  0  0  0  0  0  0  0  0
   -0.6617    5.2242   -1.7157 H   0  0  0  0  0  0  0  0  0  0  0  0
   -3.2778    4.7236   -1.6115 H   0  0  0  0  0  0  0  0  0  0  0  0
   -2.7948    4.1520    0.0213 H   0  0  0  0  0  0  0  0  0  0  0  0
   -2.5243    5.8649   -0.4471 H   0  0  0  0  0  0  0  0  0  0  0  0
 18 19  1  0  0  0  0
 19 31  1  0  0  0  0
 19 20  2  0  0  0  0
  8  9  1  0  0  0  0
  9 17  1  0  0  0  0
  9 10  2  0  0  0  0
  1  3  1  0  0  0  0
  1  7  1  0  0  0  0
  1  2  2  0  0  0  0
 32 33  1  0  0  0  0
 33 41  1  0  0  0  0
 33 34  2  0  0  0  0
 21 22  1  0  0  0  0
 22 23  1  0  0  0  0
 18 21  1  0  0  0  0
 17 23  1  0  0  0  0
 17 18  1  0  0  0  0
  8 11  1  0  0  0  0
 32 35  1  0  0  0  0
 41 42  1  0  0  0  0
  7  8  1  0  0  0  0
 31 32  1  0  0  0  0
 22 27  1  0  0  0  0
 22 28  1  0  0  0  0
 21 25  1  0  0  0  0
 21 26  1  0  0  0  0
 23 29  1  0  0  0  0
 23 30  1  0  0  0  0
 18 24  1  0  0  0  0
  3  4  1  0  0  0  0
  3  5  1  0  0  0  0
  3  6  1  0  0  0  0
 11 14  1  0  0  0  0
 11 15  1  0  0  0  0
 11 16  1  0  0  0  0
 35 38  1  0  0  0  0
 35 39  1  0  0  0  0
 35 40  1  0  0  0  0
 42 44  1  0  0  0  0
 42 45  1  0  0  0  0
 42 46  1  0  0  0  0
  8 13  1  0  0  0  0
 32 37  1  0  0  0  0
 31 36  1  0  0  0  0
 41 43  1  0  0  0  0
  7 12  1  0  0  0  0
M  END
$$$$

  -OEChem-05262214473D

 46 46  0     1  0  0  0  0  0999 V2000
   -0.6012   -3.2995    3.8205 C   0  0  0  0  0  0  0  0  0  0  0  0
   -0.6574   -4.4683    3.4568 O   0  0  0  0  0  0  0  0  0  0  0  0
   -0.4935   -2.9859    5.2760 C   0  0  0  0  0  0  0  0  0  0  0  0
   -1.4789   -2.8689    5.7550 H   0  0  0  0  0  0  0  0  0  0  0  0
    0.0123   -3.7847    5.8419 H   0  0  0  0  0  0  0  0  0  0  0  0
    0.0585   -2.0642    5.5199 H   0  0  0  0  0  0  0  0  0  0  0  0
   -0.6261   -2.1849    2.9917 N   0  0  0  0  0  0  0  0  0  0  0  0
   -0.7237   -2.2601    1.5650 C   0  0  2  0  0  0  0  0  0  0  0  0
    0.1695   -1.1513    1.0687 C   0  0  0  0  0  0  0  0  0  0  0  0
    0.3193   -0.1267    1.7365 O   0  0  0  0  0  0  0  0  0  0  0  0
   -2.1397   -2.0663    1.0750 C   0  0  0  0  0  0  0  0  0  0  0  0
   -0.5717   -1.2606    3.4238 H   0  0  0  0  0  0  0  0  0  0  0  0
   -0.3076   -3.2111    1.2363 H   0  0  0  0  0  0  0  0  0  0  0  0
   -2.5584   -1.1089    1.4061 H   0  0  0  0  0  0  0  0  0  0  0  0
   -2.1682   -2.0790   -0.0197 H   0  0  0  0  0  0  0  0  0  0  0  0
   -2.7965   -2.8601    1.4459 H   0  0  0  0  0  0  0  0  0  0  0  0
    0.7724   -1.3745   -0.1593 N   0  0  0  0  0  0  0  0  0  0  0  0
    1.6644   -0.4046   -0.7812 C   0  0  2  0  0  0  0  0  0  0  0  0
    0.8166    0.4953   -1.6290 C   0  0  0  0  0  0  0  0  0  0  0  0
   -0.2099    0.0576   -2.1355 O   0  0  0  0  0  0  0  0  0  0  0  0
    2.6195   -1.2417   -1.6241 C   0  0  0  0  0  0  0  0  0  0  0  0
    2.1758   -2.2356   -0.5535 C   0  0  0  0  0  0  0  0  0  0  0  0
    0.7499   -2.6270   -0.9105 C   0  0  0  0  0  0  0  0  0  0  0  0
    2.1745    0.2007   -0.0258 H   0  0  0  0  0  0  0  0  0  0  0  0
    3.6296   -0.8175   -1.5784 H   0  0  0  0  0  0  0  0  0  0  0  0
    2.3218   -1.3211   -2.6742 H   0  0  0  0  0  0  0  0  0  0  0  0
    2.8084   -3.1304   -0.5781 H   0  0  0  0  0  0  0  0  0  0  0  0
    2.2249   -1.8085    0.4522 H   0  0  0  0  0  0  0  0  0  0  0  0
    0.5944   -2.7143   -1.9893 H   0  0  0  0  0  0  0  0  0  0  0  0
    0.4645   -3.5695   -0.4308 H   0  0  0  0  0  0  0  0  0  0  0  0
    1.5721    1.8626   -1.6146 N   0  0  0  0  0  0  0  0  0  0  0  0
    1.0016    3.0361   -2.2365 C   0  0  2  0  0  0  0  0  0  0  0  0
   -0.2365    3.4336   -1.4437 C   0  0  0  0  0  0  0  0  0  0  0  0
   -0.8593    2.6471   -0.7334 O   0  0  0  0  0  0  0  0  0  0  0  0
    0.6536    2.7761   -3.6939 C   0  0  0  0  0  0  0  0  0  0  0  0
    2.5309    1.9090   -1.2831 H   0  0  0  0  0  0  0  0  0  0  0  0
    1.7532    3.8297   -2.1634 H   0  0  0  0  0  0  0  0  0  0  0  0
   -0.0981    1.9838   -3.7872 H   0  0  0  0  0  0  0  0  0  0  0  0
    0.2481    3.6742   -4.1713 H   0  0  0  0  0  0  0  0  0  0  0  0
    1.5396    2.4615   -4.2560 H   0  0  0  0  0  0  0  0  0  0  0  0
   -0.5893    4.7588   -1.6567 N   0  0  0  0  0  0  0  0  0  0  0  0
   -1.7357    5.3713   -1.0269 C   0  0  0  0  0  0  0  0  0  0  0  0
   -0.0044    5.3430   -2.2470 H   0  0  0  0  0  0  0  0  0  0  0  0
   -2.6101    5.2805   -1.6882 H   0  0  0  0  0  0  0  0  0  0  0  0
   -1.9437    4.8651   -0.0727 H   0  0  0  0  0  0  0  0  0  0  0  0
   -1.5265    6.4349   -0.8398 H   0  0  0  0  0  0  0  0  0  0  0  0
 18 19  1  0  0  0  0
 19 31  1  0  0  0  0
 19 20  2  0  0  0  0
  8  9  1  0  0  0  0
  9 17  1  0  0  0  0
  9 10  2  0  0  0  0
  1  3  1  0  0  0  0
  1  7  1  0  0  0  0
  1  2  2  0  0  0  0
 32 33  1  0  0  0  0
 33 41  1  0  0  0  0
 33 34  2  0  0  0  0
 21 22  1  0  0  0  0
 22 23  1  0  0  0  0
 18 21  1  0  0  0  0
 17 23  1  0  0  0  0
 17 18  1  0  0  0  0
  8 11  1  0  0  0  0
 32 35  1  0  0  0  0
 41 42  1  0  0  0  0
  7  8  1  0  0  0  0
 31 32  1  0  0  0  0
 22 27  1  0  0  0  0
 22 28  1  0  0  0  0
 21 25  1  0  0  0  0
 21 26  1  0  0  0  0
 23 29  1  0  0  0  0
 23 30  1  0  0  0  0
 18 24  1  0  0  0  0
  3  4  1  0  0  0  0
  3  5  1  0  0  0  0
  3  6  1  0  0  0  0
 11 14  1  0  0  0  0
 11 15  1  0  0  0  0
 11 16  1  0  0  0  0
 35 38  1  0  0  0  0
 35 39  1  0  0  0  0
 35 40  1  0  0  0  0
 42 44  1  0  0  0  0
 42 45  1  0  0  0  0
 42 46  1  0  0  0  0
  8 13  1  0  0  0  0
 32 37  1  0  0  0  0
 31 36  1  0  0  0  0
 41 43  1  0  0  0  0
  7 12  1  0  0  0  0
M  END
$$$$

  -OEChem-05262214473D

 46 46  0     1  0  0  0  0  0999 V2000
   -0.6012   -3.2995    3.8205 C   0  0  0  0  0  0  0  0  0  0  0  0
   -0.6574   -4.4683    3.4568 O   0  0  0  0  0  0  0  0  0  0  0  0
   -0.4935   -2.9859    5.2760 C   0  0  0  0  0  0  0  0  0  0  0  0
   -1.4789   -2.8689    5.7550 H   0  0  0  0  0  0  0  0  0  0  0  0
    0.0123   -3.7847    5.8419 H   0  0  0  0  0  0  0  0  0  0  0  0
    0.0585   -2.0642    5.5199 H   0  0  0  0  0  0  0  0  0  0  0  0
   -0.6261   -2.1849    2.9917 N   0  0  0  0  0  0  0  0  0  0  0  0
   -0.7237   -2.2601    1.5650 C   0  0  2  0  0  0  0  0  0  0  0  0
    0.1695   -1.1513    1.0687 C   0  0  0  0  0  0  0  0  0  0  0  0
    0.3193   -0.1267    1.7365 O   0  0  0  0  0  0  0  0  0  0  0  0
   -2.1397   -2.0663    1.0750 C   0  0  0  0  0  0  0  0  0  0  0  0
   -0.5717   -1.2606    3.4238 H   0  0  0  0  0  0  0  0  0  0  0  0
   -0.3076   -3.2111    1.2363 H   0  0  0  0  0  0  0  0  0  0  0  0
   -2.5584   -1.1089    1.4061 H   0  0  0  0  0  0  0  0  0  0  0  0
   -2.1682   -2.0790   -0.0197 H   0  0  0  0  0  0  0  0  0  0  0  0
   -2.7965   -2.8601    1.4459 H   0  0  0  0  0  0  0  0  0  0  0  0
    0.7724   -1.3745   -0.1593 N   0  0  0  0  0  0  0  0  0  0  0  0
    1.6644   -0.4046   -0.7812 C   0  0  2  0  0  0  0  0  0  0  0  0
    0.8166    0.4953   -1.6290 C   0  0  0  0  0  0  0  0  0  0  0  0
   -0.3293    0.1610   -1.9064 O   0  0  0  0  0  0  0  0  0  0  0  0
    2.6195   -1.2417   -1.6241 C   0  0  0  0  0  0  0  0  0  0  0  0
    2.1758   -2.2356   -0.5535 C   0  0  0  0  0  0  0  0  0  0  0  0
    0.7499   -2.6270   -0.9105 C   0  0  0  0  0  0  0  0  0  0  0  0
    2.1745    0.2007   -0.0258 H   0  0  0  0  0  0  0  0  0  0  0  0
    3.6296   -0.8175   -1.5784 H   0  0  0  0  0  0  0  0  0  0  0  0
    2.3218   -1.3211   -2.6742 H   0  0  0  0  0  0  0  0  0  0  0  0
    2.8084   -3.1304   -0.5781 H   0  0  0  0  0  0  0  0  0  0  0  0
    2.2249   -1.8085    0.4522 H   0  0  0  0  0  0  0  0  0  0  0  0
    0.5944   -2.7143   -1.9893 H   0  0  0  0  0  0  0  0  0  0  0  0
    0.4645   -3.5695   -0.4308 H   0  0  0  0  0  0  0  0  0  0  0  0
    1.7413    1.7155   -1.9401 N   0  0  0  0  0  0  0  0  0  0  0  0
    1.2388    2.8696   -2.6504 C   0  0  2  0  0  0  0  0  0  0  0  0
    0.2148    3.5608   -1.7599 C   0  0  0  0  0  0  0  0  0  0  0  0
   -0.3815    2.9856   -0.8519 O   0  0  0  0  0  0  0  0  0  0  0  0
    0.6215    2.4737   -3.9827 C   0  0  0  0  0  0  0  0  0  0  0  0
    2.7392    1.6540   -1.7621 H   0  0  0  0  0  0  0  0  0  0  0  0
    2.0921    3.5371   -2.8130 H   0  0  0  0  0  0  0  0  0  0  0  0
   -0.2351    1.8049   -3.8401 H   0  0  0  0  0  0  0  0  0  0  0  0
    0.2671    3.3520   -4.5323 H   0  0  0  0  0  0  0  0  0  0  0  0
    1.3510    1.9503   -4.6101 H   0  0  0  0  0  0  0  0  0  0  0  0
    0.0134    4.8842   -2.1263 N   0  0  0  0  0  0  0  0  0  0  0  0
   -0.9192    5.7493   -1.4422 C   0  0  0  0  0  0  0  0  0  0  0  0
    0.5653    5.2837   -2.8797 H   0  0  0  0  0  0  0  0  0  0  0  0
   -1.8955    5.7094   -1.9475 H   0  0  0  0  0  0  0  0  0  0  0  0
   -1.0320    5.4156   -0.4001 H   0  0  0  0  0  0  0  0  0  0  0  0
   -0.5404    6.7819   -1.4577 H   0  0  0  0  0  0  0  0  0  0  0  0
 18 19  1  0  0  0  0
 19 31  1  0  0  0  0
 19 20  2  0  0  0  0
  8  9  1  0  0  0  0
  9 17  1  0  0  0  0
  9 10  2  0  0  0  0
  1  3  1  0  0  0  0
  1  7  1  0  0  0  0
  1  2  2  0  0  0  0
 32 33  1  0  0  0  0
 33 41  1  0  0  0  0
 33 34  2  0  0  0  0
 21 22  1  0  0  0  0
 22 23  1  0  0  0  0
 18 21  1  0  0  0  0
 17 23  1  0  0  0  0
 17 18  1  0  0  0  0
  8 11  1  0  0  0  0
 32 35  1  0  0  0  0
 41 42  1  0  0  0  0
  7  8  1  0  0  0  0
 31 32  1  0  0  0  0
 22 27  1  0  0  0  0
 22 28  1  0  0  0  0
 21 25  1  0  0  0  0
 21 26  1  0  0  0  0
 23 29  1  0  0  0  0
 23 30  1  0  0  0  0
 18 24  1  0  0  0  0
  3  4  1  0  0  0  0
  3  5  1  0  0  0  0
  3  6  1  0  0  0  0
 11 14  1  0  0  0  0
 11 15  1  0  0  0  0
 11 16  1  0  0  0  0
 35 38  1  0  0  0  0
 35 39  1  0  0  0  0
 35 40  1  0  0  0  0
 42 44  1  0  0  0  0
 42 45  1  0  0  0  0
 42 46  1  0  0  0  0
  8 13  1  0  0  0  0
 32 37  1  0  0  0  0
 31 36  1  0  0  0  0
 41 43  1  0  0  0  0
  7 12  1  0  0  0  0
M  END
$$$$

  -OEChem-05262214473D

 46 46  0     1  0  0  0  0  0999 V2000
   -0.6012   -3.2995    3.8205 C   0  0  0  0  0  0  0  0  0  0  0  0
   -0.6574   -4.4683    3.4568 O   0  0  0  0  0  0  0  0  0  0  0  0
   -0.4935   -2.9859    5.2760 C   0  0  0  0  0  0  0  0  0  0  0  0
   -1.4789   -2.8689    5.7550 H   0  0  0  0  0  0  0  0  0  0  0  0
    0.0123   -3.7847    5.8419 H   0  0  0  0  0  0  0  0  0  0  0  0
    0.0585   -2.0642    5.5199 H   0  0  0  0  0  0  0  0  0  0  0  0
   -0.6261   -2.1849    2.9917 N   0  0  0  0  0  0  0  0  0  0  0  0
   -0.7237   -2.2601    1.5650 C   0  0  2  0  0  0  0  0  0  0  0  0
    0.1695   -1.1513    1.0687 C   0  0  0  0  0  0  0  0  0  0  0  0
    0.3193   -0.1267    1.7365 O   0  0  0  0  0  0  0  0  0  0  0  0
   -2.1397   -2.0663    1.0750 C   0  0  0  0  0  0  0  0  0  0  0  0
   -0.5717   -1.2606    3.4238 H   0  0  0  0  0  0  0  0  0  0  0  0
   -0.3076   -3.2111    1.2363 H   0  0  0  0  0  0  0  0  0  0  0  0
   -2.5584   -1.1089    1.4061 H   0  0  0  0  0  0  0  0  0  0  0  0
   -2.1682   -2.0790   -0.0197 H   0  0  0  0  0  0  0  0  0  0  0  0
   -2.7965   -2.8601    1.4459 H   0  0  0  0  0  0  0  0  0  0  0  0
    0.7724   -1.3745   -0.1593 N   0  0  0  0  0  0  0  0  0  0  0  0
    1.6644   -0.4046   -0.7812 C   0  0  2  0  0  0  0  0  0  0  0  0
    0.8081    0.7026   -1.3179 C   0  0  0  0  0  0  0  0  0  0  0  0
   -0.4080    0.6485   -1.1770 O   0  0  0  0  0  0  0  0  0  0  0  0
    2.3573   -1.1764   -1.8982 C   0  0  0  0  0  0  0  0  0  0  0  0
    2.2167   -2.5785   -1.3107 C   0  0  0  0  0  0  0  0  0  0  0  0
    0.7499   -2.6270   -0.9105 C   0  0  0  0  0  0  0  0  0  0  0  0
    2.3623    0.0129   -0.0492 H   0  0  0  0  0  0  0  0  0  0  0  0
    3.4062   -0.8655   -1.9737 H   0  0  0  0  0  0  0  0  0  0  0  0
    1.8846   -1.0490   -2.8769 H   0  0  0  0  0  0  0  0  0  0  0  0
    2.4331   -3.3352   -2.0736 H   0  0  0  0  0  0  0  0  0  0  0  0
    2.8910   -2.7415   -0.4651 H   0  0  0  0  0  0  0  0  0  0  0  0
    0.0783   -2.6509   -1.7731 H   0  0  0  0  0  0  0  0  0  0  0  0
    0.5408   -3.4912   -0.2707 H   0  0  0  0  0  0  0  0  0  0  0  0
    1.7395    1.7039   -1.9610 N   0  0  0  0  0  0  0  0  0  0  0  0
    1.2352    2.8543   -2.6761 C   0  0  2  0  0  0  0  0  0  0  0  0
    0.2262    3.5600   -1.7798 C   0  0  0  0  0  0  0  0  0  0  0  0
   -0.3623    2.9969   -0.8591 O   0  0  0  0  0  0  0  0  0  0  0  0
    0.5993    2.4496   -3.9969 C   0  0  0  0  0  0  0  0  0  0  0  0
    2.7392    1.6382   -1.7946 H   0  0  0  0  0  0  0  0  0  0  0  0
    2.0903    3.5151   -2.8554 H   0  0  0  0  0  0  0  0  0  0  0  0
   -0.2594    1.7873   -3.8375 H   0  0  0  0  0  0  0  0  0  0  0  0
    0.2433    3.3248   -4.5505 H   0  0  0  0  0  0  0  0  0  0  0  0
    1.3180    1.9160   -4.6282 H   0  0  0  0  0  0  0  0  0  0  0  0
    0.0281    4.8811   -2.1562 N   0  0  0  0  0  0  0  0  0  0  0  0
   -0.8909    5.7581   -1.4691 C   0  0  0  0  0  0  0  0  0  0  0  0
    0.5731    5.2701   -2.9200 H   0  0  0  0  0  0  0  0  0  0  0  0
   -1.8735    5.7193   -1.9620 H   0  0  0  0  0  0  0  0  0  0  0  0
   -0.9929    5.4350   -0.4225 H   0  0  0  0  0  0  0  0  0  0  0  0
   -0.5063    6.7883   -1.4989 H   0  0  0  0  0  0  0  0  0  0  0  0
 18 19  1  0  0  0  0
 19 31  1  0  0  0  0
 19 20  2  0  0  0  0
  8  9  1  0  0  0  0
  9 17  1  0  0  0  0
  9 10  2  0  0  0  0
  1  3  1  0  0  0  0
  1  7  1  0  0  0  0
  1  2  2  0  0  0  0
 32 33  1  0  0  0  0
 33 41  1  0  0  0  0
 33 34  2  0  0  0  0
 21 22  1  0  0  0  0
 22 23  1  0  0  0  0
 18 21  1  0  0  0  0
 17 23  1  0  0  0  0
 17 18  1  0  0  0  0
  8 11  1  0  0  0  0
 32 35  1  0  0  0  0
 41 42  1  0  0  0  0
  7  8  1  0  0  0  0
 31 32  1  0  0  0  0
 22 27  1  0  0  0  0
 22 28  1  0  0  0  0
 21 25  1  0  0  0  0
 21 26  1  0  0  0  0
 23 29  1  0  0  0  0
 23 30  1  0  0  0  0
 18 24  1  0  0  0  0
  3  4  1  0  0  0  0
  3  5  1  0  0  0  0
  3  6  1  0  0  0  0
 11 14  1  0  0  0  0
 11 15  1  0  0  0  0
 11 16  1  0  0  0  0
 35 38  1  0  0  0  0
 35 39  1  0  0  0  0
 35 40  1  0  0  0  0
 42 44  1  0  0  0  0
 42 45  1  0  0  0  0
 42 46  1  0  0  0  0
  8 13  1  0  0  0  0
 32 37  1  0  0  0  0
 31 36  1  0  0  0  0
 41 43  1  0  0  0  0
  7 12  1  0  0  0  0
M  END
$$$$

  -OEChem-05262214473D

 46 46  0     1  0  0  0  0  0999 V2000
   -0.6012   -3.2995    3.8205 C   0  0  0  0  0  0  0  0  0  0  0  0
   -0.6574   -4.4683    3.4568 O   0  0  0  0  0  0  0  0  0  0  0  0
   -0.4935   -2.9859    5.2760 C   0  0  0  0  0  0  0  0  0  0  0  0
   -1.4789   -2.8689    5.7550 H   0  0  0  0  0  0  0  0  0  0  0  0
    0.0123   -3.7847    5.8419 H   0  0  0  0  0  0  0  0  0  0  0  0
    0.0585   -2.0642    5.5199 H   0  0  0  0  0  0  0  0  0  0  0  0
   -0.6261   -2.1849    2.9917 N   0  0  0  0  0  0  0  0  0  0  0  0
   -0.7237   -2.2601    1.5650 C   0  0  2  0  0  0  0  0  0  0  0  0
    0.1695   -1.1513    1.0687 C   0  0  0  0  0  0  0  0  0  0  0  0
    0.3193   -0.1267    1.7365 O   0  0  0  0  0  0  0  0  0  0  0  0
   -2.1397   -2.0663    1.0750 C   0  0  0  0  0  0  0  0  0  0  0  0
   -0.5717   -1.2606    3.4238 H   0  0  0  0  0  0  0  0  0  0  0  0
   -0.3076   -3.2111    1.2363 H   0  0  0  0  0  0  0  0  0  0  0  0
   -2.5584   -1.1089    1.4061 H   0  0  0  0  0  0  0  0  0  0  0  0
   -2.1682   -2.0790   -0.0197 H   0  0  0  0  0  0  0  0  0  0  0  0
   -2.7965   -2.8601    1.4459 H   0  0  0  0  0  0  0  0  0  0  0  0
    0.7724   -1.3745   -0.1593 N   0  0  0  0  0  0  0  0  0  0  0  0
    1.6644   -0.4046   -0.7812 C   0  0  2  0  0  0  0  0  0  0  0  0
    0.8081    0.7026   -1.3179 C   0  0  0  0  0  0  0  0  0  0  0  0
   -0.3564    0.7990   -0.9487 O   0  0  0  0  0  0  0  0  0  0  0  0
    2.3573   -1.1764   -1.8982 C   0  0  0  0  0  0  0  0  0  0  0  0
    2.2167   -2.5785   -1.3107 C   0  0  0  0  0  0  0  0  0  0  0  0
    0.7499   -2.6270   -0.9105 C   0  0  0  0  0  0  0  0  0  0  0  0
    2.3623    0.0129   -0.0492 H   0  0  0  0  0  0  0  0  0  0  0  0
    3.4062   -0.8655   -1.9737 H   0  0  0  0  0  0  0  0  0  0  0  0
    1.8846   -1.0490   -2.8769 H   0  0  0  0  0  0  0  0  0  0  0  0
    2.4331   -3.3352   -2.0736 H   0  0  0  0  0  0  0  0  0  0  0  0
    2.8910   -2.7415   -0.4651 H   0  0  0  0  0  0  0  0  0  0  0  0
    0.0783   -2.6509   -1.7731 H   0  0  0  0  0  0  0  0  0  0  0  0
    0.5408   -3.4912   -0.2707 H   0  0  0  0  0  0  0  0  0  0  0  0
    1.6691    1.4995   -2.2705 N   0  0  0  0  0  0  0  0  0  0  0  0
    1.1247    2.5867   -3.0519 C   0  0  2  0  0  0  0  0  0  0  0  0
    0.3717    3.5139   -2.1071 C   0  0  0  0  0  0  0  0  0  0  0  0
   -0.0649    3.1504   -1.0170 O   0  0  0  0  0  0  0  0  0  0  0  0
    0.2100    2.0730   -4.1529 C   0  0  0  0  0  0  0  0  0  0  0  0
    2.6736    1.3509   -2.2829 H   0  0  0  0  0  0  0  0  0  0  0  0
    1.9764    3.1209   -3.4870 H   0  0  0  0  0  0  0  0  0  0  0  0
   -0.6492    1.5349   -3.7362 H   0  0  0  0  0  0  0  0  0  0  0  0
   -0.1790    2.8959   -4.7617 H   0  0  0  0  0  0  0  0  0  0  0  0
    0.7453    1.3830   -4.8141 H   0  0  0  0  0  0  0  0  0  0  0  0
    0.2070    4.7835   -2.6430 N   0  0  0  0  0  0  0  0  0  0  0  0
   -0.4861    5.8407   -1.9446 C   0  0  0  0  0  0  0  0  0  0  0  0
    0.6186    5.0021   -3.5455 H   0  0  0  0  0  0  0  0  0  0  0  0
   -1.5469    5.8393   -2.2358 H   0  0  0  0  0  0  0  0  0  0  0  0
   -0.4037    5.6788   -0.8597 H   0  0  0  0  0  0  0  0  0  0  0  0
   -0.0356    6.8096   -2.2060 H   0  0  0  0  0  0  0  0  0  0  0  0
 18 19  1  0  0  0  0
 19 31  1  0  0  0  0
 19 20  2  0  0  0  0
  8  9  1  0  0  0  0
  9 17  1  0  0  0  0
  9 10  2  0  0  0  0
  1  3  1  0  0  0  0
  1  7  1  0  0  0  0
  1  2  2  0  0  0  0
 32 33  1  0  0  0  0
 33 41  1  0  0  0  0
 33 34  2  0  0  0  0
 21 22  1  0  0  0  0
 22 23  1  0  0  0  0
 18 21  1  0  0  0  0
 17 23  1  0  0  0  0
 17 18  1  0  0  0  0
  8 11  1  0  0  0  0
 32 35  1  0  0  0  0
 41 42  1  0  0  0  0
  7  8  1  0  0  0  0
 31 32  1  0  0  0  0
 22 27  1  0  0  0  0
 22 28  1  0  0  0  0
 21 25  1  0  0  0  0
 21 26  1  0  0  0  0
 23 29  1  0  0  0  0
 23 30  1  0  0  0  0
 18 24  1  0  0  0  0
  3  4  1  0  0  0  0
  3  5  1  0  0  0  0
  3  6  1  0  0  0  0
 11 14  1  0  0  0  0
 11 15  1  0  0  0  0
 11 16  1  0  0  0  0
 35 38  1  0  0  0  0
 35 39  1  0  0  0  0
 35 40  1  0  0  0  0
 42 44  1  0  0  0  0
 42 45  1  0  0  0  0
 42 46  1  0  0  0  0
  8 13  1  0  0  0  0
 32 37  1  0  0  0  0
 31 36  1  0  0  0  0
 41 43  1  0  0  0  0
  7 12  1  0  0  0  0
M  END
$$$$

  -OEChem-05262214473D

 46 46  0     1  0  0  0  0  0999 V2000
   -0.6012   -3.2995    3.8205 C   0  0  0  0  0  0  0  0  0  0  0  0
   -0.6574   -4.4683    3.4568 O   0  0  0  0  0  0  0  0  0  0  0  0
   -0.4935   -2.9859    5.2760 C   0  0  0  0  0  0  0  0  0  0  0  0
   -1.4789   -2.8689    5.7550 H   0  0  0  0  0  0  0  0  0  0  0  0
    0.0123   -3.7847    5.8419 H   0  0  0  0  0  0  0  0  0  0  0  0
    0.0585   -2.0642    5.5199 H   0  0  0  0  0  0  0  0  0  0  0  0
   -0.6261   -2.1849    2.9917 N   0  0  0  0  0  0  0  0  0  0  0  0
   -0.7237   -2.2601    1.5650 C   0  0  2  0  0  0  0  0  0  0  0  0
    0.1695   -1.1513    1.0687 C   0  0  0  0  0  0  0  0  0  0  0  0
    0.3193   -0.1267    1.7365 O   0  0  0  0  0  0  0  0  0  0  0  0
   -2.1397   -2.0663    1.0750 C   0  0  0  0  0  0  0  0  0  0  0  0
   -0.5717   -1.2606    3.4238 H   0  0  0  0  0  0  0  0  0  0  0  0
   -0.3076   -3.2111    1.2363 H   0  0  0  0  0  0  0  0  0  0  0  0
   -2.5584   -1.1089    1.4061 H   0  0  0  0  0  0  0  0  0  0  0  0
   -2.1682   -2.0790   -0.0197 H   0  0  0  0  0  0  0  0  0  0  0  0
   -2.7965   -2.8601    1.4459 H   0  0  0  0  0  0  0  0  0  0  0  0
    0.7724   -1.3745   -0.1593 N   0  0  0  0  0  0  0  0  0  0  0  0
    1.6644   -0.4046   -0.7812 C   0  0  2  0  0  0  0  0  0  0  0  0
    0.8081    0.7026   -1.3179 C   0  0  0  0  0  0  0  0  0  0  0  0
   -0.2490    0.9734   -0.7602 O   0  0  0  0  0  0  0  0  0  0  0  0
    2.3573   -1.1764   -1.8982 C   0  0  0  0  0  0  0  0  0  0  0  0
    2.2167   -2.5785   -1.3107 C   0  0  0  0  0  0  0  0  0  0  0  0
    0.7499   -2.6270   -0.9105 C   0  0  0  0  0  0  0  0  0  0  0  0
    2.3623    0.0129   -0.0492 H   0  0  0  0  0  0  0  0  0  0  0  0
    3.4062   -0.8655   -1.9737 H   0  0  0  0  0  0  0  0  0  0  0  0
    1.8846   -1.0490   -2.8769 H   0  0  0  0  0  0  0  0  0  0  0  0
    2.4331   -3.3352   -2.0736 H   0  0  0  0  0  0  0  0  0  0  0  0
    2.8910   -2.7415   -0.4651 H   0  0  0  0  0  0  0  0  0  0  0  0
    0.0783   -2.6509   -1.7731 H   0  0  0  0  0  0  0  0  0  0  0  0
    0.5408   -3.4912   -0.2707 H   0  0  0  0  0  0  0  0  0  0  0  0
    1.5229    1.2627   -2.5258 N   0  0  0  0  0  0  0  0  0  0  0  0
    0.9213    2.2829   -3.3542 C   0  0  2  0  0  0  0  0  0  0  0  0
    0.4454    3.4076   -2.4442 C   0  0  0  0  0  0  0  0  0  0  0  0
    0.2064    3.2477   -1.2491 O   0  0  0  0  0  0  0  0  0  0  0  0
   -0.2307    1.7222   -4.1734 C   0  0  0  0  0  0  0  0  0  0  0  0
    2.4904    1.0072   -2.6996 H   0  0  0  0  0  0  0  0  0  0  0  0
    1.7091    2.6573   -4.0171 H   0  0  0  0  0  0  0  0  0  0  0  0
   -1.0298    1.3423   -3.5264 H   0  0  0  0  0  0  0  0  0  0  0  0
   -0.6670    2.4894   -4.8216 H   0  0  0  0  0  0  0  0  0  0  0  0
    0.1073    0.8938   -4.8054 H   0  0  0  0  0  0  0  0  0  0  0  0
    0.2777    4.6007   -3.1330 N   0  0  0  0  0  0  0  0  0  0  0  0
   -0.1784    5.8127   -2.4935 C   0  0  0  0  0  0  0  0  0  0  0  0
    0.5181    4.6466   -4.1188 H   0  0  0  0  0  0  0  0  0  0  0  0
   -1.2726    5.8843   -2.5804 H   0  0  0  0  0  0  0  0  0  0  0  0
    0.1045    5.7950   -1.4306 H   0  0  0  0  0  0  0  0  0  0  0  0
    0.2858    6.6820   -2.9821 H   0  0  0  0  0  0  0  0  0  0  0  0
 18 19  1  0  0  0  0
 19 31  1  0  0  0  0
 19 20  2  0  0  0  0
  8  9  1  0  0  0  0
  9 17  1  0  0  0  0
  9 10  2  0  0  0  0
  1  3  1  0  0  0  0
  1  7  1  0  0  0  0
  1  2  2  0  0  0  0
 32 33  1  0  0  0  0
 33 41  1  0  0  0  0
 33 34  2  0  0  0  0
 21 22  1  0  0  0  0
 22 23  1  0  0  0  0
 18 21  1  0  0  0  0
 17 23  1  0  0  0  0
 17 18  1  0  0  0  0
  8 11  1  0  0  0  0
 32 35  1  0  0  0  0
 41 42  1  0  0  0  0
  7  8  1  0  0  0  0
 31 32  1  0  0  0  0
 22 27  1  0  0  0  0
 22 28  1  0  0  0  0
 21 25  1  0  0  0  0
 21 26  1  0  0  0  0
 23 29  1  0  0  0  0
 23 30  1  0  0  0  0
 18 24  1  0  0  0  0
  3  4  1  0  0  0  0
  3  5  1  0  0  0  0
  3  6  1  0  0  0  0
 11 14  1  0  0  0  0
 11 15  1  0  0  0  0
 11 16  1  0  0  0  0
 35 38  1  0  0  0  0
 35 39  1  0  0  0  0
 35 40  1  0  0  0  0
 42 44  1  0  0  0  0
 42 45  1  0  0  0  0
 42 46  1  0  0  0  0
  8 13  1  0  0  0  0
 32 37  1  0  0  0  0
 31 36  1  0  0  0  0
 41 43  1  0  0  0  0
  7 12  1  0  0  0  0
M  END
$$$$

  -OEChem-05262214473D

 46 46  0     1  0  0  0  0  0999 V2000
   -0.6012   -3.2995    3.8205 C   0  0  0  0  0  0  0  0  0  0  0  0
   -0.6574   -4.4683    3.4568 O   0  0  0  0  0  0  0  0  0  0  0  0
   -0.4935   -2.9859    5.2760 C   0  0  0  0  0  0  0  0  0  0  0  0
   -1.4789   -2.8689    5.7550 H   0  0  0  0  0  0  0  0  0  0  0  0
    0.0123   -3.7847    5.8419 H   0  0  0  0  0  0  0  0  0  0  0  0
    0.0585   -2.0642    5.5199 H   0  0  0  0  0  0  0  0  0  0  0  0
   -0.6261   -2.1849    2.9917 N   0  0  0  0  0  0  0  0  0  0  0  0
   -0.7237   -2.2601    1.5650 C   0  0  2  0  0  0  0  0  0  0  0  0
    0.1695   -1.1513    1.0687 C   0  0  0  0  0  0  0  0  0  0  0  0
    0.3193   -0.1267    1.7365 O   0  0  0  0  0  0  0  0  0  0  0  0
   -2.1397   -2.0663    1.0750 C   0  0  0  0  0  0  0  0  0  0  0  0
   -0.5717   -1.2606    3.4238 H   0  0  0  0  0  0  0  0  0  0  0  0
   -0.3076   -3.2111    1.2363 H   0  0  0  0  0  0  0  0  0  0  0  0
   -2.5584   -1.1089    1.4061 H   0  0  0  0  0  0  0  0  0  0  0  0
   -2.1682   -2.0790   -0.0197 H   0  0  0  0  0  0  0  0  0  0  0  0
   -2.7965   -2.8601    1.4459 H   0  0  0  0  0  0  0  0  0  0  0  0
    0.7724   -1.3745   -0.1593 N   0  0  0  0  0  0  0  0  0  0  0  0
    1.6644   -0.4046   -0.7812 C   0  0  2  0  0  0  0  0  0  0  0  0
    0.8081    0.7026   -1.3179 C   0  0  0  0  0  0  0  0  0  0  0  0
   -0.0930    1.1598   -0.6246 O   0  0  0  0  0  0  0  0  0  0  0  0
    2.3573   -1.1764   -1.8982 C   0  0  0  0  0  0  0  0  0  0  0  0
    2.2167   -2.5785   -1.3107 C   0  0  0  0  0  0  0  0  0  0  0  0
    0.7499   -2.6270   -0.9105 C   0  0  0  0  0  0  0  0  0  0  0  0
    2.3623    0.0129   -0.0492 H   0  0  0  0  0  0  0  0  0  0  0  0
    3.4062   -0.8655   -1.9737 H   0  0  0  0  0  0  0  0  0  0  0  0
    1.8846   -1.0490   -2.8769 H   0  0  0  0  0  0  0  0  0  0  0  0
    2.4331   -3.3352   -2.0736 H   0  0  0  0  0  0  0  0  0  0  0  0
    2.8910   -2.7415   -0.4651 H   0  0  0  0  0  0  0  0  0  0  0  0
    0.0783   -2.6509   -1.7731 H   0  0  0  0  0  0  0  0  0  0  0  0
    0.5408   -3.4912   -0.2707 H   0  0  0  0  0  0  0  0  0  0  0  0
    1.3110    1.0099   -2.7094 N   0  0  0  0  0  0  0  0  0  0  0  0
    0.6390    1.9636   -3.5625 C   0  0  2  0  0  0  0  0  0  0  0  0
    0.4423    3.2481   -2.7682 C   0  0  0  0  0  0  0  0  0  0  0  0
    0.4330    3.2822   -1.5395 O   0  0  0  0  0  0  0  0  0  0  0  0
   -0.6928    1.4212   -4.0572 C   0  0  0  0  0  0  0  0  0  0  0  0
    2.2018    0.6306   -3.0162 H   0  0  0  0  0  0  0  0  0  0  0  0
    1.3066    2.1558   -4.4094 H   0  0  0  0  0  0  0  0  0  0  0  0
   -1.3751    1.2225   -3.2226 H   0  0  0  0  0  0  0  0  0  0  0  0
   -1.1874    2.1332   -4.7261 H   0  0  0  0  0  0  0  0  0  0  0  0
   -0.5526    0.4817   -4.6027 H   0  0  0  0  0  0  0  0  0  0  0  0
    0.2354    4.3451   -3.5928 N   0  0  0  0  0  0  0  0  0  0  0  0
    0.0113    5.6759   -3.0783 C   0  0  0  0  0  0  0  0  0  0  0  0
    0.2785    4.2277   -4.6008 H   0  0  0  0  0  0  0  0  0  0  0  0
   -1.0694    5.8515   -2.9724 H   0  0  0  0  0  0  0  0  0  0  0  0
    0.4969    5.7759   -2.0964 H   0  0  0  0  0  0  0  0  0  0  0  0
    0.4362    6.4143   -3.7743 H   0  0  0  0  0  0  0  0  0  0  0  0
 18 19  1  0  0  0  0
 19 31  1  0  0  0  0
 19 20  2  0  0  0  0
  8  9  1  0  0  0  0
  9 17  1  0  0  0  0
  9 10  2  0  0  0  0
  1  3  1  0  0  0  0
  1  7  1  0  0  0  0
  1  2  2  0  0  0  0
 32 33  1  0  0  0  0
 33 41  1  0  0  0  0
 33 34  2  0  0  0  0
 21 22  1  0  0  0  0
 22 23  1  0  0  0  0
 18 21  1  0  0  0  0
 17 23  1  0  0  0  0
 17 18  1  0  0  0  0
  8 11  1  0  0  0  0
 32 35  1  0  0  0  0
 41 42  1  0  0  0  0
  7  8  1  0  0  0  0
 31 32  1  0  0  0  0
 22 27  1  0  0  0  0
 22 28  1  0  0  0  0
 21 25  1  0  0  0  0
 21 26  1  0  0  0  0
 23 29  1  0  0  0  0
 23 30  1  0  0  0  0
 18 24  1  0  0  0  0
  3  4  1  0  0  0  0
  3  5  1  0  0  0  0
  3  6  1  0  0  0  0
 11 14  1  0  0  0  0
 11 15  1  0  0  0  0
 11 16  1  0  0  0  0
 35 38  1  0  0  0  0
 35 39  1  0  0  0  0
 35 40  1  0  0  0  0
 42 44  1  0  0  0  0
 42 45  1  0  0  0  0
 42 46  1  0  0  0  0
  8 13  1  0  0  0  0
 32 37  1  0  0  0  0
 31 36  1  0  0  0  0
 41 43  1  0  0  0  0
  7 12  1  0  0  0  0
M  END
$$$$

  -OEChem-05262214473D

 46 46  0     1  0  0  0  0  0999 V2000
   -0.6012   -3.2995    3.8205 C   0  0  0  0  0  0  0  0  0  0  0  0
   -0.6574   -4.4683    3.4568 O   0  0  0  0  0  0  0  0  0  0  0  0
   -0.4935   -2.9859    5.2760 C   0  0  0  0  0  0  0  0  0  0  0  0
   -1.4789   -2.8689    5.7550 H   0  0  0  0  0  0  0  0  0  0  0  0
    0.0123   -3.7847    5.8419 H   0  0  0  0  0  0  0  0  0  0  0  0
    0.0585   -2.0642    5.5199 H   0  0  0  0  0  0  0  0  0  0  0  0
   -0.6261   -2.1849    2.9917 N   0  0  0  0  0  0  0  0  0  0  0  0
   -0.7237   -2.2601    1.5650 C   0  0  2  0  0  0  0  0  0  0  0  0
    0.1695   -1.1513    1.0687 C   0  0  0  0  0  0  0  0  0  0  0  0
    0.3193   -0.1267    1.7365 O   0  0  0  0  0  0  0  0  0  0  0  0
   -2.1397   -2.0663    1.0750 C   0  0  0  0  0  0  0  0  0  0  0  0
   -0.5717   -1.2606    3.4238 H   0  0  0  0  0  0  0  0  0  0  0  0
   -0.3076   -3.2111    1.2363 H   0  0  0  0  0  0  0  0  0  0  0  0
   -2.5584   -1.1089    1.4061 H   0  0  0  0  0  0  0  0  0  0  0  0
   -2.1682   -2.0790   -0.0197 H   0  0  0  0  0  0  0  0  0  0  0  0
   -2.7965   -2.8601    1.4459 H   0  0  0  0  0  0  0  0  0  0  0  0
    0.7724   -1.3745   -0.1593 N   0  0  0  0  0  0  0  0  0  0  0  0
    1.6644   -0.4046   -0.7812 C   0  0  2  0  0  0  0  0  0  0  0  0
    0.8081    0.7026   -1.3179 C   0  0  0  0  0  0  0  0  0  0  0  0
    0.1008    1.3454   -0.5509 O   0  0  0  0  0  0  0  0  0  0  0  0
    2.3573   -1.1764   -1.8982 C   0  0  0  0  0  0  0  0  0  0  0  0
    2.2167   -2.5785   -1.3107 C   0  0  0  0  0  0  0  0  0  0  0  0
    0.7499   -2.6270   -0.9105 C   0  0  0  0  0  0  0  0  0  0  0  0
    2.3623    0.0129   -0.0492 H   0  0  0  0  0  0  0  0  0  0  0  0
    3.4062   -0.8655   -1.9737 H   0  0  0  0  0  0  0  0  0  0  0  0
    1.8846   -1.0490   -2.8769 H   0  0  0  0  0  0  0  0  0  0  0  0
    2.4331   -3.3352   -2.0736 H   0  0  0  0  0  0  0  0  0  0  0  0
    2.8910   -2.7415   -0.4651 H   0  0  0  0  0  0  0  0  0  0  0  0
    0.0783   -2.6509   -1.7731 H   0  0  0  0  0  0  0  0  0  0  0  0
    0.5408   -3.4912   -0.2707 H   0  0  0  0  0  0  0  0  0  0  0  0
    1.0478    0.7581   -2.8089 N   0  0  0  0  0  0  0  0  0  0  0  0
    0.2968    1.6506   -3.6624 C   0  0  2  0  0  0  0  0  0  0  0  0
    0.3626    3.0465   -3.0570 C   0  0  0  0  0  0  0  0  0  0  0  0
    0.5997    3.2517   -1.8684 O   0  0  0  0  0  0  0  0  0  0  0  0
   -1.1449    1.1904   -3.8120 C   0  0  0  0  0  0  0  0  0  0  0  0
    1.8277    0.2468   -3.2111 H   0  0  0  0  0  0  0  0  0  0  0  0
    0.7964    1.6508   -4.6374 H   0  0  0  0  0  0  0  0  0  0  0  0
   -1.6617    1.1837   -2.8454 H   0  0  0  0  0  0  0  0  0  0  0  0
   -1.7049    1.8515   -4.4816 H   0  0  0  0  0  0  0  0  0  0  0  0
   -1.1895    0.1748   -4.2198 H   0  0  0  0  0  0  0  0  0  0  0  0
    0.0829    4.0342   -3.9911 N   0  0  0  0  0  0  0  0  0  0  0  0
    0.0701    5.4398   -3.6593 C   0  0  0  0  0  0  0  0  0  0  0  0
   -0.0839    3.7740   -4.9587 H   0  0  0  0  0  0  0  0  0  0  0  0
   -0.9510    5.7431   -3.3850 H   0  0  0  0  0  0  0  0  0  0  0  0
    0.7469    5.6225   -2.8117 H   0  0  0  0  0  0  0  0  0  0  0  0
    0.4051    6.0246   -4.5287 H   0  0  0  0  0  0  0  0  0  0  0  0
 18 19  1  0  0  0  0
 19 31  1  0  0  0  0
 19 20  2  0  0  0  0
  8  9  1  0  0  0  0
  9 17  1  0  0  0  0
  9 10  2  0  0  0  0
  1  3  1  0  0  0  0
  1  7  1  0  0  0  0
  1  2  2  0  0  0  0
 32 33  1  0  0  0  0
 33 41  1  0  0  0  0
 33 34  2  0  0  0  0
 21 22  1  0  0  0  0
 22 23  1  0  0  0  0
 18 21  1  0  0  0  0
 17 23  1  0  0  0  0
 17 18  1  0  0  0  0
  8 11  1  0  0  0  0
 32 35  1  0  0  0  0
 41 42  1  0  0  0  0
  7  8  1  0  0  0  0
 31 32  1  0  0  0  0
 22 27  1  0  0  0  0
 22 28  1  0  0  0  0
 21 25  1  0  0  0  0
 21 26  1  0  0  0  0
 23 29  1  0  0  0  0
 23 30  1  0  0  0  0
 18 24  1  0  0  0  0
  3  4  1  0  0  0  0
  3  5  1  0  0  0  0
  3  6  1  0  0  0  0
 11 14  1  0  0  0  0
 11 15  1  0  0  0  0
 11 16  1  0  0  0  0
 35 38  1  0  0  0  0
 35 39  1  0  0  0  0
 35 40  1  0  0  0  0
 42 44  1  0  0  0  0
 42 45  1  0  0  0  0
 42 46  1  0  0  0  0
  8 13  1  0  0  0  0
 32 37  1  0  0  0  0
 31 36  1  0  0  0  0
 41 43  1  0  0  0  0
  7 12  1  0  0  0  0
M  END
$$$$

  -OEChem-05262214473D

 46 46  0     1  0  0  0  0  0999 V2000
   -0.6012   -3.2995    3.8205 C   0  0  0  0  0  0  0  0  0  0  0  0
   -0.6574   -4.4683    3.4568 O   0  0  0  0  0  0  0  0  0  0  0  0
   -0.4935   -2.9859    5.2760 C   0  0  0  0  0  0  0  0  0  0  0  0
   -1.4789   -2.8689    5.7550 H   0  0  0  0  0  0  0  0  0  0  0  0
    0.0123   -3.7847    5.8419 H   0  0  0  0  0  0  0  0  0  0  0  0
    0.0585   -2.0642    5.5199 H   0  0  0  0  0  0  0  0  0  0  0  0
   -0.6261   -2.1849    2.9917 N   0  0  0  0  0  0  0  0  0  0  0  0
   -0.7237   -2.2601    1.5650 C   0  0  2  0  0  0  0  0  0  0  0  0
    0.1695   -1.1513    1.0687 C   0  0  0  0  0  0  0  0  0  0  0  0
    0.3193   -0.1267    1.7365 O   0  0  0  0  0  0  0  0  0  0  0  0
   -2.1397   -2.0663    1.0750 C   0  0  0  0  0  0  0  0  0  0  0  0
   -0.5717   -1.2606    3.4238 H   0  0  0  0  0  0  0  0  0  0  0  0
   -0.3076   -3.2111    1.2363 H   0  0  0  0  0  0  0  0  0  0  0  0
   -2.5584   -1.1089    1.4061 H   0  0  0  0  0  0  0  0  0  0  0  0
   -2.1682   -2.0790   -0.0197 H   0  0  0  0  0  0  0  0  0  0  0  0
   -2.7965   -2.8601    1.4459 H   0  0  0  0  0  0  0  0  0  0  0  0
    0.7724   -1.3745   -0.1593 N   0  0  0  0  0  0  0  0  0  0  0  0
    1.6644   -0.4046   -0.7812 C   0  0  2  0  0  0  0  0  0  0  0  0
    0.8081    0.7026   -1.3179 C   0  0  0  0  0  0  0  0  0  0  0  0
    0.3193    1.5177   -0.5442 O   0  0  0  0  0  0  0  0  0  0  0  0
    2.3573   -1.1764   -1.8982 C   0  0  0  0  0  0  0  0  0  0  0  0
    2.2167   -2.5785   -1.3107 C   0  0  0  0  0  0  0  0  0  0  0  0
    0.7499   -2.6270   -0.9105 C   0  0  0  0  0  0  0  0  0  0  0  0
    2.3623    0.0129   -0.0492 H   0  0  0  0  0  0  0  0  0  0  0  0
    3.4062   -0.8655   -1.9737 H   0  0  0  0  0  0  0  0  0  0  0  0
    1.8846   -1.0490   -2.8769 H   0  0  0  0  0  0  0  0  0  0  0  0
    2.4331   -3.3352   -2.0736 H   0  0  0  0  0  0  0  0  0  0  0  0
    2.8910   -2.7415   -0.4651 H   0  0  0  0  0  0  0  0  0  0  0  0
    0.0783   -2.6509   -1.7731 H   0  0  0  0  0  0  0  0  0  0  0  0
    0.5408   -3.4912   -0.2707 H   0  0  0  0  0  0  0  0  0  0  0  0
    0.7512    0.5246   -2.8175 N   0  0  0  0  0  0  0  0  0  0  0  0
   -0.0818    1.3651   -3.6473 C   0  0  2  0  0  0  0  0  0  0  0  0
    0.2117    2.8164   -3.2909 C   0  0  0  0  0  0  0  0  0  0  0  0
    0.6949    3.1581   -2.2135 O   0  0  0  0  0  0  0  0  0  0  0  0
   -1.5561    1.0456   -3.4547 C   0  0  0  0  0  0  0  0  0  0  0  0
    1.3935   -0.1181   -3.2712 H   0  0  0  0  0  0  0  0  0  0  0  0
    0.2131    1.1765   -4.6853 H   0  0  0  0  0  0  0  0  0  0  0  0
   -1.8700    1.2285   -2.4206 H   0  0  0  0  0  0  0  0  0  0  0  0
   -2.1842    1.6635   -4.1049 H   0  0  0  0  0  0  0  0  0  0  0  0
   -1.7599   -0.0061   -3.6829 H   0  0  0  0  0  0  0  0  0  0  0  0
   -0.1693    3.6891   -4.3006 N   0  0  0  0  0  0  0  0  0  0  0  0
   -0.0060    5.1204   -4.1969 C   0  0  0  0  0  0  0  0  0  0  0  0
   -0.5443    3.3165   -5.1680 H   0  0  0  0  0  0  0  0  0  0  0  0
   -0.9257    5.5663   -3.7902 H   0  0  0  0  0  0  0  0  0  0  0  0
    0.8375    5.3455   -3.5277 H   0  0  0  0  0  0  0  0  0  0  0  0
    0.1948    5.5396   -5.1938 H   0  0  0  0  0  0  0  0  0  0  0  0
 18 19  1  0  0  0  0
 19 31  1  0  0  0  0
 19 20  2  0  0  0  0
  8  9  1  0  0  0  0
  9 17  1  0  0  0  0
  9 10  2  0  0  0  0
  1  3  1  0  0  0  0
  1  7  1  0  0  0  0
  1  2  2  0  0  0  0
 32 33  1  0  0  0  0
 33 41  1  0  0  0  0
 33 34  2  0  0  0  0
 21 22  1  0  0  0  0
 22 23  1  0  0  0  0
 18 21  1  0  0  0  0
 17 23  1  0  0  0  0
 17 18  1  0  0  0  0
  8 11  1  0  0  0  0
 32 35  1  0  0  0  0
 41 42  1  0  0  0  0
  7  8  1  0  0  0  0
 31 32  1  0  0  0  0
 22 27  1  0  0  0  0
 22 28  1  0  0  0  0
 21 25  1  0  0  0  0
 21 26  1  0  0  0  0
 23 29  1  0  0  0  0
 23 30  1  0  0  0  0
 18 24  1  0  0  0  0
  3  4  1  0  0  0  0
  3  5  1  0  0  0  0
  3  6  1  0  0  0  0
 11 14  1  0  0  0  0
 11 15  1  0  0  0  0
 11 16  1  0  0  0  0
 35 38  1  0  0  0  0
 35 39  1  0  0  0  0
 35 40  1  0  0  0  0
 42 44  1  0  0  0  0
 42 45  1  0  0  0  0
 42 46  1  0  0  0  0
  8 13  1  0  0  0  0
 32 37  1  0  0  0  0
 31 36  1  0  0  0  0
 41 43  1  0  0  0  0
  7 12  1  0  0  0  0
M  END
$$$$

  -OEChem-05262214473D

 46 46  0     1  0  0  0  0  0999 V2000
   -0.6012   -3.2995    3.8205 C   0  0  0  0  0  0  0  0  0  0  0  0
   -0.6574   -4.4683    3.4568 O   0  0  0  0  0  0  0  0  0  0  0  0
   -0.4935   -2.9859    5.2760 C   0  0  0  0  0  0  0  0  0  0  0  0
   -1.4789   -2.8689    5.7550 H   0  0  0  0  0  0  0  0  0  0  0  0
    0.0123   -3.7847    5.8419 H   0  0  0  0  0  0  0  0  0  0  0  0
    0.0585   -2.0642    5.5199 H   0  0  0  0  0  0  0  0  0  0  0  0
   -0.6261   -2.1849    2.9917 N   0  0  0  0  0  0  0  0  0  0  0  0
   -0.7237   -2.2601    1.5650 C   0  0  2  0  0  0  0  0  0  0  0  0
    0.1695   -1.1513    1.0687 C   0  0  0  0  0  0  0  0  0  0  0  0
    0.3193   -0.1267    1.7365 O   0  0  0  0  0  0  0  0  0  0  0  0
   -2.1397   -2.0663    1.0750 C   0  0  0  0  0  0  0  0  0  0  0  0
   -0.5717   -1.2606    3.4238 H   0  0  0  0  0  0  0  0  0  0  0  0
   -0.3076   -3.2111    1.2363 H   0  0  0  0  0  0  0  0  0  0  0  0
   -2.5584   -1.1089    1.4061 H   0  0  0  0  0  0  0  0  0  0  0  0
   -2.1682   -2.0790   -0.0197 H   0  0  0  0  0  0  0  0  0  0  0  0
   -2.7965   -2.8601    1.4459 H   0  0  0  0  0  0  0  0  0  0  0  0
    0.7724   -1.3745   -0.1593 N   0  0  0  0  0  0  0  0  0  0  0  0
    1.6644   -0.4046   -0.7812 C   0  0  2  0  0  0  0  0  0  0  0  0
    0.8081    0.7026   -1.3179 C   0  0  0  0  0  0  0  0  0  0  0  0
    0.5476    1.6648   -0.6050 O   0  0  0  0  0  0  0  0  0  0  0  0
    2.3573   -1.1764   -1.8982 C   0  0  0  0  0  0  0  0  0  0  0  0
    2.2167   -2.5785   -1.3107 C   0  0  0  0  0  0  0  0  0  0  0  0
    0.7499   -2.6270   -0.9105 C   0  0  0  0  0  0  0  0  0  0  0  0
    2.3623    0.0129   -0.0492 H   0  0  0  0  0  0  0  0  0  0  0  0
    3.4062   -0.8655   -1.9737 H   0  0  0  0  0  0  0  0  0  0  0  0
    1.8846   -1.0490   -2.8769 H   0  0  0  0  0  0  0  0  0  0  0  0
    2.4331   -3.3352   -2.0736 H   0  0  0  0  0  0  0  0  0  0  0  0
    2.8910   -2.7415   -0.4651 H   0  0  0  0  0  0  0  0  0  0  0  0
    0.0783   -2.6509   -1.7731 H   0  0  0  0  0  0  0  0  0  0  0  0
    0.5408   -3.4912   -0.2707 H   0  0  0  0  0  0  0  0  0  0  0  0
    0.4415    0.3252   -2.7346 N   0  0  0  0  0  0  0  0  0  0  0  0
   -0.4710    1.1267   -3.5181 C   0  0  2  0  0  0  0  0  0  0  0  0
   -0.0000    2.5736   -3.4540 C   0  0  0  0  0  0  0  0  0  0  0  0
    0.7123    3.0078   -2.5512 O   0  0  0  0  0  0  0  0  0  0  0  0
   -1.8983    0.9967   -3.0096 C   0  0  0  0  0  0  0  0  0  0  0  0
    0.9288   -0.4393   -3.1923 H   0  0  0  0  0  0  0  0  0  0  0  0
   -0.4033    0.7653   -4.5500 H   0  0  0  0  0  0  0  0  0  0  0  0
   -1.9858    1.3539   -1.9770 H   0  0  0  0  0  0  0  0  0  0  0  0
   -2.5925    1.5819   -3.6217 H   0  0  0  0  0  0  0  0  0  0  0  0
   -2.2251   -0.0486   -3.0284 H   0  0  0  0  0  0  0  0  0  0  0  0
   -0.5041    3.3334   -4.5004 N   0  0  0  0  0  0  0  0  0  0  0  0
   -0.2120    4.7394   -4.6543 C   0  0  0  0  0  0  0  0  0  0  0  0
   -1.0715    2.8862   -5.2144 H   0  0  0  0  0  0  0  0  0  0  0  0
   -0.9950    5.3333   -4.1602 H   0  0  0  0  0  0  0  0  0  0  0  0
    0.7624    4.9637   -4.1957 H   0  0  0  0  0  0  0  0  0  0  0  0
   -0.1805    4.9922   -5.7244 H   0  0  0  0  0  0  0  0  0  0  0  0
 18 19  1  0  0  0  0
 19 31  1  0  0  0  0
 19 20  2  0  0  0  0
  8  9  1  0  0  0  0
  9 17  1  0  0  0  0
  9 10  2  0  0  0  0
  1  3  1  0  0  0  0
  1  7  1  0  0  0  0
  1  2  2  0  0  0  0
 32 33  1  0  0  0  0
 33 41  1  0  0  0  0
 33 34  2  0  0  0  0
 21 22  1  0  0  0  0
 22 23  1  0  0  0  0
 18 21  1  0  0  0  0
 17 23  1  0  0  0  0
 17 18  1  0  0  0  0
  8 11  1  0  0  0  0
 32 35  1  0  0  0  0
 41 42  1  0  0  0  0
  7  8  1  0  0  0  0
 31 32  1  0  0  0  0
 22 27  1  0  0  0  0
 22 28  1  0  0  0  0
 21 25  1  0  0  0  0
 21 26  1  0  0  0  0
 23 29  1  0  0  0  0
 23 30  1  0  0  0  0
 18 24  1  0  0  0  0
  3  4  1  0  0  0  0
  3  5  1  0  0  0  0
  3  6  1  0  0  0  0
 11 14  1  0  0  0  0
 11 15  1  0  0  0  0
 11 16  1  0  0  0  0
 35 38  1  0  0  0  0
 35 39  1  0  0  0  0
 35 40  1  0  0  0  0
 42 44  1  0  0  0  0
 42 45  1  0  0  0  0
 42 46  1  0  0  0  0
  8 13  1  0  0  0  0
 32 37  1  0  0  0  0
 31 36  1  0  0  0  0
 41 43  1  0  0  0  0
  7 12  1  0  0  0  0
M  END
$$$$

  -OEChem-05262214473D

 46 46  0     1  0  0  0  0  0999 V2000
   -0.6012   -3.2995    3.8205 C   0  0  0  0  0  0  0  0  0  0  0  0
   -0.6574   -4.4683    3.4568 O   0  0  0  0  0  0  0  0  0  0  0  0
   -0.4935   -2.9859    5.2760 C   0  0  0  0  0  0  0  0  0  0  0  0
   -1.4789   -2.8689    5.7550 H   0  0  0  0  0  0  0  0  0  0  0  0
    0.0123   -3.7847    5.8419 H   0  0  0  0  0  0  0  0  0  0  0  0
    0.0585   -2.0642    5.5199 H   0  0  0  0  0  0  0  0  0  0  0  0
   -0.6261   -2.1849    2.9917 N   0  0  0  0  0  0  0  0  0  0  0  0
   -0.7237   -2.2601    1.5650 C   0  0  2  0  0  0  0  0  0  0  0  0
    0.1695   -1.1513    1.0687 C   0  0  0  0  0  0  0  0  0  0  0  0
    0.3193   -0.1267    1.7365 O   0  0  0  0  0  0  0  0  0  0  0  0
   -2.1397   -2.0663    1.0750 C   0  0  0  0  0  0  0  0  0  0  0  0
   -0.5717   -1.2606    3.4238 H   0  0  0  0  0  0  0  0  0  0  0  0
   -0.3076   -3.2111    1.2363 H   0  0  0  0  0  0  0  0  0  0  0  0
   -2.5584   -1.1089    1.4061 H   0  0  0  0  0  0  0  0  0  0  0  0
   -2.1682   -2.0790   -0.0197 H   0  0  0  0  0  0  0  0  0  0  0  0
   -2.7965   -2.8601    1.4459 H   0  0  0  0  0  0  0  0  0  0  0  0
    0.7724   -1.3745   -0.1593 N   0  0  0  0  0  0  0  0  0  0  0  0
    1.6644   -0.4046   -0.7812 C   0  0  2  0  0  0  0  0  0  0  0  0
    0.8081    0.7026   -1.3179 C   0  0  0  0  0  0  0  0  0  0  0  0
    0.7702    1.7767   -0.7291 O   0  0  0  0  0  0  0  0  0  0  0  0
    2.3573   -1.1764   -1.8982 C   0  0  0  0  0  0  0  0  0  0  0  0
    2.2167   -2.5785   -1.3107 C   0  0  0  0  0  0  0  0  0  0  0  0
    0.7499   -2.6270   -0.9105 C   0  0  0  0  0  0  0  0  0  0  0  0
    2.3623    0.0129   -0.0492 H   0  0  0  0  0  0  0  0  0  0  0  0
    3.4062   -0.8655   -1.9737 H   0  0  0  0  0  0  0  0  0  0  0  0
    1.8846   -1.0490   -2.8769 H   0  0  0  0  0  0  0  0  0  0  0  0
    2.4331   -3.3352   -2.0736 H   0  0  0  0  0  0  0  0  0  0  0  0
    2.8910   -2.7415   -0.4651 H   0  0  0  0  0  0  0  0  0  0  0  0
    0.0783   -2.6509   -1.7731 H   0  0  0  0  0  0  0  0  0  0  0  0
    0.5408   -3.4912   -0.2707 H   0  0  0  0  0  0  0  0  0  0  0  0
    0.1397    0.1736   -2.5657 N   0  0  0  0  0  0  0  0  0  0  0  0
   -0.8444    0.9516   -3.2836 C   0  0  2  0  0  0  0  0  0  0  0  0
   -0.2583    2.3346   -3.5352 C   0  0  0  0  0  0  0  0  0  0  0  0
    0.6506    2.8112   -2.8585 O   0  0  0  0  0  0  0  0  0  0  0  0
   -2.1484    1.0469   -2.5069 C   0  0  0  0  0  0  0  0  0  0  0  0
    0.4652   -0.6947   -2.9797 H   0  0  0  0  0  0  0  0  0  0  0  0
   -1.0110    0.4453   -4.2407 H   0  0  0  0  0  0  0  0  0  0  0  0
   -2.0013    1.5514   -1.5449 H   0  0  0  0  0  0  0  0  0  0  0  0
   -2.9021    1.6124   -3.0648 H   0  0  0  0  0  0  0  0  0  0  0  0
   -2.5532    0.0502   -2.3010 H   0  0  0  0  0  0  0  0  0  0  0  0
   -0.8986    2.9912   -4.5768 N   0  0  0  0  0  0  0  0  0  0  0  0
   -0.5336    4.3229   -5.0005 C   0  0  0  0  0  0  0  0  0  0  0  0
   -1.6295    2.5127   -5.0950 H   0  0  0  0  0  0  0  0  0  0  0  0
   -1.1543    5.0600   -4.4700 H   0  0  0  0  0  0  0  0  0  0  0  0
    0.5268    4.5031   -4.7702 H   0  0  0  0  0  0  0  0  0  0  0  0
   -0.6951    4.4199   -6.0842 H   0  0  0  0  0  0  0  0  0  0  0  0
 18 19  1  0  0  0  0
 19 31  1  0  0  0  0
 19 20  2  0  0  0  0
  8  9  1  0  0  0  0
  9 17  1  0  0  0  0
  9 10  2  0  0  0  0
  1  3  1  0  0  0  0
  1  7  1  0  0  0  0
  1  2  2  0  0  0  0
 32 33  1  0  0  0  0
 33 41  1  0  0  0  0
 33 34  2  0  0  0  0
 21 22  1  0  0  0  0
 22 23  1  0  0  0  0
 18 21  1  0  0  0  0
 17 23  1  0  0  0  0
 17 18  1  0  0  0  0
  8 11  1  0  0  0  0
 32 35  1  0  0  0  0
 41 42  1  0  0  0  0
  7  8  1  0  0  0  0
 31 32  1  0  0  0  0
 22 27  1  0  0  0  0
 22 28  1  0  0  0  0
 21 25  1  0  0  0  0
 21 26  1  0  0  0  0
 23 29  1  0  0  0  0
 23 30  1  0  0  0  0
 18 24  1  0  0  0  0
  3  4  1  0  0  0  0
  3  5  1  0  0  0  0
  3  6  1  0  0  0  0
 11 14  1  0  0  0  0
 11 15  1  0  0  0  0
 11 16  1  0  0  0  0
 35 38  1  0  0  0  0
 35 39  1  0  0  0  0
 35 40  1  0  0  0  0
 42 44  1  0  0  0  0
 42 45  1  0  0  0  0
 42 46  1  0  0  0  0
  8 13  1  0  0  0  0
 32 37  1  0  0  0  0
 31 36  1  0  0  0  0
 41 43  1  0  0  0  0
  7 12  1  0  0  0  0
M  END
$$$$

  -OEChem-05262214473D

 46 46  0     1  0  0  0  0  0999 V2000
   -0.6012   -3.2995    3.8205 C   0  0  0  0  0  0  0  0  0  0  0  0
   -0.6574   -4.4683    3.4568 O   0  0  0  0  0  0  0  0  0  0  0  0
   -0.4935   -2.9859    5.2760 C   0  0  0  0  0  0  0  0  0  0  0  0
   -1.4789   -2.8689    5.7550 H   0  0  0  0  0  0  0  0  0  0  0  0
    0.0123   -3.7847    5.8419 H   0  0  0  0  0  0  0  0  0  0  0  0
    0.0585   -2.0642    5.5199 H   0  0  0  0  0  0  0  0  0  0  0  0
   -0.6261   -2.1849    2.9917 N   0  0  0  0  0  0  0  0  0  0  0  0
   -0.7237   -2.2601    1.5650 C   0  0  2  0  0  0  0  0  0  0  0  0
    0.1695   -1.1513    1.0687 C   0  0  0  0  0  0  0  0  0  0  0  0
    0.3193   -0.1267    1.7365 O   0  0  0  0  0  0  0  0  0  0  0  0
   -2.1397   -2.0663    1.0750 C   0  0  0  0  0  0  0  0  0  0  0  0
   -0.5717   -1.2606    3.4238 H   0  0  0  0  0  0  0  0  0  0  0  0
   -0.3076   -3.2111    1.2363 H   0  0  0  0  0  0  0  0  0  0  0  0
   -2.5584   -1.1089    1.4061 H   0  0  0  0  0  0  0  0  0  0  0  0
   -2.1682   -2.0790   -0.0197 H   0  0  0  0  0  0  0  0  0  0  0  0
   -2.7965   -2.8601    1.4459 H   0  0  0  0  0  0  0  0  0  0  0  0
    0.7724   -1.3745   -0.1593 N   0  0  0  0  0  0  0  0  0  0  0  0
    1.6644   -0.4046   -0.7812 C   0  0  2  0  0  0  0  0  0  0  0  0
    0.8081    0.7026   -1.3179 C   0  0  0  0  0  0  0  0  0  0  0  0
    0.9718    1.8459   -0.9081 O   0  0  0  0  0  0  0  0  0  0  0  0
    2.3573   -1.1764   -1.8982 C   0  0  0  0  0  0  0  0  0  0  0  0
    2.2167   -2.5785   -1.3107 C   0  0  0  0  0  0  0  0  0  0  0  0
    0.7499   -2.6270   -0.9105 C   0  0  0  0  0  0  0  0  0  0  0  0
    2.3623    0.0129   -0.0492 H   0  0  0  0  0  0  0  0  0  0  0  0
    3.4062   -0.8655   -1.9737 H   0  0  0  0  0  0  0  0  0  0  0  0
    1.8846   -1.0490   -2.8769 H   0  0  0  0  0  0  0  0  0  0  0  0
    2.4331   -3.3352   -2.0736 H   0  0  0  0  0  0  0  0  0  0  0  0
    2.8910   -2.7415   -0.4651 H   0  0  0  0  0  0  0  0  0  0  0  0
    0.0783   -2.6509   -1.7731 H   0  0  0  0  0  0  0  0  0  0  0  0
    0.5408   -3.4912   -0.2707 H   0  0  0  0  0  0  0  0  0  0  0  0
   -0.1337    0.0801   -2.3226 N   0  0  0  0  0  0  0  0  0  0  0  0
   -1.1765    0.8517   -2.9599 C   0  0  2  0  0  0  0  0  0  0  0  0
   -0.5454    2.1156   -3.5289 C   0  0  0  0  0  0  0  0  0  0  0  0
    0.5140    2.5815   -3.1144 O   0  0  0  0  0  0  0  0  0  0  0  0
   -2.2891    1.1930   -1.9810 C   0  0  0  0  0  0  0  0  0  0  0  0
    0.0344   -0.8671   -2.6480 H   0  0  0  0  0  0  0  0  0  0  0  0
   -1.5685    0.2382   -3.7784 H   0  0  0  0  0  0  0  0  0  0  0  0
   -1.9153    1.8074   -1.1538 H   0  0  0  0  0  0  0  0  0  0  0  0
   -3.0918    1.7529   -2.4722 H   0  0  0  0  0  0  0  0  0  0  0  0
   -2.7219    0.2835   -1.5503 H   0  0  0  0  0  0  0  0  0  0  0  0
   -1.3260    2.6860   -4.5246 N   0  0  0  0  0  0  0  0  0  0  0  0
   -0.9491    3.8992   -5.2118 C   0  0  0  0  0  0  0  0  0  0  0  0
   -2.1802    2.2211   -4.8177 H   0  0  0  0  0  0  0  0  0  0  0  0
   -1.3927    4.7650   -4.6983 H   0  0  0  0  0  0  0  0  0  0  0  0
    0.1467    3.9950   -5.2119 H   0  0  0  0  0  0  0  0  0  0  0  0
   -1.3140    3.8615   -6.2488 H   0  0  0  0  0  0  0  0  0  0  0  0
 18 19  1  0  0  0  0
 19 31  1  0  0  0  0
 19 20  2  0  0  0  0
  8  9  1  0  0  0  0
  9 17  1  0  0  0  0
  9 10  2  0  0  0  0
  1  3  1  0  0  0  0
  1  7  1  0  0  0  0
  1  2  2  0  0  0  0
 32 33  1  0  0  0  0
 33 41  1  0  0  0  0
 33 34  2  0  0  0  0
 21 22  1  0  0  0  0
 22 23  1  0  0  0  0
 18 21  1  0  0  0  0
 17 23  1  0  0  0  0
 17 18  1  0  0  0  0
  8 11  1  0  0  0  0
 32 35  1  0  0  0  0
 41 42  1  0  0  0  0
  7  8  1  0  0  0  0
 31 32  1  0  0  0  0
 22 27  1  0  0  0  0
 22 28  1  0  0  0  0
 21 25  1  0  0  0  0
 21 26  1  0  0  0  0
 23 29  1  0  0  0  0
 23 30  1  0  0  0  0
 18 24  1  0  0  0  0
  3  4  1  0  0  0  0
  3  5  1  0  0  0  0
  3  6  1  0  0  0  0
 11 14  1  0  0  0  0
 11 15  1  0  0  0  0
 11 16  1  0  0  0  0
 35 38  1  0  0  0  0
 35 39  1  0  0  0  0
 35 40  1  0  0  0  0
 42 44  1  0  0  0  0
 42 45  1  0  0  0  0
 42 46  1  0  0  0  0
  8 13  1  0  0  0  0
 32 37  1  0  0  0  0
 31 36  1  0  0  0  0
 41 43  1  0  0  0  0
  7 12  1  0  0  0  0
M  END
$$$$

  -OEChem-05262214473D

 46 46  0     1  0  0  0  0  0999 V2000
   -0.6012   -3.2995    3.8205 C   0  0  0  0  0  0  0  0  0  0  0  0
   -0.6574   -4.4683    3.4568 O   0  0  0  0  0  0  0  0  0  0  0  0
   -0.4935   -2.9859    5.2760 C   0  0  0  0  0  0  0  0  0  0  0  0
   -1.4789   -2.8689    5.7550 H   0  0  0  0  0  0  0  0  0  0  0  0
    0.0123   -3.7847    5.8419 H   0  0  0  0  0  0  0  0  0  0  0  0
    0.0585   -2.0642    5.5199 H   0  0  0  0  0  0  0  0  0  0  0  0
   -0.6261   -2.1849    2.9917 N   0  0  0  0  0  0  0  0  0  0  0  0
   -0.7237   -2.2601    1.5650 C   0  0  2  0  0  0  0  0  0  0  0  0
    0.1695   -1.1513    1.0687 C   0  0  0  0  0  0  0  0  0  0  0  0
    0.3193   -0.1267    1.7365 O   0  0  0  0  0  0  0  0  0  0  0  0
   -2.1397   -2.0663    1.0750 C   0  0  0  0  0  0  0  0  0  0  0  0
   -0.5717   -1.2606    3.4238 H   0  0  0  0  0  0  0  0  0  0  0  0
   -0.3076   -3.2111    1.2363 H   0  0  0  0  0  0  0  0  0  0  0  0
   -2.5584   -1.1089    1.4061 H   0  0  0  0  0  0  0  0  0  0  0  0
   -2.1682   -2.0790   -0.0197 H   0  0  0  0  0  0  0  0  0  0  0  0
   -2.7965   -2.8601    1.4459 H   0  0  0  0  0  0  0  0  0  0  0  0
    0.7724   -1.3745   -0.1593 N   0  0  0  0  0  0  0  0  0  0  0  0
    1.6644   -0.4046   -0.7812 C   0  0  2  0  0  0  0  0  0  0  0  0
    0.8081    0.7026   -1.3179 C   0  0  0  0  0  0  0  0  0  0  0  0
    1.1387    1.8675   -1.1298 O   0  0  0  0  0  0  0  0  0  0  0  0
    2.3573   -1.1764   -1.8982 C   0  0  0  0  0  0  0  0  0  0  0  0
    2.2167   -2.5785   -1.3107 C   0  0  0  0  0  0  0  0  0  0  0  0
    0.7499   -2.6270   -0.9105 C   0  0  0  0  0  0  0  0  0  0  0  0
    2.3623    0.0129   -0.0492 H   0  0  0  0  0  0  0  0  0  0  0  0
    3.4062   -0.8655   -1.9737 H   0  0  0  0  0  0  0  0  0  0  0  0
    1.8846   -1.0490   -2.8769 H   0  0  0  0  0  0  0  0  0  0  0  0
    2.4331   -3.3352   -2.0736 H   0  0  0  0  0  0  0  0  0  0  0  0
    2.8910   -2.7415   -0.4651 H   0  0  0  0  0  0  0  0  0  0  0  0
    0.0783   -2.6509   -1.7731 H   0  0  0  0  0  0  0  0  0  0  0  0
    0.5408   -3.4912   -0.2707 H   0  0  0  0  0  0  0  0  0  0  0  0
   -0.3598    0.0511   -2.0216 N   0  0  0  0  0  0  0  0  0  0  0  0
   -1.4446    0.8338   -2.5689 C   0  0  2  0  0  0  0  0  0  0  0  0
   -0.8418    1.9317   -3.4355 C   0  0  0  0  0  0  0  0  0  0  0  0
    0.3119    2.3345   -3.3016 O   0  0  0  0  0  0  0  0  0  0  0  0
   -2.3110    1.4248   -1.4677 C   0  0  0  0  0  0  0  0  0  0  0  0
   -0.3342   -0.9447   -2.2198 H   0  0  0  0  0  0  0  0  0  0  0  0
   -2.0378    0.1582   -3.1947 H   0  0  0  0  0  0  0  0  0  0  0  0
   -1.7338    2.1046   -0.8303 H   0  0  0  0  0  0  0  0  0  0  0  0
   -3.1487    1.9938   -1.8843 H   0  0  0  0  0  0  0  0  0  0  0  0
   -2.7197    0.6356   -0.8275 H   0  0  0  0  0  0  0  0  0  0  0  0
   -1.7571    2.4385   -4.3473 N   0  0  0  0  0  0  0  0  0  0  0  0
   -1.4300    3.4972   -5.2738 C   0  0  0  0  0  0  0  0  0  0  0  0
   -2.6862    2.0316   -4.4014 H   0  0  0  0  0  0  0  0  0  0  0  0
   -1.6940    4.4683   -4.8297 H   0  0  0  0  0  0  0  0  0  0  0  0
   -0.3519    3.4742   -5.4908 H   0  0  0  0  0  0  0  0  0  0  0  0
   -1.9950    3.3551   -6.2069 H   0  0  0  0  0  0  0  0  0  0  0  0
 18 19  1  0  0  0  0
 19 31  1  0  0  0  0
 19 20  2  0  0  0  0
  8  9  1  0  0  0  0
  9 17  1  0  0  0  0
  9 10  2  0  0  0  0
  1  3  1  0  0  0  0
  1  7  1  0  0  0  0
  1  2  2  0  0  0  0
 32 33  1  0  0  0  0
 33 41  1  0  0  0  0
 33 34  2  0  0  0  0
 21 22  1  0  0  0  0
 22 23  1  0  0  0  0
 18 21  1  0  0  0  0
 17 23  1  0  0  0  0
 17 18  1  0  0  0  0
  8 11  1  0  0  0  0
 32 35  1  0  0  0  0
 41 42  1  0  0  0  0
  7  8  1  0  0  0  0
 31 32  1  0  0  0  0
 22 27  1  0  0  0  0
 22 28  1  0  0  0  0
 21 25  1  0  0  0  0
 21 26  1  0  0  0  0
 23 29  1  0  0  0  0
 23 30  1  0  0  0  0
 18 24  1  0  0  0  0
  3  4  1  0  0  0  0
  3  5  1  0  0  0  0
  3  6  1  0  0  0  0
 11 14  1  0  0  0  0
 11 15  1  0  0  0  0
 11 16  1  0  0  0  0
 35 38  1  0  0  0  0
 35 39  1  0  0  0  0
 35 40  1  0  0  0  0
 42 44  1  0  0  0  0
 42 45  1  0  0  0  0
 42 46  1  0  0  0  0
  8 13  1  0  0  0  0
 32 37  1  0  0  0  0
 31 36  1  0  0  0  0
 41 43  1  0  0  0  0
  7 12  1  0  0  0  0
M  END
$$$$

  -OEChem-05262214473D

 46 46  0     1  0  0  0  0  0999 V2000
   -0.6012   -3.2995    3.8205 C   0  0  0  0  0  0  0  0  0  0  0  0
   -0.6574   -4.4683    3.4568 O   0  0  0  0  0  0  0  0  0  0  0  0
   -0.4935   -2.9859    5.2760 C   0  0  0  0  0  0  0  0  0  0  0  0
   -1.4789   -2.8689    5.7550 H   0  0  0  0  0  0  0  0  0  0  0  0
    0.0123   -3.7847    5.8419 H   0  0  0  0  0  0  0  0  0  0  0  0
    0.0585   -2.0642    5.5199 H   0  0  0  0  0  0  0  0  0  0  0  0
   -0.6261   -2.1849    2.9917 N   0  0  0  0  0  0  0  0  0  0  0  0
   -0.7237   -2.2601    1.5650 C   0  0  2  0  0  0  0  0  0  0  0  0
    0.1695   -1.1513    1.0687 C   0  0  0  0  0  0  0  0  0  0  0  0
    0.3193   -0.1267    1.7365 O   0  0  0  0  0  0  0  0  0  0  0  0
   -2.1397   -2.0663    1.0750 C   0  0  0  0  0  0  0  0  0  0  0  0
   -0.5717   -1.2606    3.4238 H   0  0  0  0  0  0  0  0  0  0  0  0
   -0.3076   -3.2111    1.2363 H   0  0  0  0  0  0  0  0  0  0  0  0
   -2.5584   -1.1089    1.4061 H   0  0  0  0  0  0  0  0  0  0  0  0
   -2.1682   -2.0790   -0.0197 H   0  0  0  0  0  0  0  0  0  0  0  0
   -2.7965   -2.8601    1.4459 H   0  0  0  0  0  0  0  0  0  0  0  0
    0.7724   -1.3745   -0.1593 N   0  0  0  0  0  0  0  0  0  0  0  0
    1.6644   -0.4046   -0.7812 C   0  0  2  0  0  0  0  0  0  0  0  0
    0.8081    0.7026   -1.3179 C   0  0  0  0  0  0  0  0  0  0  0  0
    1.2596    1.8402   -1.3790 O   0  0  0  0  0  0  0  0  0  0  0  0
    2.3573   -1.1764   -1.8982 C   0  0  0  0  0  0  0  0  0  0  0  0
    2.2167   -2.5785   -1.3107 C   0  0  0  0  0  0  0  0  0  0  0  0
    0.7499   -2.6270   -0.9105 C   0  0  0  0  0  0  0  0  0  0  0  0
    2.3623    0.0129   -0.0492 H   0  0  0  0  0  0  0  0  0  0  0  0
    3.4062   -0.8655   -1.9737 H   0  0  0  0  0  0  0  0  0  0  0  0
    1.8846   -1.0490   -2.8769 H   0  0  0  0  0  0  0  0  0  0  0  0
    2.4331   -3.3352   -2.0736 H   0  0  0  0  0  0  0  0  0  0  0  0
    2.8910   -2.7415   -0.4651 H   0  0  0  0  0  0  0  0  0  0  0  0
    0.0783   -2.6509   -1.7731 H   0  0  0  0  0  0  0  0  0  0  0  0
    0.5408   -3.4912   -0.2707 H   0  0  0  0  0  0  0  0  0  0  0  0
   -0.5235    0.0885   -1.6834 N   0  0  0  0  0  0  0  0  0  0  0  0
   -1.6305    0.8992   -2.1374 C   0  0  2  0  0  0  0  0  0  0  0  0
   -1.1272    1.7952   -3.2615 C   0  0  0  0  0  0  0  0  0  0  0  0
    0.0580    2.0869   -3.4072 O   0  0  0  0  0  0  0  0  0  0  0  0
   -2.2126    1.7267   -1.0020 C   0  0  0  0  0  0  0  0  0  0  0  0
   -0.6156   -0.9221   -1.7242 H   0  0  0  0  0  0  0  0  0  0  0  0
   -2.3870    0.2107   -2.5294 H   0  0  0  0  0  0  0  0  0  0  0  0
   -1.4691    2.4226   -0.5965 H   0  0  0  0  0  0  0  0  0  0  0  0
   -3.0691    2.3187   -1.3411 H   0  0  0  0  0  0  0  0  0  0  0  0
   -2.5468    1.0823   -0.1817 H   0  0  0  0  0  0  0  0  0  0  0  0
   -2.1625    2.2656   -4.0571 N   0  0  0  0  0  0  0  0  0  0  0  0
   -1.9437    3.1442   -5.1823 C   0  0  0  0  0  0  0  0  0  0  0  0
   -3.1129    1.9569   -3.8746 H   0  0  0  0  0  0  0  0  0  0  0  0
   -2.0376    4.1903   -4.8551 H   0  0  0  0  0  0  0  0  0  0  0  0
   -0.9351    2.9761   -5.5879 H   0  0  0  0  0  0  0  0  0  0  0  0
   -2.6917    2.9354   -5.9614 H   0  0  0  0  0  0  0  0  0  0  0  0
 18 19  1  0  0  0  0
 19 31  1  0  0  0  0
 19 20  2  0  0  0  0
  8  9  1  0  0  0  0
  9 17  1  0  0  0  0
  9 10  2  0  0  0  0
  1  3  1  0  0  0  0
  1  7  1  0  0  0  0
  1  2  2  0  0  0  0
 32 33  1  0  0  0  0
 33 41  1  0  0  0  0
 33 34  2  0  0  0  0
 21 22  1  0  0  0  0
 22 23  1  0  0  0  0
 18 21  1  0  0  0  0
 17 23  1  0  0  0  0
 17 18  1  0  0  0  0
  8 11  1  0  0  0  0
 32 35  1  0  0  0  0
 41 42  1  0  0  0  0
  7  8  1  0  0  0  0
 31 32  1  0  0  0  0
 22 27  1  0  0  0  0
 22 28  1  0  0  0  0
 21 25  1  0  0  0  0
 21 26  1  0  0  0  0
 23 29  1  0  0  0  0
 23 30  1  0  0  0  0
 18 24  1  0  0  0  0
  3  4  1  0  0  0  0
  3  5  1  0  0  0  0
  3  6  1  0  0  0  0
 11 14  1  0  0  0  0
 11 15  1  0  0  0  0
 11 16  1  0  0  0  0
 35 38  1  0  0  0  0
 35 39  1  0  0  0  0
 35 40  1  0  0  0  0
 42 44  1  0  0  0  0
 42 45  1  0  0  0  0
 42 46  1  0  0  0  0
  8 13  1  0  0  0  0
 32 37  1  0  0  0  0
 31 36  1  0  0  0  0
 41 43  1  0  0  0  0
  7 12  1  0  0  0  0
M  END
$$$$

  -OEChem-05262214473D

 46 46  0     1  0  0  0  0  0999 V2000
   -0.6012   -3.2995    3.8205 C   0  0  0  0  0  0  0  0  0  0  0  0
   -0.6574   -4.4683    3.4568 O   0  0  0  0  0  0  0  0  0  0  0  0
   -0.4935   -2.9859    5.2760 C   0  0  0  0  0  0  0  0  0  0  0  0
   -1.4789   -2.8689    5.7550 H   0  0  0  0  0  0  0  0  0  0  0  0
    0.0123   -3.7847    5.8419 H   0  0  0  0  0  0  0  0  0  0  0  0
    0.0585   -2.0642    5.5199 H   0  0  0  0  0  0  0  0  0  0  0  0
   -0.6261   -2.1849    2.9917 N   0  0  0  0  0  0  0  0  0  0  0  0
   -0.7237   -2.2601    1.5650 C   0  0  2  0  0  0  0  0  0  0  0  0
    0.1695   -1.1513    1.0687 C   0  0  0  0  0  0  0  0  0  0  0  0
    0.3193   -0.1267    1.7365 O   0  0  0  0  0  0  0  0  0  0  0  0
   -2.1397   -2.0663    1.0750 C   0  0  0  0  0  0  0  0  0  0  0  0
   -0.5717   -1.2606    3.4238 H   0  0  0  0  0  0  0  0  0  0  0  0
   -0.3076   -3.2111    1.2363 H   0  0  0  0  0  0  0  0  0  0  0  0
   -2.5584   -1.1089    1.4061 H   0  0  0  0  0  0  0  0  0  0  0  0
   -2.1682   -2.0790   -0.0197 H   0  0  0  0  0  0  0  0  0  0  0  0
   -2.7965   -2.8601    1.4459 H   0  0  0  0  0  0  0  0  0  0  0  0
    0.7724   -1.3745   -0.1593 N   0  0  0  0  0  0  0  0  0  0  0  0
    1.6644   -0.4046   -0.7812 C   0  0  2  0  0  0  0  0  0  0  0  0
    0.8081    0.7026   -1.3179 C   0  0  0  0  0  0  0  0  0  0  0  0
    1.3262    1.7658   -1.6388 O   0  0  0  0  0  0  0  0  0  0  0  0
    2.3573   -1.1764   -1.8982 C   0  0  0  0  0  0  0  0  0  0  0  0
    2.2167   -2.5785   -1.3107 C   0  0  0  0  0  0  0  0  0  0  0  0
    0.7499   -2.6270   -0.9105 C   0  0  0  0  0  0  0  0  0  0  0  0
    2.3623    0.0129   -0.0492 H   0  0  0  0  0  0  0  0  0  0  0  0
    3.4062   -0.8655   -1.9737 H   0  0  0  0  0  0  0  0  0  0  0  0
    1.8846   -1.0490   -2.8769 H   0  0  0  0  0  0  0  0  0  0  0  0
    2.4331   -3.3352   -2.0736 H   0  0  0  0  0  0  0  0  0  0  0  0
    2.8910   -2.7415   -0.4651 H   0  0  0  0  0  0  0  0  0  0  0  0
    0.0783   -2.6509   -1.7731 H   0  0  0  0  0  0  0  0  0  0  0  0
    0.5408   -3.4912   -0.2707 H   0  0  0  0  0  0  0  0  0  0  0  0
   -0.6134    0.1897   -1.3309 N   0  0  0  0  0  0  0  0  0  0  0  0
   -1.7215    1.0434   -1.6947 C   0  0  2  0  0  0  0  0  0  0  0  0
   -1.3824    1.7156   -3.0186 C   0  0  0  0  0  0  0  0  0  0  0  0
   -0.2304    1.8557   -3.4241 O   0  0  0  0  0  0  0  0  0  0  0  0
   -2.0005    2.0780   -0.6156 C   0  0  0  0  0  0  0  0  0  0  0  0
   -0.7907   -0.8010   -1.1951 H   0  0  0  0  0  0  0  0  0  0  0  0
   -2.5922    0.3921   -1.8277 H   0  0  0  0  0  0  0  0  0  0  0  0
   -1.1393    2.7399   -0.4682 H   0  0  0  0  0  0  0  0  0  0  0  0
   -2.8581    2.7054   -0.8797 H   0  0  0  0  0  0  0  0  0  0  0  0
   -2.2149    1.5932    0.3429 H   0  0  0  0  0  0  0  0  0  0  0  0
   -2.5147    2.1791   -3.6737 N   0  0  0  0  0  0  0  0  0  0  0  0
   -2.4551    2.8645   -4.9436 C   0  0  0  0  0  0  0  0  0  0  0  0
   -3.4313    2.0022   -3.2732 H   0  0  0  0  0  0  0  0  0  0  0  0
   -2.4001    3.9498   -4.7729 H   0  0  0  0  0  0  0  0  0  0  0  0
   -1.5632    2.5347   -5.4966 H   0  0  0  0  0  0  0  0  0  0  0  0
   -3.3566    2.6307   -5.5290 H   0  0  0  0  0  0  0  0  0  0  0  0
 18 19  1  0  0  0  0
 19 31  1  0  0  0  0
 19 20  2  0  0  0  0
  8  9  1  0  0  0  0
  9 17  1  0  0  0  0
  9 10  2  0  0  0  0
  1  3  1  0  0  0  0
  1  7  1  0  0  0  0
  1  2  2  0  0  0  0
 32 33  1  0  0  0  0
 33 41  1  0  0  0  0
 33 34  2  0  0  0  0
 21 22  1  0  0  0  0
 22 23  1  0  0  0  0
 18 21  1  0  0  0  0
 17 23  1  0  0  0  0
 17 18  1  0  0  0  0
  8 11  1  0  0  0  0
 32 35  1  0  0  0  0
 41 42  1  0  0  0  0
  7  8  1  0  0  0  0
 31 32  1  0  0  0  0
 22 27  1  0  0  0  0
 22 28  1  0  0  0  0
 21 25  1  0  0  0  0
 21 26  1  0  0  0  0
 23 29  1  0  0  0  0
 23 30  1  0  0  0  0
 18 24  1  0  0  0  0
  3  4  1  0  0  0  0
  3  5  1  0  0  0  0
  3  6  1  0  0  0  0
 11 14  1  0  0  0  0
 11 15  1  0  0  0  0
 11 16  1  0  0  0  0
 35 38  1  0  0  0  0
 35 39  1  0  0  0  0
 35 40  1  0  0  0  0
 42 44  1  0  0  0  0
 42 45  1  0  0  0  0
 42 46  1  0  0  0  0
  8 13  1  0  0  0  0
 32 37  1  0  0  0  0
 31 36  1  0  0  0  0
 41 43  1  0  0  0  0
  7 12  1  0  0  0  0
M  END
$$$$

  -OEChem-05262214473D

 46 46  0     1  0  0  0  0  0999 V2000
   -0.6012   -3.2995    3.8205 C   0  0  0  0  0  0  0  0  0  0  0  0
   -0.6574   -4.4683    3.4568 O   0  0  0  0  0  0  0  0  0  0  0  0
   -0.4935   -2.9859    5.2760 C   0  0  0  0  0  0  0  0  0  0  0  0
   -1.4789   -2.8689    5.7550 H   0  0  0  0  0  0  0  0  0  0  0  0
    0.0123   -3.7847    5.8419 H   0  0  0  0  0  0  0  0  0  0  0  0
    0.0585   -2.0642    5.5199 H   0  0  0  0  0  0  0  0  0  0  0  0
   -0.6261   -2.1849    2.9917 N   0  0  0  0  0  0  0  0  0  0  0  0
   -0.7237   -2.2601    1.5650 C   0  0  2  0  0  0  0  0  0  0  0  0
    0.1695   -1.1513    1.0687 C   0  0  0  0  0  0  0  0  0  0  0  0
    0.3193   -0.1267    1.7365 O   0  0  0  0  0  0  0  0  0  0  0  0
   -2.1397   -2.0663    1.0750 C   0  0  0  0  0  0  0  0  0  0  0  0
   -0.5717   -1.2606    3.4238 H   0  0  0  0  0  0  0  0  0  0  0  0
   -0.3076   -3.2111    1.2363 H   0  0  0  0  0  0  0  0  0  0  0  0
   -2.5584   -1.1089    1.4061 H   0  0  0  0  0  0  0  0  0  0  0  0
   -2.1682   -2.0790   -0.0197 H   0  0  0  0  0  0  0  0  0  0  0  0
   -2.7965   -2.8601    1.4459 H   0  0  0  0  0  0  0  0  0  0  0  0
    0.7724   -1.3745   -0.1593 N   0  0  0  0  0  0  0  0  0  0  0  0
    1.6644   -0.4046   -0.7812 C   0  0  2  0  0  0  0  0  0  0  0  0
    0.8081    0.7026   -1.3179 C   0  0  0  0  0  0  0  0  0  0  0  0
    1.3339    1.6493   -1.8914 O   0  0  0  0  0  0  0  0  0  0  0  0
    2.3573   -1.1764   -1.8982 C   0  0  0  0  0  0  0  0  0  0  0  0
    2.2167   -2.5785   -1.3107 C   0  0  0  0  0  0  0  0  0  0  0  0
    0.7499   -2.6270   -0.9105 C   0  0  0  0  0  0  0  0  0  0  0  0
    2.3623    0.0129   -0.0492 H   0  0  0  0  0  0  0  0  0  0  0  0
    3.4062   -0.8655   -1.9737 H   0  0  0  0  0  0  0  0  0  0  0  0
    1.8846   -1.0490   -2.8769 H   0  0  0  0  0  0  0  0  0  0  0  0
    2.4331   -3.3352   -2.0736 H   0  0  0  0  0  0  0  0  0  0  0  0
    2.8910   -2.7415   -0.4651 H   0  0  0  0  0  0  0  0  0  0  0  0
    0.0783   -2.6509   -1.7731 H   0  0  0  0  0  0  0  0  0  0  0  0
    0.5408   -3.4912   -0.2707 H   0  0  0  0  0  0  0  0  0  0  0  0
   -0.6235    0.3480   -0.9883 N   0  0  0  0  0  0  0  0  0  0  0  0
   -1.7114    1.2566   -1.2710 C   0  0  2  0  0  0  0  0  0  0  0  0
   -1.5898    1.6983   -2.7235 C   0  0  0  0  0  0  0  0  0  0  0  0
   -0.5336    1.6566   -3.3511 O   0  0  0  0  0  0  0  0  0  0  0  0
   -1.6892    2.4548   -0.3348 C   0  0  0  0  0  0  0  0  0  0  0  0
   -0.8473   -0.5895   -0.6684 H   0  0  0  0  0  0  0  0  0  0  0  0
   -2.6394    0.6900   -1.1375 H   0  0  0  0  0  0  0  0  0  0  0  0
   -0.7667    3.0347   -0.4543 H   0  0  0  0  0  0  0  0  0  0  0  0
   -2.5304    3.1277   -0.5316 H   0  0  0  0  0  0  0  0  0  0  0  0
   -1.7467    2.1335    0.7108 H   0  0  0  0  0  0  0  0  0  0  0  0
   -2.7896    2.1848   -3.2232 N   0  0  0  0  0  0  0  0  0  0  0  0
   -2.9293    2.6769   -4.5739 C   0  0  0  0  0  0  0  0  0  0  0  0
   -3.6196    2.1644   -2.6380 H   0  0  0  0  0  0  0  0  0  0  0  0
   -2.7568    3.7632   -4.5887 H   0  0  0  0  0  0  0  0  0  0  0  0
   -2.1933    2.1800   -5.2230 H   0  0  0  0  0  0  0  0  0  0  0  0
   -3.9444    2.4620   -4.9391 H   0  0  0  0  0  0  0  0  0  0  0  0
 18 19  1  0  0  0  0
 19 31  1  0  0  0  0
 19 20  2  0  0  0  0
  8  9  1  0  0  0  0
  9 17  1  0  0  0  0
  9 10  2  0  0  0  0
  1  3  1  0  0  0  0
  1  7  1  0  0  0  0
  1  2  2  0  0  0  0
 32 33  1  0  0  0  0
 33 41  1  0  0  0  0
 33 34  2  0  0  0  0
 21 22  1  0  0  0  0
 22 23  1  0  0  0  0
 18 21  1  0  0  0  0
 17 23  1  0  0  0  0
 17 18  1  0  0  0  0
  8 11  1  0  0  0  0
 32 35  1  0  0  0  0
 41 42  1  0  0  0  0
  7  8  1  0  0  0  0
 31 32  1  0  0  0  0
 22 27  1  0  0  0  0
 22 28  1  0  0  0  0
 21 25  1  0  0  0  0
 21 26  1  0  0  0  0
 23 29  1  0  0  0  0
 23 30  1  0  0  0  0
 18 24  1  0  0  0  0
  3  4  1  0  0  0  0
  3  5  1  0  0  0  0
  3  6  1  0  0  0  0
 11 14  1  0  0  0  0
 11 15  1  0  0  0  0
 11 16  1  0  0  0  0
 35 38  1  0  0  0  0
 35 39  1  0  0  0  0
 35 40  1  0  0  0  0
 42 44  1  0  0  0  0
 42 45  1  0  0  0  0
 42 46  1  0  0  0  0
  8 13  1  0  0  0  0
 32 37  1  0  0  0  0
 31 36  1  0  0  0  0
 41 43  1  0  0  0  0
  7 12  1  0  0  0  0
M  END
$$$$

  -OEChem-05262214473D

 46 46  0     1  0  0  0  0  0999 V2000
   -0.6012   -3.2995    3.8205 C   0  0  0  0  0  0  0  0  0  0  0  0
   -0.6574   -4.4683    3.4568 O   0  0  0  0  0  0  0  0  0  0  0  0
   -0.4935   -2.9859    5.2760 C   0  0  0  0  0  0  0  0  0  0  0  0
   -1.4789   -2.8689    5.7550 H   0  0  0  0  0  0  0  0  0  0  0  0
    0.0123   -3.7847    5.8419 H   0  0  0  0  0  0  0  0  0  0  0  0
    0.0585   -2.0642    5.5199 H   0  0  0  0  0  0  0  0  0  0  0  0
   -0.6261   -2.1849    2.9917 N   0  0  0  0  0  0  0  0  0  0  0  0
   -0.7237   -2.2601    1.5650 C   0  0  2  0  0  0  0  0  0  0  0  0
    0.1695   -1.1513    1.0687 C   0  0  0  0  0  0  0  0  0  0  0  0
    0.3193   -0.1267    1.7365 O   0  0  0  0  0  0  0  0  0  0  0  0
   -2.1397   -2.0663    1.0750 C   0  0  0  0  0  0  0  0  0  0  0  0
   -0.5717   -1.2606    3.4238 H   0  0  0  0  0  0  0  0  0  0  0  0
   -0.3076   -3.2111    1.2363 H   0  0  0  0  0  0  0  0  0  0  0  0
   -2.5584   -1.1089    1.4061 H   0  0  0  0  0  0  0  0  0  0  0  0
   -2.1682   -2.0790   -0.0197 H   0  0  0  0  0  0  0  0  0  0  0  0
   -2.7965   -2.8601    1.4459 H   0  0  0  0  0  0  0  0  0  0  0  0
    0.7724   -1.3745   -0.1593 N   0  0  0  0  0  0  0  0  0  0  0  0
    1.6644   -0.4046   -0.7812 C   0  0  2  0  0  0  0  0  0  0  0  0
    0.8081    0.7026   -1.3179 C   0  0  0  0  0  0  0  0  0  0  0  0
    1.2823    1.4988   -2.1197 O   0  0  0  0  0  0  0  0  0  0  0  0
    2.3573   -1.1764   -1.8982 C   0  0  0  0  0  0  0  0  0  0  0  0
    2.2167   -2.5785   -1.3107 C   0  0  0  0  0  0  0  0  0  0  0  0
    0.7499   -2.6270   -0.9105 C   0  0  0  0  0  0  0  0  0  0  0  0
    2.3623    0.0129   -0.0492 H   0  0  0  0  0  0  0  0  0  0  0  0
    3.4062   -0.8655   -1.9737 H   0  0  0  0  0  0  0  0  0  0  0  0
    1.8846   -1.0490   -2.8769 H   0  0  0  0  0  0  0  0  0  0  0  0
    2.4331   -3.3352   -2.0736 H   0  0  0  0  0  0  0  0  0  0  0  0
    2.8910   -2.7415   -0.4651 H   0  0  0  0  0  0  0  0  0  0  0  0
    0.0783   -2.6509   -1.7731 H   0  0  0  0  0  0  0  0  0  0  0  0
    0.5408   -3.4912   -0.2707 H   0  0  0  0  0  0  0  0  0  0  0  0
   -0.5531    0.5525   -0.6787 N   0  0  0  0  0  0  0  0  0  0  0  0
   -1.6009    1.5242   -0.8952 C   0  0  2  0  0  0  0  0  0  0  0  0
   -1.7353    1.7444   -2.3962 C   0  0  0  0  0  0  0  0  0  0  0  0
   -0.8310    1.5032   -3.1932 O   0  0  0  0  0  0  0  0  0  0  0  0
   -1.2999    2.8314   -0.1789 C   0  0  0  0  0  0  0  0  0  0  0  0
   -0.7818   -0.3022   -0.1801 H   0  0  0  0  0  0  0  0  0  0  0  0
   -2.5255    1.0843   -0.5058 H   0  0  0  0  0  0  0  0  0  0  0  0
   -0.3769    3.2870   -0.5557 H   0  0  0  0  0  0  0  0  0  0  0  0
   -2.1081    3.5566   -0.3203 H   0  0  0  0  0  0  0  0  0  0  0  0
   -1.1741    2.6665    0.8967 H   0  0  0  0  0  0  0  0  0  0  0  0
   -2.9685    2.2824   -2.7364 N   0  0  0  0  0  0  0  0  0  0  0  0
   -3.3341    2.5943   -4.0984 C   0  0  0  0  0  0  0  0  0  0  0  0
   -3.6651    2.4324   -2.0125 H   0  0  0  0  0  0  0  0  0  0  0  0
   -3.0835    3.6433   -4.3149 H   0  0  0  0  0  0  0  0  0  0  0  0
   -2.7825    1.9362   -4.7859 H   0  0  0  0  0  0  0  0  0  0  0  0
   -4.4151    2.4407   -4.2321 H   0  0  0  0  0  0  0  0  0  0  0  0
 18 19  1  0  0  0  0
 19 31  1  0  0  0  0
 19 20  2  0  0  0  0
  8  9  1  0  0  0  0
  9 17  1  0  0  0  0
  9 10  2  0  0  0  0
  1  3  1  0  0  0  0
  1  7  1  0  0  0  0
  1  2  2  0  0  0  0
 32 33  1  0  0  0  0
 33 41  1  0  0  0  0
 33 34  2  0  0  0  0
 21 22  1  0  0  0  0
 22 23  1  0  0  0  0
 18 21  1  0  0  0  0
 17 23  1  0  0  0  0
 17 18  1  0  0  0  0
  8 11  1  0  0  0  0
 32 35  1  0  0  0  0
 41 42  1  0  0  0  0
  7  8  1  0  0  0  0
 31 32  1  0  0  0  0
 22 27  1  0  0  0  0
 22 28  1  0  0  0  0
 21 25  1  0  0  0  0
 21 26  1  0  0  0  0
 23 29  1  0  0  0  0
 23 30  1  0  0  0  0
 18 24  1  0  0  0  0
  3  4  1  0  0  0  0
  3  5  1  0  0  0  0
  3  6  1  0  0  0  0
 11 14  1  0  0  0  0
 11 15  1  0  0  0  0
 11 16  1  0  0  0  0
 35 38  1  0  0  0  0
 35 39  1  0  0  0  0
 35 40  1  0  0  0  0
 42 44  1  0  0  0  0
 42 45  1  0  0  0  0
 42 46  1  0  0  0  0
  8 13  1  0  0  0  0
 32 37  1  0  0  0  0
 31 36  1  0  0  0  0
 41 43  1  0  0  0  0
  7 12  1  0  0  0  0
M  END
$$$$

  -OEChem-05262214473D

 46 46  0     1  0  0  0  0  0999 V2000
   -0.6012   -3.2995    3.8205 C   0  0  0  0  0  0  0  0  0  0  0  0
   -0.6574   -4.4683    3.4568 O   0  0  0  0  0  0  0  0  0  0  0  0
   -0.4935   -2.9859    5.2760 C   0  0  0  0  0  0  0  0  0  0  0  0
   -1.4789   -2.8689    5.7550 H   0  0  0  0  0  0  0  0  0  0  0  0
    0.0123   -3.7847    5.8419 H   0  0  0  0  0  0  0  0  0  0  0  0
    0.0585   -2.0642    5.5199 H   0  0  0  0  0  0  0  0  0  0  0  0
   -0.6261   -2.1849    2.9917 N   0  0  0  0  0  0  0  0  0  0  0  0
   -0.7237   -2.2601    1.5650 C   0  0  2  0  0  0  0  0  0  0  0  0
    0.1695   -1.1513    1.0687 C   0  0  0  0  0  0  0  0  0  0  0  0
    0.3193   -0.1267    1.7365 O   0  0  0  0  0  0  0  0  0  0  0  0
   -2.1397   -2.0663    1.0750 C   0  0  0  0  0  0  0  0  0  0  0  0
   -0.5717   -1.2606    3.4238 H   0  0  0  0  0  0  0  0  0  0  0  0
   -0.3076   -3.2111    1.2363 H   0  0  0  0  0  0  0  0  0  0  0  0
   -2.5584   -1.1089    1.4061 H   0  0  0  0  0  0  0  0  0  0  0  0
   -2.1682   -2.0790   -0.0197 H   0  0  0  0  0  0  0  0  0  0  0  0
   -2.7965   -2.8601    1.4459 H   0  0  0  0  0  0  0  0  0  0  0  0
    0.7724   -1.3745   -0.1593 N   0  0  0  0  0  0  0  0  0  0  0  0
    1.6644   -0.4046   -0.7812 C   0  0  2  0  0  0  0  0  0  0  0  0
    0.8081    0.7026   -1.3179 C   0  0  0  0  0  0  0  0  0  0  0  0
    1.1749    1.3244   -2.3081 O   0  0  0  0  0  0  0  0  0  0  0  0
    2.3573   -1.1764   -1.8982 C   0  0  0  0  0  0  0  0  0  0  0  0
    2.2167   -2.5785   -1.3107 C   0  0  0  0  0  0  0  0  0  0  0  0
    0.7499   -2.6270   -0.9105 C   0  0  0  0  0  0  0  0  0  0  0  0
    2.3623    0.0129   -0.0492 H   0  0  0  0  0  0  0  0  0  0  0  0
    3.4062   -0.8655   -1.9737 H   0  0  0  0  0  0  0  0  0  0  0  0
    1.8846   -1.0490   -2.8769 H   0  0  0  0  0  0  0  0  0  0  0  0
    2.4331   -3.3352   -2.0736 H   0  0  0  0  0  0  0  0  0  0  0  0
    2.8910   -2.7415   -0.4651 H   0  0  0  0  0  0  0  0  0  0  0  0
    0.0783   -2.6509   -1.7731 H   0  0  0  0  0  0  0  0  0  0  0  0
    0.5408   -3.4912   -0.2707 H   0  0  0  0  0  0  0  0  0  0  0  0
   -0.4069    0.7892   -0.4234 N   0  0  0  0  0  0  0  0  0  0  0  0
   -1.3976    1.8280   -0.5929 C   0  0  2  0  0  0  0  0  0  0  0  0
   -1.8090    1.8507   -2.0591 C   0  0  0  0  0  0  0  0  0  0  0  0
   -1.1023    1.4059   -2.9611 O   0  0  0  0  0  0  0  0  0  0  0  0
   -0.8592    3.1822   -0.1583 C   0  0  0  0  0  0  0  0  0  0  0  0
   -0.5985    0.0415    0.2366 H   0  0  0  0  0  0  0  0  0  0  0  0
   -2.2582    1.5479    0.0242 H   0  0  0  0  0  0  0  0  0  0  0  0
    0.0036    3.4797   -0.7654 H   0  0  0  0  0  0  0  0  0  0  0  0
   -1.6201    3.9630   -0.2604 H   0  0  0  0  0  0  0  0  0  0  0  0
   -0.5361    3.1557    0.8880 H   0  0  0  0  0  0  0  0  0  0  0  0
   -3.0392    2.4653   -2.2464 N   0  0  0  0  0  0  0  0  0  0  0  0
   -3.6419    2.6224   -3.5495 C   0  0  0  0  0  0  0  0  0  0  0  0
   -3.5647    2.7879   -1.4392 H   0  0  0  0  0  0  0  0  0  0  0  0
   -3.3578    3.5982   -3.9703 H   0  0  0  0  0  0  0  0  0  0  0  0
   -3.2906    1.8200   -4.2149 H   0  0  0  0  0  0  0  0  0  0  0  0
   -4.7366    2.5682   -3.4560 H   0  0  0  0  0  0  0  0  0  0  0  0
 18 19  1  0  0  0  0
 19 31  1  0  0  0  0
 19 20  2  0  0  0  0
  8  9  1  0  0  0  0
  9 17  1  0  0  0  0
  9 10  2  0  0  0  0
  1  3  1  0  0  0  0
  1  7  1  0  0  0  0
  1  2  2  0  0  0  0
 32 33  1  0  0  0  0
 33 41  1  0  0  0  0
 33 34  2  0  0  0  0
 21 22  1  0  0  0  0
 22 23  1  0  0  0  0
 18 21  1  0  0  0  0
 17 23  1  0  0  0  0
 17 18  1  0  0  0  0
  8 11  1  0  0  0  0
 32 35  1  0  0  0  0
 41 42  1  0  0  0  0
  7  8  1  0  0  0  0
 31 32  1  0  0  0  0
 22 27  1  0  0  0  0
 22 28  1  0  0  0  0
 21 25  1  0  0  0  0
 21 26  1  0  0  0  0
 23 29  1  0  0  0  0
 23 30  1  0  0  0  0
 18 24  1  0  0  0  0
  3  4  1  0  0  0  0
  3  5  1  0  0  0  0
  3  6  1  0  0  0  0
 11 14  1  0  0  0  0
 11 15  1  0  0  0  0
 11 16  1  0  0  0  0
 35 38  1  0  0  0  0
 35 39  1  0  0  0  0
 35 40  1  0  0  0  0
 42 44  1  0  0  0  0
 42 45  1  0  0  0  0
 42 46  1  0  0  0  0
  8 13  1  0  0  0  0
 32 37  1  0  0  0  0
 31 36  1  0  0  0  0
 41 43  1  0  0  0  0
  7 12  1  0  0  0  0
M  END
$$$$

  -OEChem-05262214473D

 46 46  0     1  0  0  0  0  0999 V2000
   -0.6012   -3.2995    3.8205 C   0  0  0  0  0  0  0  0  0  0  0  0
   -0.6574   -4.4683    3.4568 O   0  0  0  0  0  0  0  0  0  0  0  0
   -0.4935   -2.9859    5.2760 C   0  0  0  0  0  0  0  0  0  0  0  0
   -1.4789   -2.8689    5.7550 H   0  0  0  0  0  0  0  0  0  0  0  0
    0.0123   -3.7847    5.8419 H   0  0  0  0  0  0  0  0  0  0  0  0
    0.0585   -2.0642    5.5199 H   0  0  0  0  0  0  0  0  0  0  0  0
   -0.6261   -2.1849    2.9917 N   0  0  0  0  0  0  0  0  0  0  0  0
   -0.7237   -2.2601    1.5650 C   0  0  2  0  0  0  0  0  0  0  0  0
    0.1695   -1.1513    1.0687 C   0  0  0  0  0  0  0  0  0  0  0  0
    0.3193   -0.1267    1.7365 O   0  0  0  0  0  0  0  0  0  0  0  0
   -2.1397   -2.0663    1.0750 C   0  0  0  0  0  0  0  0  0  0  0  0
   -0.5717   -1.2606    3.4238 H   0  0  0  0  0  0  0  0  0  0  0  0
   -0.3076   -3.2111    1.2363 H   0  0  0  0  0  0  0  0  0  0  0  0
   -2.5584   -1.1089    1.4061 H   0  0  0  0  0  0  0  0  0  0  0  0
   -2.1682   -2.0790   -0.0197 H   0  0  0  0  0  0  0  0  0  0  0  0
   -2.7965   -2.8601    1.4459 H   0  0  0  0  0  0  0  0  0  0  0  0
    0.7724   -1.3745   -0.1593 N   0  0  0  0  0  0  0  0  0  0  0  0
    1.6644   -0.4046   -0.7812 C   0  0  2  0  0  0  0  0  0  0  0  0
    0.8081    0.7026   -1.3179 C   0  0  0  0  0  0  0  0  0  0  0  0
    1.0189    1.1380   -2.4438 O   0  0  0  0  0  0  0  0  0  0  0  0
    2.3573   -1.1764   -1.8982 C   0  0  0  0  0  0  0  0  0  0  0  0
    2.2167   -2.5785   -1.3107 C   0  0  0  0  0  0  0  0  0  0  0  0
    0.7499   -2.6270   -0.9105 C   0  0  0  0  0  0  0  0  0  0  0  0
    2.3623    0.0129   -0.0492 H   0  0  0  0  0  0  0  0  0  0  0  0
    3.4062   -0.8655   -1.9737 H   0  0  0  0  0  0  0  0  0  0  0  0
    1.8846   -1.0490   -2.8769 H   0  0  0  0  0  0  0  0  0  0  0  0
    2.4331   -3.3352   -2.0736 H   0  0  0  0  0  0  0  0  0  0  0  0
    2.8910   -2.7415   -0.4651 H   0  0  0  0  0  0  0  0  0  0  0  0
    0.0783   -2.6509   -1.7731 H   0  0  0  0  0  0  0  0  0  0  0  0
    0.5408   -3.4912   -0.2707 H   0  0  0  0  0  0  0  0  0  0  0  0
   -0.1950    1.0421   -0.2398 N   0  0  0  0  0  0  0  0  0  0  0  0
   -1.1152    2.1473   -0.3847 C   0  0  2  0  0  0  0  0  0  0  0  0
   -1.8059    2.0102   -1.7351 C   0  0  0  0  0  0  0  0  0  0  0  0
   -1.3289    1.3713   -2.6707 O   0  0  0  0  0  0  0  0  0  0  0  0
   -0.3971    3.4833   -0.2746 C   0  0  0  0  0  0  0  0  0  0  0  0
   -0.3099    0.4181    0.5532 H   0  0  0  0  0  0  0  0  0  0  0  0
   -1.8557    2.0493    0.4166 H   0  0  0  0  0  0  0  0  0  0  0  0
    0.3489    3.5995   -1.0692 H   0  0  0  0  0  0  0  0  0  0  0  0
   -1.0996    4.3192   -0.3560 H   0  0  0  0  0  0  0  0  0  0  0  0
    0.1238    3.5678    0.6853 H   0  0  0  0  0  0  0  0  0  0  0  0
   -2.9969    2.7209   -1.7866 N   0  0  0  0  0  0  0  0  0  0  0  0
   -3.8316    2.7591   -2.9646 C   0  0  0  0  0  0  0  0  0  0  0  0
   -3.3251    3.2068   -0.9572 H   0  0  0  0  0  0  0  0  0  0  0  0
   -3.5610    3.6310   -3.5783 H   0  0  0  0  0  0  0  0  0  0  0  0
   -3.6831    1.8392   -3.5491 H   0  0  0  0  0  0  0  0  0  0  0  0
   -4.8869    2.8360   -2.6638 H   0  0  0  0  0  0  0  0  0  0  0  0
 18 19  1  0  0  0  0
 19 31  1  0  0  0  0
 19 20  2  0  0  0  0
  8  9  1  0  0  0  0
  9 17  1  0  0  0  0
  9 10  2  0  0  0  0
  1  3  1  0  0  0  0
  1  7  1  0  0  0  0
  1  2  2  0  0  0  0
 32 33  1  0  0  0  0
 33 41  1  0  0  0  0
 33 34  2  0  0  0  0
 21 22  1  0  0  0  0
 22 23  1  0  0  0  0
 18 21  1  0  0  0  0
 17 23  1  0  0  0  0
 17 18  1  0  0  0  0
  8 11  1  0  0  0  0
 32 35  1  0  0  0  0
 41 42  1  0  0  0  0
  7  8  1  0  0  0  0
 31 32  1  0  0  0  0
 22 27  1  0  0  0  0
 22 28  1  0  0  0  0
 21 25  1  0  0  0  0
 21 26  1  0  0  0  0
 23 29  1  0  0  0  0
 23 30  1  0  0  0  0
 18 24  1  0  0  0  0
  3  4  1  0  0  0  0
  3  5  1  0  0  0  0
  3  6  1  0  0  0  0
 11 14  1  0  0  0  0
 11 15  1  0  0  0  0
 11 16  1  0  0  0  0
 35 38  1  0  0  0  0
 35 39  1  0  0  0  0
 35 40  1  0  0  0  0
 42 44  1  0  0  0  0
 42 45  1  0  0  0  0
 42 46  1  0  0  0  0
  8 13  1  0  0  0  0
 32 37  1  0  0  0  0
 31 36  1  0  0  0  0
 41 43  1  0  0  0  0
  7 12  1  0  0  0  0
M  END
$$$$

  -OEChem-05262214473D

 46 46  0     1  0  0  0  0  0999 V2000
   -0.6012   -3.2995    3.8205 C   0  0  0  0  0  0  0  0  0  0  0  0
   -0.6574   -4.4683    3.4568 O   0  0  0  0  0  0  0  0  0  0  0  0
   -0.4935   -2.9859    5.2760 C   0  0  0  0  0  0  0  0  0  0  0  0
   -1.4789   -2.8689    5.7550 H   0  0  0  0  0  0  0  0  0  0  0  0
    0.0123   -3.7847    5.8419 H   0  0  0  0  0  0  0  0  0  0  0  0
    0.0585   -2.0642    5.5199 H   0  0  0  0  0  0  0  0  0  0  0  0
   -0.6261   -2.1849    2.9917 N   0  0  0  0  0  0  0  0  0  0  0  0
   -0.7237   -2.2601    1.5650 C   0  0  2  0  0  0  0  0  0  0  0  0
    0.1695   -1.1513    1.0687 C   0  0  0  0  0  0  0  0  0  0  0  0
    0.3193   -0.1267    1.7365 O   0  0  0  0  0  0  0  0  0  0  0  0
   -2.1397   -2.0663    1.0750 C   0  0  0  0  0  0  0  0  0  0  0  0
   -0.5717   -1.2606    3.4238 H   0  0  0  0  0  0  0  0  0  0  0  0
   -0.3076   -3.2111    1.2363 H   0  0  0  0  0  0  0  0  0  0  0  0
   -2.5584   -1.1089    1.4061 H   0  0  0  0  0  0  0  0  0  0  0  0
   -2.1682   -2.0790   -0.0197 H   0  0  0  0  0  0  0  0  0  0  0  0
   -2.7965   -2.8601    1.4459 H   0  0  0  0  0  0  0  0  0  0  0  0
    0.7724   -1.3745   -0.1593 N   0  0  0  0  0  0  0  0  0  0  0  0
    1.6644   -0.4046   -0.7812 C   0  0  2  0  0  0  0  0  0  0  0  0
    0.8081    0.7026   -1.3179 C   0  0  0  0  0  0  0  0  0  0  0  0
    0.8251    0.9524   -2.5175 O   0  0  0  0  0  0  0  0  0  0  0  0
    2.3573   -1.1764   -1.8982 C   0  0  0  0  0  0  0  0  0  0  0  0
    2.2167   -2.5785   -1.3107 C   0  0  0  0  0  0  0  0  0  0  0  0
    0.7499   -2.6270   -0.9105 C   0  0  0  0  0  0  0  0  0  0  0  0
    2.3623    0.0129   -0.0492 H   0  0  0  0  0  0  0  0  0  0  0  0
    3.4062   -0.8655   -1.9737 H   0  0  0  0  0  0  0  0  0  0  0  0
    1.8846   -1.0490   -2.8769 H   0  0  0  0  0  0  0  0  0  0  0  0
    2.4331   -3.3352   -2.0736 H   0  0  0  0  0  0  0  0  0  0  0  0
    2.8910   -2.7415   -0.4651 H   0  0  0  0  0  0  0  0  0  0  0  0
    0.0783   -2.6509   -1.7731 H   0  0  0  0  0  0  0  0  0  0  0  0
    0.5408   -3.4912   -0.2707 H   0  0  0  0  0  0  0  0  0  0  0  0
    0.0682    1.2939   -0.1403 N   0  0  0  0  0  0  0  0  0  0  0  0
   -0.7730    2.4603   -0.2847 C   0  0  2  0  0  0  0  0  0  0  0  0
   -1.7262    2.2118   -1.4463 C   0  0  0  0  0  0  0  0  0  0  0  0
   -1.4956    1.4019   -2.3418 O   0  0  0  0  0  0  0  0  0  0  0  0
    0.0550    3.7140   -0.5197 C   0  0  0  0  0  0  0  0  0  0  0  0
    0.0642    0.8019    0.7482 H   0  0  0  0  0  0  0  0  0  0  0  0
   -1.3455    2.5544    0.6445 H   0  0  0  0  0  0  0  0  0  0  0  0
    0.6355    3.6383   -1.4464 H   0  0  0  0  0  0  0  0  0  0  0  0
   -0.5821    4.6009   -0.6004 H   0  0  0  0  0  0  0  0  0  0  0  0
    0.7607    3.8748    0.3024 H   0  0  0  0  0  0  0  0  0  0  0  0
   -2.8444    3.0318   -1.3883 N   0  0  0  0  0  0  0  0  0  0  0  0
   -3.8904    2.9952   -2.3836 C   0  0  0  0  0  0  0  0  0  0  0  0
   -2.9627    3.6605   -0.5994 H   0  0  0  0  0  0  0  0  0  0  0  0
   -3.6793    3.7395   -3.1656 H   0  0  0  0  0  0  0  0  0  0  0  0
   -3.9331    1.9925   -2.8339 H   0  0  0  0  0  0  0  0  0  0  0  0
   -4.8558    3.2256   -1.9094 H   0  0  0  0  0  0  0  0  0  0  0  0
 18 19  1  0  0  0  0
 19 31  1  0  0  0  0
 19 20  2  0  0  0  0
  8  9  1  0  0  0  0
  9 17  1  0  0  0  0
  9 10  2  0  0  0  0
  1  3  1  0  0  0  0
  1  7  1  0  0  0  0
  1  2  2  0  0  0  0
 32 33  1  0  0  0  0
 33 41  1  0  0  0  0
 33 34  2  0  0  0  0
 21 22  1  0  0  0  0
 22 23  1  0  0  0  0
 18 21  1  0  0  0  0
 17 23  1  0  0  0  0
 17 18  1  0  0  0  0
  8 11  1  0  0  0  0
 32 35  1  0  0  0  0
 41 42  1  0  0  0  0
  7  8  1  0  0  0  0
 31 32  1  0  0  0  0
 22 27  1  0  0  0  0
 22 28  1  0  0  0  0
 21 25  1  0  0  0  0
 21 26  1  0  0  0  0
 23 29  1  0  0  0  0
 23 30  1  0  0  0  0
 18 24  1  0  0  0  0
  3  4  1  0  0  0  0
  3  5  1  0  0  0  0
  3  6  1  0  0  0  0
 11 14  1  0  0  0  0
 11 15  1  0  0  0  0
 11 16  1  0  0  0  0
 35 38  1  0  0  0  0
 35 39  1  0  0  0  0
 35 40  1  0  0  0  0
 42 44  1  0  0  0  0
 42 45  1  0  0  0  0
 42 46  1  0  0  0  0
  8 13  1  0  0  0  0
 32 37  1  0  0  0  0
 31 36  1  0  0  0  0
 41 43  1  0  0  0  0
  7 12  1  0  0  0  0
M  END
$$$$

  -OEChem-05262214473D

 46 46  0     1  0  0  0  0  0999 V2000
   -0.6012   -3.2995    3.8205 C   0  0  0  0  0  0  0  0  0  0  0  0
   -0.6574   -4.4683    3.4568 O   0  0  0  0  0  0  0  0  0  0  0  0
   -0.4935   -2.9859    5.2760 C   0  0  0  0  0  0  0  0  0  0  0  0
   -1.4789   -2.8689    5.7550 H   0  0  0  0  0  0  0  0  0  0  0  0
    0.0123   -3.7847    5.8419 H   0  0  0  0  0  0  0  0  0  0  0  0
    0.0585   -2.0642    5.5199 H   0  0  0  0  0  0  0  0  0  0  0  0
   -0.6261   -2.1849    2.9917 N   0  0  0  0  0  0  0  0  0  0  0  0
   -0.7237   -2.2601    1.5650 C   0  0  2  0  0  0  0  0  0  0  0  0
    0.1695   -1.1513    1.0687 C   0  0  0  0  0  0  0  0  0  0  0  0
    0.3193   -0.1267    1.7365 O   0  0  0  0  0  0  0  0  0  0  0  0
   -2.1397   -2.0663    1.0750 C   0  0  0  0  0  0  0  0  0  0  0  0
   -0.5717   -1.2606    3.4238 H   0  0  0  0  0  0  0  0  0  0  0  0
   -0.3076   -3.2111    1.2363 H   0  0  0  0  0  0  0  0  0  0  0  0
   -2.5584   -1.1089    1.4061 H   0  0  0  0  0  0  0  0  0  0  0  0
   -2.1682   -2.0790   -0.0197 H   0  0  0  0  0  0  0  0  0  0  0  0
   -2.7965   -2.8601    1.4459 H   0  0  0  0  0  0  0  0  0  0  0  0
    0.7724   -1.3745   -0.1593 N   0  0  0  0  0  0  0  0  0  0  0  0
    1.6644   -0.4046   -0.7812 C   0  0  2  0  0  0  0  0  0  0  0  0
    0.8081    0.7026   -1.3179 C   0  0  0  0  0  0  0  0  0  0  0  0
    0.6066    0.7801   -2.5242 O   0  0  0  0  0  0  0  0  0  0  0  0
    2.3573   -1.1764   -1.8982 C   0  0  0  0  0  0  0  0  0  0  0  0
    2.2167   -2.5785   -1.3107 C   0  0  0  0  0  0  0  0  0  0  0  0
    0.7499   -2.6270   -0.9105 C   0  0  0  0  0  0  0  0  0  0  0  0
    2.3623    0.0129   -0.0492 H   0  0  0  0  0  0  0  0  0  0  0  0
    3.4062   -0.8655   -1.9737 H   0  0  0  0  0  0  0  0  0  0  0  0
    1.8846   -1.0490   -2.8769 H   0  0  0  0  0  0  0  0  0  0  0  0
    2.4331   -3.3352   -2.0736 H   0  0  0  0  0  0  0  0  0  0  0  0
    2.8910   -2.7415   -0.4651 H   0  0  0  0  0  0  0  0  0  0  0  0
    0.0783   -2.6509   -1.7731 H   0  0  0  0  0  0  0  0  0  0  0  0
    0.5408   -3.4912   -0.2707 H   0  0  0  0  0  0  0  0  0  0  0  0
    0.3648    1.5274   -0.1317 N   0  0  0  0  0  0  0  0  0  0  0  0
   -0.3944    2.7457   -0.2999 C   0  0  2  0  0  0  0  0  0  0  0  0
   -1.5753    2.4419   -1.2123 C   0  0  0  0  0  0  0  0  0  0  0  0
   -1.5908    1.4955   -1.9967 O   0  0  0  0  0  0  0  0  0  0  0  0
    0.4661    3.8588   -0.8770 C   0  0  0  0  0  0  0  0  0  0  0  0
    0.4984    1.1669    0.8082 H   0  0  0  0  0  0  0  0  0  0  0  0
   -0.7623    3.0286    0.6925 H   0  0  0  0  0  0  0  0  0  0  0  0
    0.8438    3.5935   -1.8712 H   0  0  0  0  0  0  0  0  0  0  0  0
   -0.1029    4.7890   -0.9771 H   0  0  0  0  0  0  0  0  0  0  0  0
    1.3312    4.0557   -0.2346 H   0  0  0  0  0  0  0  0  0  0  0  0
   -2.5922    3.3769   -1.0788 N   0  0  0  0  0  0  0  0  0  0  0  0
   -3.8143    3.3147   -1.8461 C   0  0  0  0  0  0  0  0  0  0  0  0
   -2.5022    4.1180   -0.3901 H   0  0  0  0  0  0  0  0  0  0  0  0
   -3.7047    3.9162   -2.7605 H   0  0  0  0  0  0  0  0  0  0  0  0
   -4.0236    2.2695   -2.1178 H   0  0  0  0  0  0  0  0  0  0  0  0
   -4.6455    3.7106   -1.2443 H   0  0  0  0  0  0  0  0  0  0  0  0
 18 19  1  0  0  0  0
 19 31  1  0  0  0  0
 19 20  2  0  0  0  0
  8  9  1  0  0  0  0
  9 17  1  0  0  0  0
  9 10  2  0  0  0  0
  1  3  1  0  0  0  0
  1  7  1  0  0  0  0
  1  2  2  0  0  0  0
 32 33  1  0  0  0  0
 33 41  1  0  0  0  0
 33 34  2  0  0  0  0
 21 22  1  0  0  0  0
 22 23  1  0  0  0  0
 18 21  1  0  0  0  0
 17 23  1  0  0  0  0
 17 18  1  0  0  0  0
  8 11  1  0  0  0  0
 32 35  1  0  0  0  0
 41 42  1  0  0  0  0
  7  8  1  0  0  0  0
 31 32  1  0  0  0  0
 22 27  1  0  0  0  0
 22 28  1  0  0  0  0
 21 25  1  0  0  0  0
 21 26  1  0  0  0  0
 23 29  1  0  0  0  0
 23 30  1  0  0  0  0
 18 24  1  0  0  0  0
  3  4  1  0  0  0  0
  3  5  1  0  0  0  0
  3  6  1  0  0  0  0
 11 14  1  0  0  0  0
 11 15  1  0  0  0  0
 11 16  1  0  0  0  0
 35 38  1  0  0  0  0
 35 39  1  0  0  0  0
 35 40  1  0  0  0  0
 42 44  1  0  0  0  0
 42 45  1  0  0  0  0
 42 46  1  0  0  0  0
  8 13  1  0  0  0  0
 32 37  1  0  0  0  0
 31 36  1  0  0  0  0
 41 43  1  0  0  0  0
  7 12  1  0  0  0  0
M  END
$$$$

  -OEChem-05262214473D

 46 46  0     1  0  0  0  0  0999 V2000
   -0.6012   -3.2995    3.8205 C   0  0  0  0  0  0  0  0  0  0  0  0
   -0.6574   -4.4683    3.4568 O   0  0  0  0  0  0  0  0  0  0  0  0
   -0.4935   -2.9859    5.2760 C   0  0  0  0  0  0  0  0  0  0  0  0
   -1.4789   -2.8689    5.7550 H   0  0  0  0  0  0  0  0  0  0  0  0
    0.0123   -3.7847    5.8419 H   0  0  0  0  0  0  0  0  0  0  0  0
    0.0585   -2.0642    5.5199 H   0  0  0  0  0  0  0  0  0  0  0  0
   -0.6261   -2.1849    2.9917 N   0  0  0  0  0  0  0  0  0  0  0  0
   -0.7237   -2.2601    1.5650 C   0  0  2  0  0  0  0  0  0  0  0  0
    0.1695   -1.1513    1.0687 C   0  0  0  0  0  0  0  0  0  0  0  0
    0.3193   -0.1267    1.7365 O   0  0  0  0  0  0  0  0  0  0  0  0
   -2.1397   -2.0663    1.0750 C   0  0  0  0  0  0  0  0  0  0  0  0
   -0.5717   -1.2606    3.4238 H   0  0  0  0  0  0  0  0  0  0  0  0
   -0.3076   -3.2111    1.2363 H   0  0  0  0  0  0  0  0  0  0  0  0
   -2.5584   -1.1089    1.4061 H   0  0  0  0  0  0  0  0  0  0  0  0
   -2.1682   -2.0790   -0.0197 H   0  0  0  0  0  0  0  0  0  0  0  0
   -2.7965   -2.8601    1.4459 H   0  0  0  0  0  0  0  0  0  0  0  0
    0.7724   -1.3745   -0.1593 N   0  0  0  0  0  0  0  0  0  0  0  0
    1.6644   -0.4046   -0.7812 C   0  0  2  0  0  0  0  0  0  0  0  0
    0.8081    0.7026   -1.3179 C   0  0  0  0  0  0  0  0  0  0  0  0
    0.3783    0.6331   -2.4634 O   0  0  0  0  0  0  0  0  0  0  0  0
    2.3573   -1.1764   -1.8982 C   0  0  0  0  0  0  0  0  0  0  0  0
    2.2167   -2.5785   -1.3107 C   0  0  0  0  0  0  0  0  0  0  0  0
    0.7499   -2.6270   -0.9105 C   0  0  0  0  0  0  0  0  0  0  0  0
    2.3623    0.0129   -0.0492 H   0  0  0  0  0  0  0  0  0  0  0  0
    3.4062   -0.8655   -1.9737 H   0  0  0  0  0  0  0  0  0  0  0  0
    1.8846   -1.0490   -2.8769 H   0  0  0  0  0  0  0  0  0  0  0  0
    2.4331   -3.3352   -2.0736 H   0  0  0  0  0  0  0  0  0  0  0  0
    2.8910   -2.7415   -0.4651 H   0  0  0  0  0  0  0  0  0  0  0  0
    0.0783   -2.6509   -1.7731 H   0  0  0  0  0  0  0  0  0  0  0  0
    0.5408   -3.4912   -0.2707 H   0  0  0  0  0  0  0  0  0  0  0  0
    0.6745    1.7268   -0.2147 N   0  0  0  0  0  0  0  0  0  0  0  0
   -0.0052    2.9841   -0.4291 C   0  0  2  0  0  0  0  0  0  0  0  0
   -1.3636    2.6847   -1.0493 C   0  0  0  0  0  0  0  0  0  0  0  0
   -1.6082    1.6457   -1.6590 O   0  0  0  0  0  0  0  0  0  0  0  0
    0.8084    3.9077   -1.3222 C   0  0  0  0  0  0  0  0  0  0  0  0
    0.9631    1.4880    0.7293 H   0  0  0  0  0  0  0  0  0  0  0  0
   -0.1458    3.4398    0.5572 H   0  0  0  0  0  0  0  0  0  0  0  0
    0.9597    3.4681   -2.3148 H   0  0  0  0  0  0  0  0  0  0  0  0
    0.3054    4.8705   -1.4604 H   0  0  0  0  0  0  0  0  0  0  0  0
    1.7963    4.0982   -0.8890 H   0  0  0  0  0  0  0  0  0  0  0  0
   -2.2574    3.7326   -0.8790 N   0  0  0  0  0  0  0  0  0  0  0  0
   -3.6083    3.6956   -1.3887 C   0  0  0  0  0  0  0  0  0  0  0  0
   -1.9751    4.5483   -0.3436 H   0  0  0  0  0  0  0  0  0  0  0  0
   -3.6354    4.1492   -2.3904 H   0  0  0  0  0  0  0  0  0  0  0  0
   -3.9486    2.6514   -1.4498 H   0  0  0  0  0  0  0  0  0  0  0  0
   -4.2703    4.2580   -0.7137 H   0  0  0  0  0  0  0  0  0  0  0  0
 18 19  1  0  0  0  0
 19 31  1  0  0  0  0
 19 20  2  0  0  0  0
  8  9  1  0  0  0  0
  9 17  1  0  0  0  0
  9 10  2  0  0  0  0
  1  3  1  0  0  0  0
  1  7  1  0  0  0  0
  1  2  2  0  0  0  0
 32 33  1  0  0  0  0
 33 41  1  0  0  0  0
 33 34  2  0  0  0  0
 21 22  1  0  0  0  0
 22 23  1  0  0  0  0
 18 21  1  0  0  0  0
 17 23  1  0  0  0  0
 17 18  1  0  0  0  0
  8 11  1  0  0  0  0
 32 35  1  0  0  0  0
 41 42  1  0  0  0  0
  7  8  1  0  0  0  0
 31 32  1  0  0  0  0
 22 27  1  0  0  0  0
 22 28  1  0  0  0  0
 21 25  1  0  0  0  0
 21 26  1  0  0  0  0
 23 29  1  0  0  0  0
 23 30  1  0  0  0  0
 18 24  1  0  0  0  0
  3  4  1  0  0  0  0
  3  5  1  0  0  0  0
  3  6  1  0  0  0  0
 11 14  1  0  0  0  0
 11 15  1  0  0  0  0
 11 16  1  0  0  0  0
 35 38  1  0  0  0  0
 35 39  1  0  0  0  0
 35 40  1  0  0  0  0
 42 44  1  0  0  0  0
 42 45  1  0  0  0  0
 42 46  1  0  0  0  0
  8 13  1  0  0  0  0
 32 37  1  0  0  0  0
 31 36  1  0  0  0  0
 41 43  1  0  0  0  0
  7 12  1  0  0  0  0
M  END
$$$$

  -OEChem-05262214473D

 46 46  0     1  0  0  0  0  0999 V2000
   -0.6012   -3.2995    3.8205 C   0  0  0  0  0  0  0  0  0  0  0  0
   -0.6574   -4.4683    3.4568 O   0  0  0  0  0  0  0  0  0  0  0  0
   -0.4935   -2.9859    5.2760 C   0  0  0  0  0  0  0  0  0  0  0  0
   -1.4789   -2.8689    5.7550 H   0  0  0  0  0  0  0  0  0  0  0  0
    0.0123   -3.7847    5.8419 H   0  0  0  0  0  0  0  0  0  0  0  0
    0.0585   -2.0642    5.5199 H   0  0  0  0  0  0  0  0  0  0  0  0
   -0.6261   -2.1849    2.9917 N   0  0  0  0  0  0  0  0  0  0  0  0
   -0.7237   -2.2601    1.5650 C   0  0  2  0  0  0  0  0  0  0  0  0
    0.1695   -1.1513    1.0687 C   0  0  0  0  0  0  0  0  0  0  0  0
    0.3193   -0.1267    1.7365 O   0  0  0  0  0  0  0  0  0  0  0  0
   -2.1397   -2.0663    1.0750 C   0  0  0  0  0  0  0  0  0  0  0  0
   -0.5717   -1.2606    3.4238 H   0  0  0  0  0  0  0  0  0  0  0  0
   -0.3076   -3.2111    1.2363 H   0  0  0  0  0  0  0  0  0  0  0  0
   -2.5584   -1.1089    1.4061 H   0  0  0  0  0  0  0  0  0  0  0  0
   -2.1682   -2.0790   -0.0197 H   0  0  0  0  0  0  0  0  0  0  0  0
   -2.7965   -2.8601    1.4459 H   0  0  0  0  0  0  0  0  0  0  0  0
    0.7724   -1.3745   -0.1593 N   0  0  0  0  0  0  0  0  0  0  0  0
    1.6644   -0.4046   -0.7812 C   0  0  2  0  0  0  0  0  0  0  0  0
    0.8081    0.7026   -1.3179 C   0  0  0  0  0  0  0  0  0  0  0  0
    0.1557    0.5211   -2.3393 O   0  0  0  0  0  0  0  0  0  0  0  0
    2.3573   -1.1764   -1.8982 C   0  0  0  0  0  0  0  0  0  0  0  0
    2.2167   -2.5785   -1.3107 C   0  0  0  0  0  0  0  0  0  0  0  0
    0.7499   -2.6270   -0.9105 C   0  0  0  0  0  0  0  0  0  0  0  0
    2.3623    0.0129   -0.0492 H   0  0  0  0  0  0  0  0  0  0  0  0
    3.4062   -0.8655   -1.9737 H   0  0  0  0  0  0  0  0  0  0  0  0
    1.8846   -1.0490   -2.8769 H   0  0  0  0  0  0  0  0  0  0  0  0
    2.4331   -3.3352   -2.0736 H   0  0  0  0  0  0  0  0  0  0  0  0
    2.8910   -2.7415   -0.4651 H   0  0  0  0  0  0  0  0  0  0  0  0
    0.0783   -2.6509   -1.7731 H   0  0  0  0  0  0  0  0  0  0  0  0
    0.5408   -3.4912   -0.2707 H   0  0  0  0  0  0  0  0  0  0  0  0
    0.9764    1.8784   -0.3835 N   0  0  0  0  0  0  0  0  0  0  0  0
    0.3682    3.1593   -0.6635 C   0  0  2  0  0  0  0  0  0  0  0  0
   -1.1053    2.9237   -0.9681 C   0  0  0  0  0  0  0  0  0  0  0  0
   -1.5465    1.8424   -1.3517 O   0  0  0  0  0  0  0  0  0  0  0  0
    1.0584    3.8575   -1.8249 C   0  0  0  0  0  0  0  0  0  0  0  0
    1.4267    1.7434    0.5167 H   0  0  0  0  0  0  0  0  0  0  0  0
    0.4619    3.7598    0.2478 H   0  0  0  0  0  0  0  0  0  0  0  0
    0.9751    3.2706   -2.7469 H   0  0  0  0  0  0  0  0  0  0  0  0
    0.6150    4.8400   -2.0173 H   0  0  0  0  0  0  0  0  0  0  0  0
    2.1244    3.9993   -1.6164 H   0  0  0  0  0  0  0  0  0  0  0  0
   -1.8629    4.0747   -0.8026 N   0  0  0  0  0  0  0  0  0  0  0  0
   -3.2867    4.1121   -1.0425 C   0  0  0  0  0  0  0  0  0  0  0  0
   -1.4171    4.9219   -0.4631 H   0  0  0  0  0  0  0  0  0  0  0  0
   -3.4761    4.4225   -2.0807 H   0  0  0  0  0  0  0  0  0  0  0  0
   -3.7130    3.1120   -0.8754 H   0  0  0  0  0  0  0  0  0  0  0  0
   -3.7556    4.8304   -0.3539 H   0  0  0  0  0  0  0  0  0  0  0  0
 18 19  1  0  0  0  0
 19 31  1  0  0  0  0
 19 20  2  0  0  0  0
  8  9  1  0  0  0  0
  9 17  1  0  0  0  0
  9 10  2  0  0  0  0
  1  3  1  0  0  0  0
  1  7  1  0  0  0  0
  1  2  2  0  0  0  0
 32 33  1  0  0  0  0
 33 41  1  0  0  0  0
 33 34  2  0  0  0  0
 21 22  1  0  0  0  0
 22 23  1  0  0  0  0
 18 21  1  0  0  0  0
 17 23  1  0  0  0  0
 17 18  1  0  0  0  0
  8 11  1  0  0  0  0
 32 35  1  0  0  0  0
 41 42  1  0  0  0  0
  7  8  1  0  0  0  0
 31 32  1  0  0  0  0
 22 27  1  0  0  0  0
 22 28  1  0  0  0  0
 21 25  1  0  0  0  0
 21 26  1  0  0  0  0
 23 29  1  0  0  0  0
 23 30  1  0  0  0  0
 18 24  1  0  0  0  0
  3  4  1  0  0  0  0
  3  5  1  0  0  0  0
  3  6  1  0  0  0  0
 11 14  1  0  0  0  0
 11 15  1  0  0  0  0
 11 16  1  0  0  0  0
 35 38  1  0  0  0  0
 35 39  1  0  0  0  0
 35 40  1  0  0  0  0
 42 44  1  0  0  0  0
 42 45  1  0  0  0  0
 42 46  1  0  0  0  0
  8 13  1  0  0  0  0
 32 37  1  0  0  0  0
 31 36  1  0  0  0  0
 41 43  1  0  0  0  0
  7 12  1  0  0  0  0
M  END
$$$$

  -OEChem-05262214473D

 46 46  0     1  0  0  0  0  0999 V2000
   -0.6012   -3.2995    3.8205 C   0  0  0  0  0  0  0  0  0  0  0  0
   -0.6574   -4.4683    3.4568 O   0  0  0  0  0  0  0  0  0  0  0  0
   -0.4935   -2.9859    5.2760 C   0  0  0  0  0  0  0  0  0  0  0  0
   -1.4789   -2.8689    5.7550 H   0  0  0  0  0  0  0  0  0  0  0  0
    0.0123   -3.7847    5.8419 H   0  0  0  0  0  0  0  0  0  0  0  0
    0.0585   -2.0642    5.5199 H   0  0  0  0  0  0  0  0  0  0  0  0
   -0.6261   -2.1849    2.9917 N   0  0  0  0  0  0  0  0  0  0  0  0
   -0.7237   -2.2601    1.5650 C   0  0  2  0  0  0  0  0  0  0  0  0
    0.1695   -1.1513    1.0687 C   0  0  0  0  0  0  0  0  0  0  0  0
    0.3193   -0.1267    1.7365 O   0  0  0  0  0  0  0  0  0  0  0  0
   -2.1397   -2.0663    1.0750 C   0  0  0  0  0  0  0  0  0  0  0  0
   -0.5717   -1.2606    3.4238 H   0  0  0  0  0  0  0  0  0  0  0  0
   -0.3076   -3.2111    1.2363 H   0  0  0  0  0  0  0  0  0  0  0  0
   -2.5584   -1.1089    1.4061 H   0  0  0  0  0  0  0  0  0  0  0  0
   -2.1682   -2.0790   -0.0197 H   0  0  0  0  0  0  0  0  0  0  0  0
   -2.7965   -2.8601    1.4459 H   0  0  0  0  0  0  0  0  0  0  0  0
    0.7724   -1.3745   -0.1593 N   0  0  0  0  0  0  0  0  0  0  0  0
    1.6644   -0.4046   -0.7812 C   0  0  2  0  0  0  0  0  0  0  0  0
    0.8081    0.7026   -1.3179 C   0  0  0  0  0  0  0  0  0  0  0  0
   -0.0459    0.4519   -2.1603 O   0  0  0  0  0  0  0  0  0  0  0  0
    2.3573   -1.1764   -1.8982 C   0  0  0  0  0  0  0  0  0  0  0  0
    2.2167   -2.5785   -1.3107 C   0  0  0  0  0  0  0  0  0  0  0  0
    0.7499   -2.6270   -0.9105 C   0  0  0  0  0  0  0  0  0  0  0  0
    2.3623    0.0129   -0.0492 H   0  0  0  0  0  0  0  0  0  0  0  0
    3.4062   -0.8655   -1.9737 H   0  0  0  0  0  0  0  0  0  0  0  0
    1.8846   -1.0490   -2.8769 H   0  0  0  0  0  0  0  0  0  0  0  0
    2.4331   -3.3352   -2.0736 H   0  0  0  0  0  0  0  0  0  0  0  0
    2.8910   -2.7415   -0.4651 H   0  0  0  0  0  0  0  0  0  0  0  0
    0.0783   -2.6509   -1.7731 H   0  0  0  0  0  0  0  0  0  0  0  0
    0.5408   -3.4912   -0.2707 H   0  0  0  0  0  0  0  0  0  0  0  0
    1.2497    1.9719   -0.6267 N   0  0  0  0  0  0  0  0  0  0  0  0
    0.7002    3.2592   -0.9872 C   0  0  2  0  0  0  0  0  0  0  0  0
   -0.8182    3.1427   -0.9744 C   0  0  0  0  0  0  0  0  0  0  0  0
   -1.4099    2.0720   -1.0958 O   0  0  0  0  0  0  0  0  0  0  0  0
    1.1992    3.7115   -2.3508 C   0  0  0  0  0  0  0  0  0  0  0  0
    1.8574    1.9158    0.1850 H   0  0  0  0  0  0  0  0  0  0  0  0
    1.0194    3.9669   -0.2144 H   0  0  0  0  0  0  0  0  0  0  0  0
    0.8892    3.0146   -3.1380 H   0  0  0  0  0  0  0  0  0  0  0  0
    0.8047    4.6995   -2.6099 H   0  0  0  0  0  0  0  0  0  0  0  0
    2.2931    3.7660   -2.3671 H   0  0  0  0  0  0  0  0  0  0  0  0
   -1.4356    4.3799   -0.8548 N   0  0  0  0  0  0  0  0  0  0  0  0
   -2.8712    4.5359   -0.8312 C   0  0  0  0  0  0  0  0  0  0  0  0
   -0.8663    5.2134   -0.7404 H   0  0  0  0  0  0  0  0  0  0  0  0
   -3.2377    4.7176   -1.8523 H   0  0  0  0  0  0  0  0  0  0  0  0
   -3.3329    3.6200   -0.4336 H   0  0  0  0  0  0  0  0  0  0  0  0
   -3.1368    5.3887   -0.1893 H   0  0  0  0  0  0  0  0  0  0  0  0
 18 19  1  0  0  0  0
 19 31  1  0  0  0  0
 19 20  2  0  0  0  0
  8  9  1  0  0  0  0
  9 17  1  0  0  0  0
  9 10  2  0  0  0  0
  1  3  1  0  0  0  0
  1  7  1  0  0  0  0
  1  2  2  0  0  0  0
 32 33  1  0  0  0  0
 33 41  1  0  0  0  0
 33 34  2  0  0  0  0
 21 22  1  0  0  0  0
 22 23  1  0  0  0  0
 18 21  1  0  0  0  0
 17 23  1  0  0  0  0
 17 18  1  0  0  0  0
  8 11  1  0  0  0  0
 32 35  1  0  0  0  0
 41 42  1  0  0  0  0
  7  8  1  0  0  0  0
 31 32  1  0  0  0  0
 22 27  1  0  0  0  0
 22 28  1  0  0  0  0
 21 25  1  0  0  0  0
 21 26  1  0  0  0  0
 23 29  1  0  0  0  0
 23 30  1  0  0  0  0
 18 24  1  0  0  0  0
  3  4  1  0  0  0  0
  3  5  1  0  0  0  0
  3  6  1  0  0  0  0
 11 14  1  0  0  0  0
 11 15  1  0  0  0  0
 11 16  1  0  0  0  0
 35 38  1  0  0  0  0
 35 39  1  0  0  0  0
 35 40  1  0  0  0  0
 42 44  1  0  0  0  0
 42 45  1  0  0  0  0
 42 46  1  0  0  0  0
  8 13  1  0  0  0  0
 32 37  1  0  0  0  0
 31 36  1  0  0  0  0
 41 43  1  0  0  0  0
  7 12  1  0  0  0  0
M  END
$$$$

  -OEChem-05262214473D

 46 46  0     1  0  0  0  0  0999 V2000
   -0.6012   -3.2995    3.8205 C   0  0  0  0  0  0  0  0  0  0  0  0
   -0.6574   -4.4683    3.4568 O   0  0  0  0  0  0  0  0  0  0  0  0
   -0.4935   -2.9859    5.2760 C   0  0  0  0  0  0  0  0  0  0  0  0
   -1.4789   -2.8689    5.7550 H   0  0  0  0  0  0  0  0  0  0  0  0
    0.0123   -3.7847    5.8419 H   0  0  0  0  0  0  0  0  0  0  0  0
    0.0585   -2.0642    5.5199 H   0  0  0  0  0  0  0  0  0  0  0  0
   -0.6261   -2.1849    2.9917 N   0  0  0  0  0  0  0  0  0  0  0  0
   -0.7237   -2.2601    1.5650 C   0  0  2  0  0  0  0  0  0  0  0  0
    0.1695   -1.1513    1.0687 C   0  0  0  0  0  0  0  0  0  0  0  0
    0.3193   -0.1267    1.7365 O   0  0  0  0  0  0  0  0  0  0  0  0
   -2.1397   -2.0663    1.0750 C   0  0  0  0  0  0  0  0  0  0  0  0
   -0.5717   -1.2606    3.4238 H   0  0  0  0  0  0  0  0  0  0  0  0
   -0.3076   -3.2111    1.2363 H   0  0  0  0  0  0  0  0  0  0  0  0
   -2.5584   -1.1089    1.4061 H   0  0  0  0  0  0  0  0  0  0  0  0
   -2.1682   -2.0790   -0.0197 H   0  0  0  0  0  0  0  0  0  0  0  0
   -2.7965   -2.8601    1.4459 H   0  0  0  0  0  0  0  0  0  0  0  0
    0.7724   -1.3745   -0.1593 N   0  0  0  0  0  0  0  0  0  0  0  0
    1.6644   -0.4046   -0.7812 C   0  0  2  0  0  0  0  0  0  0  0  0
    0.8081    0.7026   -1.3179 C   0  0  0  0  0  0  0  0  0  0  0  0
   -0.2128    0.4303   -1.9386 O   0  0  0  0  0  0  0  0  0  0  0  0
    2.3573   -1.1764   -1.8982 C   0  0  0  0  0  0  0  0  0  0  0  0
    2.2167   -2.5785   -1.3107 C   0  0  0  0  0  0  0  0  0  0  0  0
    0.7499   -2.6270   -0.9105 C   0  0  0  0  0  0  0  0  0  0  0  0
    2.3623    0.0129   -0.0492 H   0  0  0  0  0  0  0  0  0  0  0  0
    3.4062   -0.8655   -1.9737 H   0  0  0  0  0  0  0  0  0  0  0  0
    1.8846   -1.0490   -2.8769 H   0  0  0  0  0  0  0  0  0  0  0  0
    2.4331   -3.3352   -2.0736 H   0  0  0  0  0  0  0  0  0  0  0  0
    2.8910   -2.7415   -0.4651 H   0  0  0  0  0  0  0  0  0  0  0  0
    0.0783   -2.6509   -1.7731 H   0  0  0  0  0  0  0  0  0  0  0  0
    0.5408   -3.4912   -0.2707 H   0  0  0  0  0  0  0  0  0  0  0  0
    1.4758    2.0009   -0.9276 N   0  0  0  0  0  0  0  0  0  0  0  0
    0.9684    3.2770   -1.3782 C   0  0  2  0  0  0  0  0  0  0  0  0
   -0.5218    3.3266   -1.0678 C   0  0  0  0  0  0  0  0  0  0  0  0
   -1.2078    2.3191   -0.9086 O   0  0  0  0  0  0  0  0  0  0  0  0
    1.2211    3.4796   -2.8641 C   0  0  0  0  0  0  0  0  0  0  0  0
    2.2261    1.9934   -0.2432 H   0  0  0  0  0  0  0  0  0  0  0  0
    1.4887    4.0470   -0.7981 H   0  0  0  0  0  0  0  0  0  0  0  0
    0.7077    2.7174   -3.4615 H   0  0  0  0  0  0  0  0  0  0  0  0
    0.8617    4.4586   -3.1978 H   0  0  0  0  0  0  0  0  0  0  0  0
    2.2909    3.4139   -3.0899 H   0  0  0  0  0  0  0  0  0  0  0  0
   -1.0044    4.6274   -1.0321 N   0  0  0  0  0  0  0  0  0  0  0  0
   -2.3903    4.9379   -0.7692 C   0  0  0  0  0  0  0  0  0  0  0  0
   -0.3604    5.4029   -1.1566 H   0  0  0  0  0  0  0  0  0  0  0  0
   -2.9364    5.0142   -1.7210 H   0  0  0  0  0  0  0  0  0  0  0  0
   -2.8342    4.1408   -0.1547 H   0  0  0  0  0  0  0  0  0  0  0  0
   -2.4557    5.8951   -0.2312 H   0  0  0  0  0  0  0  0  0  0  0  0
 18 19  1  0  0  0  0
 19 31  1  0  0  0  0
 19 20  2  0  0  0  0
  8  9  1  0  0  0  0
  9 17  1  0  0  0  0
  9 10  2  0  0  0  0
  1  3  1  0  0  0  0
  1  7  1  0  0  0  0
  1  2  2  0  0  0  0
 32 33  1  0  0  0  0
 33 41  1  0  0  0  0
 33 34  2  0  0  0  0
 21 22  1  0  0  0  0
 22 23  1  0  0  0  0
 18 21  1  0  0  0  0
 17 23  1  0  0  0  0
 17 18  1  0  0  0  0
  8 11  1  0  0  0  0
 32 35  1  0  0  0  0
 41 42  1  0  0  0  0
  7  8  1  0  0  0  0
 31 32  1  0  0  0  0
 22 27  1  0  0  0  0
 22 28  1  0  0  0  0
 21 25  1  0  0  0  0
 21 26  1  0  0  0  0
 23 29  1  0  0  0  0
 23 30  1  0  0  0  0
 18 24  1  0  0  0  0
  3  4  1  0  0  0  0
  3  5  1  0  0  0  0
  3  6  1  0  0  0  0
 11 14  1  0  0  0  0
 11 15  1  0  0  0  0
 11 16  1  0  0  0  0
 35 38  1  0  0  0  0
 35 39  1  0  0  0  0
 35 40  1  0  0  0  0
 42 44  1  0  0  0  0
 42 45  1  0  0  0  0
 42 46  1  0  0  0  0
  8 13  1  0  0  0  0
 32 37  1  0  0  0  0
 31 36  1  0  0  0  0
 41 43  1  0  0  0  0
  7 12  1  0  0  0  0
M  END
$$$$

  -OEChem-05262214473D

 46 46  0     1  0  0  0  0  0999 V2000
   -0.6012   -3.2995    3.8205 C   0  0  0  0  0  0  0  0  0  0  0  0
   -0.6574   -4.4683    3.4568 O   0  0  0  0  0  0  0  0  0  0  0  0
   -0.4935   -2.9859    5.2760 C   0  0  0  0  0  0  0  0  0  0  0  0
   -1.4789   -2.8689    5.7550 H   0  0  0  0  0  0  0  0  0  0  0  0
    0.0123   -3.7847    5.8419 H   0  0  0  0  0  0  0  0  0  0  0  0
    0.0585   -2.0642    5.5199 H   0  0  0  0  0  0  0  0  0  0  0  0
   -0.6261   -2.1849    2.9917 N   0  0  0  0  0  0  0  0  0  0  0  0
   -0.7237   -2.2601    1.5650 C   0  0  2  0  0  0  0  0  0  0  0  0
    0.1695   -1.1513    1.0687 C   0  0  0  0  0  0  0  0  0  0  0  0
    0.3193   -0.1267    1.7365 O   0  0  0  0  0  0  0  0  0  0  0  0
   -2.1397   -2.0663    1.0750 C   0  0  0  0  0  0  0  0  0  0  0  0
   -0.5717   -1.2606    3.4238 H   0  0  0  0  0  0  0  0  0  0  0  0
   -0.3076   -3.2111    1.2363 H   0  0  0  0  0  0  0  0  0  0  0  0
   -2.5584   -1.1089    1.4061 H   0  0  0  0  0  0  0  0  0  0  0  0
   -2.1682   -2.0790   -0.0197 H   0  0  0  0  0  0  0  0  0  0  0  0
   -2.7965   -2.8601    1.4459 H   0  0  0  0  0  0  0  0  0  0  0  0
    0.7724   -1.3745   -0.1593 N   0  0  0  0  0  0  0  0  0  0  0  0
    1.6644   -0.4046   -0.7812 C   0  0  2  0  0  0  0  0  0  0  0  0
    0.8081    0.7026   -1.3179 C   0  0  0  0  0  0  0  0  0  0  0  0
   -0.3337    0.4576   -1.6894 O   0  0  0  0  0  0  0  0  0  0  0  0
    2.3573   -1.1764   -1.8982 C   0  0  0  0  0  0  0  0  0  0  0  0
    2.2167   -2.5785   -1.3107 C   0  0  0  0  0  0  0  0  0  0  0  0
    0.7499   -2.6270   -0.9105 C   0  0  0  0  0  0  0  0  0  0  0  0
    2.3623    0.0129   -0.0492 H   0  0  0  0  0  0  0  0  0  0  0  0
    3.4062   -0.8655   -1.9737 H   0  0  0  0  0  0  0  0  0  0  0  0
    1.8846   -1.0490   -2.8769 H   0  0  0  0  0  0  0  0  0  0  0  0
    2.4331   -3.3352   -2.0736 H   0  0  0  0  0  0  0  0  0  0  0  0
    2.8910   -2.7415   -0.4651 H   0  0  0  0  0  0  0  0  0  0  0  0
    0.0783   -2.6509   -1.7731 H   0  0  0  0  0  0  0  0  0  0  0  0
    0.5408   -3.4912   -0.2707 H   0  0  0  0  0  0  0  0  0  0  0  0
    1.6395    1.9635   -1.2659 N   0  0  0  0  0  0  0  0  0  0  0  0
    1.1543    3.2116   -1.8097 C   0  0  2  0  0  0  0  0  0  0  0  0
   -0.2363    3.4631   -1.2418 C   0  0  0  0  0  0  0  0  0  0  0  0
   -0.9539    2.5666   -0.8030 O   0  0  0  0  0  0  0  0  0  0  0  0
    1.1227    3.1777   -3.3298 C   0  0  0  0  0  0  0  0  0  0  0  0
    2.5075    1.9708   -0.7388 H   0  0  0  0  0  0  0  0  0  0  0  0
    1.8378    3.9945   -1.4635 H   0  0  0  0  0  0  0  0  0  0  0  0
    0.4430    2.3994   -3.6953 H   0  0  0  0  0  0  0  0  0  0  0  0
    0.7820    4.1337   -3.7409 H   0  0  0  0  0  0  0  0  0  0  0  0
    2.1180    2.9672   -3.7357 H   0  0  0  0  0  0  0  0  0  0  0  0
   -0.5990    4.8003   -1.3223 N   0  0  0  0  0  0  0  0  0  0  0  0
   -1.8766    5.2908   -0.8606 C   0  0  0  0  0  0  0  0  0  0  0  0
    0.0663    5.4776   -1.6834 H   0  0  0  0  0  0  0  0  0  0  0  0
   -2.5928    5.2923   -1.6955 H   0  0  0  0  0  0  0  0  0  0  0  0
   -2.2510    4.6389   -0.0576 H   0  0  0  0  0  0  0  0  0  0  0  0
   -1.7590    6.3149   -0.4767 H   0  0  0  0  0  0  0  0  0  0  0  0
 18 19  1  0  0  0  0
 19 31  1  0  0  0  0
 19 20  2  0  0  0  0
  8  9  1  0  0  0  0
  9 17  1  0  0  0  0
  9 10  2  0  0  0  0
  1  3  1  0  0  0  0
  1  7  1  0  0  0  0
  1  2  2  0  0  0  0
 32 33  1  0  0  0  0
 33 41  1  0  0  0  0
 33 34  2  0  0  0  0
 21 22  1  0  0  0  0
 22 23  1  0  0  0  0
 18 21  1  0  0  0  0
 17 23  1  0  0  0  0
 17 18  1  0  0  0  0
  8 11  1  0  0  0  0
 32 35  1  0  0  0  0
 41 42  1  0  0  0  0
  7  8  1  0  0  0  0
 31 32  1  0  0  0  0
 22 27  1  0  0  0  0
 22 28  1  0  0  0  0
 21 25  1  0  0  0  0
 21 26  1  0  0  0  0
 23 29  1  0  0  0  0
 23 30  1  0  0  0  0
 18 24  1  0  0  0  0
  3  4  1  0  0  0  0
  3  5  1  0  0  0  0
  3  6  1  0  0  0  0
 11 14  1  0  0  0  0
 11 15  1  0  0  0  0
 11 16  1  0  0  0  0
 35 38  1  0  0  0  0
 35 39  1  0  0  0  0
 35 40  1  0  0  0  0
 42 44  1  0  0  0  0
 42 45  1  0  0  0  0
 42 46  1  0  0  0  0
  8 13  1  0  0  0  0
 32 37  1  0  0  0  0
 31 36  1  0  0  0  0
 41 43  1  0  0  0  0
  7 12  1  0  0  0  0
M  END
$$$$

  -OEChem-05262214473D

 46 46  0     1  0  0  0  0  0999 V2000
   -0.6012   -3.2995    3.8205 C   0  0  0  0  0  0  0  0  0  0  0  0
   -0.6574   -4.4683    3.4568 O   0  0  0  0  0  0  0  0  0  0  0  0
   -0.4935   -2.9859    5.2760 C   0  0  0  0  0  0  0  0  0  0  0  0
   -1.4789   -2.8689    5.7550 H   0  0  0  0  0  0  0  0  0  0  0  0
    0.0123   -3.7847    5.8419 H   0  0  0  0  0  0  0  0  0  0  0  0
    0.0585   -2.0642    5.5199 H   0  0  0  0  0  0  0  0  0  0  0  0
   -0.6261   -2.1849    2.9917 N   0  0  0  0  0  0  0  0  0  0  0  0
   -0.7237   -2.2601    1.5650 C   0  0  2  0  0  0  0  0  0  0  0  0
    0.1695   -1.1513    1.0687 C   0  0  0  0  0  0  0  0  0  0  0  0
    0.3193   -0.1267    1.7365 O   0  0  0  0  0  0  0  0  0  0  0  0
   -2.1397   -2.0663    1.0750 C   0  0  0  0  0  0  0  0  0  0  0  0
   -0.5717   -1.2606    3.4238 H   0  0  0  0  0  0  0  0  0  0  0  0
   -0.3076   -3.2111    1.2363 H   0  0  0  0  0  0  0  0  0  0  0  0
   -2.5584   -1.1089    1.4061 H   0  0  0  0  0  0  0  0  0  0  0  0
   -2.1682   -2.0790   -0.0197 H   0  0  0  0  0  0  0  0  0  0  0  0
   -2.7965   -2.8601    1.4459 H   0  0  0  0  0  0  0  0  0  0  0  0
    0.7724   -1.3745   -0.1593 N   0  0  0  0  0  0  0  0  0  0  0  0
    1.6644   -0.4046   -0.7812 C   0  0  2  0  0  0  0  0  0  0  0  0
    0.8081    0.7026   -1.3179 C   0  0  0  0  0  0  0  0  0  0  0  0
   -0.4003    0.5320   -1.4296 O   0  0  0  0  0  0  0  0  0  0  0  0
    2.3573   -1.1764   -1.8982 C   0  0  0  0  0  0  0  0  0  0  0  0
    2.2167   -2.5785   -1.3107 C   0  0  0  0  0  0  0  0  0  0  0  0
    0.7499   -2.6270   -0.9105 C   0  0  0  0  0  0  0  0  0  0  0  0
    2.3623    0.0129   -0.0492 H   0  0  0  0  0  0  0  0  0  0  0  0
    3.4062   -0.8655   -1.9737 H   0  0  0  0  0  0  0  0  0  0  0  0
    1.8846   -1.0490   -2.8769 H   0  0  0  0  0  0  0  0  0  0  0  0
    2.4331   -3.3352   -2.0736 H   0  0  0  0  0  0  0  0  0  0  0  0
    2.8910   -2.7415   -0.4651 H   0  0  0  0  0  0  0  0  0  0  0  0
    0.0783   -2.6509   -1.7731 H   0  0  0  0  0  0  0  0  0  0  0  0
    0.5408   -3.4912   -0.2707 H   0  0  0  0  0  0  0  0  0  0  0  0
    1.7294    1.8622   -1.6183 N   0  0  0  0  0  0  0  0  0  0  0  0
    1.2453    3.0674   -2.2524 C   0  0  2  0  0  0  0  0  0  0  0  0
    0.0188    3.5427   -1.4847 C   0  0  0  0  0  0  0  0  0  0  0  0
   -0.6655    2.7978   -0.7861 O   0  0  0  0  0  0  0  0  0  0  0  0
    0.9106    2.8264   -3.7162 C   0  0  0  0  0  0  0  0  0  0  0  0
    2.6825    1.8497   -1.2679 H   0  0  0  0  0  0  0  0  0  0  0  0
    2.0430    3.8131   -2.1652 H   0  0  0  0  0  0  0  0  0  0  0  0
    0.1131    2.0821   -3.8236 H   0  0  0  0  0  0  0  0  0  0  0  0
    0.5711    3.7470   -4.2023 H   0  0  0  0  0  0  0  0  0  0  0  0
    1.7861    2.4563   -4.2604 H   0  0  0  0  0  0  0  0  0  0  0  0
   -0.2468    4.8868   -1.7057 N   0  0  0  0  0  0  0  0  0  0  0  0
   -1.3652    5.5706   -1.0993 C   0  0  0  0  0  0  0  0  0  0  0  0
    0.3847    5.4323   -2.2849 H   0  0  0  0  0  0  0  0  0  0  0  0
   -2.2303    5.5328   -1.7777 H   0  0  0  0  0  0  0  0  0  0  0  0
   -1.6230    5.0803   -0.1490 H   0  0  0  0  0  0  0  0  0  0  0  0
   -1.0941    6.6195   -0.9091 H   0  0  0  0  0  0  0  0  0  0  0  0
 18 19  1  0  0  0  0
 19 31  1  0  0  0  0
 19 20  2  0  0  0  0
  8  9  1  0  0  0  0
  9 17  1  0  0  0  0
  9 10  2  0  0  0  0
  1  3  1  0  0  0  0
  1  7  1  0  0  0  0
  1  2  2  0  0  0  0
 32 33  1  0  0  0  0
 33 41  1  0  0  0  0
 33 34  2  0  0  0  0
 21 22  1  0  0  0  0
 22 23  1  0  0  0  0
 18 21  1  0  0  0  0
 17 23  1  0  0  0  0
 17 18  1  0  0  0  0
  8 11  1  0  0  0  0
 32 35  1  0  0  0  0
 41 42  1  0  0  0  0
  7  8  1  0  0  0  0
 31 32  1  0  0  0  0
 22 27  1  0  0  0  0
 22 28  1  0  0  0  0
 21 25  1  0  0  0  0
 21 26  1  0  0  0  0
 23 29  1  0  0  0  0
 23 30  1  0  0  0  0
 18 24  1  0  0  0  0
  3  4  1  0  0  0  0
  3  5  1  0  0  0  0
  3  6  1  0  0  0  0
 11 14  1  0  0  0  0
 11 15  1  0  0  0  0
 11 16  1  0  0  0  0
 35 38  1  0  0  0  0
 35 39  1  0  0  0  0
 35 40  1  0  0  0  0
 42 44  1  0  0  0  0
 42 45  1  0  0  0  0
 42 46  1  0  0  0  0
  8 13  1  0  0  0  0
 32 37  1  0  0  0  0
 31 36  1  0  0  0  0
 41 43  1  0  0  0  0
  7 12  1  0  0  0  0
M  END
$$$$

  -OEChem-05262214473D

 46 46  0     1  0  0  0  0  0999 V2000
   -0.6012   -3.2995    3.8205 C   0  0  0  0  0  0  0  0  0  0  0  0
   -0.6574   -4.4683    3.4568 O   0  0  0  0  0  0  0  0  0  0  0  0
   -0.4935   -2.9859    5.2760 C   0  0  0  0  0  0  0  0  0  0  0  0
   -1.4789   -2.8689    5.7550 H   0  0  0  0  0  0  0  0  0  0  0  0
    0.0123   -3.7847    5.8419 H   0  0  0  0  0  0  0  0  0  0  0  0
    0.0585   -2.0642    5.5199 H   0  0  0  0  0  0  0  0  0  0  0  0
   -0.6261   -2.1849    2.9917 N   0  0  0  0  0  0  0  0  0  0  0  0
   -0.7237   -2.2601    1.5650 C   0  0  2  0  0  0  0  0  0  0  0  0
    0.1695   -1.1513    1.0687 C   0  0  0  0  0  0  0  0  0  0  0  0
    0.3193   -0.1267    1.7365 O   0  0  0  0  0  0  0  0  0  0  0  0
   -2.1397   -2.0663    1.0750 C   0  0  0  0  0  0  0  0  0  0  0  0
   -0.5717   -1.2606    3.4238 H   0  0  0  0  0  0  0  0  0  0  0  0
   -0.3076   -3.2111    1.2363 H   0  0  0  0  0  0  0  0  0  0  0  0
   -2.5584   -1.1089    1.4061 H   0  0  0  0  0  0  0  0  0  0  0  0
   -2.1682   -2.0790   -0.0197 H   0  0  0  0  0  0  0  0  0  0  0  0
   -2.7965   -2.8601    1.4459 H   0  0  0  0  0  0  0  0  0  0  0  0
    0.7724   -1.3745   -0.1593 N   0  0  0  0  0  0  0  0  0  0  0  0
    1.6644   -0.4046   -0.7812 C   0  0  2  0  0  0  0  0  0  0  0  0
    0.8763    0.8546   -0.9831 C   0  0  0  0  0  0  0  0  0  0  0  0
   -0.2976    0.8952   -0.6338 O   0  0  0  0  0  0  0  0  0  0  0  0
    2.0641   -1.0409   -2.1075 C   0  0  0  0  0  0  0  0  0  0  0  0
    1.9044   -2.5447   -1.8976 C   0  0  0  0  0  0  0  0  0  0  0  0
    0.7499   -2.6270   -0.9105 C   0  0  0  0  0  0  0  0  0  0  0  0
    2.5189   -0.1855   -0.1340 H   0  0  0  0  0  0  0  0  0  0  0  0
    3.1169   -0.8245   -2.3246 H   0  0  0  0  0  0  0  0  0  0  0  0
    1.4574   -0.7057   -2.9543 H   0  0  0  0  0  0  0  0  0  0  0  0
    1.6386   -3.0353   -2.8411 H   0  0  0  0  0  0  0  0  0  0  0  0
    2.8187   -3.0078   -1.5160 H   0  0  0  0  0  0  0  0  0  0  0  0
   -0.2175   -2.7569   -1.4033 H   0  0  0  0  0  0  0  0  0  0  0  0
    0.8977   -3.4414   -0.1930 H   0  0  0  0  0  0  0  0  0  0  0  0
    1.7325    1.8657   -1.6085 N   0  0  0  0  0  0  0  0  0  0  0  0
    1.2512    3.0730   -2.2408 C   0  0  2  0  0  0  0  0  0  0  0  0
    0.0192    3.5438   -1.4792 C   0  0  0  0  0  0  0  0  0  0  0  0
   -0.6688    2.7954   -0.7882 O   0  0  0  0  0  0  0  0  0  0  0  0
    0.9264    2.8377   -3.7077 C   0  0  0  0  0  0  0  0  0  0  0  0
    2.6833    1.8527   -1.2519 H   0  0  0  0  0  0  0  0  0  0  0  0
    2.0476    3.8191   -2.1453 H   0  0  0  0  0  0  0  0  0  0  0  0
    0.1305    2.0930   -3.8235 H   0  0  0  0  0  0  0  0  0  0  0  0
    0.5892    3.7599   -4.1923 H   0  0  0  0  0  0  0  0  0  0  0  0
    1.8060    2.4708   -4.2477 H   0  0  0  0  0  0  0  0  0  0  0  0
   -0.2463    4.8886   -1.6965 N   0  0  0  0  0  0  0  0  0  0  0  0
   -1.3694    5.5687   -1.0947 C   0  0  0  0  0  0  0  0  0  0  0  0
    0.3884    5.4371   -2.2692 H   0  0  0  0  0  0  0  0  0  0  0  0
   -2.2300    5.5328   -1.7789 H   0  0  0  0  0  0  0  0  0  0  0  0
   -1.6329    5.0742   -0.1481 H   0  0  0  0  0  0  0  0  0  0  0  0
   -1.1007    6.6171   -0.8984 H   0  0  0  0  0  0  0  0  0  0  0  0
 18 19  1  0  0  0  0
 19 31  1  0  0  0  0
 19 20  2  0  0  0  0
  8  9  1  0  0  0  0
  9 17  1  0  0  0  0
  9 10  2  0  0  0  0
  1  3  1  0  0  0  0
  1  7  1  0  0  0  0
  1  2  2  0  0  0  0
 32 33  1  0  0  0  0
 33 41  1  0  0  0  0
 33 34  2  0  0  0  0
 21 22  1  0  0  0  0
 22 23  1  0  0  0  0
 18 21  1  0  0  0  0
 17 23  1  0  0  0  0
 17 18  1  0  0  0  0
  8 11  1  0  0  0  0
 32 35  1  0  0  0  0
 41 42  1  0  0  0  0
  7  8  1  0  0  0  0
 31 32  1  0  0  0  0
 22 27  1  0  0  0  0
 22 28  1  0  0  0  0
 21 25  1  0  0  0  0
 21 26  1  0  0  0  0
 23 29  1  0  0  0  0
 23 30  1  0  0  0  0
 18 24  1  0  0  0  0
  3  4  1  0  0  0  0
  3  5  1  0  0  0  0
  3  6  1  0  0  0  0
 11 14  1  0  0  0  0
 11 15  1  0  0  0  0
 11 16  1  0  0  0  0
 35 38  1  0  0  0  0
 35 39  1  0  0  0  0
 35 40  1  0  0  0  0
 42 44  1  0  0  0  0
 42 45  1  0  0  0  0
 42 46  1  0  0  0  0
  8 13  1  0  0  0  0
 32 37  1  0  0  0  0
 31 36  1  0  0  0  0
 41 43  1  0  0  0  0
  7 12  1  0  0  0  0
M  END
$$$$

  -OEChem-05262214473D

 46 46  0     1  0  0  0  0  0999 V2000
   -0.6012   -3.2995    3.8205 C   0  0  0  0  0  0  0  0  0  0  0  0
   -0.6574   -4.4683    3.4568 O   0  0  0  0  0  0  0  0  0  0  0  0
   -0.4935   -2.9859    5.2760 C   0  0  0  0  0  0  0  0  0  0  0  0
   -1.4789   -2.8689    5.7550 H   0  0  0  0  0  0  0  0  0  0  0  0
    0.0123   -3.7847    5.8419 H   0  0  0  0  0  0  0  0  0  0  0  0
    0.0585   -2.0642    5.5199 H   0  0  0  0  0  0  0  0  0  0  0  0
   -0.6261   -2.1849    2.9917 N   0  0  0  0  0  0  0  0  0  0  0  0
   -0.7237   -2.2601    1.5650 C   0  0  2  0  0  0  0  0  0  0  0  0
    0.1695   -1.1513    1.0687 C   0  0  0  0  0  0  0  0  0  0  0  0
    0.3193   -0.1267    1.7365 O   0  0  0  0  0  0  0  0  0  0  0  0
   -2.1397   -2.0663    1.0750 C   0  0  0  0  0  0  0  0  0  0  0  0
   -0.5717   -1.2606    3.4238 H   0  0  0  0  0  0  0  0  0  0  0  0
   -0.3076   -3.2111    1.2363 H   0  0  0  0  0  0  0  0  0  0  0  0
   -2.5584   -1.1089    1.4061 H   0  0  0  0  0  0  0  0  0  0  0  0
   -2.1682   -2.0790   -0.0197 H   0  0  0  0  0  0  0  0  0  0  0  0
   -2.7965   -2.8601    1.4459 H   0  0  0  0  0  0  0  0  0  0  0  0
    0.7724   -1.3745   -0.1593 N   0  0  0  0  0  0  0  0  0  0  0  0
    1.6644   -0.4046   -0.7812 C   0  0  2  0  0  0  0  0  0  0  0  0
    0.8763    0.8546   -0.9831 C   0  0  0  0  0  0  0  0  0  0  0  0
   -0.1910    0.9995   -0.3988 O   0  0  0  0  0  0  0  0  0  0  0  0
    2.0641   -1.0409   -2.1075 C   0  0  0  0  0  0  0  0  0  0  0  0
    1.9044   -2.5447   -1.8976 C   0  0  0  0  0  0  0  0  0  0  0  0
    0.7499   -2.6270   -0.9105 C   0  0  0  0  0  0  0  0  0  0  0  0
    2.5189   -0.1855   -0.1340 H   0  0  0  0  0  0  0  0  0  0  0  0
    3.1169   -0.8245   -2.3246 H   0  0  0  0  0  0  0  0  0  0  0  0
    1.4574   -0.7057   -2.9543 H   0  0  0  0  0  0  0  0  0  0  0  0
    1.6386   -3.0353   -2.8411 H   0  0  0  0  0  0  0  0  0  0  0  0
    2.8187   -3.0078   -1.5160 H   0  0  0  0  0  0  0  0  0  0  0  0
   -0.2175   -2.7569   -1.4033 H   0  0  0  0  0  0  0  0  0  0  0  0
    0.8977   -3.4414   -0.1930 H   0  0  0  0  0  0  0  0  0  0  0  0
    1.5939    1.7302   -1.9131 N   0  0  0  0  0  0  0  0  0  0  0  0
    1.0095    2.8658   -2.5897 C   0  0  2  0  0  0  0  0  0  0  0  0
   -0.0154    3.4940   -1.6546 C   0  0  0  0  0  0  0  0  0  0  0  0
   -0.5495    2.8788   -0.7341 O   0  0  0  0  0  0  0  0  0  0  0  0
    0.3656    2.4551   -3.9048 C   0  0  0  0  0  0  0  0  0  0  0  0
    2.5994    1.7170   -1.7711 H   0  0  0  0  0  0  0  0  0  0  0  0
    1.8220    3.5773   -2.7730 H   0  0  0  0  0  0  0  0  0  0  0  0
   -0.4509    1.7423   -3.7414 H   0  0  0  0  0  0  0  0  0  0  0  0
   -0.0516    3.3209   -4.4297 H   0  0  0  0  0  0  0  0  0  0  0  0
    1.0975    1.9766   -4.5644 H   0  0  0  0  0  0  0  0  0  0  0  0
   -0.2956    4.8098   -1.9957 N   0  0  0  0  0  0  0  0  0  0  0  0
   -1.2452    5.6187   -1.2677 C   0  0  0  0  0  0  0  0  0  0  0  0
    0.2085    5.2455   -2.7624 H   0  0  0  0  0  0  0  0  0  0  0  0
   -2.2357    5.5356   -1.7390 H   0  0  0  0  0  0  0  0  0  0  0  0
   -1.3039    5.2675   -0.2269 H   0  0  0  0  0  0  0  0  0  0  0  0
   -0.9192    6.6691   -1.2824 H   0  0  0  0  0  0  0  0  0  0  0  0
 18 19  1  0  0  0  0
 19 31  1  0  0  0  0
 19 20  2  0  0  0  0
  8  9  1  0  0  0  0
  9 17  1  0  0  0  0
  9 10  2  0  0  0  0
  1  3  1  0  0  0  0
  1  7  1  0  0  0  0
  1  2  2  0  0  0  0
 32 33  1  0  0  0  0
 33 41  1  0  0  0  0
 33 34  2  0  0  0  0
 21 22  1  0  0  0  0
 22 23  1  0  0  0  0
 18 21  1  0  0  0  0
 17 23  1  0  0  0  0
 17 18  1  0  0  0  0
  8 11  1  0  0  0  0
 32 35  1  0  0  0  0
 41 42  1  0  0  0  0
  7  8  1  0  0  0  0
 31 32  1  0  0  0  0
 22 27  1  0  0  0  0
 22 28  1  0  0  0  0
 21 25  1  0  0  0  0
 21 26  1  0  0  0  0
 23 29  1  0  0  0  0
 23 30  1  0  0  0  0
 18 24  1  0  0  0  0
  3  4  1  0  0  0  0
  3  5  1  0  0  0  0
  3  6  1  0  0  0  0
 11 14  1  0  0  0  0
 11 15  1  0  0  0  0
 11 16  1  0  0  0  0
 35 38  1  0  0  0  0
 35 39  1  0  0  0  0
 35 40  1  0  0  0  0
 42 44  1  0  0  0  0
 42 45  1  0  0  0  0
 42 46  1  0  0  0  0
  8 13  1  0  0  0  0
 32 37  1  0  0  0  0
 31 36  1  0  0  0  0
 41 43  1  0  0  0  0
  7 12  1  0  0  0  0
M  END
$$$$

  -OEChem-05262214473D

 46 46  0     1  0  0  0  0  0999 V2000
   -0.6012   -3.2995    3.8205 C   0  0  0  0  0  0  0  0  0  0  0  0
   -0.6574   -4.4683    3.4568 O   0  0  0  0  0  0  0  0  0  0  0  0
   -0.4935   -2.9859    5.2760 C   0  0  0  0  0  0  0  0  0  0  0  0
   -1.4789   -2.8689    5.7550 H   0  0  0  0  0  0  0  0  0  0  0  0
    0.0123   -3.7847    5.8419 H   0  0  0  0  0  0  0  0  0  0  0  0
    0.0585   -2.0642    5.5199 H   0  0  0  0  0  0  0  0  0  0  0  0
   -0.6261   -2.1849    2.9917 N   0  0  0  0  0  0  0  0  0  0  0  0
   -0.7237   -2.2601    1.5650 C   0  0  2  0  0  0  0  0  0  0  0  0
    0.1695   -1.1513    1.0687 C   0  0  0  0  0  0  0  0  0  0  0  0
    0.3193   -0.1267    1.7365 O   0  0  0  0  0  0  0  0  0  0  0  0
   -2.1397   -2.0663    1.0750 C   0  0  0  0  0  0  0  0  0  0  0  0
   -0.5717   -1.2606    3.4238 H   0  0  0  0  0  0  0  0  0  0  0  0
   -0.3076   -3.2111    1.2363 H   0  0  0  0  0  0  0  0  0  0  0  0
   -2.5584   -1.1089    1.4061 H   0  0  0  0  0  0  0  0  0  0  0  0
   -2.1682   -2.0790   -0.0197 H   0  0  0  0  0  0  0  0  0  0  0  0
   -2.7965   -2.8601    1.4459 H   0  0  0  0  0  0  0  0  0  0  0  0
    0.7724   -1.3745   -0.1593 N   0  0  0  0  0  0  0  0  0  0  0  0
    1.6644   -0.4046   -0.7812 C   0  0  2  0  0  0  0  0  0  0  0  0
    0.8763    0.8546   -0.9831 C   0  0  0  0  0  0  0  0  0  0  0  0
   -0.0334    1.1286   -0.2092 O   0  0  0  0  0  0  0  0  0  0  0  0
    2.0641   -1.0409   -2.1075 C   0  0  0  0  0  0  0  0  0  0  0  0
    1.9044   -2.5447   -1.8976 C   0  0  0  0  0  0  0  0  0  0  0  0
    0.7499   -2.6270   -0.9105 C   0  0  0  0  0  0  0  0  0  0  0  0
    2.5189   -0.1855   -0.1340 H   0  0  0  0  0  0  0  0  0  0  0  0
    3.1169   -0.8245   -2.3246 H   0  0  0  0  0  0  0  0  0  0  0  0
    1.4574   -0.7057   -2.9543 H   0  0  0  0  0  0  0  0  0  0  0  0
    1.6386   -3.0353   -2.8411 H   0  0  0  0  0  0  0  0  0  0  0  0
    2.8187   -3.0078   -1.5160 H   0  0  0  0  0  0  0  0  0  0  0  0
   -0.2175   -2.7569   -1.4033 H   0  0  0  0  0  0  0  0  0  0  0  0
    0.8977   -3.4414   -0.1930 H   0  0  0  0  0  0  0  0  0  0  0  0
    1.3891    1.5626   -2.1588 N   0  0  0  0  0  0  0  0  0  0  0  0
    0.6929    2.6266   -2.8460 C   0  0  2  0  0  0  0  0  0  0  0  0
   -0.0888    3.4233   -1.8097 C   0  0  0  0  0  0  0  0  0  0  0  0
   -0.4195    2.9625   -0.7191 O   0  0  0  0  0  0  0  0  0  0  0  0
   -0.2324    2.0783   -3.9212 C   0  0  0  0  0  0  0  0  0  0  0  0
    2.4008    1.5182   -2.2358 H   0  0  0  0  0  0  0  0  0  0  0  0
    1.4592    3.2662   -3.2973 H   0  0  0  0  0  0  0  0  0  0  0  0
   -1.0069    1.4350   -3.4880 H   0  0  0  0  0  0  0  0  0  0  0  0
   -0.7375    2.8868   -4.4600 H   0  0  0  0  0  0  0  0  0  0  0  0
    0.3270    1.4808   -4.6491 H   0  0  0  0  0  0  0  0  0  0  0  0
   -0.4109    4.6948   -2.2632 N   0  0  0  0  0  0  0  0  0  0  0  0
   -1.1611    5.6391   -1.4686 C   0  0  0  0  0  0  0  0  0  0  0  0
   -0.0792    4.9995   -3.1736 H   0  0  0  0  0  0  0  0  0  0  0  0
   -2.2324    5.5440   -1.6996 H   0  0  0  0  0  0  0  0  0  0  0  0
   -0.9966    5.4320   -0.4009 H   0  0  0  0  0  0  0  0  0  0  0  0
   -0.8256    6.6608   -1.6998 H   0  0  0  0  0  0  0  0  0  0  0  0
 18 19  1  0  0  0  0
 19 31  1  0  0  0  0
 19 20  2  0  0  0  0
  8  9  1  0  0  0  0
  9 17  1  0  0  0  0
  9 10  2  0  0  0  0
  1  3  1  0  0  0  0
  1  7  1  0  0  0  0
  1  2  2  0  0  0  0
 32 33  1  0  0  0  0
 33 41  1  0  0  0  0
 33 34  2  0  0  0  0
 21 22  1  0  0  0  0
 22 23  1  0  0  0  0
 18 21  1  0  0  0  0
 17 23  1  0  0  0  0
 17 18  1  0  0  0  0
  8 11  1  0  0  0  0
 32 35  1  0  0  0  0
 41 42  1  0  0  0  0
  7  8  1  0  0  0  0
 31 32  1  0  0  0  0
 22 27  1  0  0  0  0
 22 28  1  0  0  0  0
 21 25  1  0  0  0  0
 21 26  1  0  0  0  0
 23 29  1  0  0  0  0
 23 30  1  0  0  0  0
 18 24  1  0  0  0  0
  3  4  1  0  0  0  0
  3  5  1  0  0  0  0
  3  6  1  0  0  0  0
 11 14  1  0  0  0  0
 11 15  1  0  0  0  0
 11 16  1  0  0  0  0
 35 38  1  0  0  0  0
 35 39  1  0  0  0  0
 35 40  1  0  0  0  0
 42 44  1  0  0  0  0
 42 45  1  0  0  0  0
 42 46  1  0  0  0  0
  8 13  1  0  0  0  0
 32 37  1  0  0  0  0
 31 36  1  0  0  0  0
 41 43  1  0  0  0  0
  7 12  1  0  0  0  0
M  END
$$$$

  -OEChem-05262214473D

 46 46  0     1  0  0  0  0  0999 V2000
   -0.6012   -3.2995    3.8205 C   0  0  0  0  0  0  0  0  0  0  0  0
   -0.6574   -4.4683    3.4568 O   0  0  0  0  0  0  0  0  0  0  0  0
   -0.4935   -2.9859    5.2760 C   0  0  0  0  0  0  0  0  0  0  0  0
   -1.4789   -2.8689    5.7550 H   0  0  0  0  0  0  0  0  0  0  0  0
    0.0123   -3.7847    5.8419 H   0  0  0  0  0  0  0  0  0  0  0  0
    0.0585   -2.0642    5.5199 H   0  0  0  0  0  0  0  0  0  0  0  0
   -0.6261   -2.1849    2.9917 N   0  0  0  0  0  0  0  0  0  0  0  0
   -0.7237   -2.2601    1.5650 C   0  0  2  0  0  0  0  0  0  0  0  0
    0.1695   -1.1513    1.0687 C   0  0  0  0  0  0  0  0  0  0  0  0
    0.3193   -0.1267    1.7365 O   0  0  0  0  0  0  0  0  0  0  0  0
   -2.1397   -2.0663    1.0750 C   0  0  0  0  0  0  0  0  0  0  0  0
   -0.5717   -1.2606    3.4238 H   0  0  0  0  0  0  0  0  0  0  0  0
   -0.3076   -3.2111    1.2363 H   0  0  0  0  0  0  0  0  0  0  0  0
   -2.5584   -1.1089    1.4061 H   0  0  0  0  0  0  0  0  0  0  0  0
   -2.1682   -2.0790   -0.0197 H   0  0  0  0  0  0  0  0  0  0  0  0
   -2.7965   -2.8601    1.4459 H   0  0  0  0  0  0  0  0  0  0  0  0
    0.7724   -1.3745   -0.1593 N   0  0  0  0  0  0  0  0  0  0  0  0
    1.6644   -0.4046   -0.7812 C   0  0  2  0  0  0  0  0  0  0  0  0
    0.8763    0.8546   -0.9831 C   0  0  0  0  0  0  0  0  0  0  0  0
    0.1645    1.2735   -0.0778 O   0  0  0  0  0  0  0  0  0  0  0  0
    2.0641   -1.0409   -2.1075 C   0  0  0  0  0  0  0  0  0  0  0  0
    1.9044   -2.5447   -1.8976 C   0  0  0  0  0  0  0  0  0  0  0  0
    0.7499   -2.6270   -0.9105 C   0  0  0  0  0  0  0  0  0  0  0  0
    2.5189   -0.1855   -0.1340 H   0  0  0  0  0  0  0  0  0  0  0  0
    3.1169   -0.8245   -2.3246 H   0  0  0  0  0  0  0  0  0  0  0  0
    1.4574   -0.7057   -2.9543 H   0  0  0  0  0  0  0  0  0  0  0  0
    1.6386   -3.0353   -2.8411 H   0  0  0  0  0  0  0  0  0  0  0  0
    2.8187   -3.0078   -1.5160 H   0  0  0  0  0  0  0  0  0  0  0  0
   -0.2175   -2.7569   -1.4033 H   0  0  0  0  0  0  0  0  0  0  0  0
    0.8977   -3.4414   -0.1930 H   0  0  0  0  0  0  0  0  0  0  0  0
    1.1321    1.3745   -2.3288 N   0  0  0  0  0  0  0  0  0  0  0  0
    0.3230    2.3717   -2.9921 C   0  0  2  0  0  0  0  0  0  0  0  0
   -0.1958    3.3364   -1.9340 C   0  0  0  0  0  0  0  0  0  0  0  0
   -0.2878    3.0409   -0.7443 O   0  0  0  0  0  0  0  0  0  0  0  0
   -0.8266    1.7329   -3.7557 C   0  0  0  0  0  0  0  0  0  0  0  0
    2.1010    1.2699   -2.6145 H   0  0  0  0  0  0  0  0  0  0  0  0
    0.9839    2.9070   -3.6826 H   0  0  0  0  0  0  0  0  0  0  0  0
   -1.4996    1.1920   -3.0805 H   0  0  0  0  0  0  0  0  0  0  0  0
   -1.4217    2.4873   -4.2810 H   0  0  0  0  0  0  0  0  0  0  0  0
   -0.4529    1.0173   -4.4960 H   0  0  0  0  0  0  0  0  0  0  0  0
   -0.5845    4.5512   -2.4809 N   0  0  0  0  0  0  0  0  0  0  0  0
   -1.1228    5.6286   -1.6837 C   0  0  0  0  0  0  0  0  0  0  0  0
   -0.4551    4.7160   -3.4748 H   0  0  0  0  0  0  0  0  0  0  0  0
   -2.2203    5.5573   -1.6633 H   0  0  0  0  0  0  0  0  0  0  0  0
   -0.7318    5.5564   -0.6581 H   0  0  0  0  0  0  0  0  0  0  0  0
   -0.8262    6.5927   -2.1223 H   0  0  0  0  0  0  0  0  0  0  0  0
 18 19  1  0  0  0  0
 19 31  1  0  0  0  0
 19 20  2  0  0  0  0
  8  9  1  0  0  0  0
  9 17  1  0  0  0  0
  9 10  2  0  0  0  0
  1  3  1  0  0  0  0
  1  7  1  0  0  0  0
  1  2  2  0  0  0  0
 32 33  1  0  0  0  0
 33 41  1  0  0  0  0
 33 34  2  0  0  0  0
 21 22  1  0  0  0  0
 22 23  1  0  0  0  0
 18 21  1  0  0  0  0
 17 23  1  0  0  0  0
 17 18  1  0  0  0  0
  8 11  1  0  0  0  0
 32 35  1  0  0  0  0
 41 42  1  0  0  0  0
  7  8  1  0  0  0  0
 31 32  1  0  0  0  0
 22 27  1  0  0  0  0
 22 28  1  0  0  0  0
 21 25  1  0  0  0  0
 21 26  1  0  0  0  0
 23 29  1  0  0  0  0
 23 30  1  0  0  0  0
 18 24  1  0  0  0  0
  3  4  1  0  0  0  0
  3  5  1  0  0  0  0
  3  6  1  0  0  0  0
 11 14  1  0  0  0  0
 11 15  1  0  0  0  0
 11 16  1  0  0  0  0
 35 38  1  0  0  0  0
 35 39  1  0  0  0  0
 35 40  1  0  0  0  0
 42 44  1  0  0  0  0
 42 45  1  0  0  0  0
 42 46  1  0  0  0  0
  8 13  1  0  0  0  0
 32 37  1  0  0  0  0
 31 36  1  0  0  0  0
 41 43  1  0  0  0  0
  7 12  1  0  0  0  0
M  END
$$$$

  -OEChem-05262214473D

 46 46  0     1  0  0  0  0  0999 V2000
   -0.6012   -3.2995    3.8205 C   0  0  0  0  0  0  0  0  0  0  0  0
   -0.6574   -4.4683    3.4568 O   0  0  0  0  0  0  0  0  0  0  0  0
   -0.4935   -2.9859    5.2760 C   0  0  0  0  0  0  0  0  0  0  0  0
   -1.4789   -2.8689    5.7550 H   0  0  0  0  0  0  0  0  0  0  0  0
    0.0123   -3.7847    5.8419 H   0  0  0  0  0  0  0  0  0  0  0  0
    0.0585   -2.0642    5.5199 H   0  0  0  0  0  0  0  0  0  0  0  0
   -0.6261   -2.1849    2.9917 N   0  0  0  0  0  0  0  0  0  0  0  0
   -0.7237   -2.2601    1.5650 C   0  0  2  0  0  0  0  0  0  0  0  0
    0.1695   -1.1513    1.0687 C   0  0  0  0  0  0  0  0  0  0  0  0
    0.3193   -0.1267    1.7365 O   0  0  0  0  0  0  0  0  0  0  0  0
   -2.1397   -2.0663    1.0750 C   0  0  0  0  0  0  0  0  0  0  0  0
   -0.5717   -1.2606    3.4238 H   0  0  0  0  0  0  0  0  0  0  0  0
   -0.3076   -3.2111    1.2363 H   0  0  0  0  0  0  0  0  0  0  0  0
   -2.5584   -1.1089    1.4061 H   0  0  0  0  0  0  0  0  0  0  0  0
   -2.1682   -2.0790   -0.0197 H   0  0  0  0  0  0  0  0  0  0  0  0
   -2.7965   -2.8601    1.4459 H   0  0  0  0  0  0  0  0  0  0  0  0
    0.7724   -1.3745   -0.1593 N   0  0  0  0  0  0  0  0  0  0  0  0
    1.6644   -0.4046   -0.7812 C   0  0  2  0  0  0  0  0  0  0  0  0
    0.8763    0.8546   -0.9831 C   0  0  0  0  0  0  0  0  0  0  0  0
    0.3894    1.4245   -0.0137 O   0  0  0  0  0  0  0  0  0  0  0  0
    2.0641   -1.0409   -2.1075 C   0  0  0  0  0  0  0  0  0  0  0  0
    1.9044   -2.5447   -1.8976 C   0  0  0  0  0  0  0  0  0  0  0  0
    0.7499   -2.6270   -0.9105 C   0  0  0  0  0  0  0  0  0  0  0  0
    2.5189   -0.1855   -0.1340 H   0  0  0  0  0  0  0  0  0  0  0  0
    3.1169   -0.8245   -2.3246 H   0  0  0  0  0  0  0  0  0  0  0  0
    1.4574   -0.7057   -2.9543 H   0  0  0  0  0  0  0  0  0  0  0  0
    1.6386   -3.0353   -2.8411 H   0  0  0  0  0  0  0  0  0  0  0  0
    2.8187   -3.0078   -1.5160 H   0  0  0  0  0  0  0  0  0  0  0  0
   -0.2175   -2.7569   -1.4033 H   0  0  0  0  0  0  0  0  0  0  0  0
    0.8977   -3.4414   -0.1930 H   0  0  0  0  0  0  0  0  0  0  0  0
    0.8403    1.1786   -2.4115 N   0  0  0  0  0  0  0  0  0  0  0  0
   -0.0749    2.1185   -3.0182 C   0  0  2  0  0  0  0  0  0  0  0  0
   -0.3292    3.2392   -2.0189 C   0  0  0  0  0  0  0  0  0  0  0  0
   -0.1633    3.1086   -0.8079 O   0  0  0  0  0  0  0  0  0  0  0  0
   -1.3767    1.4425   -3.4198 C   0  0  0  0  0  0  0  0  0  0  0  0
    1.7204    0.9889   -2.8813 H   0  0  0  0  0  0  0  0  0  0  0  0
    0.4285    2.5241   -3.9025 H   0  0  0  0  0  0  0  0  0  0  0  0
   -1.8953    1.0299   -2.5467 H   0  0  0  0  0  0  0  0  0  0  0  0
   -2.0576    2.1496   -3.9050 H   0  0  0  0  0  0  0  0  0  0  0  0
   -1.1890    0.6176   -4.1155 H   0  0  0  0  0  0  0  0  0  0  0  0
   -0.8045    4.3890   -2.6339 N   0  0  0  0  0  0  0  0  0  0  0  0
   -1.1330    5.5878   -1.8984 C   0  0  0  0  0  0  0  0  0  0  0  0
   -0.8935    4.4143   -3.6455 H   0  0  0  0  0  0  0  0  0  0  0  0
   -2.2004    5.5747   -1.6328 H   0  0  0  0  0  0  0  0  0  0  0  0
   -0.5276    5.6325   -0.9811 H   0  0  0  0  0  0  0  0  0  0  0  0
   -0.9210    6.4695   -2.5210 H   0  0  0  0  0  0  0  0  0  0  0  0
 18 19  1  0  0  0  0
 19 31  1  0  0  0  0
 19 20  2  0  0  0  0
  8  9  1  0  0  0  0
  9 17  1  0  0  0  0
  9 10  2  0  0  0  0
  1  3  1  0  0  0  0
  1  7  1  0  0  0  0
  1  2  2  0  0  0  0
 32 33  1  0  0  0  0
 33 41  1  0  0  0  0
 33 34  2  0  0  0  0
 21 22  1  0  0  0  0
 22 23  1  0  0  0  0
 18 21  1  0  0  0  0
 17 23  1  0  0  0  0
 17 18  1  0  0  0  0
  8 11  1  0  0  0  0
 32 35  1  0  0  0  0
 41 42  1  0  0  0  0
  7  8  1  0  0  0  0
 31 32  1  0  0  0  0
 22 27  1  0  0  0  0
 22 28  1  0  0  0  0
 21 25  1  0  0  0  0
 21 26  1  0  0  0  0
 23 29  1  0  0  0  0
 23 30  1  0  0  0  0
 18 24  1  0  0  0  0
  3  4  1  0  0  0  0
  3  5  1  0  0  0  0
  3  6  1  0  0  0  0
 11 14  1  0  0  0  0
 11 15  1  0  0  0  0
 11 16  1  0  0  0  0
 35 38  1  0  0  0  0
 35 39  1  0  0  0  0
 35 40  1  0  0  0  0
 42 44  1  0  0  0  0
 42 45  1  0  0  0  0
 42 46  1  0  0  0  0
  8 13  1  0  0  0  0
 32 37  1  0  0  0  0
 31 36  1  0  0  0  0
 41 43  1  0  0  0  0
  7 12  1  0  0  0  0
M  END
$$$$

  -OEChem-05262214473D

 46 46  0     1  0  0  0  0  0999 V2000
   -0.6012   -3.2995    3.8205 C   0  0  0  0  0  0  0  0  0  0  0  0
   -0.6574   -4.4683    3.4568 O   0  0  0  0  0  0  0  0  0  0  0  0
   -0.4935   -2.9859    5.2760 C   0  0  0  0  0  0  0  0  0  0  0  0
   -1.4789   -2.8689    5.7550 H   0  0  0  0  0  0  0  0  0  0  0  0
    0.0123   -3.7847    5.8419 H   0  0  0  0  0  0  0  0  0  0  0  0
    0.0585   -2.0642    5.5199 H   0  0  0  0  0  0  0  0  0  0  0  0
   -0.6261   -2.1849    2.9917 N   0  0  0  0  0  0  0  0  0  0  0  0
   -0.7237   -2.2601    1.5650 C   0  0  2  0  0  0  0  0  0  0  0  0
    0.1695   -1.1513    1.0687 C   0  0  0  0  0  0  0  0  0  0  0  0
    0.3193   -0.1267    1.7365 O   0  0  0  0  0  0  0  0  0  0  0  0
   -2.1397   -2.0663    1.0750 C   0  0  0  0  0  0  0  0  0  0  0  0
   -0.5717   -1.2606    3.4238 H   0  0  0  0  0  0  0  0  0  0  0  0
   -0.3076   -3.2111    1.2363 H   0  0  0  0  0  0  0  0  0  0  0  0
   -2.5584   -1.1089    1.4061 H   0  0  0  0  0  0  0  0  0  0  0  0
   -2.1682   -2.0790   -0.0197 H   0  0  0  0  0  0  0  0  0  0  0  0
   -2.7965   -2.8601    1.4459 H   0  0  0  0  0  0  0  0  0  0  0  0
    0.7724   -1.3745   -0.1593 N   0  0  0  0  0  0  0  0  0  0  0  0
    1.6644   -0.4046   -0.7812 C   0  0  2  0  0  0  0  0  0  0  0  0
    0.8763    0.8546   -0.9831 C   0  0  0  0  0  0  0  0  0  0  0  0
    0.6258    1.5712   -0.0212 O   0  0  0  0  0  0  0  0  0  0  0  0
    2.0641   -1.0409   -2.1075 C   0  0  0  0  0  0  0  0  0  0  0  0
    1.9044   -2.5447   -1.8976 C   0  0  0  0  0  0  0  0  0  0  0  0
    0.7499   -2.6270   -0.9105 C   0  0  0  0  0  0  0  0  0  0  0  0
    2.5189   -0.1855   -0.1340 H   0  0  0  0  0  0  0  0  0  0  0  0
    3.1169   -0.8245   -2.3246 H   0  0  0  0  0  0  0  0  0  0  0  0
    1.4574   -0.7057   -2.9543 H   0  0  0  0  0  0  0  0  0  0  0  0
    1.6386   -3.0353   -2.8411 H   0  0  0  0  0  0  0  0  0  0  0  0
    2.8187   -3.0078   -1.5160 H   0  0  0  0  0  0  0  0  0  0  0  0
   -0.2175   -2.7569   -1.4033 H   0  0  0  0  0  0  0  0  0  0  0  0
    0.8977   -3.4414   -0.1930 H   0  0  0  0  0  0  0  0  0  0  0  0
    0.5336    0.9884   -2.4013 N   0  0  0  0  0  0  0  0  0  0  0  0
   -0.4738    1.8842   -2.9224 C   0  0  2  0  0  0  0  0  0  0  0  0
   -0.4800    3.1385   -2.0587 C   0  0  0  0  0  0  0  0  0  0  0  0
   -0.0545    3.1610   -0.9056 O   0  0  0  0  0  0  0  0  0  0  0  0
   -1.8451    1.2269   -2.9361 C   0  0  0  0  0  0  0  0  0  0  0  0
    1.2850    0.6945   -3.0181 H   0  0  0  0  0  0  0  0  0  0  0  0
   -0.1692    2.1438   -3.9422 H   0  0  0  0  0  0  0  0  0  0  0  0
   -2.1672    0.9597   -1.9231 H   0  0  0  0  0  0  0  0  0  0  0  0
   -2.6019    1.8967   -3.3577 H   0  0  0  0  0  0  0  0  0  0  0  0
   -1.8313    0.3089   -3.5335 H   0  0  0  0  0  0  0  0  0  0  0  0
   -1.0559    4.2192   -2.7118 N   0  0  0  0  0  0  0  0  0  0  0  0
   -1.1909    5.5195   -2.0980 C   0  0  0  0  0  0  0  0  0  0  0  0
   -1.3646    4.1149   -3.6739 H   0  0  0  0  0  0  0  0  0  0  0  0
   -2.1738    5.5950   -1.6100 H   0  0  0  0  0  0  0  0  0  0  0  0
   -0.3979    5.6548   -1.3478 H   0  0  0  0  0  0  0  0  0  0  0  0
   -1.1035    6.2995   -2.8687 H   0  0  0  0  0  0  0  0  0  0  0  0
 18 19  1  0  0  0  0
 19 31  1  0  0  0  0
 19 20  2  0  0  0  0
  8  9  1  0  0  0  0
  9 17  1  0  0  0  0
  9 10  2  0  0  0  0
  1  3  1  0  0  0  0
  1  7  1  0  0  0  0
  1  2  2  0  0  0  0
 32 33  1  0  0  0  0
 33 41  1  0  0  0  0
 33 34  2  0  0  0  0
 21 22  1  0  0  0  0
 22 23  1  0  0  0  0
 18 21  1  0  0  0  0
 17 23  1  0  0  0  0
 17 18  1  0  0  0  0
  8 11  1  0  0  0  0
 32 35  1  0  0  0  0
 41 42  1  0  0  0  0
  7  8  1  0  0  0  0
 31 32  1  0  0  0  0
 22 27  1  0  0  0  0
 22 28  1  0  0  0  0
 21 25  1  0  0  0  0
 21 26  1  0  0  0  0
 23 29  1  0  0  0  0
 23 30  1  0  0  0  0
 18 24  1  0  0  0  0
  3  4  1  0  0  0  0
  3  5  1  0  0  0  0
  3  6  1  0  0  0  0
 11 14  1  0  0  0  0
 11 15  1  0  0  0  0
 11 16  1  0  0  0  0
 35 38  1  0  0  0  0
 35 39  1  0  0  0  0
 35 40  1  0  0  0  0
 42 44  1  0  0  0  0
 42 45  1  0  0  0  0
 42 46  1  0  0  0  0
  8 13  1  0  0  0  0
 32 37  1  0  0  0  0
 31 36  1  0  0  0  0
 41 43  1  0  0  0  0
  7 12  1  0  0  0  0
M  END
$$$$

  -OEChem-05262214473D

 46 46  0     1  0  0  0  0  0999 V2000
   -0.6012   -3.2995    3.8205 C   0  0  0  0  0  0  0  0  0  0  0  0
   -0.6574   -4.4683    3.4568 O   0  0  0  0  0  0  0  0  0  0  0  0
   -0.4935   -2.9859    5.2760 C   0  0  0  0  0  0  0  0  0  0  0  0
   -1.4789   -2.8689    5.7550 H   0  0  0  0  0  0  0  0  0  0  0  0
    0.0123   -3.7847    5.8419 H   0  0  0  0  0  0  0  0  0  0  0  0
    0.0585   -2.0642    5.5199 H   0  0  0  0  0  0  0  0  0  0  0  0
   -0.6261   -2.1849    2.9917 N   0  0  0  0  0  0  0  0  0  0  0  0
   -0.7237   -2.2601    1.5650 C   0  0  2  0  0  0  0  0  0  0  0  0
    0.1695   -1.1513    1.0687 C   0  0  0  0  0  0  0  0  0  0  0  0
    0.3193   -0.1267    1.7365 O   0  0  0  0  0  0  0  0  0  0  0  0
   -2.1397   -2.0663    1.0750 C   0  0  0  0  0  0  0  0  0  0  0  0
   -0.5717   -1.2606    3.4238 H   0  0  0  0  0  0  0  0  0  0  0  0
   -0.3076   -3.2111    1.2363 H   0  0  0  0  0  0  0  0  0  0  0  0
   -2.5584   -1.1089    1.4061 H   0  0  0  0  0  0  0  0  0  0  0  0
   -2.1682   -2.0790   -0.0197 H   0  0  0  0  0  0  0  0  0  0  0  0
   -2.7965   -2.8601    1.4459 H   0  0  0  0  0  0  0  0  0  0  0  0
    0.7724   -1.3745   -0.1593 N   0  0  0  0  0  0  0  0  0  0  0  0
    1.6644   -0.4046   -0.7812 C   0  0  2  0  0  0  0  0  0  0  0  0
    0.8763    0.8546   -0.9831 C   0  0  0  0  0  0  0  0  0  0  0  0
    0.8576    1.7037   -0.0998 O   0  0  0  0  0  0  0  0  0  0  0  0
    2.0641   -1.0409   -2.1075 C   0  0  0  0  0  0  0  0  0  0  0  0
    1.9044   -2.5447   -1.8976 C   0  0  0  0  0  0  0  0  0  0  0  0
    0.7499   -2.6270   -0.9105 C   0  0  0  0  0  0  0  0  0  0  0  0
    2.5189   -0.1855   -0.1340 H   0  0  0  0  0  0  0  0  0  0  0  0
    3.1169   -0.8245   -2.3246 H   0  0  0  0  0  0  0  0  0  0  0  0
    1.4574   -0.7057   -2.9543 H   0  0  0  0  0  0  0  0  0  0  0  0
    1.6386   -3.0353   -2.8411 H   0  0  0  0  0  0  0  0  0  0  0  0
    2.8187   -3.0078   -1.5160 H   0  0  0  0  0  0  0  0  0  0  0  0
   -0.2175   -2.7569   -1.4033 H   0  0  0  0  0  0  0  0  0  0  0  0
    0.8977   -3.4414   -0.1930 H   0  0  0  0  0  0  0  0  0  0  0  0
    0.2330    0.8166   -2.2989 N   0  0  0  0  0  0  0  0  0  0  0  0
   -0.8464    1.6849   -2.7114 C   0  0  2  0  0  0  0  0  0  0  0  0
   -0.6377    3.0411   -2.0506 C   0  0  0  0  0  0  0  0  0  0  0  0
    0.0312    3.1946   -1.0308 O   0  0  0  0  0  0  0  0  0  0  0  0
   -2.1999    1.1008   -2.3378 C   0  0  0  0  0  0  0  0  0  0  0  0
    0.8245    0.4067   -3.0154 H   0  0  0  0  0  0  0  0  0  0  0  0
   -0.7683    1.7918   -3.7988 H   0  0  0  0  0  0  0  0  0  0  0  0
   -2.2967    0.9862   -1.2520 H   0  0  0  0  0  0  0  0  0  0  0  0
   -3.0175    1.7458   -2.6763 H   0  0  0  0  0  0  0  0  0  0  0  0
   -2.3360    0.1123   -2.7897 H   0  0  0  0  0  0  0  0  0  0  0  0
   -1.3217    4.0533   -2.7093 N   0  0  0  0  0  0  0  0  0  0  0  0
   -1.2926    5.4285   -2.2689 C   0  0  0  0  0  0  0  0  0  0  0  0
   -1.8362    3.8383   -3.5583 H   0  0  0  0  0  0  0  0  0  0  0  0
   -2.1426    5.6167   -1.5965 H   0  0  0  0  0  0  0  0  0  0  0  0
   -0.3516    5.6220   -1.7333 H   0  0  0  0  0  0  0  0  0  0  0  0
   -1.3613    6.0944   -3.1418 H   0  0  0  0  0  0  0  0  0  0  0  0
 18 19  1  0  0  0  0
 19 31  1  0  0  0  0
 19 20  2  0  0  0  0
  8  9  1  0  0  0  0
  9 17  1  0  0  0  0
  9 10  2  0  0  0  0
  1  3  1  0  0  0  0
  1  7  1  0  0  0  0
  1  2  2  0  0  0  0
 32 33  1  0  0  0  0
 33 41  1  0  0  0  0
 33 34  2  0  0  0  0
 21 22  1  0  0  0  0
 22 23  1  0  0  0  0
 18 21  1  0  0  0  0
 17 23  1  0  0  0  0
 17 18  1  0  0  0  0
  8 11  1  0  0  0  0
 32 35  1  0  0  0  0
 41 42  1  0  0  0  0
  7  8  1  0  0  0  0
 31 32  1  0  0  0  0
 22 27  1  0  0  0  0
 22 28  1  0  0  0  0
 21 25  1  0  0  0  0
 21 26  1  0  0  0  0
 23 29  1  0  0  0  0
 23 30  1  0  0  0  0
 18 24  1  0  0  0  0
  3  4  1  0  0  0  0
  3  5  1  0  0  0  0
  3  6  1  0  0  0  0
 11 14  1  0  0  0  0
 11 15  1  0  0  0  0
 11 16  1  0  0  0  0
 35 38  1  0  0  0  0
 35 39  1  0  0  0  0
 35 40  1  0  0  0  0
 42 44  1  0  0  0  0
 42 45  1  0  0  0  0
 42 46  1  0  0  0  0
  8 13  1  0  0  0  0
 32 37  1  0  0  0  0
 31 36  1  0  0  0  0
 41 43  1  0  0  0  0
  7 12  1  0  0  0  0
M  END
$$$$

  -OEChem-05262214473D

 46 46  0     1  0  0  0  0  0999 V2000
   -0.6012   -3.2995    3.8205 C   0  0  0  0  0  0  0  0  0  0  0  0
   -0.6574   -4.4683    3.4568 O   0  0  0  0  0  0  0  0  0  0  0  0
   -0.4935   -2.9859    5.2760 C   0  0  0  0  0  0  0  0  0  0  0  0
   -1.4789   -2.8689    5.7550 H   0  0  0  0  0  0  0  0  0  0  0  0
    0.0123   -3.7847    5.8419 H   0  0  0  0  0  0  0  0  0  0  0  0
    0.0585   -2.0642    5.5199 H   0  0  0  0  0  0  0  0  0  0  0  0
   -0.6261   -2.1849    2.9917 N   0  0  0  0  0  0  0  0  0  0  0  0
   -0.7237   -2.2601    1.5650 C   0  0  2  0  0  0  0  0  0  0  0  0
    0.1695   -1.1513    1.0687 C   0  0  0  0  0  0  0  0  0  0  0  0
    0.3193   -0.1267    1.7365 O   0  0  0  0  0  0  0  0  0  0  0  0
   -2.1397   -2.0663    1.0750 C   0  0  0  0  0  0  0  0  0  0  0  0
   -0.5717   -1.2606    3.4238 H   0  0  0  0  0  0  0  0  0  0  0  0
   -0.3076   -3.2111    1.2363 H   0  0  0  0  0  0  0  0  0  0  0  0
   -2.5584   -1.1089    1.4061 H   0  0  0  0  0  0  0  0  0  0  0  0
   -2.1682   -2.0790   -0.0197 H   0  0  0  0  0  0  0  0  0  0  0  0
   -2.7965   -2.8601    1.4459 H   0  0  0  0  0  0  0  0  0  0  0  0
    0.7724   -1.3745   -0.1593 N   0  0  0  0  0  0  0  0  0  0  0  0
    1.6644   -0.4046   -0.7812 C   0  0  2  0  0  0  0  0  0  0  0  0
    0.8763    0.8546   -0.9831 C   0  0  0  0  0  0  0  0  0  0  0  0
    1.0690    1.8129   -0.2441 O   0  0  0  0  0  0  0  0  0  0  0  0
    2.0641   -1.0409   -2.1075 C   0  0  0  0  0  0  0  0  0  0  0  0
    1.9044   -2.5447   -1.8976 C   0  0  0  0  0  0  0  0  0  0  0  0
    0.7499   -2.6270   -0.9105 C   0  0  0  0  0  0  0  0  0  0  0  0
    2.5189   -0.1855   -0.1340 H   0  0  0  0  0  0  0  0  0  0  0  0
    3.1169   -0.8245   -2.3246 H   0  0  0  0  0  0  0  0  0  0  0  0
    1.4574   -0.7057   -2.9543 H   0  0  0  0  0  0  0  0  0  0  0  0
    1.6386   -3.0353   -2.8411 H   0  0  0  0  0  0  0  0  0  0  0  0
    2.8187   -3.0078   -1.5160 H   0  0  0  0  0  0  0  0  0  0  0  0
   -0.2175   -2.7569   -1.4033 H   0  0  0  0  0  0  0  0  0  0  0  0
    0.8977   -3.4414   -0.1930 H   0  0  0  0  0  0  0  0  0  0  0  0
   -0.0411    0.6752   -2.1112 N   0  0  0  0  0  0  0  0  0  0  0  0
   -1.1674    1.5340   -2.3993 C   0  0  2  0  0  0  0  0  0  0  0  0
   -0.7917    2.9536   -1.9953 C   0  0  0  0  0  0  0  0  0  0  0  0
    0.0879    3.2070   -1.1749 O   0  0  0  0  0  0  0  0  0  0  0  0
   -2.4170    1.0727   -1.6656 C   0  0  0  0  0  0  0  0  0  0  0  0
    0.3701    0.1451   -2.8736 H   0  0  0  0  0  0  0  0  0  0  0  0
   -1.3281    1.4922   -3.4821 H   0  0  0  0  0  0  0  0  0  0  0  0
   -2.2750    1.1077   -0.5793 H   0  0  0  0  0  0  0  0  0  0  0  0
   -3.2760    1.7073   -1.9072 H   0  0  0  0  0  0  0  0  0  0  0  0
   -2.6686    0.0412   -1.9348 H   0  0  0  0  0  0  0  0  0  0  0  0
   -1.5836    3.9026   -2.6265 N   0  0  0  0  0  0  0  0  0  0  0  0
   -1.4312    5.3208   -2.3995 C   0  0  0  0  0  0  0  0  0  0  0  0
   -2.2763    3.6032   -3.3064 H   0  0  0  0  0  0  0  0  0  0  0  0
   -2.1086    5.6385   -1.5932 H   0  0  0  0  0  0  0  0  0  0  0  0
   -0.3918    5.5363   -2.1112 H   0  0  0  0  0  0  0  0  0  0  0  0
   -1.6769    5.8681   -3.3216 H   0  0  0  0  0  0  0  0  0  0  0  0
 18 19  1  0  0  0  0
 19 31  1  0  0  0  0
 19 20  2  0  0  0  0
  8  9  1  0  0  0  0
  9 17  1  0  0  0  0
  9 10  2  0  0  0  0
  1  3  1  0  0  0  0
  1  7  1  0  0  0  0
  1  2  2  0  0  0  0
 32 33  1  0  0  0  0
 33 41  1  0  0  0  0
 33 34  2  0  0  0  0
 21 22  1  0  0  0  0
 22 23  1  0  0  0  0
 18 21  1  0  0  0  0
 17 23  1  0  0  0  0
 17 18  1  0  0  0  0
  8 11  1  0  0  0  0
 32 35  1  0  0  0  0
 41 42  1  0  0  0  0
  7  8  1  0  0  0  0
 31 32  1  0  0  0  0
 22 27  1  0  0  0  0
 22 28  1  0  0  0  0
 21 25  1  0  0  0  0
 21 26  1  0  0  0  0
 23 29  1  0  0  0  0
 23 30  1  0  0  0  0
 18 24  1  0  0  0  0
  3  4  1  0  0  0  0
  3  5  1  0  0  0  0
  3  6  1  0  0  0  0
 11 14  1  0  0  0  0
 11 15  1  0  0  0  0
 11 16  1  0  0  0  0
 35 38  1  0  0  0  0
 35 39  1  0  0  0  0
 35 40  1  0  0  0  0
 42 44  1  0  0  0  0
 42 45  1  0  0  0  0
 42 46  1  0  0  0  0
  8 13  1  0  0  0  0
 32 37  1  0  0  0  0
 31 36  1  0  0  0  0
 41 43  1  0  0  0  0
  7 12  1  0  0  0  0
M  END
$$$$

  -OEChem-05262214473D

 46 46  0     1  0  0  0  0  0999 V2000
   -0.6012   -3.2995    3.8205 C   0  0  0  0  0  0  0  0  0  0  0  0
   -0.6574   -4.4683    3.4568 O   0  0  0  0  0  0  0  0  0  0  0  0
   -0.4935   -2.9859    5.2760 C   0  0  0  0  0  0  0  0  0  0  0  0
   -1.4789   -2.8689    5.7550 H   0  0  0  0  0  0  0  0  0  0  0  0
    0.0123   -3.7847    5.8419 H   0  0  0  0  0  0  0  0  0  0  0  0
    0.0585   -2.0642    5.5199 H   0  0  0  0  0  0  0  0  0  0  0  0
   -0.6261   -2.1849    2.9917 N   0  0  0  0  0  0  0  0  0  0  0  0
   -0.7237   -2.2601    1.5650 C   0  0  2  0  0  0  0  0  0  0  0  0
    0.1695   -1.1513    1.0687 C   0  0  0  0  0  0  0  0  0  0  0  0
    0.3193   -0.1267    1.7365 O   0  0  0  0  0  0  0  0  0  0  0  0
   -2.1397   -2.0663    1.0750 C   0  0  0  0  0  0  0  0  0  0  0  0
   -0.5717   -1.2606    3.4238 H   0  0  0  0  0  0  0  0  0  0  0  0
   -0.3076   -3.2111    1.2363 H   0  0  0  0  0  0  0  0  0  0  0  0
   -2.5584   -1.1089    1.4061 H   0  0  0  0  0  0  0  0  0  0  0  0
   -2.1682   -2.0790   -0.0197 H   0  0  0  0  0  0  0  0  0  0  0  0
   -2.7965   -2.8601    1.4459 H   0  0  0  0  0  0  0  0  0  0  0  0
    0.7724   -1.3745   -0.1593 N   0  0  0  0  0  0  0  0  0  0  0  0
    1.6644   -0.4046   -0.7812 C   0  0  2  0  0  0  0  0  0  0  0  0
    0.8763    0.8546   -0.9831 C   0  0  0  0  0  0  0  0  0  0  0  0
    1.2457    1.8914   -0.4443 O   0  0  0  0  0  0  0  0  0  0  0  0
    2.0641   -1.0409   -2.1075 C   0  0  0  0  0  0  0  0  0  0  0  0
    1.9044   -2.5447   -1.8976 C   0  0  0  0  0  0  0  0  0  0  0  0
    0.7499   -2.6270   -0.9105 C   0  0  0  0  0  0  0  0  0  0  0  0
    2.5189   -0.1855   -0.1340 H   0  0  0  0  0  0  0  0  0  0  0  0
    3.1169   -0.8245   -2.3246 H   0  0  0  0  0  0  0  0  0  0  0  0
    1.4574   -0.7057   -2.9543 H   0  0  0  0  0  0  0  0  0  0  0  0
    1.6386   -3.0353   -2.8411 H   0  0  0  0  0  0  0  0  0  0  0  0
    2.8187   -3.0078   -1.5160 H   0  0  0  0  0  0  0  0  0  0  0  0
   -0.2175   -2.7569   -1.4033 H   0  0  0  0  0  0  0  0  0  0  0  0
    0.8977   -3.4414   -0.1930 H   0  0  0  0  0  0  0  0  0  0  0  0
   -0.2701    0.5736   -1.8511 N   0  0  0  0  0  0  0  0  0  0  0  0
   -1.4148    1.4419   -2.0076 C   0  0  2  0  0  0  0  0  0  0  0  0
   -0.9315    2.8819   -1.8965 C   0  0  0  0  0  0  0  0  0  0  0  0
    0.1117    3.1974   -1.3281 O   0  0  0  0  0  0  0  0  0  0  0  0
   -2.4815    1.1446   -0.9652 C   0  0  0  0  0  0  0  0  0  0  0  0
   -0.0470   -0.0724   -2.6023 H   0  0  0  0  0  0  0  0  0  0  0  0
   -1.8104    1.2655   -3.0138 H   0  0  0  0  0  0  0  0  0  0  0  0
   -2.1035    1.3157    0.0493 H   0  0  0  0  0  0  0  0  0  0  0  0
   -3.3598    1.7838   -1.1029 H   0  0  0  0  0  0  0  0  0  0  0  0
   -2.8065    0.1004   -1.0271 H   0  0  0  0  0  0  0  0  0  0  0  0
   -1.8238    3.7775   -2.4692 N   0  0  0  0  0  0  0  0  0  0  0  0
   -1.5972    5.2039   -2.4809 C   0  0  0  0  0  0  0  0  0  0  0  0
   -2.6548    3.4258   -2.9355 H   0  0  0  0  0  0  0  0  0  0  0  0
   -2.0744    5.6588   -1.6004 H   0  0  0  0  0  0  0  0  0  0  0  0
   -0.5158    5.4034   -2.4558 H   0  0  0  0  0  0  0  0  0  0  0  0
   -2.0287    5.6360   -3.3958 H   0  0  0  0  0  0  0  0  0  0  0  0
 18 19  1  0  0  0  0
 19 31  1  0  0  0  0
 19 20  2  0  0  0  0
  8  9  1  0  0  0  0
  9 17  1  0  0  0  0
  9 10  2  0  0  0  0
  1  3  1  0  0  0  0
  1  7  1  0  0  0  0
  1  2  2  0  0  0  0
 32 33  1  0  0  0  0
 33 41  1  0  0  0  0
 33 34  2  0  0  0  0
 21 22  1  0  0  0  0
 22 23  1  0  0  0  0
 18 21  1  0  0  0  0
 17 23  1  0  0  0  0
 17 18  1  0  0  0  0
  8 11  1  0  0  0  0
 32 35  1  0  0  0  0
 41 42  1  0  0  0  0
  7  8  1  0  0  0  0
 31 32  1  0  0  0  0
 22 27  1  0  0  0  0
 22 28  1  0  0  0  0
 21 25  1  0  0  0  0
 21 26  1  0  0  0  0
 23 29  1  0  0  0  0
 23 30  1  0  0  0  0
 18 24  1  0  0  0  0
  3  4  1  0  0  0  0
  3  5  1  0  0  0  0
  3  6  1  0  0  0  0
 11 14  1  0  0  0  0
 11 15  1  0  0  0  0
 11 16  1  0  0  0  0
 35 38  1  0  0  0  0
 35 39  1  0  0  0  0
 35 40  1  0  0  0  0
 42 44  1  0  0  0  0
 42 45  1  0  0  0  0
 42 46  1  0  0  0  0
  8 13  1  0  0  0  0
 32 37  1  0  0  0  0
 31 36  1  0  0  0  0
 41 43  1  0  0  0  0
  7 12  1  0  0  0  0
M  END
$$$$

  -OEChem-05262214473D

 46 46  0     1  0  0  0  0  0999 V2000
   -0.6012   -3.2995    3.8205 C   0  0  0  0  0  0  0  0  0  0  0  0
   -0.6574   -4.4683    3.4568 O   0  0  0  0  0  0  0  0  0  0  0  0
   -0.4935   -2.9859    5.2760 C   0  0  0  0  0  0  0  0  0  0  0  0
   -1.4789   -2.8689    5.7550 H   0  0  0  0  0  0  0  0  0  0  0  0
    0.0123   -3.7847    5.8419 H   0  0  0  0  0  0  0  0  0  0  0  0
    0.0585   -2.0642    5.5199 H   0  0  0  0  0  0  0  0  0  0  0  0
   -0.6261   -2.1849    2.9917 N   0  0  0  0  0  0  0  0  0  0  0  0
   -0.7237   -2.2601    1.5650 C   0  0  2  0  0  0  0  0  0  0  0  0
    0.1695   -1.1513    1.0687 C   0  0  0  0  0  0  0  0  0  0  0  0
    0.3193   -0.1267    1.7365 O   0  0  0  0  0  0  0  0  0  0  0  0
   -2.1397   -2.0663    1.0750 C   0  0  0  0  0  0  0  0  0  0  0  0
   -0.5717   -1.2606    3.4238 H   0  0  0  0  0  0  0  0  0  0  0  0
   -0.3076   -3.2111    1.2363 H   0  0  0  0  0  0  0  0  0  0  0  0
   -2.5584   -1.1089    1.4061 H   0  0  0  0  0  0  0  0  0  0  0  0
   -2.1682   -2.0790   -0.0197 H   0  0  0  0  0  0  0  0  0  0  0  0
   -2.7965   -2.8601    1.4459 H   0  0  0  0  0  0  0  0  0  0  0  0
    0.7724   -1.3745   -0.1593 N   0  0  0  0  0  0  0  0  0  0  0  0
    1.6644   -0.4046   -0.7812 C   0  0  2  0  0  0  0  0  0  0  0  0
    0.8763    0.8546   -0.9831 C   0  0  0  0  0  0  0  0  0  0  0  0
    1.3755    1.9338   -0.6868 O   0  0  0  0  0  0  0  0  0  0  0  0
    2.0641   -1.0409   -2.1075 C   0  0  0  0  0  0  0  0  0  0  0  0
    1.9044   -2.5447   -1.8976 C   0  0  0  0  0  0  0  0  0  0  0  0
    0.7499   -2.6270   -0.9105 C   0  0  0  0  0  0  0  0  0  0  0  0
    2.5189   -0.1855   -0.1340 H   0  0  0  0  0  0  0  0  0  0  0  0
    3.1169   -0.8245   -2.3246 H   0  0  0  0  0  0  0  0  0  0  0  0
    1.4574   -0.7057   -2.9543 H   0  0  0  0  0  0  0  0  0  0  0  0
    1.6386   -3.0353   -2.8411 H   0  0  0  0  0  0  0  0  0  0  0  0
    2.8187   -3.0078   -1.5160 H   0  0  0  0  0  0  0  0  0  0  0  0
   -0.2175   -2.7569   -1.4033 H   0  0  0  0  0  0  0  0  0  0  0  0
    0.8977   -3.4414   -0.1930 H   0  0  0  0  0  0  0  0  0  0  0  0
   -0.4382    0.5189   -1.5363 N   0  0  0  0  0  0  0  0  0  0  0  0
   -1.5719    1.4149   -1.5630 C   0  0  2  0  0  0  0  0  0  0  0  0
   -1.0476    2.8310   -1.7609 C   0  0  0  0  0  0  0  0  0  0  0  0
    0.1012    3.1664   -1.4799 O   0  0  0  0  0  0  0  0  0  0  0  0
   -2.3890    1.3116   -0.2845 C   0  0  0  0  0  0  0  0  0  0  0  0
   -0.3985   -0.2311   -2.2199 H   0  0  0  0  0  0  0  0  0  0  0  0
   -2.1824    1.1269   -2.4257 H   0  0  0  0  0  0  0  0  0  0  0  0
   -1.7939    1.5963    0.5909 H   0  0  0  0  0  0  0  0  0  0  0  0
   -3.2633    1.9700   -0.3182 H   0  0  0  0  0  0  0  0  0  0  0  0
   -2.7403    0.2859   -0.1283 H   0  0  0  0  0  0  0  0  0  0  0  0
   -2.0260    3.6865   -2.2479 N   0  0  0  0  0  0  0  0  0  0  0  0
   -1.7793    5.0857   -2.5075 C   0  0  0  0  0  0  0  0  0  0  0  0
   -2.9460    3.3181   -2.4707 H   0  0  0  0  0  0  0  0  0  0  0  0
   -2.0422    5.6762   -1.6175 H   0  0  0  0  0  0  0  0  0  0  0  0
   -0.7151    5.2326   -2.7437 H   0  0  0  0  0  0  0  0  0  0  0  0
   -2.3927    5.4140   -3.3595 H   0  0  0  0  0  0  0  0  0  0  0  0
 18 19  1  0  0  0  0
 19 31  1  0  0  0  0
 19 20  2  0  0  0  0
  8  9  1  0  0  0  0
  9 17  1  0  0  0  0
  9 10  2  0  0  0  0
  1  3  1  0  0  0  0
  1  7  1  0  0  0  0
  1  2  2  0  0  0  0
 32 33  1  0  0  0  0
 33 41  1  0  0  0  0
 33 34  2  0  0  0  0
 21 22  1  0  0  0  0
 22 23  1  0  0  0  0
 18 21  1  0  0  0  0
 17 23  1  0  0  0  0
 17 18  1  0  0  0  0
  8 11  1  0  0  0  0
 32 35  1  0  0  0  0
 41 42  1  0  0  0  0
  7  8  1  0  0  0  0
 31 32  1  0  0  0  0
 22 27  1  0  0  0  0
 22 28  1  0  0  0  0
 21 25  1  0  0  0  0
 21 26  1  0  0  0  0
 23 29  1  0  0  0  0
 23 30  1  0  0  0  0
 18 24  1  0  0  0  0
  3  4  1  0  0  0  0
  3  5  1  0  0  0  0
  3  6  1  0  0  0  0
 11 14  1  0  0  0  0
 11 15  1  0  0  0  0
 11 16  1  0  0  0  0
 35 38  1  0  0  0  0
 35 39  1  0  0  0  0
 35 40  1  0  0  0  0
 42 44  1  0  0  0  0
 42 45  1  0  0  0  0
 42 46  1  0  0  0  0
  8 13  1  0  0  0  0
 32 37  1  0  0  0  0
 31 36  1  0  0  0  0
 41 43  1  0  0  0  0
  7 12  1  0  0  0  0
M  END
$$$$

  -OEChem-05262214473D

 46 46  0     1  0  0  0  0  0999 V2000
   -0.6012   -3.2995    3.8205 C   0  0  0  0  0  0  0  0  0  0  0  0
   -0.6574   -4.4683    3.4568 O   0  0  0  0  0  0  0  0  0  0  0  0
   -0.4935   -2.9859    5.2760 C   0  0  0  0  0  0  0  0  0  0  0  0
   -1.4789   -2.8689    5.7550 H   0  0  0  0  0  0  0  0  0  0  0  0
    0.0123   -3.7847    5.8419 H   0  0  0  0  0  0  0  0  0  0  0  0
    0.0585   -2.0642    5.5199 H   0  0  0  0  0  0  0  0  0  0  0  0
   -0.6261   -2.1849    2.9917 N   0  0  0  0  0  0  0  0  0  0  0  0
   -0.7237   -2.2601    1.5650 C   0  0  2  0  0  0  0  0  0  0  0  0
    0.1695   -1.1513    1.0687 C   0  0  0  0  0  0  0  0  0  0  0  0
    0.3193   -0.1267    1.7365 O   0  0  0  0  0  0  0  0  0  0  0  0
   -2.1397   -2.0663    1.0750 C   0  0  0  0  0  0  0  0  0  0  0  0
   -0.5717   -1.2606    3.4238 H   0  0  0  0  0  0  0  0  0  0  0  0
   -0.3076   -3.2111    1.2363 H   0  0  0  0  0  0  0  0  0  0  0  0
   -2.5584   -1.1089    1.4061 H   0  0  0  0  0  0  0  0  0  0  0  0
   -2.1682   -2.0790   -0.0197 H   0  0  0  0  0  0  0  0  0  0  0  0
   -2.7965   -2.8601    1.4459 H   0  0  0  0  0  0  0  0  0  0  0  0
    0.7724   -1.3745   -0.1593 N   0  0  0  0  0  0  0  0  0  0  0  0
    1.6644   -0.4046   -0.7812 C   0  0  2  0  0  0  0  0  0  0  0  0
    0.8763    0.8546   -0.9831 C   0  0  0  0  0  0  0  0  0  0  0  0
    1.4497    1.9372   -0.9550 O   0  0  0  0  0  0  0  0  0  0  0  0
    2.0641   -1.0409   -2.1075 C   0  0  0  0  0  0  0  0  0  0  0  0
    1.9044   -2.5447   -1.8976 C   0  0  0  0  0  0  0  0  0  0  0  0
    0.7499   -2.6270   -0.9105 C   0  0  0  0  0  0  0  0  0  0  0  0
    2.5189   -0.1855   -0.1340 H   0  0  0  0  0  0  0  0  0  0  0  0
    3.1169   -0.8245   -2.3246 H   0  0  0  0  0  0  0  0  0  0  0  0
    1.4574   -0.7057   -2.9543 H   0  0  0  0  0  0  0  0  0  0  0  0
    1.6386   -3.0353   -2.8411 H   0  0  0  0  0  0  0  0  0  0  0  0
    2.8187   -3.0078   -1.5160 H   0  0  0  0  0  0  0  0  0  0  0  0
   -0.2175   -2.7569   -1.4033 H   0  0  0  0  0  0  0  0  0  0  0  0
    0.8977   -3.4414   -0.1930 H   0  0  0  0  0  0  0  0  0  0  0  0
   -0.5340    0.5147   -1.1882 N   0  0  0  0  0  0  0  0  0  0  0  0
   -1.6279    1.4548   -1.0956 C   0  0  2  0  0  0  0  0  0  0  0  0
   -1.1320    2.8044   -1.5978 C   0  0  0  0  0  0  0  0  0  0  0  0
    0.0568    3.1162   -1.6201 O   0  0  0  0  0  0  0  0  0  0  0  0
   -2.1459    1.5623    0.3302 C   0  0  0  0  0  0  0  0  0  0  0  0
   -0.6604   -0.3201   -1.7526 H   0  0  0  0  0  0  0  0  0  0  0  0
   -2.4187    1.0861   -1.7580 H   0  0  0  0  0  0  0  0  0  0  0  0
   -1.3674    1.9301    1.0085 H   0  0  0  0  0  0  0  0  0  0  0  0
   -2.9930    2.2532    0.3935 H   0  0  0  0  0  0  0  0  0  0  0  0
   -2.4745    0.5851    0.7002 H   0  0  0  0  0  0  0  0  0  0  0  0
   -2.1764    3.6357   -1.9778 N   0  0  0  0  0  0  0  0  0  0  0  0
   -1.9651    4.9742   -2.4776 C   0  0  0  0  0  0  0  0  0  0  0  0
   -3.1299    3.2874   -1.9439 H   0  0  0  0  0  0  0  0  0  0  0  0
   -2.0142    5.6896   -1.6434 H   0  0  0  0  0  0  0  0  0  0  0  0
   -0.9761    5.0353   -2.9552 H   0  0  0  0  0  0  0  0  0  0  0  0
   -2.7442    5.2172   -3.2151 H   0  0  0  0  0  0  0  0  0  0  0  0
 18 19  1  0  0  0  0
 19 31  1  0  0  0  0
 19 20  2  0  0  0  0
  8  9  1  0  0  0  0
  9 17  1  0  0  0  0
  9 10  2  0  0  0  0
  1  3  1  0  0  0  0
  1  7  1  0  0  0  0
  1  2  2  0  0  0  0
 32 33  1  0  0  0  0
 33 41  1  0  0  0  0
 33 34  2  0  0  0  0
 21 22  1  0  0  0  0
 22 23  1  0  0  0  0
 18 21  1  0  0  0  0
 17 23  1  0  0  0  0
 17 18  1  0  0  0  0
  8 11  1  0  0  0  0
 32 35  1  0  0  0  0
 41 42  1  0  0  0  0
  7  8  1  0  0  0  0
 31 32  1  0  0  0  0
 22 27  1  0  0  0  0
 22 28  1  0  0  0  0
 21 25  1  0  0  0  0
 21 26  1  0  0  0  0
 23 29  1  0  0  0  0
 23 30  1  0  0  0  0
 18 24  1  0  0  0  0
  3  4  1  0  0  0  0
  3  5  1  0  0  0  0
  3  6  1  0  0  0  0
 11 14  1  0  0  0  0
 11 15  1  0  0  0  0
 11 16  1  0  0  0  0
 35 38  1  0  0  0  0
 35 39  1  0  0  0  0
 35 40  1  0  0  0  0
 42 44  1  0  0  0  0
 42 45  1  0  0  0  0
 42 46  1  0  0  0  0
  8 13  1  0  0  0  0
 32 37  1  0  0  0  0
 31 36  1  0  0  0  0
 41 43  1  0  0  0  0
  7 12  1  0  0  0  0
M  END
$$$$

  -OEChem-05262214473D

 46 46  0     1  0  0  0  0  0999 V2000
   -0.6012   -3.2995    3.8205 C   0  0  0  0  0  0  0  0  0  0  0  0
   -0.6574   -4.4683    3.4568 O   0  0  0  0  0  0  0  0  0  0  0  0
   -0.4935   -2.9859    5.2760 C   0  0  0  0  0  0  0  0  0  0  0  0
   -1.4789   -2.8689    5.7550 H   0  0  0  0  0  0  0  0  0  0  0  0
    0.0123   -3.7847    5.8419 H   0  0  0  0  0  0  0  0  0  0  0  0
    0.0585   -2.0642    5.5199 H   0  0  0  0  0  0  0  0  0  0  0  0
   -0.6261   -2.1849    2.9917 N   0  0  0  0  0  0  0  0  0  0  0  0
   -0.7237   -2.2601    1.5650 C   0  0  2  0  0  0  0  0  0  0  0  0
    0.1695   -1.1513    1.0687 C   0  0  0  0  0  0  0  0  0  0  0  0
    0.3193   -0.1267    1.7365 O   0  0  0  0  0  0  0  0  0  0  0  0
   -2.1397   -2.0663    1.0750 C   0  0  0  0  0  0  0  0  0  0  0  0
   -0.5717   -1.2606    3.4238 H   0  0  0  0  0  0  0  0  0  0  0  0
   -0.3076   -3.2111    1.2363 H   0  0  0  0  0  0  0  0  0  0  0  0
   -2.5584   -1.1089    1.4061 H   0  0  0  0  0  0  0  0  0  0  0  0
   -2.1682   -2.0790   -0.0197 H   0  0  0  0  0  0  0  0  0  0  0  0
   -2.7965   -2.8601    1.4459 H   0  0  0  0  0  0  0  0  0  0  0  0
    0.7724   -1.3745   -0.1593 N   0  0  0  0  0  0  0  0  0  0  0  0
    1.6644   -0.4046   -0.7812 C   0  0  2  0  0  0  0  0  0  0  0  0
    0.8763    0.8546   -0.9831 C   0  0  0  0  0  0  0  0  0  0  0  0
    1.4632    1.9014   -1.2307 O   0  0  0  0  0  0  0  0  0  0  0  0
    2.0641   -1.0409   -2.1075 C   0  0  0  0  0  0  0  0  0  0  0  0
    1.9044   -2.5447   -1.8976 C   0  0  0  0  0  0  0  0  0  0  0  0
    0.7499   -2.6270   -0.9105 C   0  0  0  0  0  0  0  0  0  0  0  0
    2.5189   -0.1855   -0.1340 H   0  0  0  0  0  0  0  0  0  0  0  0
    3.1169   -0.8245   -2.3246 H   0  0  0  0  0  0  0  0  0  0  0  0
    1.4574   -0.7057   -2.9543 H   0  0  0  0  0  0  0  0  0  0  0  0
    1.6386   -3.0353   -2.8411 H   0  0  0  0  0  0  0  0  0  0  0  0
    2.8187   -3.0078   -1.5160 H   0  0  0  0  0  0  0  0  0  0  0  0
   -0.2175   -2.7569   -1.4033 H   0  0  0  0  0  0  0  0  0  0  0  0
    0.8977   -3.4414   -0.1930 H   0  0  0  0  0  0  0  0  0  0  0  0
   -0.5510    0.5613   -0.8306 N   0  0  0  0  0  0  0  0  0  0  0  0
   -1.5790    1.5588   -0.6375 C   0  0  2  0  0  0  0  0  0  0  0  0
   -1.1790    2.8037   -1.4183 C   0  0  0  0  0  0  0  0  0  0  0  0
   -0.0182    3.0502   -1.7390 O   0  0  0  0  0  0  0  0  0  0  0  0
   -1.7687    1.8796    0.8369 C   0  0  0  0  0  0  0  0  0  0  0  0
   -0.8150   -0.3334   -1.2321 H   0  0  0  0  0  0  0  0  0  0  0  0
   -2.5032    1.1457   -1.0561 H   0  0  0  0  0  0  0  0  0  0  0  0
   -0.8530    2.2946    1.2738 H   0  0  0  0  0  0  0  0  0  0  0  0
   -2.5673    2.6143    0.9836 H   0  0  0  0  0  0  0  0  0  0  0  0
   -2.0272    0.9775    1.4019 H   0  0  0  0  0  0  0  0  0  0  0  0
   -2.2647    3.6286   -1.6774 N   0  0  0  0  0  0  0  0  0  0  0  0
   -2.1420    4.8770   -2.3930 C   0  0  0  0  0  0  0  0  0  0  0  0
   -3.1942    3.3359   -1.3908 H   0  0  0  0  0  0  0  0  0  0  0  0
   -1.9923    5.6980   -1.6763 H   0  0  0  0  0  0  0  0  0  0  0  0
   -1.2811    4.8251   -3.0759 H   0  0  0  0  0  0  0  0  0  0  0  0
   -3.0591    5.0590   -2.9725 H   0  0  0  0  0  0  0  0  0  0  0  0
 18 19  1  0  0  0  0
 19 31  1  0  0  0  0
 19 20  2  0  0  0  0
  8  9  1  0  0  0  0
  9 17  1  0  0  0  0
  9 10  2  0  0  0  0
  1  3  1  0  0  0  0
  1  7  1  0  0  0  0
  1  2  2  0  0  0  0
 32 33  1  0  0  0  0
 33 41  1  0  0  0  0
 33 34  2  0  0  0  0
 21 22  1  0  0  0  0
 22 23  1  0  0  0  0
 18 21  1  0  0  0  0
 17 23  1  0  0  0  0
 17 18  1  0  0  0  0
  8 11  1  0  0  0  0
 32 35  1  0  0  0  0
 41 42  1  0  0  0  0
  7  8  1  0  0  0  0
 31 32  1  0  0  0  0
 22 27  1  0  0  0  0
 22 28  1  0  0  0  0
 21 25  1  0  0  0  0
 21 26  1  0  0  0  0
 23 29  1  0  0  0  0
 23 30  1  0  0  0  0
 18 24  1  0  0  0  0
  3  4  1  0  0  0  0
  3  5  1  0  0  0  0
  3  6  1  0  0  0  0
 11 14  1  0  0  0  0
 11 15  1  0  0  0  0
 11 16  1  0  0  0  0
 35 38  1  0  0  0  0
 35 39  1  0  0  0  0
 35 40  1  0  0  0  0
 42 44  1  0  0  0  0
 42 45  1  0  0  0  0
 42 46  1  0  0  0  0
  8 13  1  0  0  0  0
 32 37  1  0  0  0  0
 31 36  1  0  0  0  0
 41 43  1  0  0  0  0
  7 12  1  0  0  0  0
M  END
$$$$

  -OEChem-05262214473D

 46 46  0     1  0  0  0  0  0999 V2000
   -0.6012   -3.2995    3.8205 C   0  0  0  0  0  0  0  0  0  0  0  0
   -0.6574   -4.4683    3.4568 O   0  0  0  0  0  0  0  0  0  0  0  0
   -0.4935   -2.9859    5.2760 C   0  0  0  0  0  0  0  0  0  0  0  0
   -1.4789   -2.8689    5.7550 H   0  0  0  0  0  0  0  0  0  0  0  0
    0.0123   -3.7847    5.8419 H   0  0  0  0  0  0  0  0  0  0  0  0
    0.0585   -2.0642    5.5199 H   0  0  0  0  0  0  0  0  0  0  0  0
   -0.6261   -2.1849    2.9917 N   0  0  0  0  0  0  0  0  0  0  0  0
   -0.7237   -2.2601    1.5650 C   0  0  2  0  0  0  0  0  0  0  0  0
    0.1695   -1.1513    1.0687 C   0  0  0  0  0  0  0  0  0  0  0  0
    0.3193   -0.1267    1.7365 O   0  0  0  0  0  0  0  0  0  0  0  0
   -2.1397   -2.0663    1.0750 C   0  0  0  0  0  0  0  0  0  0  0  0
   -0.5717   -1.2606    3.4238 H   0  0  0  0  0  0  0  0  0  0  0  0
   -0.3076   -3.2111    1.2363 H   0  0  0  0  0  0  0  0  0  0  0  0
   -2.5584   -1.1089    1.4061 H   0  0  0  0  0  0  0  0  0  0  0  0
   -2.1682   -2.0790   -0.0197 H   0  0  0  0  0  0  0  0  0  0  0  0
   -2.7965   -2.8601    1.4459 H   0  0  0  0  0  0  0  0  0  0  0  0
    0.7724   -1.3745   -0.1593 N   0  0  0  0  0  0  0  0  0  0  0  0
    1.6644   -0.4046   -0.7812 C   0  0  2  0  0  0  0  0  0  0  0  0
    0.8763    0.8546   -0.9831 C   0  0  0  0  0  0  0  0  0  0  0  0
    1.4150    1.8289   -1.4951 O   0  0  0  0  0  0  0  0  0  0  0  0
    2.0641   -1.0409   -2.1075 C   0  0  0  0  0  0  0  0  0  0  0  0
    1.9044   -2.5447   -1.8976 C   0  0  0  0  0  0  0  0  0  0  0  0
    0.7499   -2.6270   -0.9105 C   0  0  0  0  0  0  0  0  0  0  0  0
    2.5189   -0.1855   -0.1340 H   0  0  0  0  0  0  0  0  0  0  0  0
    3.1169   -0.8245   -2.3246 H   0  0  0  0  0  0  0  0  0  0  0  0
    1.4574   -0.7057   -2.9543 H   0  0  0  0  0  0  0  0  0  0  0  0
    1.6386   -3.0353   -2.8411 H   0  0  0  0  0  0  0  0  0  0  0  0
    2.8187   -3.0078   -1.5160 H   0  0  0  0  0  0  0  0  0  0  0  0
   -0.2175   -2.7569   -1.4033 H   0  0  0  0  0  0  0  0  0  0  0  0
    0.8977   -3.4414   -0.1930 H   0  0  0  0  0  0  0  0  0  0  0  0
   -0.4881    0.6556   -0.4878 N   0  0  0  0  0  0  0  0  0  0  0  0
   -1.4285    1.7200   -0.2197 C   0  0  2  0  0  0  0  0  0  0  0  0
   -1.1854    2.8292   -1.2346 C   0  0  0  0  0  0  0  0  0  0  0  0
   -0.1188    2.9728   -1.8286 O   0  0  0  0  0  0  0  0  0  0  0  0
   -1.2831    2.2419    1.2013 C   0  0  0  0  0  0  0  0  0  0  0  0
   -0.8515   -0.2700   -0.6940 H   0  0  0  0  0  0  0  0  0  0  0  0
   -2.4301    1.3018   -0.3678 H   0  0  0  0  0  0  0  0  0  0  0  0
   -0.2858    2.6648    1.3686 H   0  0  0  0  0  0  0  0  0  0  0  0
   -2.0152    3.0284    1.4120 H   0  0  0  0  0  0  0  0  0  0  0  0
   -1.4289    1.4364    1.9292 H   0  0  0  0  0  0  0  0  0  0  0  0
   -2.2849    3.6657   -1.3670 N   0  0  0  0  0  0  0  0  0  0  0  0
   -2.2978    4.8009   -2.2597 C   0  0  0  0  0  0  0  0  0  0  0  0
   -3.1343    3.4602   -0.8492 H   0  0  0  0  0  0  0  0  0  0  0  0
   -1.9780    5.7009   -1.7140 H   0  0  0  0  0  0  0  0  0  0  0  0
   -1.6093    4.6162   -3.0975 H   0  0  0  0  0  0  0  0  0  0  0  0
   -3.3161    4.9502   -2.6481 H   0  0  0  0  0  0  0  0  0  0  0  0
 18 19  1  0  0  0  0
 19 31  1  0  0  0  0
 19 20  2  0  0  0  0
  8  9  1  0  0  0  0
  9 17  1  0  0  0  0
  9 10  2  0  0  0  0
  1  3  1  0  0  0  0
  1  7  1  0  0  0  0
  1  2  2  0  0  0  0
 32 33  1  0  0  0  0
 33 41  1  0  0  0  0
 33 34  2  0  0  0  0
 21 22  1  0  0  0  0
 22 23  1  0  0  0  0
 18 21  1  0  0  0  0
 17 23  1  0  0  0  0
 17 18  1  0  0  0  0
  8 11  1  0  0  0  0
 32 35  1  0  0  0  0
 41 42  1  0  0  0  0
  7  8  1  0  0  0  0
 31 32  1  0  0  0  0
 22 27  1  0  0  0  0
 22 28  1  0  0  0  0
 21 25  1  0  0  0  0
 21 26  1  0  0  0  0
 23 29  1  0  0  0  0
 23 30  1  0  0  0  0
 18 24  1  0  0  0  0
  3  4  1  0  0  0  0
  3  5  1  0  0  0  0
  3  6  1  0  0  0  0
 11 14  1  0  0  0  0
 11 15  1  0  0  0  0
 11 16  1  0  0  0  0
 35 38  1  0  0  0  0
 35 39  1  0  0  0  0
 35 40  1  0  0  0  0
 42 44  1  0  0  0  0
 42 45  1  0  0  0  0
 42 46  1  0  0  0  0
  8 13  1  0  0  0  0
 32 37  1  0  0  0  0
 31 36  1  0  0  0  0
 41 43  1  0  0  0  0
  7 12  1  0  0  0  0
M  END
$$$$

  -OEChem-05262214473D

 46 46  0     1  0  0  0  0  0999 V2000
   -0.6012   -3.2995    3.8205 C   0  0  0  0  0  0  0  0  0  0  0  0
   -0.6574   -4.4683    3.4568 O   0  0  0  0  0  0  0  0  0  0  0  0
   -0.4935   -2.9859    5.2760 C   0  0  0  0  0  0  0  0  0  0  0  0
   -1.4789   -2.8689    5.7550 H   0  0  0  0  0  0  0  0  0  0  0  0
    0.0123   -3.7847    5.8419 H   0  0  0  0  0  0  0  0  0  0  0  0
    0.0585   -2.0642    5.5199 H   0  0  0  0  0  0  0  0  0  0  0  0
   -0.6261   -2.1849    2.9917 N   0  0  0  0  0  0  0  0  0  0  0  0
   -0.7237   -2.2601    1.5650 C   0  0  2  0  0  0  0  0  0  0  0  0
    0.1695   -1.1513    1.0687 C   0  0  0  0  0  0  0  0  0  0  0  0
    0.3193   -0.1267    1.7365 O   0  0  0  0  0  0  0  0  0  0  0  0
   -2.1397   -2.0663    1.0750 C   0  0  0  0  0  0  0  0  0  0  0  0
   -0.5717   -1.2606    3.4238 H   0  0  0  0  0  0  0  0  0  0  0  0
   -0.3076   -3.2111    1.2363 H   0  0  0  0  0  0  0  0  0  0  0  0
   -2.5584   -1.1089    1.4061 H   0  0  0  0  0  0  0  0  0  0  0  0
   -2.1682   -2.0790   -0.0197 H   0  0  0  0  0  0  0  0  0  0  0  0
   -2.7965   -2.8601    1.4459 H   0  0  0  0  0  0  0  0  0  0  0  0
    0.7724   -1.3745   -0.1593 N   0  0  0  0  0  0  0  0  0  0  0  0
    1.6644   -0.4046   -0.7812 C   0  0  2  0  0  0  0  0  0  0  0  0
    0.8763    0.8546   -0.9831 C   0  0  0  0  0  0  0  0  0  0  0  0
    1.3085    1.7246   -1.7301 O   0  0  0  0  0  0  0  0  0  0  0  0
    2.0641   -1.0409   -2.1075 C   0  0  0  0  0  0  0  0  0  0  0  0
    1.9044   -2.5447   -1.8976 C   0  0  0  0  0  0  0  0  0  0  0  0
    0.7499   -2.6270   -0.9105 C   0  0  0  0  0  0  0  0  0  0  0  0
    2.5189   -0.1855   -0.1340 H   0  0  0  0  0  0  0  0  0  0  0  0
    3.1169   -0.8245   -2.3246 H   0  0  0  0  0  0  0  0  0  0  0  0
    1.4574   -0.7057   -2.9543 H   0  0  0  0  0  0  0  0  0  0  0  0
    1.6386   -3.0353   -2.8411 H   0  0  0  0  0  0  0  0  0  0  0  0
    2.8187   -3.0078   -1.5160 H   0  0  0  0  0  0  0  0  0  0  0  0
   -0.2175   -2.7569   -1.4033 H   0  0  0  0  0  0  0  0  0  0  0  0
    0.8977   -3.4414   -0.1930 H   0  0  0  0  0  0  0  0  0  0  0  0
   -0.3496    0.7912   -0.1832 N   0  0  0  0  0  0  0  0  0  0  0  0
   -1.1868    1.9272    0.1292 C   0  0  2  0  0  0  0  0  0  0  0  0
   -1.1507    2.8790   -1.0592 C   0  0  0  0  0  0  0  0  0  0  0  0
   -0.2382    2.8895   -1.8827 O   0  0  0  0  0  0  0  0  0  0  0  0
   -0.7222    2.6245    1.3984 C   0  0  0  0  0  0  0  0  0  0  0  0
   -0.7676   -0.1343   -0.1748 H   0  0  0  0  0  0  0  0  0  0  0  0
   -2.2045    1.5436    0.2599 H   0  0  0  0  0  0  0  0  0  0  0  0
    0.2956    3.0155    1.2865 H   0  0  0  0  0  0  0  0  0  0  0  0
   -1.3744    3.4675    1.6493 H   0  0  0  0  0  0  0  0  0  0  0  0
   -0.7204    1.9306    2.2459 H   0  0  0  0  0  0  0  0  0  0  0  0
   -2.2356    3.7444   -1.0678 N   0  0  0  0  0  0  0  0  0  0  0  0
   -2.4220    4.7509   -2.0867 C   0  0  0  0  0  0  0  0  0  0  0  0
   -2.9543    3.6518   -0.3560 H   0  0  0  0  0  0  0  0  0  0  0  0
   -1.9723    5.6980   -1.7540 H   0  0  0  0  0  0  0  0  0  0  0  0
   -1.9383    4.4230   -3.0187 H   0  0  0  0  0  0  0  0  0  0  0  0
   -3.4976    4.8982   -2.2641 H   0  0  0  0  0  0  0  0  0  0  0  0
 18 19  1  0  0  0  0
 19 31  1  0  0  0  0
 19 20  2  0  0  0  0
  8  9  1  0  0  0  0
  9 17  1  0  0  0  0
  9 10  2  0  0  0  0
  1  3  1  0  0  0  0
  1  7  1  0  0  0  0
  1  2  2  0  0  0  0
 32 33  1  0  0  0  0
 33 41  1  0  0  0  0
 33 34  2  0  0  0  0
 21 22  1  0  0  0  0
 22 23  1  0  0  0  0
 18 21  1  0  0  0  0
 17 23  1  0  0  0  0
 17 18  1  0  0  0  0
  8 11  1  0  0  0  0
 32 35  1  0  0  0  0
 41 42  1  0  0  0  0
  7  8  1  0  0  0  0
 31 32  1  0  0  0  0
 22 27  1  0  0  0  0
 22 28  1  0  0  0  0
 21 25  1  0  0  0  0
 21 26  1  0  0  0  0
 23 29  1  0  0  0  0
 23 30  1  0  0  0  0
 18 24  1  0  0  0  0
  3  4  1  0  0  0  0
  3  5  1  0  0  0  0
  3  6  1  0  0  0  0
 11 14  1  0  0  0  0
 11 15  1  0  0  0  0
 11 16  1  0  0  0  0
 35 38  1  0  0  0  0
 35 39  1  0  0  0  0
 35 40  1  0  0  0  0
 42 44  1  0  0  0  0
 42 45  1  0  0  0  0
 42 46  1  0  0  0  0
  8 13  1  0  0  0  0
 32 37  1  0  0  0  0
 31 36  1  0  0  0  0
 41 43  1  0  0  0  0
  7 12  1  0  0  0  0
M  END
$$$$

  -OEChem-05262214473D

 46 46  0     1  0  0  0  0  0999 V2000
   -0.6012   -3.2995    3.8205 C   0  0  0  0  0  0  0  0  0  0  0  0
   -0.6574   -4.4683    3.4568 O   0  0  0  0  0  0  0  0  0  0  0  0
   -0.4935   -2.9859    5.2760 C   0  0  0  0  0  0  0  0  0  0  0  0
   -1.4789   -2.8689    5.7550 H   0  0  0  0  0  0  0  0  0  0  0  0
    0.0123   -3.7847    5.8419 H   0  0  0  0  0  0  0  0  0  0  0  0
    0.0585   -2.0642    5.5199 H   0  0  0  0  0  0  0  0  0  0  0  0
   -0.6261   -2.1849    2.9917 N   0  0  0  0  0  0  0  0  0  0  0  0
   -0.7237   -2.2601    1.5650 C   0  0  2  0  0  0  0  0  0  0  0  0
    0.1695   -1.1513    1.0687 C   0  0  0  0  0  0  0  0  0  0  0  0
    0.3193   -0.1267    1.7365 O   0  0  0  0  0  0  0  0  0  0  0  0
   -2.1397   -2.0663    1.0750 C   0  0  0  0  0  0  0  0  0  0  0  0
   -0.5717   -1.2606    3.4238 H   0  0  0  0  0  0  0  0  0  0  0  0
   -0.3076   -3.2111    1.2363 H   0  0  0  0  0  0  0  0  0  0  0  0
   -2.5584   -1.1089    1.4061 H   0  0  0  0  0  0  0  0  0  0  0  0
   -2.1682   -2.0790   -0.0197 H   0  0  0  0  0  0  0  0  0  0  0  0
   -2.7965   -2.8601    1.4459 H   0  0  0  0  0  0  0  0  0  0  0  0
    0.7724   -1.3745   -0.1593 N   0  0  0  0  0  0  0  0  0  0  0  0
    1.6644   -0.4046   -0.7812 C   0  0  2  0  0  0  0  0  0  0  0  0
    0.8763    0.8546   -0.9831 C   0  0  0  0  0  0  0  0  0  0  0  0
    1.1509    1.5955   -1.9197 O   0  0  0  0  0  0  0  0  0  0  0  0
    2.0641   -1.0409   -2.1075 C   0  0  0  0  0  0  0  0  0  0  0  0
    1.9044   -2.5447   -1.8976 C   0  0  0  0  0  0  0  0  0  0  0  0
    0.7499   -2.6270   -0.9105 C   0  0  0  0  0  0  0  0  0  0  0  0
    2.5189   -0.1855   -0.1340 H   0  0  0  0  0  0  0  0  0  0  0  0
    3.1169   -0.8245   -2.3246 H   0  0  0  0  0  0  0  0  0  0  0  0
    1.4574   -0.7057   -2.9543 H   0  0  0  0  0  0  0  0  0  0  0  0
    1.6386   -3.0353   -2.8411 H   0  0  0  0  0  0  0  0  0  0  0  0
    2.8187   -3.0078   -1.5160 H   0  0  0  0  0  0  0  0  0  0  0  0
   -0.2175   -2.7569   -1.4033 H   0  0  0  0  0  0  0  0  0  0  0  0
    0.8977   -3.4414   -0.1930 H   0  0  0  0  0  0  0  0  0  0  0  0
   -0.1448    0.9587    0.0624 N   0  0  0  0  0  0  0  0  0  0  0  0
   -0.8702    2.1664    0.3855 C   0  0  2  0  0  0  0  0  0  0  0  0
   -1.0773    2.9498   -0.9041 C   0  0  0  0  0  0  0  0  0  0  0  0
   -0.3681    2.8057   -1.8977 O   0  0  0  0  0  0  0  0  0  0  0  0
   -0.1243    3.0013    1.4147 C   0  0  0  0  0  0  0  0  0  0  0  0
   -0.5690    0.0645    0.2899 H   0  0  0  0  0  0  0  0  0  0  0  0
   -1.8417    1.8547    0.7842 H   0  0  0  0  0  0  0  0  0  0  0  0
    0.8516    3.3228    1.0331 H   0  0  0  0  0  0  0  0  0  0  0  0
   -0.6885    3.9016    1.6796 H   0  0  0  0  0  0  0  0  0  0  0  0
    0.0500    2.4263    2.3306 H   0  0  0  0  0  0  0  0  0  0  0  0
   -2.1203    3.8595   -0.8002 N   0  0  0  0  0  0  0  0  0  0  0  0
   -2.5061    4.7305   -1.8858 C   0  0  0  0  0  0  0  0  0  0  0  0
   -2.6666    3.8978    0.0552 H   0  0  0  0  0  0  0  0  0  0  0  0
   -1.9756    5.6896   -1.7934 H   0  0  0  0  0  0  0  0  0  0  0  0
   -2.2457    4.2585   -2.8447 H   0  0  0  0  0  0  0  0  0  0  0  0
   -3.5912    4.9065   -1.8466 H   0  0  0  0  0  0  0  0  0  0  0  0
 18 19  1  0  0  0  0
 19 31  1  0  0  0  0
 19 20  2  0  0  0  0
  8  9  1  0  0  0  0
  9 17  1  0  0  0  0
  9 10  2  0  0  0  0
  1  3  1  0  0  0  0
  1  7  1  0  0  0  0
  1  2  2  0  0  0  0
 32 33  1  0  0  0  0
 33 41  1  0  0  0  0
 33 34  2  0  0  0  0
 21 22  1  0  0  0  0
 22 23  1  0  0  0  0
 18 21  1  0  0  0  0
 17 23  1  0  0  0  0
 17 18  1  0  0  0  0
  8 11  1  0  0  0  0
 32 35  1  0  0  0  0
 41 42  1  0  0  0  0
  7  8  1  0  0  0  0
 31 32  1  0  0  0  0
 22 27  1  0  0  0  0
 22 28  1  0  0  0  0
 21 25  1  0  0  0  0
 21 26  1  0  0  0  0
 23 29  1  0  0  0  0
 23 30  1  0  0  0  0
 18 24  1  0  0  0  0
  3  4  1  0  0  0  0
  3  5  1  0  0  0  0
  3  6  1  0  0  0  0
 11 14  1  0  0  0  0
 11 15  1  0  0  0  0
 11 16  1  0  0  0  0
 35 38  1  0  0  0  0
 35 39  1  0  0  0  0
 35 40  1  0  0  0  0
 42 44  1  0  0  0  0
 42 45  1  0  0  0  0
 42 46  1  0  0  0  0
  8 13  1  0  0  0  0
 32 37  1  0  0  0  0
 31 36  1  0  0  0  0
 41 43  1  0  0  0  0
  7 12  1  0  0  0  0
M  END
$$$$

  -OEChem-05262214473D

 46 46  0     1  0  0  0  0  0999 V2000
   -0.6012   -3.2995    3.8205 C   0  0  0  0  0  0  0  0  0  0  0  0
   -0.6574   -4.4683    3.4568 O   0  0  0  0  0  0  0  0  0  0  0  0
   -0.4935   -2.9859    5.2760 C   0  0  0  0  0  0  0  0  0  0  0  0
   -1.4789   -2.8689    5.7550 H   0  0  0  0  0  0  0  0  0  0  0  0
    0.0123   -3.7847    5.8419 H   0  0  0  0  0  0  0  0  0  0  0  0
    0.0585   -2.0642    5.5199 H   0  0  0  0  0  0  0  0  0  0  0  0
   -0.6261   -2.1849    2.9917 N   0  0  0  0  0  0  0  0  0  0  0  0
   -0.7237   -2.2601    1.5650 C   0  0  2  0  0  0  0  0  0  0  0  0
    0.1695   -1.1513    1.0687 C   0  0  0  0  0  0  0  0  0  0  0  0
    0.3193   -0.1267    1.7365 O   0  0  0  0  0  0  0  0  0  0  0  0
   -2.1397   -2.0663    1.0750 C   0  0  0  0  0  0  0  0  0  0  0  0
   -0.5717   -1.2606    3.4238 H   0  0  0  0  0  0  0  0  0  0  0  0
   -0.3076   -3.2111    1.2363 H   0  0  0  0  0  0  0  0  0  0  0  0
   -2.5584   -1.1089    1.4061 H   0  0  0  0  0  0  0  0  0  0  0  0
   -2.1682   -2.0790   -0.0197 H   0  0  0  0  0  0  0  0  0  0  0  0
   -2.7965   -2.8601    1.4459 H   0  0  0  0  0  0  0  0  0  0  0  0
    0.7724   -1.3745   -0.1593 N   0  0  0  0  0  0  0  0  0  0  0  0
    1.6644   -0.4046   -0.7812 C   0  0  2  0  0  0  0  0  0  0  0  0
    0.8763    0.8546   -0.9831 C   0  0  0  0  0  0  0  0  0  0  0  0
    0.9529    1.4506   -2.0511 O   0  0  0  0  0  0  0  0  0  0  0  0
    2.0641   -1.0409   -2.1075 C   0  0  0  0  0  0  0  0  0  0  0  0
    1.9044   -2.5447   -1.8976 C   0  0  0  0  0  0  0  0  0  0  0  0
    0.7499   -2.6270   -0.9105 C   0  0  0  0  0  0  0  0  0  0  0  0
    2.5189   -0.1855   -0.1340 H   0  0  0  0  0  0  0  0  0  0  0  0
    3.1169   -0.8245   -2.3246 H   0  0  0  0  0  0  0  0  0  0  0  0
    1.4574   -0.7057   -2.9543 H   0  0  0  0  0  0  0  0  0  0  0  0
    1.6386   -3.0353   -2.8411 H   0  0  0  0  0  0  0  0  0  0  0  0
    2.8187   -3.0078   -1.5160 H   0  0  0  0  0  0  0  0  0  0  0  0
   -0.2175   -2.7569   -1.4033 H   0  0  0  0  0  0  0  0  0  0  0  0
    0.8977   -3.4414   -0.1930 H   0  0  0  0  0  0  0  0  0  0  0  0
    0.1123    1.1469    0.2324 N   0  0  0  0  0  0  0  0  0  0  0  0
   -0.5003    2.4213    0.5316 C   0  0  2  0  0  0  0  0  0  0  0  0
   -0.9703    3.0367   -0.7798 C   0  0  0  0  0  0  0  0  0  0  0  0
   -0.4999    2.7273   -1.8726 O   0  0  0  0  0  0  0  0  0  0  0  0
    0.4700    3.3467    1.2493 C   0  0  0  0  0  0  0  0  0  0  0  0
   -0.2692    0.3128    0.6686 H   0  0  0  0  0  0  0  0  0  0  0  0
   -1.3664    2.2139    1.1695 H   0  0  0  0  0  0  0  0  0  0  0  0
    1.3443    3.5658    0.6256 H   0  0  0  0  0  0  0  0  0  0  0  0
   -0.0043    4.3011    1.5006 H   0  0  0  0  0  0  0  0  0  0  0  0
    0.8299    2.8899    2.1775 H   0  0  0  0  0  0  0  0  0  0  0  0
   -1.9467    4.0030   -0.5825 N   0  0  0  0  0  0  0  0  0  0  0  0
   -2.5444    4.7410   -1.6707 C   0  0  0  0  0  0  0  0  0  0  0  0
   -2.2908    4.1813    0.3564 H   0  0  0  0  0  0  0  0  0  0  0  0
   -1.9877    5.6763   -1.8296 H   0  0  0  0  0  0  0  0  0  0  0  0
   -2.5105    4.1340   -2.5875 H   0  0  0  0  0  0  0  0  0  0  0  0
   -3.5906    4.9746   -1.4241 H   0  0  0  0  0  0  0  0  0  0  0  0
 18 19  1  0  0  0  0
 19 31  1  0  0  0  0
 19 20  2  0  0  0  0
  8  9  1  0  0  0  0
  9 17  1  0  0  0  0
  9 10  2  0  0  0  0
  1  3  1  0  0  0  0
  1  7  1  0  0  0  0
  1  2  2  0  0  0  0
 32 33  1  0  0  0  0
 33 41  1  0  0  0  0
 33 34  2  0  0  0  0
 21 22  1  0  0  0  0
 22 23  1  0  0  0  0
 18 21  1  0  0  0  0
 17 23  1  0  0  0  0
 17 18  1  0  0  0  0
  8 11  1  0  0  0  0
 32 35  1  0  0  0  0
 41 42  1  0  0  0  0
  7  8  1  0  0  0  0
 31 32  1  0  0  0  0
 22 27  1  0  0  0  0
 22 28  1  0  0  0  0
 21 25  1  0  0  0  0
 21 26  1  0  0  0  0
 23 29  1  0  0  0  0
 23 30  1  0  0  0  0
 18 24  1  0  0  0  0
  3  4  1  0  0  0  0
  3  5  1  0  0  0  0
  3  6  1  0  0  0  0
 11 14  1  0  0  0  0
 11 15  1  0  0  0  0
 11 16  1  0  0  0  0
 35 38  1  0  0  0  0
 35 39  1  0  0  0  0
 35 40  1  0  0  0  0
 42 44  1  0  0  0  0
 42 45  1  0  0  0  0
 42 46  1  0  0  0  0
  8 13  1  0  0  0  0
 32 37  1  0  0  0  0
 31 36  1  0  0  0  0
 41 43  1  0  0  0  0
  7 12  1  0  0  0  0
M  END
$$$$

  -OEChem-05262214473D

 46 46  0     1  0  0  0  0  0999 V2000
   -0.6012   -3.2995    3.8205 C   0  0  0  0  0  0  0  0  0  0  0  0
   -0.6574   -4.4683    3.4568 O   0  0  0  0  0  0  0  0  0  0  0  0
   -0.4935   -2.9859    5.2760 C   0  0  0  0  0  0  0  0  0  0  0  0
   -1.4789   -2.8689    5.7550 H   0  0  0  0  0  0  0  0  0  0  0  0
    0.0123   -3.7847    5.8419 H   0  0  0  0  0  0  0  0  0  0  0  0
    0.0585   -2.0642    5.5199 H   0  0  0  0  0  0  0  0  0  0  0  0
   -0.6261   -2.1849    2.9917 N   0  0  0  0  0  0  0  0  0  0  0  0
   -0.7237   -2.2601    1.5650 C   0  0  2  0  0  0  0  0  0  0  0  0
    0.1695   -1.1513    1.0687 C   0  0  0  0  0  0  0  0  0  0  0  0
    0.3193   -0.1267    1.7365 O   0  0  0  0  0  0  0  0  0  0  0  0
   -2.1397   -2.0663    1.0750 C   0  0  0  0  0  0  0  0  0  0  0  0
   -0.5717   -1.2606    3.4238 H   0  0  0  0  0  0  0  0  0  0  0  0
   -0.3076   -3.2111    1.2363 H   0  0  0  0  0  0  0  0  0  0  0  0
   -2.5584   -1.1089    1.4061 H   0  0  0  0  0  0  0  0  0  0  0  0
   -2.1682   -2.0790   -0.0197 H   0  0  0  0  0  0  0  0  0  0  0  0
   -2.7965   -2.8601    1.4459 H   0  0  0  0  0  0  0  0  0  0  0  0
    0.7724   -1.3745   -0.1593 N   0  0  0  0  0  0  0  0  0  0  0  0
    1.6644   -0.4046   -0.7812 C   0  0  2  0  0  0  0  0  0  0  0  0
    0.8763    0.8546   -0.9831 C   0  0  0  0  0  0  0  0  0  0  0  0
    0.7281    1.2996   -2.1152 O   0  0  0  0  0  0  0  0  0  0  0  0
    2.0641   -1.0409   -2.1075 C   0  0  0  0  0  0  0  0  0  0  0  0
    1.9044   -2.5447   -1.8976 C   0  0  0  0  0  0  0  0  0  0  0  0
    0.7499   -2.6270   -0.9105 C   0  0  0  0  0  0  0  0  0  0  0  0
    2.5189   -0.1855   -0.1340 H   0  0  0  0  0  0  0  0  0  0  0  0
    3.1169   -0.8245   -2.3246 H   0  0  0  0  0  0  0  0  0  0  0  0
    1.4574   -0.7057   -2.9543 H   0  0  0  0  0  0  0  0  0  0  0  0
    1.6386   -3.0353   -2.8411 H   0  0  0  0  0  0  0  0  0  0  0  0
    2.8187   -3.0078   -1.5160 H   0  0  0  0  0  0  0  0  0  0  0  0
   -0.2175   -2.7569   -1.4033 H   0  0  0  0  0  0  0  0  0  0  0  0
    0.8977   -3.4414   -0.1930 H   0  0  0  0  0  0  0  0  0  0  0  0
    0.4041    1.3427    0.3151 N   0  0  0  0  0  0  0  0  0  0  0  0
   -0.1024    2.6745    0.5577 C   0  0  2  0  0  0  0  0  0  0  0  0
   -0.8369    3.1338   -0.6949 C   0  0  0  0  0  0  0  0  0  0  0  0
   -0.6243    2.6596   -1.8090 O   0  0  0  0  0  0  0  0  0  0  0  0
    1.0200    3.6371    0.9133 C   0  0  0  0  0  0  0  0  0  0  0  0
    0.1114    0.5938    0.9354 H   0  0  0  0  0  0  0  0  0  0  0  0
   -0.8110    2.5968    1.3895 H   0  0  0  0  0  0  0  0  0  0  0  0
    1.7401    3.7280    0.0919 H   0  0  0  0  0  0  0  0  0  0  0  0
    0.6316    4.6388    1.1247 H   0  0  0  0  0  0  0  0  0  0  0  0
    1.5661    3.2896    1.7970 H   0  0  0  0  0  0  0  0  0  0  0  0
   -1.7267    4.1653   -0.4295 N   0  0  0  0  0  0  0  0  0  0  0  0
   -2.5342    4.7818   -1.4560 C   0  0  0  0  0  0  0  0  0  0  0  0
   -1.8524    4.4830    0.5270 H   0  0  0  0  0  0  0  0  0  0  0  0
   -2.0076    5.6589   -1.8602 H   0  0  0  0  0  0  0  0  0  0  0  0
   -2.7147    4.0580   -2.2645 H   0  0  0  0  0  0  0  0  0  0  0  0
   -3.4958    5.0978   -1.0255 H   0  0  0  0  0  0  0  0  0  0  0  0
 18 19  1  0  0  0  0
 19 31  1  0  0  0  0
 19 20  2  0  0  0  0
  8  9  1  0  0  0  0
  9 17  1  0  0  0  0
  9 10  2  0  0  0  0
  1  3  1  0  0  0  0
  1  7  1  0  0  0  0
  1  2  2  0  0  0  0
 32 33  1  0  0  0  0
 33 41  1  0  0  0  0
 33 34  2  0  0  0  0
 21 22  1  0  0  0  0
 22 23  1  0  0  0  0
 18 21  1  0  0  0  0
 17 23  1  0  0  0  0
 17 18  1  0  0  0  0
  8 11  1  0  0  0  0
 32 35  1  0  0  0  0
 41 42  1  0  0  0  0
  7  8  1  0  0  0  0
 31 32  1  0  0  0  0
 22 27  1  0  0  0  0
 22 28  1  0  0  0  0
 21 25  1  0  0  0  0
 21 26  1  0  0  0  0
 23 29  1  0  0  0  0
 23 30  1  0  0  0  0
 18 24  1  0  0  0  0
  3  4  1  0  0  0  0
  3  5  1  0  0  0  0
  3  6  1  0  0  0  0
 11 14  1  0  0  0  0
 11 15  1  0  0  0  0
 11 16  1  0  0  0  0
 35 38  1  0  0  0  0
 35 39  1  0  0  0  0
 35 40  1  0  0  0  0
 42 44  1  0  0  0  0
 42 45  1  0  0  0  0
 42 46  1  0  0  0  0
  8 13  1  0  0  0  0
 32 37  1  0  0  0  0
 31 36  1  0  0  0  0
 41 43  1  0  0  0  0
  7 12  1  0  0  0  0
M  END
$$$$

  -OEChem-05262214473D

 46 46  0     1  0  0  0  0  0999 V2000
   -0.6012   -3.2995    3.8205 C   0  0  0  0  0  0  0  0  0  0  0  0
   -0.6574   -4.4683    3.4568 O   0  0  0  0  0  0  0  0  0  0  0  0
   -0.4935   -2.9859    5.2760 C   0  0  0  0  0  0  0  0  0  0  0  0
   -1.4789   -2.8689    5.7550 H   0  0  0  0  0  0  0  0  0  0  0  0
    0.0123   -3.7847    5.8419 H   0  0  0  0  0  0  0  0  0  0  0  0
    0.0585   -2.0642    5.5199 H   0  0  0  0  0  0  0  0  0  0  0  0
   -0.6261   -2.1849    2.9917 N   0  0  0  0  0  0  0  0  0  0  0  0
   -0.7237   -2.2601    1.5650 C   0  0  2  0  0  0  0  0  0  0  0  0
    0.1695   -1.1513    1.0687 C   0  0  0  0  0  0  0  0  0  0  0  0
    0.3193   -0.1267    1.7365 O   0  0  0  0  0  0  0  0  0  0  0  0
   -2.1397   -2.0663    1.0750 C   0  0  0  0  0  0  0  0  0  0  0  0
   -0.5717   -1.2606    3.4238 H   0  0  0  0  0  0  0  0  0  0  0  0
   -0.3076   -3.2111    1.2363 H   0  0  0  0  0  0  0  0  0  0  0  0
   -2.5584   -1.1089    1.4061 H   0  0  0  0  0  0  0  0  0  0  0  0
   -2.1682   -2.0790   -0.0197 H   0  0  0  0  0  0  0  0  0  0  0  0
   -2.7965   -2.8601    1.4459 H   0  0  0  0  0  0  0  0  0  0  0  0
    0.7724   -1.3745   -0.1593 N   0  0  0  0  0  0  0  0  0  0  0  0
    1.6644   -0.4046   -0.7812 C   0  0  2  0  0  0  0  0  0  0  0  0
    0.8763    0.8546   -0.9831 C   0  0  0  0  0  0  0  0  0  0  0  0
    0.4917    1.1529   -2.1077 O   0  0  0  0  0  0  0  0  0  0  0  0
    2.0641   -1.0409   -2.1075 C   0  0  0  0  0  0  0  0  0  0  0  0
    1.9044   -2.5447   -1.8976 C   0  0  0  0  0  0  0  0  0  0  0  0
    0.7499   -2.6270   -0.9105 C   0  0  0  0  0  0  0  0  0  0  0  0
    2.5189   -0.1855   -0.1340 H   0  0  0  0  0  0  0  0  0  0  0  0
    3.1169   -0.8245   -2.3246 H   0  0  0  0  0  0  0  0  0  0  0  0
    1.4574   -0.7057   -2.9543 H   0  0  0  0  0  0  0  0  0  0  0  0
    1.6386   -3.0353   -2.8411 H   0  0  0  0  0  0  0  0  0  0  0  0
    2.8187   -3.0078   -1.5160 H   0  0  0  0  0  0  0  0  0  0  0  0
   -0.2175   -2.7569   -1.4033 H   0  0  0  0  0  0  0  0  0  0  0  0
    0.8977   -3.4414   -0.1930 H   0  0  0  0  0  0  0  0  0  0  0  0
    0.7107    1.5330    0.3049 N   0  0  0  0  0  0  0  0  0  0  0  0
    0.2965    2.9088    0.4619 C   0  0  2  0  0  0  0  0  0  0  0  0
   -0.6862    3.2345   -0.6551 C   0  0  0  0  0  0  0  0  0  0  0  0
   -0.7331    2.6072   -1.7112 O   0  0  0  0  0  0  0  0  0  0  0  0
    1.4884    3.8527    0.4297 C   0  0  0  0  0  0  0  0  0  0  0  0
    0.5468    0.8882    1.0722 H   0  0  0  0  0  0  0  0  0  0  0  0
   -0.2134    2.9771    1.4291 H   0  0  0  0  0  0  0  0  0  0  0  0
    2.0119    3.7981   -0.5318 H   0  0  0  0  0  0  0  0  0  0  0  0
    1.1759    4.8917    0.5773 H   0  0  0  0  0  0  0  0  0  0  0  0
    2.2084    3.5983    1.2150 H   0  0  0  0  0  0  0  0  0  0  0  0
   -1.4752    4.3351   -0.3516 N   0  0  0  0  0  0  0  0  0  0  0  0
   -2.4763    4.8500   -1.2564 C   0  0  0  0  0  0  0  0  0  0  0  0
   -1.3813    4.7824    0.5555 H   0  0  0  0  0  0  0  0  0  0  0  0
   -2.0342    5.6386   -1.8830 H   0  0  0  0  0  0  0  0  0  0  0  0
   -2.8444    4.0356   -1.8978 H   0  0  0  0  0  0  0  0  0  0  0  0
   -3.3133    5.2678   -0.6777 H   0  0  0  0  0  0  0  0  0  0  0  0
 18 19  1  0  0  0  0
 19 31  1  0  0  0  0
 19 20  2  0  0  0  0
  8  9  1  0  0  0  0
  9 17  1  0  0  0  0
  9 10  2  0  0  0  0
  1  3  1  0  0  0  0
  1  7  1  0  0  0  0
  1  2  2  0  0  0  0
 32 33  1  0  0  0  0
 33 41  1  0  0  0  0
 33 34  2  0  0  0  0
 21 22  1  0  0  0  0
 22 23  1  0  0  0  0
 18 21  1  0  0  0  0
 17 23  1  0  0  0  0
 17 18  1  0  0  0  0
  8 11  1  0  0  0  0
 32 35  1  0  0  0  0
 41 42  1  0  0  0  0
  7  8  1  0  0  0  0
 31 32  1  0  0  0  0
 22 27  1  0  0  0  0
 22 28  1  0  0  0  0
 21 25  1  0  0  0  0
 21 26  1  0  0  0  0
 23 29  1  0  0  0  0
 23 30  1  0  0  0  0
 18 24  1  0  0  0  0
  3  4  1  0  0  0  0
  3  5  1  0  0  0  0
  3  6  1  0  0  0  0
 11 14  1  0  0  0  0
 11 15  1  0  0  0  0
 11 16  1  0  0  0  0
 35 38  1  0  0  0  0
 35 39  1  0  0  0  0
 35 40  1  0  0  0  0
 42 44  1  0  0  0  0
 42 45  1  0  0  0  0
 42 46  1  0  0  0  0
  8 13  1  0  0  0  0
 32 37  1  0  0  0  0
 31 36  1  0  0  0  0
 41 43  1  0  0  0  0
  7 12  1  0  0  0  0
M  END
$$$$

  -OEChem-05262214473D

 46 46  0     1  0  0  0  0  0999 V2000
   -0.6012   -3.2995    3.8205 C   0  0  0  0  0  0  0  0  0  0  0  0
   -0.6574   -4.4683    3.4568 O   0  0  0  0  0  0  0  0  0  0  0  0
   -0.4935   -2.9859    5.2760 C   0  0  0  0  0  0  0  0  0  0  0  0
   -1.4789   -2.8689    5.7550 H   0  0  0  0  0  0  0  0  0  0  0  0
    0.0123   -3.7847    5.8419 H   0  0  0  0  0  0  0  0  0  0  0  0
    0.0585   -2.0642    5.5199 H   0  0  0  0  0  0  0  0  0  0  0  0
   -0.6261   -2.1849    2.9917 N   0  0  0  0  0  0  0  0  0  0  0  0
   -0.7237   -2.2601    1.5650 C   0  0  2  0  0  0  0  0  0  0  0  0
    0.1695   -1.1513    1.0687 C   0  0  0  0  0  0  0  0  0  0  0  0
    0.3193   -0.1267    1.7365 O   0  0  0  0  0  0  0  0  0  0  0  0
   -2.1397   -2.0663    1.0750 C   0  0  0  0  0  0  0  0  0  0  0  0
   -0.5717   -1.2606    3.4238 H   0  0  0  0  0  0  0  0  0  0  0  0
   -0.3076   -3.2111    1.2363 H   0  0  0  0  0  0  0  0  0  0  0  0
   -2.5584   -1.1089    1.4061 H   0  0  0  0  0  0  0  0  0  0  0  0
   -2.1682   -2.0790   -0.0197 H   0  0  0  0  0  0  0  0  0  0  0  0
   -2.7965   -2.8601    1.4459 H   0  0  0  0  0  0  0  0  0  0  0  0
    0.7724   -1.3745   -0.1593 N   0  0  0  0  0  0  0  0  0  0  0  0
    1.6644   -0.4046   -0.7812 C   0  0  2  0  0  0  0  0  0  0  0  0
    0.8763    0.8546   -0.9831 C   0  0  0  0  0  0  0  0  0  0  0  0
    0.2599    1.0204   -2.0291 O   0  0  0  0  0  0  0  0  0  0  0  0
    2.0641   -1.0409   -2.1075 C   0  0  0  0  0  0  0  0  0  0  0  0
    1.9044   -2.5447   -1.8976 C   0  0  0  0  0  0  0  0  0  0  0  0
    0.7499   -2.6270   -0.9105 C   0  0  0  0  0  0  0  0  0  0  0  0
    2.5189   -0.1855   -0.1340 H   0  0  0  0  0  0  0  0  0  0  0  0
    3.1169   -0.8245   -2.3246 H   0  0  0  0  0  0  0  0  0  0  0  0
    1.4574   -0.7057   -2.9543 H   0  0  0  0  0  0  0  0  0  0  0  0
    1.6386   -3.0353   -2.8411 H   0  0  0  0  0  0  0  0  0  0  0  0
    2.8187   -3.0078   -1.5160 H   0  0  0  0  0  0  0  0  0  0  0  0
   -0.2175   -2.7569   -1.4033 H   0  0  0  0  0  0  0  0  0  0  0  0
    0.8977   -3.4414   -0.1930 H   0  0  0  0  0  0  0  0  0  0  0  0
    1.0114    1.7047    0.2025 N   0  0  0  0  0  0  0  0  0  0  0  0
    0.6691    3.1081    0.2508 C   0  0  2  0  0  0  0  0  0  0  0  0
   -0.5284    3.3319   -0.6631 C   0  0  0  0  0  0  0  0  0  0  0  0
   -0.8188    2.5736   -1.5861 O   0  0  0  0  0  0  0  0  0  0  0  0
    1.8433    3.9788   -0.1686 C   0  0  0  0  0  0  0  0  0  0  0  0
    1.0073    1.1760    1.0695 H   0  0  0  0  0  0  0  0  0  0  0  0
    0.3858    3.3291    1.2857 H   0  0  0  0  0  0  0  0  0  0  0  0
    2.1414    3.7716   -1.2029 H   0  0  0  0  0  0  0  0  0  0  0  0
    1.5914    5.0425   -0.1041 H   0  0  0  0  0  0  0  0  0  0  0  0
    2.7131    3.7949    0.4712 H   0  0  0  0  0  0  0  0  0  0  0  0
   -1.2095    4.5010   -0.3541 N   0  0  0  0  0  0  0  0  0  0  0  0
   -2.3746    4.9411   -1.0855 C   0  0  0  0  0  0  0  0  0  0  0  0
   -0.9096    5.0590    0.4399 H   0  0  0  0  0  0  0  0  0  0  0  0
   -2.0654    5.6169   -1.8965 H   0  0  0  0  0  0  0  0  0  0  0  0
   -2.8907    4.0684   -1.5123 H   0  0  0  0  0  0  0  0  0  0  0  0
   -3.0555    5.4729   -0.4047 H   0  0  0  0  0  0  0  0  0  0  0  0
 18 19  1  0  0  0  0
 19 31  1  0  0  0  0
 19 20  2  0  0  0  0
  8  9  1  0  0  0  0
  9 17  1  0  0  0  0
  9 10  2  0  0  0  0
  1  3  1  0  0  0  0
  1  7  1  0  0  0  0
  1  2  2  0  0  0  0
 32 33  1  0  0  0  0
 33 41  1  0  0  0  0
 33 34  2  0  0  0  0
 21 22  1  0  0  0  0
 22 23  1  0  0  0  0
 18 21  1  0  0  0  0
 17 23  1  0  0  0  0
 17 18  1  0  0  0  0
  8 11  1  0  0  0  0
 32 35  1  0  0  0  0
 41 42  1  0  0  0  0
  7  8  1  0  0  0  0
 31 32  1  0  0  0  0
 22 27  1  0  0  0  0
 22 28  1  0  0  0  0
 21 25  1  0  0  0  0
 21 26  1  0  0  0  0
 23 29  1  0  0  0  0
 23 30  1  0  0  0  0
 18 24  1  0  0  0  0
  3  4  1  0  0  0  0
  3  5  1  0  0  0  0
  3  6  1  0  0  0  0
 11 14  1  0  0  0  0
 11 15  1  0  0  0  0
 11 16  1  0  0  0  0
 35 38  1  0  0  0  0
 35 39  1  0  0  0  0
 35 40  1  0  0  0  0
 42 44  1  0  0  0  0
 42 45  1  0  0  0  0
 42 46  1  0  0  0  0
  8 13  1  0  0  0  0
 32 37  1  0  0  0  0
 31 36  1  0  0  0  0
 41 43  1  0  0  0  0
  7 12  1  0  0  0  0
M  END
$$$$

  -OEChem-05262214473D

 46 46  0     1  0  0  0  0  0999 V2000
   -0.6012   -3.2995    3.8205 C   0  0  0  0  0  0  0  0  0  0  0  0
   -0.6574   -4.4683    3.4568 O   0  0  0  0  0  0  0  0  0  0  0  0
   -0.4935   -2.9859    5.2760 C   0  0  0  0  0  0  0  0  0  0  0  0
   -1.4789   -2.8689    5.7550 H   0  0  0  0  0  0  0  0  0  0  0  0
    0.0123   -3.7847    5.8419 H   0  0  0  0  0  0  0  0  0  0  0  0
    0.0585   -2.0642    5.5199 H   0  0  0  0  0  0  0  0  0  0  0  0
   -0.6261   -2.1849    2.9917 N   0  0  0  0  0  0  0  0  0  0  0  0
   -0.7237   -2.2601    1.5650 C   0  0  2  0  0  0  0  0  0  0  0  0
    0.1695   -1.1513    1.0687 C   0  0  0  0  0  0  0  0  0  0  0  0
    0.3193   -0.1267    1.7365 O   0  0  0  0  0  0  0  0  0  0  0  0
   -2.1397   -2.0663    1.0750 C   0  0  0  0  0  0  0  0  0  0  0  0
   -0.5717   -1.2606    3.4238 H   0  0  0  0  0  0  0  0  0  0  0  0
   -0.3076   -3.2111    1.2363 H   0  0  0  0  0  0  0  0  0  0  0  0
   -2.5584   -1.1089    1.4061 H   0  0  0  0  0  0  0  0  0  0  0  0
   -2.1682   -2.0790   -0.0197 H   0  0  0  0  0  0  0  0  0  0  0  0
   -2.7965   -2.8601    1.4459 H   0  0  0  0  0  0  0  0  0  0  0  0
    0.7724   -1.3745   -0.1593 N   0  0  0  0  0  0  0  0  0  0  0  0
    1.6644   -0.4046   -0.7812 C   0  0  2  0  0  0  0  0  0  0  0  0
    0.8763    0.8546   -0.9831 C   0  0  0  0  0  0  0  0  0  0  0  0
    0.0484    0.9112   -1.8848 O   0  0  0  0  0  0  0  0  0  0  0  0
    2.0641   -1.0409   -2.1075 C   0  0  0  0  0  0  0  0  0  0  0  0
    1.9044   -2.5447   -1.8976 C   0  0  0  0  0  0  0  0  0  0  0  0
    0.7499   -2.6270   -0.9105 C   0  0  0  0  0  0  0  0  0  0  0  0
    2.5189   -0.1855   -0.1340 H   0  0  0  0  0  0  0  0  0  0  0  0
    3.1169   -0.8245   -2.3246 H   0  0  0  0  0  0  0  0  0  0  0  0
    1.4574   -0.7057   -2.9543 H   0  0  0  0  0  0  0  0  0  0  0  0
    1.6386   -3.0353   -2.8411 H   0  0  0  0  0  0  0  0  0  0  0  0
    2.8187   -3.0078   -1.5160 H   0  0  0  0  0  0  0  0  0  0  0  0
   -0.2175   -2.7569   -1.4033 H   0  0  0  0  0  0  0  0  0  0  0  0
    0.8977   -3.4414   -0.1930 H   0  0  0  0  0  0  0  0  0  0  0  0
    1.2855    1.8462    0.0148 N   0  0  0  0  0  0  0  0  0  0  0  0
    0.9901    3.2590   -0.0612 C   0  0  2  0  0  0  0  0  0  0  0  0
   -0.3744    3.4194   -0.7184 C   0  0  0  0  0  0  0  0  0  0  0  0
   -0.8755    2.5613   -1.4420 O   0  0  0  0  0  0  0  0  0  0  0  0
    2.0603    4.0069   -0.8409 C   0  0  0  0  0  0  0  0  0  0  0  0
    1.4616    1.4376    0.9277 H   0  0  0  0  0  0  0  0  0  0  0  0
    0.9456    3.6287    0.9691 H   0  0  0  0  0  0  0  0  0  0  0  0
    2.1197    3.6502   -1.8756 H   0  0  0  0  0  0  0  0  0  0  0  0
    1.8499    5.0810   -0.8732 H   0  0  0  0  0  0  0  0  0  0  0  0
    3.0457    3.8660   -0.3837 H   0  0  0  0  0  0  0  0  0  0  0  0
   -0.9476    4.6516   -0.4369 N   0  0  0  0  0  0  0  0  0  0  0  0
   -2.2360    5.0487   -0.9549 C   0  0  0  0  0  0  0  0  0  0  0  0
   -0.4696    5.2941    0.1880 H   0  0  0  0  0  0  0  0  0  0  0  0
   -2.0994    5.5951   -1.8997 H   0  0  0  0  0  0  0  0  0  0  0  0
   -2.8505    4.1542   -1.1344 H   0  0  0  0  0  0  0  0  0  0  0  0
   -2.7399    5.6992   -0.2249 H   0  0  0  0  0  0  0  0  0  0  0  0
 18 19  1  0  0  0  0
 19 31  1  0  0  0  0
 19 20  2  0  0  0  0
  8  9  1  0  0  0  0
  9 17  1  0  0  0  0
  9 10  2  0  0  0  0
  1  3  1  0  0  0  0
  1  7  1  0  0  0  0
  1  2  2  0  0  0  0
 32 33  1  0  0  0  0
 33 41  1  0  0  0  0
 33 34  2  0  0  0  0
 21 22  1  0  0  0  0
 22 23  1  0  0  0  0
 18 21  1  0  0  0  0
 17 23  1  0  0  0  0
 17 18  1  0  0  0  0
  8 11  1  0  0  0  0
 32 35  1  0  0  0  0
 41 42  1  0  0  0  0
  7  8  1  0  0  0  0
 31 32  1  0  0  0  0
 22 27  1  0  0  0  0
 22 28  1  0  0  0  0
 21 25  1  0  0  0  0
 21 26  1  0  0  0  0
 23 29  1  0  0  0  0
 23 30  1  0  0  0  0
 18 24  1  0  0  0  0
  3  4  1  0  0  0  0
  3  5  1  0  0  0  0
  3  6  1  0  0  0  0
 11 14  1  0  0  0  0
 11 15  1  0  0  0  0
 11 16  1  0  0  0  0
 35 38  1  0  0  0  0
 35 39  1  0  0  0  0
 35 40  1  0  0  0  0
 42 44  1  0  0  0  0
 42 45  1  0  0  0  0
 42 46  1  0  0  0  0
  8 13  1  0  0  0  0
 32 37  1  0  0  0  0
 31 36  1  0  0  0  0
 41 43  1  0  0  0  0
  7 12  1  0  0  0  0
M  END
$$$$

  -OEChem-05262214473D

 46 46  0     1  0  0  0  0  0999 V2000
   -0.6012   -3.2995    3.8205 C   0  0  0  0  0  0  0  0  0  0  0  0
   -0.6574   -4.4683    3.4568 O   0  0  0  0  0  0  0  0  0  0  0  0
   -0.4935   -2.9859    5.2760 C   0  0  0  0  0  0  0  0  0  0  0  0
   -1.4789   -2.8689    5.7550 H   0  0  0  0  0  0  0  0  0  0  0  0
    0.0123   -3.7847    5.8419 H   0  0  0  0  0  0  0  0  0  0  0  0
    0.0585   -2.0642    5.5199 H   0  0  0  0  0  0  0  0  0  0  0  0
   -0.6261   -2.1849    2.9917 N   0  0  0  0  0  0  0  0  0  0  0  0
   -0.7237   -2.2601    1.5650 C   0  0  2  0  0  0  0  0  0  0  0  0
    0.1695   -1.1513    1.0687 C   0  0  0  0  0  0  0  0  0  0  0  0
    0.3193   -0.1267    1.7365 O   0  0  0  0  0  0  0  0  0  0  0  0
   -2.1397   -2.0663    1.0750 C   0  0  0  0  0  0  0  0  0  0  0  0
   -0.5717   -1.2606    3.4238 H   0  0  0  0  0  0  0  0  0  0  0  0
   -0.3076   -3.2111    1.2363 H   0  0  0  0  0  0  0  0  0  0  0  0
   -2.5584   -1.1089    1.4061 H   0  0  0  0  0  0  0  0  0  0  0  0
   -2.1682   -2.0790   -0.0197 H   0  0  0  0  0  0  0  0  0  0  0  0
   -2.7965   -2.8601    1.4459 H   0  0  0  0  0  0  0  0  0  0  0  0
    0.7724   -1.3745   -0.1593 N   0  0  0  0  0  0  0  0  0  0  0  0
    1.6644   -0.4046   -0.7812 C   0  0  2  0  0  0  0  0  0  0  0  0
    0.8763    0.8546   -0.9831 C   0  0  0  0  0  0  0  0  0  0  0  0
   -0.1282    0.8327   -1.6846 O   0  0  0  0  0  0  0  0  0  0  0  0
    2.0641   -1.0409   -2.1075 C   0  0  0  0  0  0  0  0  0  0  0  0
    1.9044   -2.5447   -1.8976 C   0  0  0  0  0  0  0  0  0  0  0  0
    0.7499   -2.6270   -0.9105 C   0  0  0  0  0  0  0  0  0  0  0  0
    2.5189   -0.1855   -0.1340 H   0  0  0  0  0  0  0  0  0  0  0  0
    3.1169   -0.8245   -2.3246 H   0  0  0  0  0  0  0  0  0  0  0  0
    1.4574   -0.7057   -2.9543 H   0  0  0  0  0  0  0  0  0  0  0  0
    1.6386   -3.0353   -2.8411 H   0  0  0  0  0  0  0  0  0  0  0  0
    2.8187   -3.0078   -1.5160 H   0  0  0  0  0  0  0  0  0  0  0  0
   -0.2175   -2.7569   -1.4033 H   0  0  0  0  0  0  0  0  0  0  0  0
    0.8977   -3.4414   -0.1930 H   0  0  0  0  0  0  0  0  0  0  0  0
    1.5144    1.9478   -0.2452 N   0  0  0  0  0  0  0  0  0  0  0  0
    1.2375    3.3511   -0.4529 C   0  0  2  0  0  0  0  0  0  0  0  0
   -0.2346    3.4911   -0.8173 C   0  0  0  0  0  0  0  0  0  0  0  0
   -0.8994    2.5709   -1.2888 O   0  0  0  0  0  0  0  0  0  0  0  0
    2.1248    3.9350   -1.5412 C   0  0  0  0  0  0  0  0  0  0  0  0
    1.8788    1.6551    0.6564 H   0  0  0  0  0  0  0  0  0  0  0  0
    1.4279    3.8555    0.5007 H   0  0  0  0  0  0  0  0  0  0  0  0
    1.9482    3.4421   -2.5042 H   0  0  0  0  0  0  0  0  0  0  0  0
    1.9338    5.0046   -1.6775 H   0  0  0  0  0  0  0  0  0  0  0  0
    3.1836    3.8068   -1.2914 H   0  0  0  0  0  0  0  0  0  0  0  0
   -0.7074    4.7767   -0.5943 N   0  0  0  0  0  0  0  0  0  0  0  0
   -2.0700    5.1657   -0.8735 C   0  0  0  0  0  0  0  0  0  0  0  0
   -0.0910    5.4715   -0.1830 H   0  0  0  0  0  0  0  0  0  0  0  0
   -2.1336    5.5749   -1.8926 H   0  0  0  0  0  0  0  0  0  0  0  0
   -2.7265    4.2870   -0.7898 H   0  0  0  0  0  0  0  0  0  0  0  0
   -2.3882    5.9313   -0.1506 H   0  0  0  0  0  0  0  0  0  0  0  0
 18 19  1  0  0  0  0
 19 31  1  0  0  0  0
 19 20  2  0  0  0  0
  8  9  1  0  0  0  0
  9 17  1  0  0  0  0
  9 10  2  0  0  0  0
  1  3  1  0  0  0  0
  1  7  1  0  0  0  0
  1  2  2  0  0  0  0
 32 33  1  0  0  0  0
 33 41  1  0  0  0  0
 33 34  2  0  0  0  0
 21 22  1  0  0  0  0
 22 23  1  0  0  0  0
 18 21  1  0  0  0  0
 17 23  1  0  0  0  0
 17 18  1  0  0  0  0
  8 11  1  0  0  0  0
 32 35  1  0  0  0  0
 41 42  1  0  0  0  0
  7  8  1  0  0  0  0
 31 32  1  0  0  0  0
 22 27  1  0  0  0  0
 22 28  1  0  0  0  0
 21 25  1  0  0  0  0
 21 26  1  0  0  0  0
 23 29  1  0  0  0  0
 23 30  1  0  0  0  0
 18 24  1  0  0  0  0
  3  4  1  0  0  0  0
  3  5  1  0  0  0  0
  3  6  1  0  0  0  0
 11 14  1  0  0  0  0
 11 15  1  0  0  0  0
 11 16  1  0  0  0  0
 35 38  1  0  0  0  0
 35 39  1  0  0  0  0
 35 40  1  0  0  0  0
 42 44  1  0  0  0  0
 42 45  1  0  0  0  0
 42 46  1  0  0  0  0
  8 13  1  0  0  0  0
 32 37  1  0  0  0  0
 31 36  1  0  0  0  0
 41 43  1  0  0  0  0
  7 12  1  0  0  0  0
M  END
$$$$

  -OEChem-05262214473D

 46 46  0     1  0  0  0  0  0999 V2000
   -0.6012   -3.2995    3.8205 C   0  0  0  0  0  0  0  0  0  0  0  0
   -0.6574   -4.4683    3.4568 O   0  0  0  0  0  0  0  0  0  0  0  0
   -0.4935   -2.9859    5.2760 C   0  0  0  0  0  0  0  0  0  0  0  0
   -1.4789   -2.8689    5.7550 H   0  0  0  0  0  0  0  0  0  0  0  0
    0.0123   -3.7847    5.8419 H   0  0  0  0  0  0  0  0  0  0  0  0
    0.0585   -2.0642    5.5199 H   0  0  0  0  0  0  0  0  0  0  0  0
   -0.6261   -2.1849    2.9917 N   0  0  0  0  0  0  0  0  0  0  0  0
   -0.7237   -2.2601    1.5650 C   0  0  2  0  0  0  0  0  0  0  0  0
    0.1695   -1.1513    1.0687 C   0  0  0  0  0  0  0  0  0  0  0  0
    0.3193   -0.1267    1.7365 O   0  0  0  0  0  0  0  0  0  0  0  0
   -2.1397   -2.0663    1.0750 C   0  0  0  0  0  0  0  0  0  0  0  0
   -0.5717   -1.2606    3.4238 H   0  0  0  0  0  0  0  0  0  0  0  0
   -0.3076   -3.2111    1.2363 H   0  0  0  0  0  0  0  0  0  0  0  0
   -2.5584   -1.1089    1.4061 H   0  0  0  0  0  0  0  0  0  0  0  0
   -2.1682   -2.0790   -0.0197 H   0  0  0  0  0  0  0  0  0  0  0  0
   -2.7965   -2.8601    1.4459 H   0  0  0  0  0  0  0  0  0  0  0  0
    0.7724   -1.3745   -0.1593 N   0  0  0  0  0  0  0  0  0  0  0  0
    1.6644   -0.4046   -0.7812 C   0  0  2  0  0  0  0  0  0  0  0  0
    0.8763    0.8546   -0.9831 C   0  0  0  0  0  0  0  0  0  0  0  0
   -0.2581    0.7903   -1.4421 O   0  0  0  0  0  0  0  0  0  0  0  0
    2.0641   -1.0409   -2.1075 C   0  0  0  0  0  0  0  0  0  0  0  0
    1.9044   -2.5447   -1.8976 C   0  0  0  0  0  0  0  0  0  0  0  0
    0.7499   -2.6270   -0.9105 C   0  0  0  0  0  0  0  0  0  0  0  0
    2.5189   -0.1855   -0.1340 H   0  0  0  0  0  0  0  0  0  0  0  0
    3.1169   -0.8245   -2.3246 H   0  0  0  0  0  0  0  0  0  0  0  0
    1.4574   -0.7057   -2.9543 H   0  0  0  0  0  0  0  0  0  0  0  0
    1.6386   -3.0353   -2.8411 H   0  0  0  0  0  0  0  0  0  0  0  0
    2.8187   -3.0078   -1.5160 H   0  0  0  0  0  0  0  0  0  0  0  0
   -0.2175   -2.7569   -1.4033 H   0  0  0  0  0  0  0  0  0  0  0  0
    0.8977   -3.4414   -0.1930 H   0  0  0  0  0  0  0  0  0  0  0  0
    1.6825    2.0025   -0.5601 N   0  0  0  0  0  0  0  0  0  0  0  0
    1.3946    3.3781   -0.8975 C   0  0  2  0  0  0  0  0  0  0  0  0
   -0.1185    3.5420   -0.9528 C   0  0  0  0  0  0  0  0  0  0  0  0
   -0.8888    2.6018   -1.1369 O   0  0  0  0  0  0  0  0  0  0  0  0
    2.0323    3.7680   -2.2219 C   0  0  0  0  0  0  0  0  0  0  0  0
    2.2303    1.8138    0.2740 H   0  0  0  0  0  0  0  0  0  0  0  0
    1.7999    3.9940   -0.0873 H   0  0  0  0  0  0  0  0  0  0  0  0
    1.6387    3.1615   -3.0457 H   0  0  0  0  0  0  0  0  0  0  0  0
    1.8373    4.8184   -2.4622 H   0  0  0  0  0  0  0  0  0  0  0  0
    3.1174    3.6213   -2.1902 H   0  0  0  0  0  0  0  0  0  0  0  0
   -0.5052    4.8678   -0.8155 N   0  0  0  0  0  0  0  0  0  0  0  0
   -1.8879    5.2839   -0.8469 C   0  0  0  0  0  0  0  0  0  0  0  0
    0.2001    5.5792   -0.6477 H   0  0  0  0  0  0  0  0  0  0  0  0
   -2.1658    5.5575   -1.8755 H   0  0  0  0  0  0  0  0  0  0  0  0
   -2.5272    4.4579   -0.5019 H   0  0  0  0  0  0  0  0  0  0  0  0
   -2.0241    6.1533   -0.1869 H   0  0  0  0  0  0  0  0  0  0  0  0
 18 19  1  0  0  0  0
 19 31  1  0  0  0  0
 19 20  2  0  0  0  0
  8  9  1  0  0  0  0
  9 17  1  0  0  0  0
  9 10  2  0  0  0  0
  1  3  1  0  0  0  0
  1  7  1  0  0  0  0
  1  2  2  0  0  0  0
 32 33  1  0  0  0  0
 33 41  1  0  0  0  0
 33 34  2  0  0  0  0
 21 22  1  0  0  0  0
 22 23  1  0  0  0  0
 18 21  1  0  0  0  0
 17 23  1  0  0  0  0
 17 18  1  0  0  0  0
  8 11  1  0  0  0  0
 32 35  1  0  0  0  0
 41 42  1  0  0  0  0
  7  8  1  0  0  0  0
 31 32  1  0  0  0  0
 22 27  1  0  0  0  0
 22 28  1  0  0  0  0
 21 25  1  0  0  0  0
 21 26  1  0  0  0  0
 23 29  1  0  0  0  0
 23 30  1  0  0  0  0
 18 24  1  0  0  0  0
  3  4  1  0  0  0  0
  3  5  1  0  0  0  0
  3  6  1  0  0  0  0
 11 14  1  0  0  0  0
 11 15  1  0  0  0  0
 11 16  1  0  0  0  0
 35 38  1  0  0  0  0
 35 39  1  0  0  0  0
 35 40  1  0  0  0  0
 42 44  1  0  0  0  0
 42 45  1  0  0  0  0
 42 46  1  0  0  0  0
  8 13  1  0  0  0  0
 32 37  1  0  0  0  0
 31 36  1  0  0  0  0
 41 43  1  0  0  0  0
  7 12  1  0  0  0  0
M  END
$$$$

  -OEChem-05262214473D

 46 46  0     1  0  0  0  0  0999 V2000
   -0.6012   -3.2995    3.8205 C   0  0  0  0  0  0  0  0  0  0  0  0
   -0.6574   -4.4683    3.4568 O   0  0  0  0  0  0  0  0  0  0  0  0
   -0.4935   -2.9859    5.2760 C   0  0  0  0  0  0  0  0  0  0  0  0
   -1.4789   -2.8689    5.7550 H   0  0  0  0  0  0  0  0  0  0  0  0
    0.0123   -3.7847    5.8419 H   0  0  0  0  0  0  0  0  0  0  0  0
    0.0585   -2.0642    5.5199 H   0  0  0  0  0  0  0  0  0  0  0  0
   -0.6261   -2.1849    2.9917 N   0  0  0  0  0  0  0  0  0  0  0  0
   -0.7237   -2.2601    1.5650 C   0  0  2  0  0  0  0  0  0  0  0  0
    0.1695   -1.1513    1.0687 C   0  0  0  0  0  0  0  0  0  0  0  0
    0.3193   -0.1267    1.7365 O   0  0  0  0  0  0  0  0  0  0  0  0
   -2.1397   -2.0663    1.0750 C   0  0  0  0  0  0  0  0  0  0  0  0
   -0.5717   -1.2606    3.4238 H   0  0  0  0  0  0  0  0  0  0  0  0
   -0.3076   -3.2111    1.2363 H   0  0  0  0  0  0  0  0  0  0  0  0
   -2.5584   -1.1089    1.4061 H   0  0  0  0  0  0  0  0  0  0  0  0
   -2.1682   -2.0790   -0.0197 H   0  0  0  0  0  0  0  0  0  0  0  0
   -2.7965   -2.8601    1.4459 H   0  0  0  0  0  0  0  0  0  0  0  0
    0.7724   -1.3745   -0.1593 N   0  0  0  0  0  0  0  0  0  0  0  0
    1.6644   -0.4046   -0.7812 C   0  0  2  0  0  0  0  0  0  0  0  0
    0.8763    0.8546   -0.9831 C   0  0  0  0  0  0  0  0  0  0  0  0
   -0.3323    0.7869   -1.1738 O   0  0  0  0  0  0  0  0  0  0  0  0
    2.0641   -1.0409   -2.1075 C   0  0  0  0  0  0  0  0  0  0  0  0
    1.9044   -2.5447   -1.8976 C   0  0  0  0  0  0  0  0  0  0  0  0
    0.7499   -2.6270   -0.9105 C   0  0  0  0  0  0  0  0  0  0  0  0
    2.5189   -0.1855   -0.1340 H   0  0  0  0  0  0  0  0  0  0  0  0
    3.1169   -0.8245   -2.3246 H   0  0  0  0  0  0  0  0  0  0  0  0
    1.4574   -0.7057   -2.9543 H   0  0  0  0  0  0  0  0  0  0  0  0
    1.6386   -3.0353   -2.8411 H   0  0  0  0  0  0  0  0  0  0  0  0
    2.8187   -3.0078   -1.5160 H   0  0  0  0  0  0  0  0  0  0  0  0
   -0.2175   -2.7569   -1.4033 H   0  0  0  0  0  0  0  0  0  0  0  0
    0.8977   -3.4414   -0.1930 H   0  0  0  0  0  0  0  0  0  0  0  0
    1.7783    2.0067   -0.9081 N   0  0  0  0  0  0  0  0  0  0  0  0
    1.4506    3.3382   -1.3649 C   0  0  2  0  0  0  0  0  0  0  0  0
   -0.0341    3.5687   -1.1160 C   0  0  0  0  0  0  0  0  0  0  0  0
   -0.8445    2.6520   -0.9968 O   0  0  0  0  0  0  0  0  0  0  0  0
    1.7892    3.5173   -2.8366 C   0  0  0  0  0  0  0  0  0  0  0  0
    2.4922    1.9028   -0.1933 H   0  0  0  0  0  0  0  0  0  0  0  0
    2.0362    4.0348   -0.7551 H   0  0  0  0  0  0  0  0  0  0  0  0
    1.2122    2.8277   -3.4634 H   0  0  0  0  0  0  0  0  0  0  0  0
    1.5669    4.5351   -3.1739 H   0  0  0  0  0  0  0  0  0  0  0  0
    2.8516    3.3221   -3.0187 H   0  0  0  0  0  0  0  0  0  0  0  0
   -0.3548    4.9186   -1.0856 N   0  0  0  0  0  0  0  0  0  0  0  0
   -1.7021    5.3954   -0.8769 C   0  0  0  0  0  0  0  0  0  0  0  0
    0.3841    5.6099   -1.1746 H   0  0  0  0  0  0  0  0  0  0  0  0
   -2.1938    5.5441   -1.8496 H   0  0  0  0  0  0  0  0  0  0  0  0
   -2.2661    4.6551   -0.2904 H   0  0  0  0  0  0  0  0  0  0  0  0
   -1.6727    6.3501   -0.3313 H   0  0  0  0  0  0  0  0  0  0  0  0
 18 19  1  0  0  0  0
 19 31  1  0  0  0  0
 19 20  2  0  0  0  0
  8  9  1  0  0  0  0
  9 17  1  0  0  0  0
  9 10  2  0  0  0  0
  1  3  1  0  0  0  0
  1  7  1  0  0  0  0
  1  2  2  0  0  0  0
 32 33  1  0  0  0  0
 33 41  1  0  0  0  0
 33 34  2  0  0  0  0
 21 22  1  0  0  0  0
 22 23  1  0  0  0  0
 18 21  1  0  0  0  0
 17 23  1  0  0  0  0
 17 18  1  0  0  0  0
  8 11  1  0  0  0  0
 32 35  1  0  0  0  0
 41 42  1  0  0  0  0
  7  8  1  0  0  0  0
 31 32  1  0  0  0  0
 22 27  1  0  0  0  0
 22 28  1  0  0  0  0
 21 25  1  0  0  0  0
 21 26  1  0  0  0  0
 23 29  1  0  0  0  0
 23 30  1  0  0  0  0
 18 24  1  0  0  0  0
  3  4  1  0  0  0  0
  3  5  1  0  0  0  0
  3  6  1  0  0  0  0
 11 14  1  0  0  0  0
 11 15  1  0  0  0  0
 11 16  1  0  0  0  0
 35 38  1  0  0  0  0
 35 39  1  0  0  0  0
 35 40  1  0  0  0  0
 42 44  1  0  0  0  0
 42 45  1  0  0  0  0
 42 46  1  0  0  0  0
  8 13  1  0  0  0  0
 32 37  1  0  0  0  0
 31 36  1  0  0  0  0
 41 43  1  0  0  0  0
  7 12  1  0  0  0  0
M  END
$$$$

  -OEChem-05262214473D

 46 46  0     1  0  0  0  0  0999 V2000
   -0.6012   -3.2995    3.8205 C   0  0  0  0  0  0  0  0  0  0  0  0
   -0.6574   -4.4683    3.4568 O   0  0  0  0  0  0  0  0  0  0  0  0
   -0.4935   -2.9859    5.2760 C   0  0  0  0  0  0  0  0  0  0  0  0
   -1.4789   -2.8689    5.7550 H   0  0  0  0  0  0  0  0  0  0  0  0
    0.0123   -3.7847    5.8419 H   0  0  0  0  0  0  0  0  0  0  0  0
    0.0585   -2.0642    5.5199 H   0  0  0  0  0  0  0  0  0  0  0  0
   -0.6261   -2.1849    2.9917 N   0  0  0  0  0  0  0  0  0  0  0  0
   -0.7237   -2.2601    1.5650 C   0  0  2  0  0  0  0  0  0  0  0  0
    0.1695   -1.1513    1.0687 C   0  0  0  0  0  0  0  0  0  0  0  0
    0.3193   -0.1267    1.7365 O   0  0  0  0  0  0  0  0  0  0  0  0
   -2.1397   -2.0663    1.0750 C   0  0  0  0  0  0  0  0  0  0  0  0
   -0.5717   -1.2606    3.4238 H   0  0  0  0  0  0  0  0  0  0  0  0
   -0.3076   -3.2111    1.2363 H   0  0  0  0  0  0  0  0  0  0  0  0
   -2.5584   -1.1089    1.4061 H   0  0  0  0  0  0  0  0  0  0  0  0
   -2.1682   -2.0790   -0.0197 H   0  0  0  0  0  0  0  0  0  0  0  0
   -2.7965   -2.8601    1.4459 H   0  0  0  0  0  0  0  0  0  0  0  0
    0.7724   -1.3745   -0.1593 N   0  0  0  0  0  0  0  0  0  0  0  0
    1.6644   -0.4046   -0.7812 C   0  0  2  0  0  0  0  0  0  0  0  0
    0.8763    0.8546   -0.9831 C   0  0  0  0  0  0  0  0  0  0  0  0
   -0.3457    0.8227   -0.8982 O   0  0  0  0  0  0  0  0  0  0  0  0
    2.0641   -1.0409   -2.1075 C   0  0  0  0  0  0  0  0  0  0  0  0
    1.9044   -2.5447   -1.8976 C   0  0  0  0  0  0  0  0  0  0  0  0
    0.7499   -2.6270   -0.9105 C   0  0  0  0  0  0  0  0  0  0  0  0
    2.5189   -0.1855   -0.1340 H   0  0  0  0  0  0  0  0  0  0  0  0
    3.1169   -0.8245   -2.3246 H   0  0  0  0  0  0  0  0  0  0  0  0
    1.4574   -0.7057   -2.9543 H   0  0  0  0  0  0  0  0  0  0  0  0
    1.6386   -3.0353   -2.8411 H   0  0  0  0  0  0  0  0  0  0  0  0
    2.8187   -3.0078   -1.5160 H   0  0  0  0  0  0  0  0  0  0  0  0
   -0.2175   -2.7569   -1.4033 H   0  0  0  0  0  0  0  0  0  0  0  0
    0.8977   -3.4414   -0.1930 H   0  0  0  0  0  0  0  0  0  0  0  0
    1.7954    1.9600   -1.2657 N   0  0  0  0  0  0  0  0  0  0  0  0
    1.4017    3.2342   -1.8231 C   0  0  2  0  0  0  0  0  0  0  0  0
    0.0129    3.5693   -1.2955 C   0  0  0  0  0  0  0  0  0  0  0  0
   -0.7694    2.7181   -0.8778 O   0  0  0  0  0  0  0  0  0  0  0  0
    1.4120    3.2000   -3.3434 C   0  0  0  0  0  0  0  0  0  0  0  0
    2.6467    1.9161   -0.7138 H   0  0  0  0  0  0  0  0  0  0  0  0
    2.1207    3.9752   -1.4570 H   0  0  0  0  0  0  0  0  0  0  0  0
    0.6978    2.4632   -3.7287 H   0  0  0  0  0  0  0  0  0  0  0  0
    1.1412    4.1741   -3.7640 H   0  0  0  0  0  0  0  0  0  0  0  0
    2.4043    2.9297   -3.7204 H   0  0  0  0  0  0  0  0  0  0  0  0
   -0.2665    4.9257   -1.3861 N   0  0  0  0  0  0  0  0  0  0  0  0
   -1.5253    5.4925   -0.9614 C   0  0  0  0  0  0  0  0  0  0  0  0
    0.4483    5.5614   -1.7276 H   0  0  0  0  0  0  0  0  0  0  0  0
   -2.2157    5.5357   -1.8166 H   0  0  0  0  0  0  0  0  0  0  0  0
   -1.9611    4.8654   -0.1697 H   0  0  0  0  0  0  0  0  0  0  0  0
   -1.3577    6.5083   -0.5740 H   0  0  0  0  0  0  0  0  0  0  0  0
 18 19  1  0  0  0  0
 19 31  1  0  0  0  0
 19 20  2  0  0  0  0
  8  9  1  0  0  0  0
  9 17  1  0  0  0  0
  9 10  2  0  0  0  0
  1  3  1  0  0  0  0
  1  7  1  0  0  0  0
  1  2  2  0  0  0  0
 32 33  1  0  0  0  0
 33 41  1  0  0  0  0
 33 34  2  0  0  0  0
 21 22  1  0  0  0  0
 22 23  1  0  0  0  0
 18 21  1  0  0  0  0
 17 23  1  0  0  0  0
 17 18  1  0  0  0  0
  8 11  1  0  0  0  0
 32 35  1  0  0  0  0
 41 42  1  0  0  0  0
  7  8  1  0  0  0  0
 31 32  1  0  0  0  0
 22 27  1  0  0  0  0
 22 28  1  0  0  0  0
 21 25  1  0  0  0  0
 21 26  1  0  0  0  0
 23 29  1  0  0  0  0
 23 30  1  0  0  0  0
 18 24  1  0  0  0  0
  3  4  1  0  0  0  0
  3  5  1  0  0  0  0
  3  6  1  0  0  0  0
 11 14  1  0  0  0  0
 11 15  1  0  0  0  0
 11 16  1  0  0  0  0
 35 38  1  0  0  0  0
 35 39  1  0  0  0  0
 35 40  1  0  0  0  0
 42 44  1  0  0  0  0
 42 45  1  0  0  0  0
 42 46  1  0  0  0  0
  8 13  1  0  0  0  0
 32 37  1  0  0  0  0
 31 36  1  0  0  0  0
 41 43  1  0  0  0  0
  7 12  1  0  0  0  0
M  END
$$$$

  -OEChem-05262214473D

 46 46  0     1  0  0  0  0  0999 V2000
   -0.6012   -3.2995    3.8205 C   0  0  0  0  0  0  0  0  0  0  0  0
   -0.6574   -4.4683    3.4568 O   0  0  0  0  0  0  0  0  0  0  0  0
   -0.4935   -2.9859    5.2760 C   0  0  0  0  0  0  0  0  0  0  0  0
   -1.4789   -2.8689    5.7550 H   0  0  0  0  0  0  0  0  0  0  0  0
    0.0123   -3.7847    5.8419 H   0  0  0  0  0  0  0  0  0  0  0  0
    0.0585   -2.0642    5.5199 H   0  0  0  0  0  0  0  0  0  0  0  0
   -0.6261   -2.1849    2.9917 N   0  0  0  0  0  0  0  0  0  0  0  0
   -0.7237   -2.2601    1.5650 C   0  0  2  0  0  0  0  0  0  0  0  0
    0.1695   -1.1513    1.0687 C   0  0  0  0  0  0  0  0  0  0  0  0
    0.3193   -0.1267    1.7365 O   0  0  0  0  0  0  0  0  0  0  0  0
   -2.1397   -2.0663    1.0750 C   0  0  0  0  0  0  0  0  0  0  0  0
   -0.5717   -1.2606    3.4238 H   0  0  0  0  0  0  0  0  0  0  0  0
   -0.3076   -3.2111    1.2363 H   0  0  0  0  0  0  0  0  0  0  0  0
   -2.5584   -1.1089    1.4061 H   0  0  0  0  0  0  0  0  0  0  0  0
   -2.1682   -2.0790   -0.0197 H   0  0  0  0  0  0  0  0  0  0  0  0
   -2.7965   -2.8601    1.4459 H   0  0  0  0  0  0  0  0  0  0  0  0
    0.7724   -1.3745   -0.1593 N   0  0  0  0  0  0  0  0  0  0  0  0
    1.6644   -0.4046   -0.7812 C   0  0  2  0  0  0  0  0  0  0  0  0
    1.0167    0.9407   -0.6474 C   0  0  0  0  0  0  0  0  0  0  0  0
   -0.0700    1.0352   -0.0891 O   0  0  0  0  0  0  0  0  0  0  0  0
    1.7598   -0.8444   -2.2376 C   0  0  0  0  0  0  0  0  0  0  0  0
    1.4509   -2.3396   -2.2296 C   0  0  0  0  0  0  0  0  0  0  0  0
    0.7499   -2.6270   -0.9105 C   0  0  0  0  0  0  0  0  0  0  0  0
    2.6337   -0.3810   -0.2742 H   0  0  0  0  0  0  0  0  0  0  0  0
    2.7817   -0.6973   -2.6072 H   0  0  0  0  0  0  0  0  0  0  0  0
    1.0693   -0.3146   -2.9010 H   0  0  0  0  0  0  0  0  0  0  0  0
    0.7727   -2.5933   -3.0525 H   0  0  0  0  0  0  0  0  0  0  0  0
    2.3540   -2.9484   -2.3295 H   0  0  0  0  0  0  0  0  0  0  0  0
   -0.2797   -2.9691   -1.0463 H   0  0  0  0  0  0  0  0  0  0  0  0
    1.2989   -3.3703   -0.3224 H   0  0  0  0  0  0  0  0  0  0  0  0
    1.8157    1.9661   -1.2287 N   0  0  0  0  0  0  0  0  0  0  0  0
    1.4417    3.2491   -1.7793 C   0  0  2  0  0  0  0  0  0  0  0  0
    0.0391    3.5811   -1.2875 C   0  0  0  0  0  0  0  0  0  0  0  0
   -0.7573    2.7266   -0.9045 O   0  0  0  0  0  0  0  0  0  0  0  0
    1.4959    3.2360   -3.2991 C   0  0  0  0  0  0  0  0  0  0  0  0
    2.6506    1.9119   -0.6531 H   0  0  0  0  0  0  0  0  0  0  0  0
    2.1518    3.9827   -1.3823 H   0  0  0  0  0  0  0  0  0  0  0  0
    0.7911    2.5068   -3.7150 H   0  0  0  0  0  0  0  0  0  0  0  0
    1.2400    4.2166   -3.7137 H   0  0  0  0  0  0  0  0  0  0  0  0
    2.4979    2.9679   -3.6510 H   0  0  0  0  0  0  0  0  0  0  0  0
   -0.2340    4.9395   -1.3672 N   0  0  0  0  0  0  0  0  0  0  0  0
   -1.5029    5.5042   -0.9711 C   0  0  0  0  0  0  0  0  0  0  0  0
    0.4921    5.5777   -1.6790 H   0  0  0  0  0  0  0  0  0  0  0  0
   -2.1682    5.5614   -1.8453 H   0  0  0  0  0  0  0  0  0  0  0  0
   -1.9632    4.8675   -0.2012 H   0  0  0  0  0  0  0  0  0  0  0  0
   -1.3439    6.5140   -0.5649 H   0  0  0  0  0  0  0  0  0  0  0  0
 18 19  1  0  0  0  0
 19 31  1  0  0  0  0
 19 20  2  0  0  0  0
  8  9  1  0  0  0  0
  9 17  1  0  0  0  0
  9 10  2  0  0  0  0
  1  3  1  0  0  0  0
  1  7  1  0  0  0  0
  1  2  2  0  0  0  0
 32 33  1  0  0  0  0
 33 41  1  0  0  0  0
 33 34  2  0  0  0  0
 21 22  1  0  0  0  0
 22 23  1  0  0  0  0
 18 21  1  0  0  0  0
 17 23  1  0  0  0  0
 17 18  1  0  0  0  0
  8 11  1  0  0  0  0
 32 35  1  0  0  0  0
 41 42  1  0  0  0  0
  7  8  1  0  0  0  0
 31 32  1  0  0  0  0
 22 27  1  0  0  0  0
 22 28  1  0  0  0  0
 21 25  1  0  0  0  0
 21 26  1  0  0  0  0
 23 29  1  0  0  0  0
 23 30  1  0  0  0  0
 18 24  1  0  0  0  0
  3  4  1  0  0  0  0
  3  5  1  0  0  0  0
  3  6  1  0  0  0  0
 11 14  1  0  0  0  0
 11 15  1  0  0  0  0
 11 16  1  0  0  0  0
 35 38  1  0  0  0  0
 35 39  1  0  0  0  0
 35 40  1  0  0  0  0
 42 44  1  0  0  0  0
 42 45  1  0  0  0  0
 42 46  1  0  0  0  0
  8 13  1  0  0  0  0
 32 37  1  0  0  0  0
 31 36  1  0  0  0  0
 41 43  1  0  0  0  0
  7 12  1  0  0  0  0
M  END
$$$$

  -OEChem-05262214473D

 46 46  0     1  0  0  0  0  0999 V2000
   -0.6012   -3.2995    3.8205 C   0  0  0  0  0  0  0  0  0  0  0  0
   -0.6574   -4.4683    3.4568 O   0  0  0  0  0  0  0  0  0  0  0  0
   -0.4935   -2.9859    5.2760 C   0  0  0  0  0  0  0  0  0  0  0  0
   -1.4789   -2.8689    5.7550 H   0  0  0  0  0  0  0  0  0  0  0  0
    0.0123   -3.7847    5.8419 H   0  0  0  0  0  0  0  0  0  0  0  0
    0.0585   -2.0642    5.5199 H   0  0  0  0  0  0  0  0  0  0  0  0
   -0.6261   -2.1849    2.9917 N   0  0  0  0  0  0  0  0  0  0  0  0
   -0.7237   -2.2601    1.5650 C   0  0  2  0  0  0  0  0  0  0  0  0
    0.1695   -1.1513    1.0687 C   0  0  0  0  0  0  0  0  0  0  0  0
    0.3193   -0.1267    1.7365 O   0  0  0  0  0  0  0  0  0  0  0  0
   -2.1397   -2.0663    1.0750 C   0  0  0  0  0  0  0  0  0  0  0  0
   -0.5717   -1.2606    3.4238 H   0  0  0  0  0  0  0  0  0  0  0  0
   -0.3076   -3.2111    1.2363 H   0  0  0  0  0  0  0  0  0  0  0  0
   -2.5584   -1.1089    1.4061 H   0  0  0  0  0  0  0  0  0  0  0  0
   -2.1682   -2.0790   -0.0197 H   0  0  0  0  0  0  0  0  0  0  0  0
   -2.7965   -2.8601    1.4459 H   0  0  0  0  0  0  0  0  0  0  0  0
    0.7724   -1.3745   -0.1593 N   0  0  0  0  0  0  0  0  0  0  0  0
    1.6644   -0.4046   -0.7812 C   0  0  2  0  0  0  0  0  0  0  0  0
    1.0167    0.9407   -0.6474 C   0  0  0  0  0  0  0  0  0  0  0  0
    0.0856    1.0878    0.1356 O   0  0  0  0  0  0  0  0  0  0  0  0
    1.7598   -0.8444   -2.2376 C   0  0  0  0  0  0  0  0  0  0  0  0
    1.4509   -2.3396   -2.2296 C   0  0  0  0  0  0  0  0  0  0  0  0
    0.7499   -2.6270   -0.9105 C   0  0  0  0  0  0  0  0  0  0  0  0
    2.6337   -0.3810   -0.2742 H   0  0  0  0  0  0  0  0  0  0  0  0
    2.7817   -0.6973   -2.6072 H   0  0  0  0  0  0  0  0  0  0  0  0
    1.0693   -0.3146   -2.9010 H   0  0  0  0  0  0  0  0  0  0  0  0
    0.7727   -2.5933   -3.0525 H   0  0  0  0  0  0  0  0  0  0  0  0
    2.3540   -2.9484   -2.3295 H   0  0  0  0  0  0  0  0  0  0  0  0
   -0.2797   -2.9691   -1.0463 H   0  0  0  0  0  0  0  0  0  0  0  0
    1.2989   -3.3703   -0.3224 H   0  0  0  0  0  0  0  0  0  0  0  0
    1.6220    1.9006   -1.5075 N   0  0  0  0  0  0  0  0  0  0  0  0
    1.0846    3.1083   -2.0921 C   0  0  2  0  0  0  0  0  0  0  0  0
   -0.1776    3.4806   -1.3255 C   0  0  0  0  0  0  0  0  0  0  0  0
   -0.8324    2.6677   -0.6762 O   0  0  0  0  0  0  0  0  0  0  0  0
    0.7868    2.9218   -3.5717 C   0  0  0  0  0  0  0  0  0  0  0  0
    2.5687    1.9210   -1.1405 H   0  0  0  0  0  0  0  0  0  0  0  0
    1.8400    3.8896   -1.9545 H   0  0  0  0  0  0  0  0  0  0  0  0
    0.0320    2.1428   -3.7295 H   0  0  0  0  0  0  0  0  0  0  0  0
    0.4066    3.8459   -4.0195 H   0  0  0  0  0  0  0  0  0  0  0  0
    1.6895    2.6250   -4.1166 H   0  0  0  0  0  0  0  0  0  0  0  0
   -0.5108    4.8182   -1.4869 N   0  0  0  0  0  0  0  0  0  0  0  0
   -1.6736    5.4119   -0.8694 C   0  0  0  0  0  0  0  0  0  0  0  0
    0.1000    5.4236   -2.0274 H   0  0  0  0  0  0  0  0  0  0  0  0
   -2.5245    5.3620   -1.5648 H   0  0  0  0  0  0  0  0  0  0  0  0
   -1.9202    4.8631    0.0514 H   0  0  0  0  0  0  0  0  0  0  0  0
   -1.4619    6.4631   -0.6242 H   0  0  0  0  0  0  0  0  0  0  0  0
 18 19  1  0  0  0  0
 19 31  1  0  0  0  0
 19 20  2  0  0  0  0
  8  9  1  0  0  0  0
  9 17  1  0  0  0  0
  9 10  2  0  0  0  0
  1  3  1  0  0  0  0
  1  7  1  0  0  0  0
  1  2  2  0  0  0  0
 32 33  1  0  0  0  0
 33 41  1  0  0  0  0
 33 34  2  0  0  0  0
 21 22  1  0  0  0  0
 22 23  1  0  0  0  0
 18 21  1  0  0  0  0
 17 23  1  0  0  0  0
 17 18  1  0  0  0  0
  8 11  1  0  0  0  0
 32 35  1  0  0  0  0
 41 42  1  0  0  0  0
  7  8  1  0  0  0  0
 31 32  1  0  0  0  0
 22 27  1  0  0  0  0
 22 28  1  0  0  0  0
 21 25  1  0  0  0  0
 21 26  1  0  0  0  0
 23 29  1  0  0  0  0
 23 30  1  0  0  0  0
 18 24  1  0  0  0  0
  3  4  1  0  0  0  0
  3  5  1  0  0  0  0
  3  6  1  0  0  0  0
 11 14  1  0  0  0  0
 11 15  1  0  0  0  0
 11 16  1  0  0  0  0
 35 38  1  0  0  0  0
 35 39  1  0  0  0  0
 35 40  1  0  0  0  0
 42 44  1  0  0  0  0
 42 45  1  0  0  0  0
 42 46  1  0  0  0  0
  8 13  1  0  0  0  0
 32 37  1  0  0  0  0
 31 36  1  0  0  0  0
 41 43  1  0  0  0  0
  7 12  1  0  0  0  0
M  END
$$$$

  -OEChem-05262214473D

 46 46  0     1  0  0  0  0  0999 V2000
   -0.6012   -3.2995    3.8205 C   0  0  0  0  0  0  0  0  0  0  0  0
   -0.6574   -4.4683    3.4568 O   0  0  0  0  0  0  0  0  0  0  0  0
   -0.4935   -2.9859    5.2760 C   0  0  0  0  0  0  0  0  0  0  0  0
   -1.4789   -2.8689    5.7550 H   0  0  0  0  0  0  0  0  0  0  0  0
    0.0123   -3.7847    5.8419 H   0  0  0  0  0  0  0  0  0  0  0  0
    0.0585   -2.0642    5.5199 H   0  0  0  0  0  0  0  0  0  0  0  0
   -0.6261   -2.1849    2.9917 N   0  0  0  0  0  0  0  0  0  0  0  0
   -0.7237   -2.2601    1.5650 C   0  0  2  0  0  0  0  0  0  0  0  0
    0.1695   -1.1513    1.0687 C   0  0  0  0  0  0  0  0  0  0  0  0
    0.3193   -0.1267    1.7365 O   0  0  0  0  0  0  0  0  0  0  0  0
   -2.1397   -2.0663    1.0750 C   0  0  0  0  0  0  0  0  0  0  0  0
   -0.5717   -1.2606    3.4238 H   0  0  0  0  0  0  0  0  0  0  0  0
   -0.3076   -3.2111    1.2363 H   0  0  0  0  0  0  0  0  0  0  0  0
   -2.5584   -1.1089    1.4061 H   0  0  0  0  0  0  0  0  0  0  0  0
   -2.1682   -2.0790   -0.0197 H   0  0  0  0  0  0  0  0  0  0  0  0
   -2.7965   -2.8601    1.4459 H   0  0  0  0  0  0  0  0  0  0  0  0
    0.7724   -1.3745   -0.1593 N   0  0  0  0  0  0  0  0  0  0  0  0
    1.6644   -0.4046   -0.7812 C   0  0  2  0  0  0  0  0  0  0  0  0
    1.0167    0.9407   -0.6474 C   0  0  0  0  0  0  0  0  0  0  0  0
    0.2869    1.1673    0.3106 O   0  0  0  0  0  0  0  0  0  0  0  0
    1.7598   -0.8444   -2.2376 C   0  0  0  0  0  0  0  0  0  0  0  0
    1.4509   -2.3396   -2.2296 C   0  0  0  0  0  0  0  0  0  0  0  0
    0.7499   -2.6270   -0.9105 C   0  0  0  0  0  0  0  0  0  0  0  0
    2.6337   -0.3810   -0.2742 H   0  0  0  0  0  0  0  0  0  0  0  0
    2.7817   -0.6973   -2.6072 H   0  0  0  0  0  0  0  0  0  0  0  0
    1.0693   -0.3146   -2.9010 H   0  0  0  0  0  0  0  0  0  0  0  0
    0.7727   -2.5933   -3.0525 H   0  0  0  0  0  0  0  0  0  0  0  0
    2.3540   -2.9484   -2.3295 H   0  0  0  0  0  0  0  0  0  0  0  0
   -0.2797   -2.9691   -1.0463 H   0  0  0  0  0  0  0  0  0  0  0  0
    1.2989   -3.3703   -0.3224 H   0  0  0  0  0  0  0  0  0  0  0  0
    1.3717    1.8017   -1.7246 N   0  0  0  0  0  0  0  0  0  0  0  0
    0.6703    2.9291   -2.2956 C   0  0  2  0  0  0  0  0  0  0  0  0
   -0.3934    3.3743   -1.3007 C   0  0  0  0  0  0  0  0  0  0  0  0
   -0.8505    2.6346   -0.4317 O   0  0  0  0  0  0  0  0  0  0  0  0
    0.0458    2.5714   -3.6353 C   0  0  0  0  0  0  0  0  0  0  0  0
    2.3762    1.8734   -1.5932 H   0  0  0  0  0  0  0  0  0  0  0  0
    1.4082    3.7285   -2.4243 H   0  0  0  0  0  0  0  0  0  0  0  0
   -0.6963    1.7720   -3.5264 H   0  0  0  0  0  0  0  0  0  0  0  0
   -0.4608    3.4343   -4.0799 H   0  0  0  0  0  0  0  0  0  0  0  0
    0.8084    2.2231   -4.3402 H   0  0  0  0  0  0  0  0  0  0  0  0
   -0.8032    4.6812   -1.5246 N   0  0  0  0  0  0  0  0  0  0  0  0
   -1.8128    5.3302   -0.7212 C   0  0  0  0  0  0  0  0  0  0  0  0
   -0.3562    5.2267   -2.2556 H   0  0  0  0  0  0  0  0  0  0  0  0
   -2.7988    5.1925   -1.1889 H   0  0  0  0  0  0  0  0  0  0  0  0
   -1.8199    4.8880    0.2860 H   0  0  0  0  0  0  0  0  0  0  0  0
   -1.5884    6.4046   -0.6484 H   0  0  0  0  0  0  0  0  0  0  0  0
 18 19  1  0  0  0  0
 19 31  1  0  0  0  0
 19 20  2  0  0  0  0
  8  9  1  0  0  0  0
  9 17  1  0  0  0  0
  9 10  2  0  0  0  0
  1  3  1  0  0  0  0
  1  7  1  0  0  0  0
  1  2  2  0  0  0  0
 32 33  1  0  0  0  0
 33 41  1  0  0  0  0
 33 34  2  0  0  0  0
 21 22  1  0  0  0  0
 22 23  1  0  0  0  0
 18 21  1  0  0  0  0
 17 23  1  0  0  0  0
 17 18  1  0  0  0  0
  8 11  1  0  0  0  0
 32 35  1  0  0  0  0
 41 42  1  0  0  0  0
  7  8  1  0  0  0  0
 31 32  1  0  0  0  0
 22 27  1  0  0  0  0
 22 28  1  0  0  0  0
 21 25  1  0  0  0  0
 21 26  1  0  0  0  0
 23 29  1  0  0  0  0
 23 30  1  0  0  0  0
 18 24  1  0  0  0  0
  3  4  1  0  0  0  0
  3  5  1  0  0  0  0
  3  6  1  0  0  0  0
 11 14  1  0  0  0  0
 11 15  1  0  0  0  0
 11 16  1  0  0  0  0
 35 38  1  0  0  0  0
 35 39  1  0  0  0  0
 35 40  1  0  0  0  0
 42 44  1  0  0  0  0
 42 45  1  0  0  0  0
 42 46  1  0  0  0  0
  8 13  1  0  0  0  0
 32 37  1  0  0  0  0
 31 36  1  0  0  0  0
 41 43  1  0  0  0  0
  7 12  1  0  0  0  0
M  END
$$$$

  -OEChem-05262214473D

 46 46  0     1  0  0  0  0  0999 V2000
   -0.6012   -3.2995    3.8205 C   0  0  0  0  0  0  0  0  0  0  0  0
   -0.6574   -4.4683    3.4568 O   0  0  0  0  0  0  0  0  0  0  0  0
   -0.4935   -2.9859    5.2760 C   0  0  0  0  0  0  0  0  0  0  0  0
   -1.4789   -2.8689    5.7550 H   0  0  0  0  0  0  0  0  0  0  0  0
    0.0123   -3.7847    5.8419 H   0  0  0  0  0  0  0  0  0  0  0  0
    0.0585   -2.0642    5.5199 H   0  0  0  0  0  0  0  0  0  0  0  0
   -0.6261   -2.1849    2.9917 N   0  0  0  0  0  0  0  0  0  0  0  0
   -0.7237   -2.2601    1.5650 C   0  0  2  0  0  0  0  0  0  0  0  0
    0.1695   -1.1513    1.0687 C   0  0  0  0  0  0  0  0  0  0  0  0
    0.3193   -0.1267    1.7365 O   0  0  0  0  0  0  0  0  0  0  0  0
   -2.1397   -2.0663    1.0750 C   0  0  0  0  0  0  0  0  0  0  0  0
   -0.5717   -1.2606    3.4238 H   0  0  0  0  0  0  0  0  0  0  0  0
   -0.3076   -3.2111    1.2363 H   0  0  0  0  0  0  0  0  0  0  0  0
   -2.5584   -1.1089    1.4061 H   0  0  0  0  0  0  0  0  0  0  0  0
   -2.1682   -2.0790   -0.0197 H   0  0  0  0  0  0  0  0  0  0  0  0
   -2.7965   -2.8601    1.4459 H   0  0  0  0  0  0  0  0  0  0  0  0
    0.7724   -1.3745   -0.1593 N   0  0  0  0  0  0  0  0  0  0  0  0
    1.6644   -0.4046   -0.7812 C   0  0  2  0  0  0  0  0  0  0  0  0
    1.0167    0.9407   -0.6474 C   0  0  0  0  0  0  0  0  0  0  0  0
    0.5201    1.2683    0.4240 O   0  0  0  0  0  0  0  0  0  0  0  0
    1.7598   -0.8444   -2.2376 C   0  0  0  0  0  0  0  0  0  0  0  0
    1.4509   -2.3396   -2.2296 C   0  0  0  0  0  0  0  0  0  0  0  0
    0.7499   -2.6270   -0.9105 C   0  0  0  0  0  0  0  0  0  0  0  0
    2.6337   -0.3810   -0.2742 H   0  0  0  0  0  0  0  0  0  0  0  0
    2.7817   -0.6973   -2.6072 H   0  0  0  0  0  0  0  0  0  0  0  0
    1.0693   -0.3146   -2.9010 H   0  0  0  0  0  0  0  0  0  0  0  0
    0.7727   -2.5933   -3.0525 H   0  0  0  0  0  0  0  0  0  0  0  0
    2.3540   -2.9484   -2.3295 H   0  0  0  0  0  0  0  0  0  0  0  0
   -0.2797   -2.9691   -1.0463 H   0  0  0  0  0  0  0  0  0  0  0  0
    1.2989   -3.3703   -0.3224 H   0  0  0  0  0  0  0  0  0  0  0  0
    1.0818    1.6762   -1.8650 N   0  0  0  0  0  0  0  0  0  0  0  0
    0.2270    2.7237   -2.3759 C   0  0  2  0  0  0  0  0  0  0  0  0
   -0.5936    3.2693   -1.2146 C   0  0  0  0  0  0  0  0  0  0  0  0
   -0.8105    2.6296   -0.1876 O   0  0  0  0  0  0  0  0  0  0  0  0
   -0.6766    2.2087   -3.4853 C   0  0  0  0  0  0  0  0  0  0  0  0
    2.0862    1.7723   -1.9806 H   0  0  0  0  0  0  0  0  0  0  0  0
    0.8857    3.5103   -2.7597 H   0  0  0  0  0  0  0  0  0  0  0  0
   -1.3439    1.4198   -3.1196 H   0  0  0  0  0  0  0  0  0  0  0  0
   -1.3032    3.0100   -3.8907 H   0  0  0  0  0  0  0  0  0  0  0  0
   -0.0853    1.7896   -4.3066 H   0  0  0  0  0  0  0  0  0  0  0  0
   -1.0912    4.5379   -1.4779 N   0  0  0  0  0  0  0  0  0  0  0  0
   -1.9108    5.2646   -0.5366 C   0  0  0  0  0  0  0  0  0  0  0  0
   -0.8452    5.0005   -2.3481 H   0  0  0  0  0  0  0  0  0  0  0  0
   -2.9726    5.0645   -0.7431 H   0  0  0  0  0  0  0  0  0  0  0  0
   -1.6691    4.9407    0.4864 H   0  0  0  0  0  0  0  0  0  0  0  0
   -1.7150    6.3425   -0.6358 H   0  0  0  0  0  0  0  0  0  0  0  0
 18 19  1  0  0  0  0
 19 31  1  0  0  0  0
 19 20  2  0  0  0  0
  8  9  1  0  0  0  0
  9 17  1  0  0  0  0
  9 10  2  0  0  0  0
  1  3  1  0  0  0  0
  1  7  1  0  0  0  0
  1  2  2  0  0  0  0
 32 33  1  0  0  0  0
 33 41  1  0  0  0  0
 33 34  2  0  0  0  0
 21 22  1  0  0  0  0
 22 23  1  0  0  0  0
 18 21  1  0  0  0  0
 17 23  1  0  0  0  0
 17 18  1  0  0  0  0
  8 11  1  0  0  0  0
 32 35  1  0  0  0  0
 41 42  1  0  0  0  0
  7  8  1  0  0  0  0
 31 32  1  0  0  0  0
 22 27  1  0  0  0  0
 22 28  1  0  0  0  0
 21 25  1  0  0  0  0
 21 26  1  0  0  0  0
 23 29  1  0  0  0  0
 23 30  1  0  0  0  0
 18 24  1  0  0  0  0
  3  4  1  0  0  0  0
  3  5  1  0  0  0  0
  3  6  1  0  0  0  0
 11 14  1  0  0  0  0
 11 15  1  0  0  0  0
 11 16  1  0  0  0  0
 35 38  1  0  0  0  0
 35 39  1  0  0  0  0
 35 40  1  0  0  0  0
 42 44  1  0  0  0  0
 42 45  1  0  0  0  0
 42 46  1  0  0  0  0
  8 13  1  0  0  0  0
 32 37  1  0  0  0  0
 31 36  1  0  0  0  0
 41 43  1  0  0  0  0
  7 12  1  0  0  0  0
M  END
$$$$

  -OEChem-05262214473D

 46 46  0     1  0  0  0  0  0999 V2000
   -0.6012   -3.2995    3.8205 C   0  0  0  0  0  0  0  0  0  0  0  0
   -0.6574   -4.4683    3.4568 O   0  0  0  0  0  0  0  0  0  0  0  0
   -0.4935   -2.9859    5.2760 C   0  0  0  0  0  0  0  0  0  0  0  0
   -1.4789   -2.8689    5.7550 H   0  0  0  0  0  0  0  0  0  0  0  0
    0.0123   -3.7847    5.8419 H   0  0  0  0  0  0  0  0  0  0  0  0
    0.0585   -2.0642    5.5199 H   0  0  0  0  0  0  0  0  0  0  0  0
   -0.6261   -2.1849    2.9917 N   0  0  0  0  0  0  0  0  0  0  0  0
   -0.7237   -2.2601    1.5650 C   0  0  2  0  0  0  0  0  0  0  0  0
    0.1695   -1.1513    1.0687 C   0  0  0  0  0  0  0  0  0  0  0  0
    0.3193   -0.1267    1.7365 O   0  0  0  0  0  0  0  0  0  0  0  0
   -2.1397   -2.0663    1.0750 C   0  0  0  0  0  0  0  0  0  0  0  0
   -0.5717   -1.2606    3.4238 H   0  0  0  0  0  0  0  0  0  0  0  0
   -0.3076   -3.2111    1.2363 H   0  0  0  0  0  0  0  0  0  0  0  0
   -2.5584   -1.1089    1.4061 H   0  0  0  0  0  0  0  0  0  0  0  0
   -2.1682   -2.0790   -0.0197 H   0  0  0  0  0  0  0  0  0  0  0  0
   -2.7965   -2.8601    1.4459 H   0  0  0  0  0  0  0  0  0  0  0  0
    0.7724   -1.3745   -0.1593 N   0  0  0  0  0  0  0  0  0  0  0  0
    1.6644   -0.4046   -0.7812 C   0  0  2  0  0  0  0  0  0  0  0  0
    1.0167    0.9407   -0.6474 C   0  0  0  0  0  0  0  0  0  0  0  0
    0.7694    1.3839    0.4680 O   0  0  0  0  0  0  0  0  0  0  0  0
    1.7598   -0.8444   -2.2376 C   0  0  0  0  0  0  0  0  0  0  0  0
    1.4509   -2.3396   -2.2296 C   0  0  0  0  0  0  0  0  0  0  0  0
    0.7499   -2.6270   -0.9105 C   0  0  0  0  0  0  0  0  0  0  0  0
    2.6337   -0.3810   -0.2742 H   0  0  0  0  0  0  0  0  0  0  0  0
    2.7817   -0.6973   -2.6072 H   0  0  0  0  0  0  0  0  0  0  0  0
    1.0693   -0.3146   -2.9010 H   0  0  0  0  0  0  0  0  0  0  0  0
    0.7727   -2.5933   -3.0525 H   0  0  0  0  0  0  0  0  0  0  0  0
    2.3540   -2.9484   -2.3295 H   0  0  0  0  0  0  0  0  0  0  0  0
   -0.2797   -2.9691   -1.0463 H   0  0  0  0  0  0  0  0  0  0  0  0
    1.2989   -3.3703   -0.3224 H   0  0  0  0  0  0  0  0  0  0  0  0
    0.7721    1.5325   -1.9192 N   0  0  0  0  0  0  0  0  0  0  0  0
   -0.2151    2.5061   -2.3275 C   0  0  2  0  0  0  0  0  0  0  0  0
   -0.7645    3.1730   -1.0733 C   0  0  0  0  0  0  0  0  0  0  0  0
   -0.7150    2.6530    0.0394 O   0  0  0  0  0  0  0  0  0  0  0  0
   -1.3312    1.8585   -3.1322 C   0  0  0  0  0  0  0  0  0  0  0  0
    1.7184    1.6247   -2.2760 H   0  0  0  0  0  0  0  0  0  0  0  0
    0.3081    3.2500   -2.9380 H   0  0  0  0  0  0  0  0  0  0  0  0
   -1.8669    1.1101   -2.5369 H   0  0  0  0  0  0  0  0  0  0  0  0
   -2.0632    2.6018   -3.4649 H   0  0  0  0  0  0  0  0  0  0  0  0
   -0.9307    1.3539   -4.0181 H   0  0  0  0  0  0  0  0  0  0  0  0
   -1.3553    4.3980   -1.3498 N   0  0  0  0  0  0  0  0  0  0  0  0
   -1.9612    5.2196   -0.3281 C   0  0  0  0  0  0  0  0  0  0  0  0
   -1.3339    4.7603   -2.2985 H   0  0  0  0  0  0  0  0  0  0  0  0
   -3.0339    4.9867   -0.2579 H   0  0  0  0  0  0  0  0  0  0  0  0
   -1.4780    5.0174    0.6392 H   0  0  0  0  0  0  0  0  0  0  0  0
   -1.8328    6.2809   -0.5874 H   0  0  0  0  0  0  0  0  0  0  0  0
 18 19  1  0  0  0  0
 19 31  1  0  0  0  0
 19 20  2  0  0  0  0
  8  9  1  0  0  0  0
  9 17  1  0  0  0  0
  9 10  2  0  0  0  0
  1  3  1  0  0  0  0
  1  7  1  0  0  0  0
  1  2  2  0  0  0  0
 32 33  1  0  0  0  0
 33 41  1  0  0  0  0
 33 34  2  0  0  0  0
 21 22  1  0  0  0  0
 22 23  1  0  0  0  0
 18 21  1  0  0  0  0
 17 23  1  0  0  0  0
 17 18  1  0  0  0  0
  8 11  1  0  0  0  0
 32 35  1  0  0  0  0
 41 42  1  0  0  0  0
  7  8  1  0  0  0  0
 31 32  1  0  0  0  0
 22 27  1  0  0  0  0
 22 28  1  0  0  0  0
 21 25  1  0  0  0  0
 21 26  1  0  0  0  0
 23 29  1  0  0  0  0
 23 30  1  0  0  0  0
 18 24  1  0  0  0  0
  3  4  1  0  0  0  0
  3  5  1  0  0  0  0
  3  6  1  0  0  0  0
 11 14  1  0  0  0  0
 11 15  1  0  0  0  0
 11 16  1  0  0  0  0
 35 38  1  0  0  0  0
 35 39  1  0  0  0  0
 35 40  1  0  0  0  0
 42 44  1  0  0  0  0
 42 45  1  0  0  0  0
 42 46  1  0  0  0  0
  8 13  1  0  0  0  0
 32 37  1  0  0  0  0
 31 36  1  0  0  0  0
 41 43  1  0  0  0  0
  7 12  1  0  0  0  0
M  END
$$$$

  -OEChem-05262214473D

 46 46  0     1  0  0  0  0  0999 V2000
   -0.6012   -3.2995    3.8205 C   0  0  0  0  0  0  0  0  0  0  0  0
   -0.6574   -4.4683    3.4568 O   0  0  0  0  0  0  0  0  0  0  0  0
   -0.4935   -2.9859    5.2760 C   0  0  0  0  0  0  0  0  0  0  0  0
   -1.4789   -2.8689    5.7550 H   0  0  0  0  0  0  0  0  0  0  0  0
    0.0123   -3.7847    5.8419 H   0  0  0  0  0  0  0  0  0  0  0  0
    0.0585   -2.0642    5.5199 H   0  0  0  0  0  0  0  0  0  0  0  0
   -0.6261   -2.1849    2.9917 N   0  0  0  0  0  0  0  0  0  0  0  0
   -0.7237   -2.2601    1.5650 C   0  0  2  0  0  0  0  0  0  0  0  0
    0.1695   -1.1513    1.0687 C   0  0  0  0  0  0  0  0  0  0  0  0
    0.3193   -0.1267    1.7365 O   0  0  0  0  0  0  0  0  0  0  0  0
   -2.1397   -2.0663    1.0750 C   0  0  0  0  0  0  0  0  0  0  0  0
   -0.5717   -1.2606    3.4238 H   0  0  0  0  0  0  0  0  0  0  0  0
   -0.3076   -3.2111    1.2363 H   0  0  0  0  0  0  0  0  0  0  0  0
   -2.5584   -1.1089    1.4061 H   0  0  0  0  0  0  0  0  0  0  0  0
   -2.1682   -2.0790   -0.0197 H   0  0  0  0  0  0  0  0  0  0  0  0
   -2.7965   -2.8601    1.4459 H   0  0  0  0  0  0  0  0  0  0  0  0
    0.7724   -1.3745   -0.1593 N   0  0  0  0  0  0  0  0  0  0  0  0
    1.6644   -0.4046   -0.7812 C   0  0  2  0  0  0  0  0  0  0  0  0
    1.0167    0.9407   -0.6474 C   0  0  0  0  0  0  0  0  0  0  0  0
    1.0178    1.5063    0.4398 O   0  0  0  0  0  0  0  0  0  0  0  0
    1.7598   -0.8444   -2.2376 C   0  0  0  0  0  0  0  0  0  0  0  0
    1.4509   -2.3396   -2.2296 C   0  0  0  0  0  0  0  0  0  0  0  0
    0.7499   -2.6270   -0.9105 C   0  0  0  0  0  0  0  0  0  0  0  0
    2.6337   -0.3810   -0.2742 H   0  0  0  0  0  0  0  0  0  0  0  0
    2.7817   -0.6973   -2.6072 H   0  0  0  0  0  0  0  0  0  0  0  0
    1.0693   -0.3146   -2.9010 H   0  0  0  0  0  0  0  0  0  0  0  0
    0.7727   -2.5933   -3.0525 H   0  0  0  0  0  0  0  0  0  0  0  0
    2.3540   -2.9484   -2.3295 H   0  0  0  0  0  0  0  0  0  0  0  0
   -0.2797   -2.9691   -1.0463 H   0  0  0  0  0  0  0  0  0  0  0  0
    1.2989   -3.3703   -0.3224 H   0  0  0  0  0  0  0  0  0  0  0  0
    0.4636    1.3804   -1.8836 N   0  0  0  0  0  0  0  0  0  0  0  0
   -0.6258    2.2911   -2.1537 C   0  0  2  0  0  0  0  0  0  0  0  0
   -0.8946    3.0917   -0.8863 C   0  0  0  0  0  0  0  0  0  0  0  0
   -0.5706    2.7032    0.2340 O   0  0  0  0  0  0  0  0  0  0  0  0
   -1.8733    1.5445   -2.5998 C   0  0  0  0  0  0  0  0  0  0  0  0
    1.2980    1.4405   -2.4595 H   0  0  0  0  0  0  0  0  0  0  0  0
   -0.2851    2.9653   -2.9470 H   0  0  0  0  0  0  0  0  0  0  0  0
   -2.2295    0.8640   -1.8179 H   0  0  0  0  0  0  0  0  0  0  0  0
   -2.6889    2.2375   -2.8314 H   0  0  0  0  0  0  0  0  0  0  0  0
   -1.6702    0.9458   -3.4943 H   0  0  0  0  0  0  0  0  0  0  0  0
   -1.5774    4.2711   -1.1491 N   0  0  0  0  0  0  0  0  0  0  0  0
   -1.9603    5.1983   -0.1101 C   0  0  0  0  0  0  0  0  0  0  0  0
   -1.7888    4.5226   -2.1103 H   0  0  0  0  0  0  0  0  0  0  0  0
   -2.9787    4.9644    0.2338 H   0  0  0  0  0  0  0  0  0  0  0  0
   -1.2599    5.1130    0.7337 H   0  0  0  0  0  0  0  0  0  0  0  0
   -1.9339    6.2242   -0.5063 H   0  0  0  0  0  0  0  0  0  0  0  0
 18 19  1  0  0  0  0
 19 31  1  0  0  0  0
 19 20  2  0  0  0  0
  8  9  1  0  0  0  0
  9 17  1  0  0  0  0
  9 10  2  0  0  0  0
  1  3  1  0  0  0  0
  1  7  1  0  0  0  0
  1  2  2  0  0  0  0
 32 33  1  0  0  0  0
 33 41  1  0  0  0  0
 33 34  2  0  0  0  0
 21 22  1  0  0  0  0
 22 23  1  0  0  0  0
 18 21  1  0  0  0  0
 17 23  1  0  0  0  0
 17 18  1  0  0  0  0
  8 11  1  0  0  0  0
 32 35  1  0  0  0  0
 41 42  1  0  0  0  0
  7  8  1  0  0  0  0
 31 32  1  0  0  0  0
 22 27  1  0  0  0  0
 22 28  1  0  0  0  0
 21 25  1  0  0  0  0
 21 26  1  0  0  0  0
 23 29  1  0  0  0  0
 23 30  1  0  0  0  0
 18 24  1  0  0  0  0
  3  4  1  0  0  0  0
  3  5  1  0  0  0  0
  3  6  1  0  0  0  0
 11 14  1  0  0  0  0
 11 15  1  0  0  0  0
 11 16  1  0  0  0  0
 35 38  1  0  0  0  0
 35 39  1  0  0  0  0
 35 40  1  0  0  0  0
 42 44  1  0  0  0  0
 42 45  1  0  0  0  0
 42 46  1  0  0  0  0
  8 13  1  0  0  0  0
 32 37  1  0  0  0  0
 31 36  1  0  0  0  0
 41 43  1  0  0  0  0
  7 12  1  0  0  0  0
M  END
$$$$

  -OEChem-05262214473D

 46 46  0     1  0  0  0  0  0999 V2000
   -0.6012   -3.2995    3.8205 C   0  0  0  0  0  0  0  0  0  0  0  0
   -0.6574   -4.4683    3.4568 O   0  0  0  0  0  0  0  0  0  0  0  0
   -0.4935   -2.9859    5.2760 C   0  0  0  0  0  0  0  0  0  0  0  0
   -1.4789   -2.8689    5.7550 H   0  0  0  0  0  0  0  0  0  0  0  0
    0.0123   -3.7847    5.8419 H   0  0  0  0  0  0  0  0  0  0  0  0
    0.0585   -2.0642    5.5199 H   0  0  0  0  0  0  0  0  0  0  0  0
   -0.6261   -2.1849    2.9917 N   0  0  0  0  0  0  0  0  0  0  0  0
   -0.7237   -2.2601    1.5650 C   0  0  2  0  0  0  0  0  0  0  0  0
    0.1695   -1.1513    1.0687 C   0  0  0  0  0  0  0  0  0  0  0  0
    0.3193   -0.1267    1.7365 O   0  0  0  0  0  0  0  0  0  0  0  0
   -2.1397   -2.0663    1.0750 C   0  0  0  0  0  0  0  0  0  0  0  0
   -0.5717   -1.2606    3.4238 H   0  0  0  0  0  0  0  0  0  0  0  0
   -0.3076   -3.2111    1.2363 H   0  0  0  0  0  0  0  0  0  0  0  0
   -2.5584   -1.1089    1.4061 H   0  0  0  0  0  0  0  0  0  0  0  0
   -2.1682   -2.0790   -0.0197 H   0  0  0  0  0  0  0  0  0  0  0  0
   -2.7965   -2.8601    1.4459 H   0  0  0  0  0  0  0  0  0  0  0  0
    0.7724   -1.3745   -0.1593 N   0  0  0  0  0  0  0  0  0  0  0  0
    1.6644   -0.4046   -0.7812 C   0  0  2  0  0  0  0  0  0  0  0  0
    1.0167    0.9407   -0.6474 C   0  0  0  0  0  0  0  0  0  0  0  0
    1.2483    1.6271    0.3411 O   0  0  0  0  0  0  0  0  0  0  0  0
    1.7598   -0.8444   -2.2376 C   0  0  0  0  0  0  0  0  0  0  0  0
    1.4509   -2.3396   -2.2296 C   0  0  0  0  0  0  0  0  0  0  0  0
    0.7499   -2.6270   -0.9105 C   0  0  0  0  0  0  0  0  0  0  0  0
    2.6337   -0.3810   -0.2742 H   0  0  0  0  0  0  0  0  0  0  0  0
    2.7817   -0.6973   -2.6072 H   0  0  0  0  0  0  0  0  0  0  0  0
    1.0693   -0.3146   -2.9010 H   0  0  0  0  0  0  0  0  0  0  0  0
    0.7727   -2.5933   -3.0525 H   0  0  0  0  0  0  0  0  0  0  0  0
    2.3540   -2.9484   -2.3295 H   0  0  0  0  0  0  0  0  0  0  0  0
   -0.2797   -2.9691   -1.0463 H   0  0  0  0  0  0  0  0  0  0  0  0
    1.2989   -3.3703   -0.3224 H   0  0  0  0  0  0  0  0  0  0  0  0
    0.1774    1.2304   -1.7606 N   0  0  0  0  0  0  0  0  0  0  0  0
   -0.9772    2.0933   -1.8664 C   0  0  2  0  0  0  0  0  0  0  0  0
   -0.9750    3.0312   -0.6664 C   0  0  0  0  0  0  0  0  0  0  0  0
   -0.3871    2.7767    0.3827 O   0  0  0  0  0  0  0  0  0  0  0  0
   -2.2661    1.2883   -1.9246 C   0  0  0  0  0  0  0  0  0  0  0  0
    0.8535    1.2324   -2.5184 H   0  0  0  0  0  0  0  0  0  0  0  0
   -0.8537    2.6756   -2.7860 H   0  0  0  0  0  0  0  0  0  0  0  0
   -2.4071    0.6982   -1.0117 H   0  0  0  0  0  0  0  0  0  0  0  0
   -3.1377    1.9421   -2.0335 H   0  0  0  0  0  0  0  0  0  0  0  0
   -2.2535    0.5930   -2.7710 H   0  0  0  0  0  0  0  0  0  0  0  0
   -1.7423    4.1659   -0.8895 N   0  0  0  0  0  0  0  0  0  0  0  0
   -1.9084    5.2022    0.1027 C   0  0  0  0  0  0  0  0  0  0  0  0
   -2.1791    4.3035   -1.7962 H   0  0  0  0  0  0  0  0  0  0  0  0
   -2.8106    4.9990    0.6984 H   0  0  0  0  0  0  0  0  0  0  0  0
   -1.0293    5.2210    0.7637 H   0  0  0  0  0  0  0  0  0  0  0  0
   -2.0115    6.1761   -0.3982 H   0  0  0  0  0  0  0  0  0  0  0  0
 18 19  1  0  0  0  0
 19 31  1  0  0  0  0
 19 20  2  0  0  0  0
  8  9  1  0  0  0  0
  9 17  1  0  0  0  0
  9 10  2  0  0  0  0
  1  3  1  0  0  0  0
  1  7  1  0  0  0  0
  1  2  2  0  0  0  0
 32 33  1  0  0  0  0
 33 41  1  0  0  0  0
 33 34  2  0  0  0  0
 21 22  1  0  0  0  0
 22 23  1  0  0  0  0
 18 21  1  0  0  0  0
 17 23  1  0  0  0  0
 17 18  1  0  0  0  0
  8 11  1  0  0  0  0
 32 35  1  0  0  0  0
 41 42  1  0  0  0  0
  7  8  1  0  0  0  0
 31 32  1  0  0  0  0
 22 27  1  0  0  0  0
 22 28  1  0  0  0  0
 21 25  1  0  0  0  0
 21 26  1  0  0  0  0
 23 29  1  0  0  0  0
 23 30  1  0  0  0  0
 18 24  1  0  0  0  0
  3  4  1  0  0  0  0
  3  5  1  0  0  0  0
  3  6  1  0  0  0  0
 11 14  1  0  0  0  0
 11 15  1  0  0  0  0
 11 16  1  0  0  0  0
 35 38  1  0  0  0  0
 35 39  1  0  0  0  0
 35 40  1  0  0  0  0
 42 44  1  0  0  0  0
 42 45  1  0  0  0  0
 42 46  1  0  0  0  0
  8 13  1  0  0  0  0
 32 37  1  0  0  0  0
 31 36  1  0  0  0  0
 41 43  1  0  0  0  0
  7 12  1  0  0  0  0
M  END
$$$$

  -OEChem-05262214473D

 46 46  0     1  0  0  0  0  0999 V2000
   -0.6012   -3.2995    3.8205 C   0  0  0  0  0  0  0  0  0  0  0  0
   -0.6574   -4.4683    3.4568 O   0  0  0  0  0  0  0  0  0  0  0  0
   -0.4935   -2.9859    5.2760 C   0  0  0  0  0  0  0  0  0  0  0  0
   -1.4789   -2.8689    5.7550 H   0  0  0  0  0  0  0  0  0  0  0  0
    0.0123   -3.7847    5.8419 H   0  0  0  0  0  0  0  0  0  0  0  0
    0.0585   -2.0642    5.5199 H   0  0  0  0  0  0  0  0  0  0  0  0
   -0.6261   -2.1849    2.9917 N   0  0  0  0  0  0  0  0  0  0  0  0
   -0.7237   -2.2601    1.5650 C   0  0  2  0  0  0  0  0  0  0  0  0
    0.1695   -1.1513    1.0687 C   0  0  0  0  0  0  0  0  0  0  0  0
    0.3193   -0.1267    1.7365 O   0  0  0  0  0  0  0  0  0  0  0  0
   -2.1397   -2.0663    1.0750 C   0  0  0  0  0  0  0  0  0  0  0  0
   -0.5717   -1.2606    3.4238 H   0  0  0  0  0  0  0  0  0  0  0  0
   -0.3076   -3.2111    1.2363 H   0  0  0  0  0  0  0  0  0  0  0  0
   -2.5584   -1.1089    1.4061 H   0  0  0  0  0  0  0  0  0  0  0  0
   -2.1682   -2.0790   -0.0197 H   0  0  0  0  0  0  0  0  0  0  0  0
   -2.7965   -2.8601    1.4459 H   0  0  0  0  0  0  0  0  0  0  0  0
    0.7724   -1.3745   -0.1593 N   0  0  0  0  0  0  0  0  0  0  0  0
    1.6644   -0.4046   -0.7812 C   0  0  2  0  0  0  0  0  0  0  0  0
    1.0167    0.9407   -0.6474 C   0  0  0  0  0  0  0  0  0  0  0  0
    1.4452    1.7380    0.1787 O   0  0  0  0  0  0  0  0  0  0  0  0
    1.7598   -0.8444   -2.2376 C   0  0  0  0  0  0  0  0  0  0  0  0
    1.4509   -2.3396   -2.2296 C   0  0  0  0  0  0  0  0  0  0  0  0
    0.7499   -2.6270   -0.9105 C   0  0  0  0  0  0  0  0  0  0  0  0
    2.6337   -0.3810   -0.2742 H   0  0  0  0  0  0  0  0  0  0  0  0
    2.7817   -0.6973   -2.6072 H   0  0  0  0  0  0  0  0  0  0  0  0
    1.0693   -0.3146   -2.9010 H   0  0  0  0  0  0  0  0  0  0  0  0
    0.7727   -2.5933   -3.0525 H   0  0  0  0  0  0  0  0  0  0  0  0
    2.3540   -2.9484   -2.3295 H   0  0  0  0  0  0  0  0  0  0  0  0
   -0.2797   -2.9691   -1.0463 H   0  0  0  0  0  0  0  0  0  0  0  0
    1.2989   -3.3703   -0.3224 H   0  0  0  0  0  0  0  0  0  0  0  0
   -0.0669    1.0927   -1.5585 N   0  0  0  0  0  0  0  0  0  0  0  0
   -1.2454    1.9263   -1.4851 C   0  0  2  0  0  0  0  0  0  0  0  0
   -1.0001    2.9954   -0.4286 C   0  0  0  0  0  0  0  0  0  0  0  0
   -0.1769    2.8686    0.4755 O   0  0  0  0  0  0  0  0  0  0  0  0
   -2.4828    1.1071   -1.1525 C   0  0  0  0  0  0  0  0  0  0  0  0
    0.4153    1.0146   -2.4489 H   0  0  0  0  0  0  0  0  0  0  0  0
   -1.3588    2.4006   -2.4660 H   0  0  0  0  0  0  0  0  0  0  0  0
   -2.3875    0.6242   -0.1731 H   0  0  0  0  0  0  0  0  0  0  0  0
   -3.3791    1.7355   -1.1254 H   0  0  0  0  0  0  0  0  0  0  0  0
   -2.6407    0.3197   -1.8974 H   0  0  0  0  0  0  0  0  0  0  0  0
   -1.8389    4.0894   -0.5886 N   0  0  0  0  0  0  0  0  0  0  0  0
   -1.8089    5.2309    0.2958 C   0  0  0  0  0  0  0  0  0  0  0  0
   -2.4780    4.1179   -1.3777 H   0  0  0  0  0  0  0  0  0  0  0  0
   -2.5411    5.0884    1.1042 H   0  0  0  0  0  0  0  0  0  0  0  0
   -0.8022    5.3340    0.7270 H   0  0  0  0  0  0  0  0  0  0  0  0
   -2.0602    6.1399   -0.2703 H   0  0  0  0  0  0  0  0  0  0  0  0
 18 19  1  0  0  0  0
 19 31  1  0  0  0  0
 19 20  2  0  0  0  0
  8  9  1  0  0  0  0
  9 17  1  0  0  0  0
  9 10  2  0  0  0  0
  1  3  1  0  0  0  0
  1  7  1  0  0  0  0
  1  2  2  0  0  0  0
 32 33  1  0  0  0  0
 33 41  1  0  0  0  0
 33 34  2  0  0  0  0
 21 22  1  0  0  0  0
 22 23  1  0  0  0  0
 18 21  1  0  0  0  0
 17 23  1  0  0  0  0
 17 18  1  0  0  0  0
  8 11  1  0  0  0  0
 32 35  1  0  0  0  0
 41 42  1  0  0  0  0
  7  8  1  0  0  0  0
 31 32  1  0  0  0  0
 22 27  1  0  0  0  0
 22 28  1  0  0  0  0
 21 25  1  0  0  0  0
 21 26  1  0  0  0  0
 23 29  1  0  0  0  0
 23 30  1  0  0  0  0
 18 24  1  0  0  0  0
  3  4  1  0  0  0  0
  3  5  1  0  0  0  0
  3  6  1  0  0  0  0
 11 14  1  0  0  0  0
 11 15  1  0  0  0  0
 11 16  1  0  0  0  0
 35 38  1  0  0  0  0
 35 39  1  0  0  0  0
 35 40  1  0  0  0  0
 42 44  1  0  0  0  0
 42 45  1  0  0  0  0
 42 46  1  0  0  0  0
  8 13  1  0  0  0  0
 32 37  1  0  0  0  0
 31 36  1  0  0  0  0
 41 43  1  0  0  0  0
  7 12  1  0  0  0  0
M  END
$$$$

  -OEChem-05262214473D

 46 46  0     1  0  0  0  0  0999 V2000
   -0.6012   -3.2995    3.8205 C   0  0  0  0  0  0  0  0  0  0  0  0
   -0.6574   -4.4683    3.4568 O   0  0  0  0  0  0  0  0  0  0  0  0
   -0.4935   -2.9859    5.2760 C   0  0  0  0  0  0  0  0  0  0  0  0
   -1.4789   -2.8689    5.7550 H   0  0  0  0  0  0  0  0  0  0  0  0
    0.0123   -3.7847    5.8419 H   0  0  0  0  0  0  0  0  0  0  0  0
    0.0585   -2.0642    5.5199 H   0  0  0  0  0  0  0  0  0  0  0  0
   -0.6261   -2.1849    2.9917 N   0  0  0  0  0  0  0  0  0  0  0  0
   -0.7237   -2.2601    1.5650 C   0  0  2  0  0  0  0  0  0  0  0  0
    0.1695   -1.1513    1.0687 C   0  0  0  0  0  0  0  0  0  0  0  0
    0.3193   -0.1267    1.7365 O   0  0  0  0  0  0  0  0  0  0  0  0
   -2.1397   -2.0663    1.0750 C   0  0  0  0  0  0  0  0  0  0  0  0
   -0.5717   -1.2606    3.4238 H   0  0  0  0  0  0  0  0  0  0  0  0
   -0.3076   -3.2111    1.2363 H   0  0  0  0  0  0  0  0  0  0  0  0
   -2.5584   -1.1089    1.4061 H   0  0  0  0  0  0  0  0  0  0  0  0
   -2.1682   -2.0790   -0.0197 H   0  0  0  0  0  0  0  0  0  0  0  0
   -2.7965   -2.8601    1.4459 H   0  0  0  0  0  0  0  0  0  0  0  0
    0.7724   -1.3745   -0.1593 N   0  0  0  0  0  0  0  0  0  0  0  0
    1.6644   -0.4046   -0.7812 C   0  0  2  0  0  0  0  0  0  0  0  0
    1.0167    0.9407   -0.6474 C   0  0  0  0  0  0  0  0  0  0  0  0
    1.5952    1.8316   -0.0363 O   0  0  0  0  0  0  0  0  0  0  0  0
    1.7598   -0.8444   -2.2376 C   0  0  0  0  0  0  0  0  0  0  0  0
    1.4509   -2.3396   -2.2296 C   0  0  0  0  0  0  0  0  0  0  0  0
    0.7499   -2.6270   -0.9105 C   0  0  0  0  0  0  0  0  0  0  0  0
    2.6337   -0.3810   -0.2742 H   0  0  0  0  0  0  0  0  0  0  0  0
    2.7817   -0.6973   -2.6072 H   0  0  0  0  0  0  0  0  0  0  0  0
    1.0693   -0.3146   -2.9010 H   0  0  0  0  0  0  0  0  0  0  0  0
    0.7727   -2.5933   -3.0525 H   0  0  0  0  0  0  0  0  0  0  0  0
    2.3540   -2.9484   -2.3295 H   0  0  0  0  0  0  0  0  0  0  0  0
   -0.2797   -2.9691   -1.0463 H   0  0  0  0  0  0  0  0  0  0  0  0
    1.2989   -3.3703   -0.3224 H   0  0  0  0  0  0  0  0  0  0  0  0
   -0.2529    0.9766   -1.2912 N   0  0  0  0  0  0  0  0  0  0  0  0
   -1.4120    1.8014   -1.0359 C   0  0  2  0  0  0  0  0  0  0  0  0
   -0.9683    2.9869   -0.1890 C   0  0  0  0  0  0  0  0  0  0  0  0
    0.0455    2.9726    0.5061 O   0  0  0  0  0  0  0  0  0  0  0  0
   -2.5085    1.0135   -0.3362 C   0  0  0  0  0  0  0  0  0  0  0  0
    0.0132    0.8018   -2.2556 H   0  0  0  0  0  0  0  0  0  0  0  0
   -1.7661    2.1591   -2.0089 H   0  0  0  0  0  0  0  0  0  0  0  0
   -2.1722    0.6469    0.6406 H   0  0  0  0  0  0  0  0  0  0  0  0
   -3.3966    1.6320   -0.1691 H   0  0  0  0  0  0  0  0  0  0  0  0
   -2.8055    0.1444   -0.9331 H   0  0  0  0  0  0  0  0  0  0  0  0
   -1.8606    4.0470   -0.2670 N   0  0  0  0  0  0  0  0  0  0  0  0
   -1.6686    5.2825    0.4560 C   0  0  0  0  0  0  0  0  0  0  0  0
   -2.6652    3.9786   -0.8832 H   0  0  0  0  0  0  0  0  0  0  0  0
   -2.1886    5.2263    1.4237 H   0  0  0  0  0  0  0  0  0  0  0  0
   -0.5939    5.4443    0.6262 H   0  0  0  0  0  0  0  0  0  0  0  0
   -2.0767    6.1182   -0.1315 H   0  0  0  0  0  0  0  0  0  0  0  0
 18 19  1  0  0  0  0
 19 31  1  0  0  0  0
 19 20  2  0  0  0  0
  8  9  1  0  0  0  0
  9 17  1  0  0  0  0
  9 10  2  0  0  0  0
  1  3  1  0  0  0  0
  1  7  1  0  0  0  0
  1  2  2  0  0  0  0
 32 33  1  0  0  0  0
 33 41  1  0  0  0  0
 33 34  2  0  0  0  0
 21 22  1  0  0  0  0
 22 23  1  0  0  0  0
 18 21  1  0  0  0  0
 17 23  1  0  0  0  0
 17 18  1  0  0  0  0
  8 11  1  0  0  0  0
 32 35  1  0  0  0  0
 41 42  1  0  0  0  0
  7  8  1  0  0  0  0
 31 32  1  0  0  0  0
 22 27  1  0  0  0  0
 22 28  1  0  0  0  0
 21 25  1  0  0  0  0
 21 26  1  0  0  0  0
 23 29  1  0  0  0  0
 23 30  1  0  0  0  0
 18 24  1  0  0  0  0
  3  4  1  0  0  0  0
  3  5  1  0  0  0  0
  3  6  1  0  0  0  0
 11 14  1  0  0  0  0
 11 15  1  0  0  0  0
 11 16  1  0  0  0  0
 35 38  1  0  0  0  0
 35 39  1  0  0  0  0
 35 40  1  0  0  0  0
 42 44  1  0  0  0  0
 42 45  1  0  0  0  0
 42 46  1  0  0  0  0
  8 13  1  0  0  0  0
 32 37  1  0  0  0  0
 31 36  1  0  0  0  0
 41 43  1  0  0  0  0
  7 12  1  0  0  0  0
M  END
$$$$

  -OEChem-05262214473D

 46 46  0     1  0  0  0  0  0999 V2000
   -0.6012   -3.2995    3.8205 C   0  0  0  0  0  0  0  0  0  0  0  0
   -0.6574   -4.4683    3.4568 O   0  0  0  0  0  0  0  0  0  0  0  0
   -0.4935   -2.9859    5.2760 C   0  0  0  0  0  0  0  0  0  0  0  0
   -1.4789   -2.8689    5.7550 H   0  0  0  0  0  0  0  0  0  0  0  0
    0.0123   -3.7847    5.8419 H   0  0  0  0  0  0  0  0  0  0  0  0
    0.0585   -2.0642    5.5199 H   0  0  0  0  0  0  0  0  0  0  0  0
   -0.6261   -2.1849    2.9917 N   0  0  0  0  0  0  0  0  0  0  0  0
   -0.7237   -2.2601    1.5650 C   0  0  2  0  0  0  0  0  0  0  0  0
    0.1695   -1.1513    1.0687 C   0  0  0  0  0  0  0  0  0  0  0  0
    0.3193   -0.1267    1.7365 O   0  0  0  0  0  0  0  0  0  0  0  0
   -2.1397   -2.0663    1.0750 C   0  0  0  0  0  0  0  0  0  0  0  0
   -0.5717   -1.2606    3.4238 H   0  0  0  0  0  0  0  0  0  0  0  0
   -0.3076   -3.2111    1.2363 H   0  0  0  0  0  0  0  0  0  0  0  0
   -2.5584   -1.1089    1.4061 H   0  0  0  0  0  0  0  0  0  0  0  0
   -2.1682   -2.0790   -0.0197 H   0  0  0  0  0  0  0  0  0  0  0  0
   -2.7965   -2.8601    1.4459 H   0  0  0  0  0  0  0  0  0  0  0  0
    0.7724   -1.3745   -0.1593 N   0  0  0  0  0  0  0  0  0  0  0  0
    1.6644   -0.4046   -0.7812 C   0  0  2  0  0  0  0  0  0  0  0  0
    1.0167    0.9407   -0.6474 C   0  0  0  0  0  0  0  0  0  0  0  0
    1.6879    1.9014   -0.2892 O   0  0  0  0  0  0  0  0  0  0  0  0
    1.7598   -0.8444   -2.2376 C   0  0  0  0  0  0  0  0  0  0  0  0
    1.4509   -2.3396   -2.2296 C   0  0  0  0  0  0  0  0  0  0  0  0
    0.7499   -2.6270   -0.9105 C   0  0  0  0  0  0  0  0  0  0  0  0
    2.6337   -0.3810   -0.2742 H   0  0  0  0  0  0  0  0  0  0  0  0
    2.7817   -0.6973   -2.6072 H   0  0  0  0  0  0  0  0  0  0  0  0
    1.0693   -0.3146   -2.9010 H   0  0  0  0  0  0  0  0  0  0  0  0
    0.7727   -2.5933   -3.0525 H   0  0  0  0  0  0  0  0  0  0  0  0
    2.3540   -2.9484   -2.3295 H   0  0  0  0  0  0  0  0  0  0  0  0
   -0.2797   -2.9691   -1.0463 H   0  0  0  0  0  0  0  0  0  0  0  0
    1.2989   -3.3703   -0.3224 H   0  0  0  0  0  0  0  0  0  0  0  0
   -0.3677    0.8900   -0.9768 N   0  0  0  0  0  0  0  0  0  0  0  0
   -1.4657    1.7271   -0.5493 C   0  0  2  0  0  0  0  0  0  0  0  0
   -0.8818    3.0061    0.0360 C   0  0  0  0  0  0  0  0  0  0  0  0
    0.2650    3.0817    0.4723 O   0  0  0  0  0  0  0  0  0  0  0  0
   -2.3416    1.0138    0.4688 C   0  0  0  0  0  0  0  0  0  0  0  0
   -0.3254    0.6086   -1.9516 H   0  0  0  0  0  0  0  0  0  0  0  0
   -2.0477    1.9675   -1.4457 H   0  0  0  0  0  0  0  0  0  0  0  0
   -1.7757    0.7648    1.3740 H   0  0  0  0  0  0  0  0  0  0  0  0
   -3.1889    1.6385    0.7702 H   0  0  0  0  0  0  0  0  0  0  0  0
   -2.7366    0.0791    0.0563 H   0  0  0  0  0  0  0  0  0  0  0  0
   -1.8058    4.0415    0.0534 N   0  0  0  0  0  0  0  0  0  0  0  0
   -1.4970    5.3535    0.5723 C   0  0  0  0  0  0  0  0  0  0  0  0
   -2.7280    3.8950   -0.3466 H   0  0  0  0  0  0  0  0  0  0  0  0
   -1.7771    5.4033    1.6349 H   0  0  0  0  0  0  0  0  0  0  0  0
   -0.4187    5.5444    0.4682 H   0  0  0  0  0  0  0  0  0  0  0  0
   -2.0598    6.1123    0.0089 H   0  0  0  0  0  0  0  0  0  0  0  0
 18 19  1  0  0  0  0
 19 31  1  0  0  0  0
 19 20  2  0  0  0  0
  8  9  1  0  0  0  0
  9 17  1  0  0  0  0
  9 10  2  0  0  0  0
  1  3  1  0  0  0  0
  1  7  1  0  0  0  0
  1  2  2  0  0  0  0
 32 33  1  0  0  0  0
 33 41  1  0  0  0  0
 33 34  2  0  0  0  0
 21 22  1  0  0  0  0
 22 23  1  0  0  0  0
 18 21  1  0  0  0  0
 17 23  1  0  0  0  0
 17 18  1  0  0  0  0
  8 11  1  0  0  0  0
 32 35  1  0  0  0  0
 41 42  1  0  0  0  0
  7  8  1  0  0  0  0
 31 32  1  0  0  0  0
 22 27  1  0  0  0  0
 22 28  1  0  0  0  0
 21 25  1  0  0  0  0
 21 26  1  0  0  0  0
 23 29  1  0  0  0  0
 23 30  1  0  0  0  0
 18 24  1  0  0  0  0
  3  4  1  0  0  0  0
  3  5  1  0  0  0  0
  3  6  1  0  0  0  0
 11 14  1  0  0  0  0
 11 15  1  0  0  0  0
 11 16  1  0  0  0  0
 35 38  1  0  0  0  0
 35 39  1  0  0  0  0
 35 40  1  0  0  0  0
 42 44  1  0  0  0  0
 42 45  1  0  0  0  0
 42 46  1  0  0  0  0
  8 13  1  0  0  0  0
 32 37  1  0  0  0  0
 31 36  1  0  0  0  0
 41 43  1  0  0  0  0
  7 12  1  0  0  0  0
M  END
$$$$

  -OEChem-05262214473D

 46 46  0     1  0  0  0  0  0999 V2000
   -0.6012   -3.2995    3.8205 C   0  0  0  0  0  0  0  0  0  0  0  0
   -0.6574   -4.4683    3.4568 O   0  0  0  0  0  0  0  0  0  0  0  0
   -0.4935   -2.9859    5.2760 C   0  0  0  0  0  0  0  0  0  0  0  0
   -1.4789   -2.8689    5.7550 H   0  0  0  0  0  0  0  0  0  0  0  0
    0.0123   -3.7847    5.8419 H   0  0  0  0  0  0  0  0  0  0  0  0
    0.0585   -2.0642    5.5199 H   0  0  0  0  0  0  0  0  0  0  0  0
   -0.6261   -2.1849    2.9917 N   0  0  0  0  0  0  0  0  0  0  0  0
   -0.7237   -2.2601    1.5650 C   0  0  2  0  0  0  0  0  0  0  0  0
    0.1695   -1.1513    1.0687 C   0  0  0  0  0  0  0  0  0  0  0  0
    0.3193   -0.1267    1.7365 O   0  0  0  0  0  0  0  0  0  0  0  0
   -2.1397   -2.0663    1.0750 C   0  0  0  0  0  0  0  0  0  0  0  0
   -0.5717   -1.2606    3.4238 H   0  0  0  0  0  0  0  0  0  0  0  0
   -0.3076   -3.2111    1.2363 H   0  0  0  0  0  0  0  0  0  0  0  0
   -2.5584   -1.1089    1.4061 H   0  0  0  0  0  0  0  0  0  0  0  0
   -2.1682   -2.0790   -0.0197 H   0  0  0  0  0  0  0  0  0  0  0  0
   -2.7965   -2.8601    1.4459 H   0  0  0  0  0  0  0  0  0  0  0  0
    0.7724   -1.3745   -0.1593 N   0  0  0  0  0  0  0  0  0  0  0  0
    1.6644   -0.4046   -0.7812 C   0  0  2  0  0  0  0  0  0  0  0  0
    1.0167    0.9407   -0.6474 C   0  0  0  0  0  0  0  0  0  0  0  0
    1.7171    1.9427   -0.5629 O   0  0  0  0  0  0  0  0  0  0  0  0
    1.7598   -0.8444   -2.2376 C   0  0  0  0  0  0  0  0  0  0  0  0
    1.4509   -2.3396   -2.2296 C   0  0  0  0  0  0  0  0  0  0  0  0
    0.7499   -2.6270   -0.9105 C   0  0  0  0  0  0  0  0  0  0  0  0
    2.6337   -0.3810   -0.2742 H   0  0  0  0  0  0  0  0  0  0  0  0
    2.7817   -0.6973   -2.6072 H   0  0  0  0  0  0  0  0  0  0  0  0
    1.0693   -0.3146   -2.9010 H   0  0  0  0  0  0  0  0  0  0  0  0
    0.7727   -2.5933   -3.0525 H   0  0  0  0  0  0  0  0  0  0  0  0
    2.3540   -2.9484   -2.3295 H   0  0  0  0  0  0  0  0  0  0  0  0
   -0.2797   -2.9691   -1.0463 H   0  0  0  0  0  0  0  0  0  0  0  0
    1.2989   -3.3703   -0.3224 H   0  0  0  0  0  0  0  0  0  0  0  0
   -0.4036    0.8389   -0.6367 N   0  0  0  0  0  0  0  0  0  0  0  0
   -1.4028    1.7085   -0.0586 C   0  0  2  0  0  0  0  0  0  0  0  0
   -0.7463    3.0519    0.2311 C   0  0  0  0  0  0  0  0  0  0  0  0
    0.4666    3.1883    0.3766 O   0  0  0  0  0  0  0  0  0  0  0  0
   -1.9933    1.1079    1.2076 C   0  0  0  0  0  0  0  0  0  0  0  0
   -0.5773    0.4481   -1.5578 H   0  0  0  0  0  0  0  0  0  0  0  0
   -2.1844    1.8389   -0.8150 H   0  0  0  0  0  0  0  0  0  0  0  0
   -1.2250    0.9699    1.9771 H   0  0  0  0  0  0  0  0  0  0  0  0
   -2.7703    1.7546    1.6285 H   0  0  0  0  0  0  0  0  0  0  0  0
   -2.4388    0.1283    1.0032 H   0  0  0  0  0  0  0  0  0  0  0  0
   -1.6784    4.0732    0.3508 N   0  0  0  0  0  0  0  0  0  0  0  0
   -1.3059    5.4390    0.6369 C   0  0  0  0  0  0  0  0  0  0  0  0
   -2.6620    3.8728    0.1957 H   0  0  0  0  0  0  0  0  0  0  0  0
   -1.3347    5.6075    1.7236 H   0  0  0  0  0  0  0  0  0  0  0  0
   -0.2885    5.6274    0.2636 H   0  0  0  0  0  0  0  0  0  0  0  0
   -2.0109    6.1227    0.1413 H   0  0  0  0  0  0  0  0  0  0  0  0
 18 19  1  0  0  0  0
 19 31  1  0  0  0  0
 19 20  2  0  0  0  0
  8  9  1  0  0  0  0
  9 17  1  0  0  0  0
  9 10  2  0  0  0  0
  1  3  1  0  0  0  0
  1  7  1  0  0  0  0
  1  2  2  0  0  0  0
 32 33  1  0  0  0  0
 33 41  1  0  0  0  0
 33 34  2  0  0  0  0
 21 22  1  0  0  0  0
 22 23  1  0  0  0  0
 18 21  1  0  0  0  0
 17 23  1  0  0  0  0
 17 18  1  0  0  0  0
  8 11  1  0  0  0  0
 32 35  1  0  0  0  0
 41 42  1  0  0  0  0
  7  8  1  0  0  0  0
 31 32  1  0  0  0  0
 22 27  1  0  0  0  0
 22 28  1  0  0  0  0
 21 25  1  0  0  0  0
 21 26  1  0  0  0  0
 23 29  1  0  0  0  0
 23 30  1  0  0  0  0
 18 24  1  0  0  0  0
  3  4  1  0  0  0  0
  3  5  1  0  0  0  0
  3  6  1  0  0  0  0
 11 14  1  0  0  0  0
 11 15  1  0  0  0  0
 11 16  1  0  0  0  0
 35 38  1  0  0  0  0
 35 39  1  0  0  0  0
 35 40  1  0  0  0  0
 42 44  1  0  0  0  0
 42 45  1  0  0  0  0
 42 46  1  0  0  0  0
  8 13  1  0  0  0  0
 32 37  1  0  0  0  0
 31 36  1  0  0  0  0
 41 43  1  0  0  0  0
  7 12  1  0  0  0  0
M  END
$$$$

  -OEChem-05262214473D

 46 46  0     1  0  0  0  0  0999 V2000
   -0.6012   -3.2995    3.8205 C   0  0  0  0  0  0  0  0  0  0  0  0
   -0.6574   -4.4683    3.4568 O   0  0  0  0  0  0  0  0  0  0  0  0
   -0.4935   -2.9859    5.2760 C   0  0  0  0  0  0  0  0  0  0  0  0
   -1.4789   -2.8689    5.7550 H   0  0  0  0  0  0  0  0  0  0  0  0
    0.0123   -3.7847    5.8419 H   0  0  0  0  0  0  0  0  0  0  0  0
    0.0585   -2.0642    5.5199 H   0  0  0  0  0  0  0  0  0  0  0  0
   -0.6261   -2.1849    2.9917 N   0  0  0  0  0  0  0  0  0  0  0  0
   -0.7237   -2.2601    1.5650 C   0  0  2  0  0  0  0  0  0  0  0  0
    0.1695   -1.1513    1.0687 C   0  0  0  0  0  0  0  0  0  0  0  0
    0.3193   -0.1267    1.7365 O   0  0  0  0  0  0  0  0  0  0  0  0
   -2.1397   -2.0663    1.0750 C   0  0  0  0  0  0  0  0  0  0  0  0
   -0.5717   -1.2606    3.4238 H   0  0  0  0  0  0  0  0  0  0  0  0
   -0.3076   -3.2111    1.2363 H   0  0  0  0  0  0  0  0  0  0  0  0
   -2.5584   -1.1089    1.4061 H   0  0  0  0  0  0  0  0  0  0  0  0
   -2.1682   -2.0790   -0.0197 H   0  0  0  0  0  0  0  0  0  0  0  0
   -2.7965   -2.8601    1.4459 H   0  0  0  0  0  0  0  0  0  0  0  0
    0.7724   -1.3745   -0.1593 N   0  0  0  0  0  0  0  0  0  0  0  0
    1.6644   -0.4046   -0.7812 C   0  0  2  0  0  0  0  0  0  0  0  0
    1.0167    0.9407   -0.6474 C   0  0  0  0  0  0  0  0  0  0  0  0
    1.6808    1.9527   -0.8387 O   0  0  0  0  0  0  0  0  0  0  0  0
    1.7598   -0.8444   -2.2376 C   0  0  0  0  0  0  0  0  0  0  0  0
    1.4509   -2.3396   -2.2296 C   0  0  0  0  0  0  0  0  0  0  0  0
    0.7499   -2.6270   -0.9105 C   0  0  0  0  0  0  0  0  0  0  0  0
    2.6337   -0.3810   -0.2742 H   0  0  0  0  0  0  0  0  0  0  0  0
    2.7817   -0.6973   -2.6072 H   0  0  0  0  0  0  0  0  0  0  0  0
    1.0693   -0.3146   -2.9010 H   0  0  0  0  0  0  0  0  0  0  0  0
    0.7727   -2.5933   -3.0525 H   0  0  0  0  0  0  0  0  0  0  0  0
    2.3540   -2.9484   -2.3295 H   0  0  0  0  0  0  0  0  0  0  0  0
   -0.2797   -2.9691   -1.0463 H   0  0  0  0  0  0  0  0  0  0  0  0
    1.2989   -3.3703   -0.3224 H   0  0  0  0  0  0  0  0  0  0  0  0
   -0.3580    0.8267   -0.2942 N   0  0  0  0  0  0  0  0  0  0  0  0
   -1.2277    1.7469    0.4029 C   0  0  2  0  0  0  0  0  0  0  0  0
   -0.5713    3.1211    0.3829 C   0  0  0  0  0  0  0  0  0  0  0  0
    0.6367    3.2852    0.2253 O   0  0  0  0  0  0  0  0  0  0  0  0
   -1.4876    1.2894    1.8298 C   0  0  0  0  0  0  0  0  0  0  0  0
   -0.7255    0.3313   -1.1009 H   0  0  0  0  0  0  0  0  0  0  0  0
   -2.1670    1.7820   -0.1595 H   0  0  0  0  0  0  0  0  0  0  0  0
   -0.5578    1.2481    2.4089 H   0  0  0  0  0  0  0  0  0  0  0  0
   -2.1693    1.9723    2.3474 H   0  0  0  0  0  0  0  0  0  0  0  0
   -1.9323    0.2885    1.8432 H   0  0  0  0  0  0  0  0  0  0  0  0
   -1.4870    4.1401    0.6049 N   0  0  0  0  0  0  0  0  0  0  0  0
   -1.1083    5.5333    0.6454 C   0  0  0  0  0  0  0  0  0  0  0  0
   -2.4718    3.9135    0.7067 H   0  0  0  0  0  0  0  0  0  0  0  0
   -0.8914    5.8248    1.6836 H   0  0  0  0  0  0  0  0  0  0  0  0
   -0.2122    5.6877    0.0265 H   0  0  0  0  0  0  0  0  0  0  0  0
   -1.9330    6.1487    0.2566 H   0  0  0  0  0  0  0  0  0  0  0  0
 18 19  1  0  0  0  0
 19 31  1  0  0  0  0
 19 20  2  0  0  0  0
  8  9  1  0  0  0  0
  9 17  1  0  0  0  0
  9 10  2  0  0  0  0
  1  3  1  0  0  0  0
  1  7  1  0  0  0  0
  1  2  2  0  0  0  0
 32 33  1  0  0  0  0
 33 41  1  0  0  0  0
 33 34  2  0  0  0  0
 21 22  1  0  0  0  0
 22 23  1  0  0  0  0
 18 21  1  0  0  0  0
 17 23  1  0  0  0  0
 17 18  1  0  0  0  0
  8 11  1  0  0  0  0
 32 35  1  0  0  0  0
 41 42  1  0  0  0  0
  7  8  1  0  0  0  0
 31 32  1  0  0  0  0
 22 27  1  0  0  0  0
 22 28  1  0  0  0  0
 21 25  1  0  0  0  0
 21 26  1  0  0  0  0
 23 29  1  0  0  0  0
 23 30  1  0  0  0  0
 18 24  1  0  0  0  0
  3  4  1  0  0  0  0
  3  5  1  0  0  0  0
  3  6  1  0  0  0  0
 11 14  1  0  0  0  0
 11 15  1  0  0  0  0
 11 16  1  0  0  0  0
 35 38  1  0  0  0  0
 35 39  1  0  0  0  0
 35 40  1  0  0  0  0
 42 44  1  0  0  0  0
 42 45  1  0  0  0  0
 42 46  1  0  0  0  0
  8 13  1  0  0  0  0
 32 37  1  0  0  0  0
 31 36  1  0  0  0  0
 41 43  1  0  0  0  0
  7 12  1  0  0  0  0
M  END
$$$$

  -OEChem-05262214473D

 46 46  0     1  0  0  0  0  0999 V2000
   -0.6012   -3.2995    3.8205 C   0  0  0  0  0  0  0  0  0  0  0  0
   -0.6574   -4.4683    3.4568 O   0  0  0  0  0  0  0  0  0  0  0  0
   -0.4935   -2.9859    5.2760 C   0  0  0  0  0  0  0  0  0  0  0  0
   -1.4789   -2.8689    5.7550 H   0  0  0  0  0  0  0  0  0  0  0  0
    0.0123   -3.7847    5.8419 H   0  0  0  0  0  0  0  0  0  0  0  0
    0.0585   -2.0642    5.5199 H   0  0  0  0  0  0  0  0  0  0  0  0
   -0.6261   -2.1849    2.9917 N   0  0  0  0  0  0  0  0  0  0  0  0
   -0.7237   -2.2601    1.5650 C   0  0  2  0  0  0  0  0  0  0  0  0
    0.1695   -1.1513    1.0687 C   0  0  0  0  0  0  0  0  0  0  0  0
    0.3193   -0.1267    1.7365 O   0  0  0  0  0  0  0  0  0  0  0  0
   -2.1397   -2.0663    1.0750 C   0  0  0  0  0  0  0  0  0  0  0  0
   -0.5717   -1.2606    3.4238 H   0  0  0  0  0  0  0  0  0  0  0  0
   -0.3076   -3.2111    1.2363 H   0  0  0  0  0  0  0  0  0  0  0  0
   -2.5584   -1.1089    1.4061 H   0  0  0  0  0  0  0  0  0  0  0  0
   -2.1682   -2.0790   -0.0197 H   0  0  0  0  0  0  0  0  0  0  0  0
   -2.7965   -2.8601    1.4459 H   0  0  0  0  0  0  0  0  0  0  0  0
    0.7724   -1.3745   -0.1593 N   0  0  0  0  0  0  0  0  0  0  0  0
    1.6644   -0.4046   -0.7812 C   0  0  2  0  0  0  0  0  0  0  0  0
    1.0167    0.9407   -0.6474 C   0  0  0  0  0  0  0  0  0  0  0  0
    1.5815    1.9306   -1.0977 O   0  0  0  0  0  0  0  0  0  0  0  0
    1.7598   -0.8444   -2.2376 C   0  0  0  0  0  0  0  0  0  0  0  0
    1.4509   -2.3396   -2.2296 C   0  0  0  0  0  0  0  0  0  0  0  0
    0.7499   -2.6270   -0.9105 C   0  0  0  0  0  0  0  0  0  0  0  0
    2.6337   -0.3810   -0.2742 H   0  0  0  0  0  0  0  0  0  0  0  0
    2.7817   -0.6973   -2.6072 H   0  0  0  0  0  0  0  0  0  0  0  0
    1.0693   -0.3146   -2.9010 H   0  0  0  0  0  0  0  0  0  0  0  0
    0.7727   -2.5933   -3.0525 H   0  0  0  0  0  0  0  0  0  0  0  0
    2.3540   -2.9484   -2.3295 H   0  0  0  0  0  0  0  0  0  0  0  0
   -0.2797   -2.9691   -1.0463 H   0  0  0  0  0  0  0  0  0  0  0  0
    1.2989   -3.3703   -0.3224 H   0  0  0  0  0  0  0  0  0  0  0  0
   -0.2342    0.8543    0.0274 N   0  0  0  0  0  0  0  0  0  0  0  0
   -0.9522    1.8397    0.8038 C   0  0  2  0  0  0  0  0  0  0  0  0
   -0.3685    3.2089    0.4812 C   0  0  0  0  0  0  0  0  0  0  0  0
    0.7636    3.3659    0.0288 O   0  0  0  0  0  0  0  0  0  0  0  0
   -0.8587    1.5461    2.2930 C   0  0  0  0  0  0  0  0  0  0  0  0
   -0.7599    0.2661   -0.6122 H   0  0  0  0  0  0  0  0  0  0  0  0
   -1.9967    1.8008    0.4759 H   0  0  0  0  0  0  0  0  0  0  0  0
    0.1805    1.5805    2.6398 H   0  0  0  0  0  0  0  0  0  0  0  0
   -1.4267    2.2770    2.8779 H   0  0  0  0  0  0  0  0  0  0  0  0
   -1.2516    0.5489    2.5190 H   0  0  0  0  0  0  0  0  0  0  0  0
   -1.2446    4.2375    0.7984 N   0  0  0  0  0  0  0  0  0  0  0  0
   -0.9177    5.6299    0.5971 C   0  0  0  0  0  0  0  0  0  0  0  0
   -2.1704    4.0143    1.1515 H   0  0  0  0  0  0  0  0  0  0  0  0
   -0.4776    6.0406    1.5178 H   0  0  0  0  0  0  0  0  0  0  0  0
   -0.1949    5.7213   -0.2271 H   0  0  0  0  0  0  0  0  0  0  0  0
   -1.8317    6.1885    0.3469 H   0  0  0  0  0  0  0  0  0  0  0  0
 18 19  1  0  0  0  0
 19 31  1  0  0  0  0
 19 20  2  0  0  0  0
  8  9  1  0  0  0  0
  9 17  1  0  0  0  0
  9 10  2  0  0  0  0
  1  3  1  0  0  0  0
  1  7  1  0  0  0  0
  1  2  2  0  0  0  0
 32 33  1  0  0  0  0
 33 41  1  0  0  0  0
 33 34  2  0  0  0  0
 21 22  1  0  0  0  0
 22 23  1  0  0  0  0
 18 21  1  0  0  0  0
 17 23  1  0  0  0  0
 17 18  1  0  0  0  0
  8 11  1  0  0  0  0
 32 35  1  0  0  0  0
 41 42  1  0  0  0  0
  7  8  1  0  0  0  0
 31 32  1  0  0  0  0
 22 27  1  0  0  0  0
 22 28  1  0  0  0  0
 21 25  1  0  0  0  0
 21 26  1  0  0  0  0
 23 29  1  0  0  0  0
 23 30  1  0  0  0  0
 18 24  1  0  0  0  0
  3  4  1  0  0  0  0
  3  5  1  0  0  0  0
  3  6  1  0  0  0  0
 11 14  1  0  0  0  0
 11 15  1  0  0  0  0
 11 16  1  0  0  0  0
 35 38  1  0  0  0  0
 35 39  1  0  0  0  0
 35 40  1  0  0  0  0
 42 44  1  0  0  0  0
 42 45  1  0  0  0  0
 42 46  1  0  0  0  0
  8 13  1  0  0  0  0
 32 37  1  0  0  0  0
 31 36  1  0  0  0  0
 41 43  1  0  0  0  0
  7 12  1  0  0  0  0
M  END
$$$$

  -OEChem-05262214473D

 46 46  0     1  0  0  0  0  0999 V2000
   -0.6012   -3.2995    3.8205 C   0  0  0  0  0  0  0  0  0  0  0  0
   -0.6574   -4.4683    3.4568 O   0  0  0  0  0  0  0  0  0  0  0  0
   -0.4935   -2.9859    5.2760 C   0  0  0  0  0  0  0  0  0  0  0  0
   -1.4789   -2.8689    5.7550 H   0  0  0  0  0  0  0  0  0  0  0  0
    0.0123   -3.7847    5.8419 H   0  0  0  0  0  0  0  0  0  0  0  0
    0.0585   -2.0642    5.5199 H   0  0  0  0  0  0  0  0  0  0  0  0
   -0.6261   -2.1849    2.9917 N   0  0  0  0  0  0  0  0  0  0  0  0
   -0.7237   -2.2601    1.5650 C   0  0  2  0  0  0  0  0  0  0  0  0
    0.1695   -1.1513    1.0687 C   0  0  0  0  0  0  0  0  0  0  0  0
    0.3193   -0.1267    1.7365 O   0  0  0  0  0  0  0  0  0  0  0  0
   -2.1397   -2.0663    1.0750 C   0  0  0  0  0  0  0  0  0  0  0  0
   -0.5717   -1.2606    3.4238 H   0  0  0  0  0  0  0  0  0  0  0  0
   -0.3076   -3.2111    1.2363 H   0  0  0  0  0  0  0  0  0  0  0  0
   -2.5584   -1.1089    1.4061 H   0  0  0  0  0  0  0  0  0  0  0  0
   -2.1682   -2.0790   -0.0197 H   0  0  0  0  0  0  0  0  0  0  0  0
   -2.7965   -2.8601    1.4459 H   0  0  0  0  0  0  0  0  0  0  0  0
    0.7724   -1.3745   -0.1593 N   0  0  0  0  0  0  0  0  0  0  0  0
    1.6644   -0.4046   -0.7812 C   0  0  2  0  0  0  0  0  0  0  0  0
    1.0167    0.9407   -0.6474 C   0  0  0  0  0  0  0  0  0  0  0  0
    1.4259    1.8781   -1.3224 O   0  0  0  0  0  0  0  0  0  0  0  0
    1.7598   -0.8444   -2.2376 C   0  0  0  0  0  0  0  0  0  0  0  0
    1.4509   -2.3396   -2.2296 C   0  0  0  0  0  0  0  0  0  0  0  0
    0.7499   -2.6270   -0.9105 C   0  0  0  0  0  0  0  0  0  0  0  0
    2.6337   -0.3810   -0.2742 H   0  0  0  0  0  0  0  0  0  0  0  0
    2.7817   -0.6973   -2.6072 H   0  0  0  0  0  0  0  0  0  0  0  0
    1.0693   -0.3146   -2.9010 H   0  0  0  0  0  0  0  0  0  0  0  0
    0.7727   -2.5933   -3.0525 H   0  0  0  0  0  0  0  0  0  0  0  0
    2.3540   -2.9484   -2.3295 H   0  0  0  0  0  0  0  0  0  0  0  0
   -0.2797   -2.9691   -1.0463 H   0  0  0  0  0  0  0  0  0  0  0  0
    1.2989   -3.3703   -0.3224 H   0  0  0  0  0  0  0  0  0  0  0  0
   -0.0406    0.9198    0.3063 N   0  0  0  0  0  0  0  0  0  0  0  0
   -0.5951    1.9804    1.1166 C   0  0  2  0  0  0  0  0  0  0  0  0
   -0.1519    3.3094    0.5192 C   0  0  0  0  0  0  0  0  0  0  0  0
    0.8387    3.4247   -0.1995 O   0  0  0  0  0  0  0  0  0  0  0  0
   -0.1496    1.8603    2.5656 C   0  0  0  0  0  0  0  0  0  0  0  0
   -0.6780    0.2570   -0.1248 H   0  0  0  0  0  0  0  0  0  0  0  0
   -1.6850    1.8939    1.0480 H   0  0  0  0  0  0  0  0  0  0  0  0
    0.9396    1.9445    2.6543 H   0  0  0  0  0  0  0  0  0  0  0  0
   -0.5934    2.6477    3.1837 H   0  0  0  0  0  0  0  0  0  0  0  0
   -0.4432    0.8917    2.9846 H   0  0  0  0  0  0  0  0  0  0  0  0
   -0.9677    4.3589    0.9181 N   0  0  0  0  0  0  0  0  0  0  0  0
   -0.7470    5.7222    0.4954 C   0  0  0  0  0  0  0  0  0  0  0  0
   -1.7783    4.1684    1.4999 H   0  0  0  0  0  0  0  0  0  0  0  0
   -0.1214    6.2400    1.2374 H   0  0  0  0  0  0  0  0  0  0  0  0
   -0.2379    5.7257   -0.4797 H   0  0  0  0  0  0  0  0  0  0  0  0
   -1.7137    6.2394    0.4062 H   0  0  0  0  0  0  0  0  0  0  0  0
 18 19  1  0  0  0  0
 19 31  1  0  0  0  0
 19 20  2  0  0  0  0
  8  9  1  0  0  0  0
  9 17  1  0  0  0  0
  9 10  2  0  0  0  0
  1  3  1  0  0  0  0
  1  7  1  0  0  0  0
  1  2  2  0  0  0  0
 32 33  1  0  0  0  0
 33 41  1  0  0  0  0
 33 34  2  0  0  0  0
 21 22  1  0  0  0  0
 22 23  1  0  0  0  0
 18 21  1  0  0  0  0
 17 23  1  0  0  0  0
 17 18  1  0  0  0  0
  8 11  1  0  0  0  0
 32 35  1  0  0  0  0
 41 42  1  0  0  0  0
  7  8  1  0  0  0  0
 31 32  1  0  0  0  0
 22 27  1  0  0  0  0
 22 28  1  0  0  0  0
 21 25  1  0  0  0  0
 21 26  1  0  0  0  0
 23 29  1  0  0  0  0
 23 30  1  0  0  0  0
 18 24  1  0  0  0  0
  3  4  1  0  0  0  0
  3  5  1  0  0  0  0
  3  6  1  0  0  0  0
 11 14  1  0  0  0  0
 11 15  1  0  0  0  0
 11 16  1  0  0  0  0
 35 38  1  0  0  0  0
 35 39  1  0  0  0  0
 35 40  1  0  0  0  0
 42 44  1  0  0  0  0
 42 45  1  0  0  0  0
 42 46  1  0  0  0  0
  8 13  1  0  0  0  0
 32 37  1  0  0  0  0
 31 36  1  0  0  0  0
 41 43  1  0  0  0  0
  7 12  1  0  0  0  0
M  END
$$$$

  -OEChem-05262214473D

 46 46  0     1  0  0  0  0  0999 V2000
   -0.6012   -3.2995    3.8205 C   0  0  0  0  0  0  0  0  0  0  0  0
   -0.6574   -4.4683    3.4568 O   0  0  0  0  0  0  0  0  0  0  0  0
   -0.4935   -2.9859    5.2760 C   0  0  0  0  0  0  0  0  0  0  0  0
   -1.4789   -2.8689    5.7550 H   0  0  0  0  0  0  0  0  0  0  0  0
    0.0123   -3.7847    5.8419 H   0  0  0  0  0  0  0  0  0  0  0  0
    0.0585   -2.0642    5.5199 H   0  0  0  0  0  0  0  0  0  0  0  0
   -0.6261   -2.1849    2.9917 N   0  0  0  0  0  0  0  0  0  0  0  0
   -0.7237   -2.2601    1.5650 C   0  0  2  0  0  0  0  0  0  0  0  0
    0.1695   -1.1513    1.0687 C   0  0  0  0  0  0  0  0  0  0  0  0
    0.3193   -0.1267    1.7365 O   0  0  0  0  0  0  0  0  0  0  0  0
   -2.1397   -2.0663    1.0750 C   0  0  0  0  0  0  0  0  0  0  0  0
   -0.5717   -1.2606    3.4238 H   0  0  0  0  0  0  0  0  0  0  0  0
   -0.3076   -3.2111    1.2363 H   0  0  0  0  0  0  0  0  0  0  0  0
   -2.5584   -1.1089    1.4061 H   0  0  0  0  0  0  0  0  0  0  0  0
   -2.1682   -2.0790   -0.0197 H   0  0  0  0  0  0  0  0  0  0  0  0
   -2.7965   -2.8601    1.4459 H   0  0  0  0  0  0  0  0  0  0  0  0
    0.7724   -1.3745   -0.1593 N   0  0  0  0  0  0  0  0  0  0  0  0
    1.6644   -0.4046   -0.7812 C   0  0  2  0  0  0  0  0  0  0  0  0
    1.0167    0.9407   -0.6474 C   0  0  0  0  0  0  0  0  0  0  0  0
    1.2246    1.7986   -1.4974 O   0  0  0  0  0  0  0  0  0  0  0  0
    1.7598   -0.8444   -2.2376 C   0  0  0  0  0  0  0  0  0  0  0  0
    1.4509   -2.3396   -2.2296 C   0  0  0  0  0  0  0  0  0  0  0  0
    0.7499   -2.6270   -0.9105 C   0  0  0  0  0  0  0  0  0  0  0  0
    2.6337   -0.3810   -0.2742 H   0  0  0  0  0  0  0  0  0  0  0  0
    2.7817   -0.6973   -2.6072 H   0  0  0  0  0  0  0  0  0  0  0  0
    1.0693   -0.3146   -2.9010 H   0  0  0  0  0  0  0  0  0  0  0  0
    0.7727   -2.5933   -3.0525 H   0  0  0  0  0  0  0  0  0  0  0  0
    2.3540   -2.9484   -2.3295 H   0  0  0  0  0  0  0  0  0  0  0  0
   -0.2797   -2.9691   -1.0463 H   0  0  0  0  0  0  0  0  0  0  0  0
    1.2989   -3.3703   -0.3224 H   0  0  0  0  0  0  0  0  0  0  0  0
    0.2097    1.0187    0.5233 N   0  0  0  0  0  0  0  0  0  0  0  0
   -0.1808    2.1596    1.3200 C   0  0  2  0  0  0  0  0  0  0  0  0
    0.0639    3.4158    0.4944 C   0  0  0  0  0  0  0  0  0  0  0  0
    0.8569    3.4578   -0.4440 O   0  0  0  0  0  0  0  0  0  0  0  0
    0.5914    2.2107    2.6292 C   0  0  0  0  0  0  0  0  0  0  0  0
   -0.4855    0.3046    0.3280 H   0  0  0  0  0  0  0  0  0  0  0  0
   -1.2532    2.0551    1.5178 H   0  0  0  0  0  0  0  0  0  0  0  0
    1.6679    2.3153    2.4512 H   0  0  0  0  0  0  0  0  0  0  0  0
    0.2741    3.0593    3.2441 H   0  0  0  0  0  0  0  0  0  0  0  0
    0.4378    1.2936    3.2082 H   0  0  0  0  0  0  0  0  0  0  0  0
   -0.6753    4.4959    0.9559 N   0  0  0  0  0  0  0  0  0  0  0  0
   -0.6079    5.8039    0.3472 C   0  0  0  0  0  0  0  0  0  0  0  0
   -1.3221    4.3653    1.7282 H   0  0  0  0  0  0  0  0  0  0  0  0
    0.1530    6.4094    0.8615 H   0  0  0  0  0  0  0  0  0  0  0  0
   -0.3383    5.7008   -0.7143 H   0  0  0  0  0  0  0  0  0  0  0  0
   -1.5872    6.2979    0.4304 H   0  0  0  0  0  0  0  0  0  0  0  0
 18 19  1  0  0  0  0
 19 31  1  0  0  0  0
 19 20  2  0  0  0  0
  8  9  1  0  0  0  0
  9 17  1  0  0  0  0
  9 10  2  0  0  0  0
  1  3  1  0  0  0  0
  1  7  1  0  0  0  0
  1  2  2  0  0  0  0
 32 33  1  0  0  0  0
 33 41  1  0  0  0  0
 33 34  2  0  0  0  0
 21 22  1  0  0  0  0
 22 23  1  0  0  0  0
 18 21  1  0  0  0  0
 17 23  1  0  0  0  0
 17 18  1  0  0  0  0
  8 11  1  0  0  0  0
 32 35  1  0  0  0  0
 41 42  1  0  0  0  0
  7  8  1  0  0  0  0
 31 32  1  0  0  0  0
 22 27  1  0  0  0  0
 22 28  1  0  0  0  0
 21 25  1  0  0  0  0
 21 26  1  0  0  0  0
 23 29  1  0  0  0  0
 23 30  1  0  0  0  0
 18 24  1  0  0  0  0
  3  4  1  0  0  0  0
  3  5  1  0  0  0  0
  3  6  1  0  0  0  0
 11 14  1  0  0  0  0
 11 15  1  0  0  0  0
 11 16  1  0  0  0  0
 35 38  1  0  0  0  0
 35 39  1  0  0  0  0
 35 40  1  0  0  0  0
 42 44  1  0  0  0  0
 42 45  1  0  0  0  0
 42 46  1  0  0  0  0
  8 13  1  0  0  0  0
 32 37  1  0  0  0  0
 31 36  1  0  0  0  0
 41 43  1  0  0  0  0
  7 12  1  0  0  0  0
M  END
$$$$

  -OEChem-05262214473D

 46 46  0     1  0  0  0  0  0999 V2000
   -0.6012   -3.2995    3.8205 C   0  0  0  0  0  0  0  0  0  0  0  0
   -0.6574   -4.4683    3.4568 O   0  0  0  0  0  0  0  0  0  0  0  0
   -0.4935   -2.9859    5.2760 C   0  0  0  0  0  0  0  0  0  0  0  0
   -1.4789   -2.8689    5.7550 H   0  0  0  0  0  0  0  0  0  0  0  0
    0.0123   -3.7847    5.8419 H   0  0  0  0  0  0  0  0  0  0  0  0
    0.0585   -2.0642    5.5199 H   0  0  0  0  0  0  0  0  0  0  0  0
   -0.6261   -2.1849    2.9917 N   0  0  0  0  0  0  0  0  0  0  0  0
   -0.7237   -2.2601    1.5650 C   0  0  2  0  0  0  0  0  0  0  0  0
    0.1695   -1.1513    1.0687 C   0  0  0  0  0  0  0  0  0  0  0  0
    0.3193   -0.1267    1.7365 O   0  0  0  0  0  0  0  0  0  0  0  0
   -2.1397   -2.0663    1.0750 C   0  0  0  0  0  0  0  0  0  0  0  0
   -0.5717   -1.2606    3.4238 H   0  0  0  0  0  0  0  0  0  0  0  0
   -0.3076   -3.2111    1.2363 H   0  0  0  0  0  0  0  0  0  0  0  0
   -2.5584   -1.1089    1.4061 H   0  0  0  0  0  0  0  0  0  0  0  0
   -2.1682   -2.0790   -0.0197 H   0  0  0  0  0  0  0  0  0  0  0  0
   -2.7965   -2.8601    1.4459 H   0  0  0  0  0  0  0  0  0  0  0  0
    0.7724   -1.3745   -0.1593 N   0  0  0  0  0  0  0  0  0  0  0  0
    1.6644   -0.4046   -0.7812 C   0  0  2  0  0  0  0  0  0  0  0  0
    1.0167    0.9407   -0.6474 C   0  0  0  0  0  0  0  0  0  0  0  0
    0.9913    1.6976   -1.6108 O   0  0  0  0  0  0  0  0  0  0  0  0
    1.7598   -0.8444   -2.2376 C   0  0  0  0  0  0  0  0  0  0  0  0
    1.4509   -2.3396   -2.2296 C   0  0  0  0  0  0  0  0  0  0  0  0
    0.7499   -2.6270   -0.9105 C   0  0  0  0  0  0  0  0  0  0  0  0
    2.6337   -0.3810   -0.2742 H   0  0  0  0  0  0  0  0  0  0  0  0
    2.7817   -0.6973   -2.6072 H   0  0  0  0  0  0  0  0  0  0  0  0
    1.0693   -0.3146   -2.9010 H   0  0  0  0  0  0  0  0  0  0  0  0
    0.7727   -2.5933   -3.0525 H   0  0  0  0  0  0  0  0  0  0  0  0
    2.3540   -2.9484   -2.3295 H   0  0  0  0  0  0  0  0  0  0  0  0
   -0.2797   -2.9691   -1.0463 H   0  0  0  0  0  0  0  0  0  0  0  0
    1.2989   -3.3703   -0.3224 H   0  0  0  0  0  0  0  0  0  0  0  0
    0.4996    1.1443    0.6637 N   0  0  0  0  0  0  0  0  0  0  0  0
    0.2625    2.3650    1.4003 C   0  0  2  0  0  0  0  0  0  0  0  0
    0.2641    3.5207    0.4084 C   0  0  0  0  0  0  0  0  0  0  0  0
    0.8169    3.4628   -0.6881 O   0  0  0  0  0  0  0  0  0  0  0  0
    1.3138    2.5733    2.4793 C   0  0  0  0  0  0  0  0  0  0  0  0
   -0.1955    0.4057    0.7153 H   0  0  0  0  0  0  0  0  0  0  0  0
   -0.7307    2.2732    1.8533 H   0  0  0  0  0  0  0  0  0  0  0  0
    2.3155    2.6675    2.0444 H   0  0  0  0  0  0  0  0  0  0  0  0
    1.1165    3.4836    3.0550 H   0  0  0  0  0  0  0  0  0  0  0  0
    1.3315    1.7272    3.1746 H   0  0  0  0  0  0  0  0  0  0  0  0
   -0.3873    4.6392    0.9091 N   0  0  0  0  0  0  0  0  0  0  0  0
   -0.5098    5.8695    0.1626 C   0  0  0  0  0  0  0  0  0  0  0  0
   -0.8330    4.5915    1.8206 H   0  0  0  0  0  0  0  0  0  0  0  0
    0.3268    6.5374    0.4157 H   0  0  0  0  0  0  0  0  0  0  0  0
   -0.4891    5.6481   -0.9147 H   0  0  0  0  0  0  0  0  0  0  0  0
   -1.4607    6.3600    0.4179 H   0  0  0  0  0  0  0  0  0  0  0  0
 18 19  1  0  0  0  0
 19 31  1  0  0  0  0
 19 20  2  0  0  0  0
  8  9  1  0  0  0  0
  9 17  1  0  0  0  0
  9 10  2  0  0  0  0
  1  3  1  0  0  0  0
  1  7  1  0  0  0  0
  1  2  2  0  0  0  0
 32 33  1  0  0  0  0
 33 41  1  0  0  0  0
 33 34  2  0  0  0  0
 21 22  1  0  0  0  0
 22 23  1  0  0  0  0
 18 21  1  0  0  0  0
 17 23  1  0  0  0  0
 17 18  1  0  0  0  0
  8 11  1  0  0  0  0
 32 35  1  0  0  0  0
 41 42  1  0  0  0  0
  7  8  1  0  0  0  0
 31 32  1  0  0  0  0
 22 27  1  0  0  0  0
 22 28  1  0  0  0  0
 21 25  1  0  0  0  0
 21 26  1  0  0  0  0
 23 29  1  0  0  0  0
 23 30  1  0  0  0  0
 18 24  1  0  0  0  0
  3  4  1  0  0  0  0
  3  5  1  0  0  0  0
  3  6  1  0  0  0  0
 11 14  1  0  0  0  0
 11 15  1  0  0  0  0
 11 16  1  0  0  0  0
 35 38  1  0  0  0  0
 35 39  1  0  0  0  0
 35 40  1  0  0  0  0
 42 44  1  0  0  0  0
 42 45  1  0  0  0  0
 42 46  1  0  0  0  0
  8 13  1  0  0  0  0
 32 37  1  0  0  0  0
 31 36  1  0  0  0  0
 41 43  1  0  0  0  0
  7 12  1  0  0  0  0
M  END
$$$$

  -OEChem-05262214473D

 46 46  0     1  0  0  0  0  0999 V2000
   -0.6012   -3.2995    3.8205 C   0  0  0  0  0  0  0  0  0  0  0  0
   -0.6574   -4.4683    3.4568 O   0  0  0  0  0  0  0  0  0  0  0  0
   -0.4935   -2.9859    5.2760 C   0  0  0  0  0  0  0  0  0  0  0  0
   -1.4789   -2.8689    5.7550 H   0  0  0  0  0  0  0  0  0  0  0  0
    0.0123   -3.7847    5.8419 H   0  0  0  0  0  0  0  0  0  0  0  0
    0.0585   -2.0642    5.5199 H   0  0  0  0  0  0  0  0  0  0  0  0
   -0.6261   -2.1849    2.9917 N   0  0  0  0  0  0  0  0  0  0  0  0
   -0.7237   -2.2601    1.5650 C   0  0  2  0  0  0  0  0  0  0  0  0
    0.1695   -1.1513    1.0687 C   0  0  0  0  0  0  0  0  0  0  0  0
    0.3193   -0.1267    1.7365 O   0  0  0  0  0  0  0  0  0  0  0  0
   -2.1397   -2.0663    1.0750 C   0  0  0  0  0  0  0  0  0  0  0  0
   -0.5717   -1.2606    3.4238 H   0  0  0  0  0  0  0  0  0  0  0  0
   -0.3076   -3.2111    1.2363 H   0  0  0  0  0  0  0  0  0  0  0  0
   -2.5584   -1.1089    1.4061 H   0  0  0  0  0  0  0  0  0  0  0  0
   -2.1682   -2.0790   -0.0197 H   0  0  0  0  0  0  0  0  0  0  0  0
   -2.7965   -2.8601    1.4459 H   0  0  0  0  0  0  0  0  0  0  0  0
    0.7724   -1.3745   -0.1593 N   0  0  0  0  0  0  0  0  0  0  0  0
    1.6644   -0.4046   -0.7812 C   0  0  2  0  0  0  0  0  0  0  0  0
    1.0167    0.9407   -0.6474 C   0  0  0  0  0  0  0  0  0  0  0  0
    0.7420    1.5820   -1.6548 O   0  0  0  0  0  0  0  0  0  0  0  0
    1.7598   -0.8444   -2.2376 C   0  0  0  0  0  0  0  0  0  0  0  0
    1.4509   -2.3396   -2.2296 C   0  0  0  0  0  0  0  0  0  0  0  0
    0.7499   -2.6270   -0.9105 C   0  0  0  0  0  0  0  0  0  0  0  0
    2.6337   -0.3810   -0.2742 H   0  0  0  0  0  0  0  0  0  0  0  0
    2.7817   -0.6973   -2.6072 H   0  0  0  0  0  0  0  0  0  0  0  0
    1.0693   -0.3146   -2.9010 H   0  0  0  0  0  0  0  0  0  0  0  0
    0.7727   -2.5933   -3.0525 H   0  0  0  0  0  0  0  0  0  0  0  0
    2.3540   -2.9484   -2.3295 H   0  0  0  0  0  0  0  0  0  0  0  0
   -0.2797   -2.9691   -1.0463 H   0  0  0  0  0  0  0  0  0  0  0  0
    1.2989   -3.3703   -0.3224 H   0  0  0  0  0  0  0  0  0  0  0  0
    0.8094    1.2880    0.7180 N   0  0  0  0  0  0  0  0  0  0  0  0
    0.7046    2.5827    1.3519 C   0  0  2  0  0  0  0  0  0  0  0  0
    0.4351    3.6171    0.2670 C   0  0  0  0  0  0  0  0  0  0  0  0
    0.7214    3.4394   -0.9151 O   0  0  0  0  0  0  0  0  0  0  0  0
    1.9684    2.9236    2.1261 C   0  0  0  0  0  0  0  0  0  0  0  0
    0.1723    0.5533    1.0108 H   0  0  0  0  0  0  0  0  0  0  0  0
   -0.1531    2.5335    2.0316 H   0  0  0  0  0  0  0  0  0  0  0  0
    2.8385    2.9773    1.4617 H   0  0  0  0  0  0  0  0  0  0  0  0
    1.8764    3.8918    2.6291 H   0  0  0  0  0  0  0  0  0  0  0  0
    2.1770    2.1629    2.8861 H   0  0  0  0  0  0  0  0  0  0  0  0
   -0.1232    4.7791    0.7810 N   0  0  0  0  0  0  0  0  0  0  0  0
   -0.4594    5.9145   -0.0459 C   0  0  0  0  0  0  0  0  0  0  0  0
   -0.3444    4.8317    1.7710 H   0  0  0  0  0  0  0  0  0  0  0  0
    0.3881    6.6153   -0.0696 H   0  0  0  0  0  0  0  0  0  0  0  0
   -0.6801    5.5714   -1.0674 H   0  0  0  0  0  0  0  0  0  0  0  0
   -1.3428    6.4216    0.3694 H   0  0  0  0  0  0  0  0  0  0  0  0
 18 19  1  0  0  0  0
 19 31  1  0  0  0  0
 19 20  2  0  0  0  0
  8  9  1  0  0  0  0
  9 17  1  0  0  0  0
  9 10  2  0  0  0  0
  1  3  1  0  0  0  0
  1  7  1  0  0  0  0
  1  2  2  0  0  0  0
 32 33  1  0  0  0  0
 33 41  1  0  0  0  0
 33 34  2  0  0  0  0
 21 22  1  0  0  0  0
 22 23  1  0  0  0  0
 18 21  1  0  0  0  0
 17 23  1  0  0  0  0
 17 18  1  0  0  0  0
  8 11  1  0  0  0  0
 32 35  1  0  0  0  0
 41 42  1  0  0  0  0
  7  8  1  0  0  0  0
 31 32  1  0  0  0  0
 22 27  1  0  0  0  0
 22 28  1  0  0  0  0
 21 25  1  0  0  0  0
 21 26  1  0  0  0  0
 23 29  1  0  0  0  0
 23 30  1  0  0  0  0
 18 24  1  0  0  0  0
  3  4  1  0  0  0  0
  3  5  1  0  0  0  0
  3  6  1  0  0  0  0
 11 14  1  0  0  0  0
 11 15  1  0  0  0  0
 11 16  1  0  0  0  0
 35 38  1  0  0  0  0
 35 39  1  0  0  0  0
 35 40  1  0  0  0  0
 42 44  1  0  0  0  0
 42 45  1  0  0  0  0
 42 46  1  0  0  0  0
  8 13  1  0  0  0  0
 32 37  1  0  0  0  0
 31 36  1  0  0  0  0
 41 43  1  0  0  0  0
  7 12  1  0  0  0  0
M  END
$$$$

  -OEChem-05262214473D

 46 46  0     1  0  0  0  0  0999 V2000
   -0.6012   -3.2995    3.8205 C   0  0  0  0  0  0  0  0  0  0  0  0
   -0.6574   -4.4683    3.4568 O   0  0  0  0  0  0  0  0  0  0  0  0
   -0.4935   -2.9859    5.2760 C   0  0  0  0  0  0  0  0  0  0  0  0
   -1.4789   -2.8689    5.7550 H   0  0  0  0  0  0  0  0  0  0  0  0
    0.0123   -3.7847    5.8419 H   0  0  0  0  0  0  0  0  0  0  0  0
    0.0585   -2.0642    5.5199 H   0  0  0  0  0  0  0  0  0  0  0  0
   -0.6261   -2.1849    2.9917 N   0  0  0  0  0  0  0  0  0  0  0  0
   -0.7237   -2.2601    1.5650 C   0  0  2  0  0  0  0  0  0  0  0  0
    0.1695   -1.1513    1.0687 C   0  0  0  0  0  0  0  0  0  0  0  0
    0.3193   -0.1267    1.7365 O   0  0  0  0  0  0  0  0  0  0  0  0
   -2.1397   -2.0663    1.0750 C   0  0  0  0  0  0  0  0  0  0  0  0
   -0.5717   -1.2606    3.4238 H   0  0  0  0  0  0  0  0  0  0  0  0
   -0.3076   -3.2111    1.2363 H   0  0  0  0  0  0  0  0  0  0  0  0
   -2.5584   -1.1089    1.4061 H   0  0  0  0  0  0  0  0  0  0  0  0
   -2.1682   -2.0790   -0.0197 H   0  0  0  0  0  0  0  0  0  0  0  0
   -2.7965   -2.8601    1.4459 H   0  0  0  0  0  0  0  0  0  0  0  0
    0.7724   -1.3745   -0.1593 N   0  0  0  0  0  0  0  0  0  0  0  0
    1.6644   -0.4046   -0.7812 C   0  0  2  0  0  0  0  0  0  0  0  0
    1.0167    0.9407   -0.6474 C   0  0  0  0  0  0  0  0  0  0  0  0
    0.4937    1.4596   -1.6266 O   0  0  0  0  0  0  0  0  0  0  0  0
    1.7598   -0.8444   -2.2376 C   0  0  0  0  0  0  0  0  0  0  0  0
    1.4509   -2.3396   -2.2296 C   0  0  0  0  0  0  0  0  0  0  0  0
    0.7499   -2.6270   -0.9105 C   0  0  0  0  0  0  0  0  0  0  0  0
    2.6337   -0.3810   -0.2742 H   0  0  0  0  0  0  0  0  0  0  0  0
    2.7817   -0.6973   -2.6072 H   0  0  0  0  0  0  0  0  0  0  0  0
    1.0693   -0.3146   -2.9010 H   0  0  0  0  0  0  0  0  0  0  0  0
    0.7727   -2.5933   -3.0525 H   0  0  0  0  0  0  0  0  0  0  0  0
    2.3540   -2.9484   -2.3295 H   0  0  0  0  0  0  0  0  0  0  0  0
   -0.2797   -2.9691   -1.0463 H   0  0  0  0  0  0  0  0  0  0  0  0
    1.2989   -3.3703   -0.3224 H   0  0  0  0  0  0  0  0  0  0  0  0
    1.1178    1.4400    0.6824 N   0  0  0  0  0  0  0  0  0  0  0  0
    1.1153    2.7977    1.1781 C   0  0  2  0  0  0  0  0  0  0  0  0
    0.5652    3.6983    0.0801 C   0  0  0  0  0  0  0  0  0  0  0  0
    0.5770    3.3893   -1.1097 O   0  0  0  0  0  0  0  0  0  0  0  0
    2.5105    3.2375    1.5938 C   0  0  0  0  0  0  0  0  0  0  0  0
    0.5927    0.7375    1.1943 H   0  0  0  0  0  0  0  0  0  0  0  0
    0.4402    2.8182    2.0406 H   0  0  0  0  0  0  0  0  0  0  0  0
    3.2011    3.2234    0.7427 H   0  0  0  0  0  0  0  0  0  0  0  0
    2.5021    4.2561    1.9957 H   0  0  0  0  0  0  0  0  0  0  0  0
    2.9165    2.5710    2.3623 H   0  0  0  0  0  0  0  0  0  0  0  0
    0.0989    4.9059    0.5803 N   0  0  0  0  0  0  0  0  0  0  0  0
   -0.4603    5.9358   -0.2639 C   0  0  0  0  0  0  0  0  0  0  0  0
    0.1106    5.0694    1.5828 H   0  0  0  0  0  0  0  0  0  0  0  0
    0.3329    6.6376   -0.5613 H   0  0  0  0  0  0  0  0  0  0  0  0
   -0.8983    5.4758   -1.1620 H   0  0  0  0  0  0  0  0  0  0  0  0
   -1.2417    6.4783    0.2883 H   0  0  0  0  0  0  0  0  0  0  0  0
 18 19  1  0  0  0  0
 19 31  1  0  0  0  0
 19 20  2  0  0  0  0
  8  9  1  0  0  0  0
  9 17  1  0  0  0  0
  9 10  2  0  0  0  0
  1  3  1  0  0  0  0
  1  7  1  0  0  0  0
  1  2  2  0  0  0  0
 32 33  1  0  0  0  0
 33 41  1  0  0  0  0
 33 34  2  0  0  0  0
 21 22  1  0  0  0  0
 22 23  1  0  0  0  0
 18 21  1  0  0  0  0
 17 23  1  0  0  0  0
 17 18  1  0  0  0  0
  8 11  1  0  0  0  0
 32 35  1  0  0  0  0
 41 42  1  0  0  0  0
  7  8  1  0  0  0  0
 31 32  1  0  0  0  0
 22 27  1  0  0  0  0
 22 28  1  0  0  0  0
 21 25  1  0  0  0  0
 21 26  1  0  0  0  0
 23 29  1  0  0  0  0
 23 30  1  0  0  0  0
 18 24  1  0  0  0  0
  3  4  1  0  0  0  0
  3  5  1  0  0  0  0
  3  6  1  0  0  0  0
 11 14  1  0  0  0  0
 11 15  1  0  0  0  0
 11 16  1  0  0  0  0
 35 38  1  0  0  0  0
 35 39  1  0  0  0  0
 35 40  1  0  0  0  0
 42 44  1  0  0  0  0
 42 45  1  0  0  0  0
 42 46  1  0  0  0  0
  8 13  1  0  0  0  0
 32 37  1  0  0  0  0
 31 36  1  0  0  0  0
 41 43  1  0  0  0  0
  7 12  1  0  0  0  0
M  END
$$$$

  -OEChem-05262214473D

 46 46  0     1  0  0  0  0  0999 V2000
   -0.6012   -3.2995    3.8205 C   0  0  0  0  0  0  0  0  0  0  0  0
   -0.6574   -4.4683    3.4568 O   0  0  0  0  0  0  0  0  0  0  0  0
   -0.4935   -2.9859    5.2760 C   0  0  0  0  0  0  0  0  0  0  0  0
   -1.4789   -2.8689    5.7550 H   0  0  0  0  0  0  0  0  0  0  0  0
    0.0123   -3.7847    5.8419 H   0  0  0  0  0  0  0  0  0  0  0  0
    0.0585   -2.0642    5.5199 H   0  0  0  0  0  0  0  0  0  0  0  0
   -0.6261   -2.1849    2.9917 N   0  0  0  0  0  0  0  0  0  0  0  0
   -0.7237   -2.2601    1.5650 C   0  0  2  0  0  0  0  0  0  0  0  0
    0.1695   -1.1513    1.0687 C   0  0  0  0  0  0  0  0  0  0  0  0
    0.3193   -0.1267    1.7365 O   0  0  0  0  0  0  0  0  0  0  0  0
   -2.1397   -2.0663    1.0750 C   0  0  0  0  0  0  0  0  0  0  0  0
   -0.5717   -1.2606    3.4238 H   0  0  0  0  0  0  0  0  0  0  0  0
   -0.3076   -3.2111    1.2363 H   0  0  0  0  0  0  0  0  0  0  0  0
   -2.5584   -1.1089    1.4061 H   0  0  0  0  0  0  0  0  0  0  0  0
   -2.1682   -2.0790   -0.0197 H   0  0  0  0  0  0  0  0  0  0  0  0
   -2.7965   -2.8601    1.4459 H   0  0  0  0  0  0  0  0  0  0  0  0
    0.7724   -1.3745   -0.1593 N   0  0  0  0  0  0  0  0  0  0  0  0
    1.6644   -0.4046   -0.7812 C   0  0  2  0  0  0  0  0  0  0  0  0
    1.0167    0.9407   -0.6474 C   0  0  0  0  0  0  0  0  0  0  0  0
    0.2632    1.3388   -1.5279 O   0  0  0  0  0  0  0  0  0  0  0  0
    1.7598   -0.8444   -2.2376 C   0  0  0  0  0  0  0  0  0  0  0  0
    1.4509   -2.3396   -2.2296 C   0  0  0  0  0  0  0  0  0  0  0  0
    0.7499   -2.6270   -0.9105 C   0  0  0  0  0  0  0  0  0  0  0  0
    2.6337   -0.3810   -0.2742 H   0  0  0  0  0  0  0  0  0  0  0  0
    2.7817   -0.6973   -2.6072 H   0  0  0  0  0  0  0  0  0  0  0  0
    1.0693   -0.3146   -2.9010 H   0  0  0  0  0  0  0  0  0  0  0  0
    0.7727   -2.5933   -3.0525 H   0  0  0  0  0  0  0  0  0  0  0  0
    2.3540   -2.9484   -2.3295 H   0  0  0  0  0  0  0  0  0  0  0  0
   -0.2797   -2.9691   -1.0463 H   0  0  0  0  0  0  0  0  0  0  0  0
    1.2989   -3.3703   -0.3224 H   0  0  0  0  0  0  0  0  0  0  0  0
    1.4040    1.5900    0.5593 N   0  0  0  0  0  0  0  0  0  0  0  0
    1.4668    2.9954    0.8908 C   0  0  2  0  0  0  0  0  0  0  0  0
    0.6455    3.7589   -0.1399 C   0  0  0  0  0  0  0  0  0  0  0  0
    0.3934    3.3157   -1.2584 O   0  0  0  0  0  0  0  0  0  0  0  0
    2.9033    3.4938    0.9185 C   0  0  0  0  0  0  0  0  0  0  0  0
    1.0372    0.9456    1.2532 H   0  0  0  0  0  0  0  0  0  0  0  0
    1.0088    3.1079    1.8796 H   0  0  0  0  0  0  0  0  0  0  0  0
    3.3787    3.3891   -0.0635 H   0  0  0  0  0  0  0  0  0  0  0  0
    2.9510    4.5516    1.1977 H   0  0  0  0  0  0  0  0  0  0  0  0
    3.4997    2.9237    1.6390 H   0  0  0  0  0  0  0  0  0  0  0  0
    0.2638    5.0112    0.3207 N   0  0  0  0  0  0  0  0  0  0  0  0
   -0.5122    5.9319   -0.4768 C   0  0  0  0  0  0  0  0  0  0  0  0
    0.5008    5.2885    1.2687 H   0  0  0  0  0  0  0  0  0  0  0  0
    0.1648    6.6029   -1.0259 H   0  0  0  0  0  0  0  0  0  0  0  0
   -1.1288    5.3678   -1.1920 H   0  0  0  0  0  0  0  0  0  0  0  0
   -1.1641    6.5264    0.1802 H   0  0  0  0  0  0  0  0  0  0  0  0
 18 19  1  0  0  0  0
 19 31  1  0  0  0  0
 19 20  2  0  0  0  0
  8  9  1  0  0  0  0
  9 17  1  0  0  0  0
  9 10  2  0  0  0  0
  1  3  1  0  0  0  0
  1  7  1  0  0  0  0
  1  2  2  0  0  0  0
 32 33  1  0  0  0  0
 33 41  1  0  0  0  0
 33 34  2  0  0  0  0
 21 22  1  0  0  0  0
 22 23  1  0  0  0  0
 18 21  1  0  0  0  0
 17 23  1  0  0  0  0
 17 18  1  0  0  0  0
  8 11  1  0  0  0  0
 32 35  1  0  0  0  0
 41 42  1  0  0  0  0
  7  8  1  0  0  0  0
 31 32  1  0  0  0  0
 22 27  1  0  0  0  0
 22 28  1  0  0  0  0
 21 25  1  0  0  0  0
 21 26  1  0  0  0  0
 23 29  1  0  0  0  0
 23 30  1  0  0  0  0
 18 24  1  0  0  0  0
  3  4  1  0  0  0  0
  3  5  1  0  0  0  0
  3  6  1  0  0  0  0
 11 14  1  0  0  0  0
 11 15  1  0  0  0  0
 11 16  1  0  0  0  0
 35 38  1  0  0  0  0
 35 39  1  0  0  0  0
 35 40  1  0  0  0  0
 42 44  1  0  0  0  0
 42 45  1  0  0  0  0
 42 46  1  0  0  0  0
  8 13  1  0  0  0  0
 32 37  1  0  0  0  0
 31 36  1  0  0  0  0
 41 43  1  0  0  0  0
  7 12  1  0  0  0  0
M  END
$$$$

  -OEChem-05262214473D

 46 46  0     1  0  0  0  0  0999 V2000
   -0.6012   -3.2995    3.8205 C   0  0  0  0  0  0  0  0  0  0  0  0
   -0.6574   -4.4683    3.4568 O   0  0  0  0  0  0  0  0  0  0  0  0
   -0.4935   -2.9859    5.2760 C   0  0  0  0  0  0  0  0  0  0  0  0
   -1.4789   -2.8689    5.7550 H   0  0  0  0  0  0  0  0  0  0  0  0
    0.0123   -3.7847    5.8419 H   0  0  0  0  0  0  0  0  0  0  0  0
    0.0585   -2.0642    5.5199 H   0  0  0  0  0  0  0  0  0  0  0  0
   -0.6261   -2.1849    2.9917 N   0  0  0  0  0  0  0  0  0  0  0  0
   -0.7237   -2.2601    1.5650 C   0  0  2  0  0  0  0  0  0  0  0  0
    0.1695   -1.1513    1.0687 C   0  0  0  0  0  0  0  0  0  0  0  0
    0.3193   -0.1267    1.7365 O   0  0  0  0  0  0  0  0  0  0  0  0
   -2.1397   -2.0663    1.0750 C   0  0  0  0  0  0  0  0  0  0  0  0
   -0.5717   -1.2606    3.4238 H   0  0  0  0  0  0  0  0  0  0  0  0
   -0.3076   -3.2111    1.2363 H   0  0  0  0  0  0  0  0  0  0  0  0
   -2.5584   -1.1089    1.4061 H   0  0  0  0  0  0  0  0  0  0  0  0
   -2.1682   -2.0790   -0.0197 H   0  0  0  0  0  0  0  0  0  0  0  0
   -2.7965   -2.8601    1.4459 H   0  0  0  0  0  0  0  0  0  0  0  0
    0.7724   -1.3745   -0.1593 N   0  0  0  0  0  0  0  0  0  0  0  0
    1.6644   -0.4046   -0.7812 C   0  0  2  0  0  0  0  0  0  0  0  0
    1.0167    0.9407   -0.6474 C   0  0  0  0  0  0  0  0  0  0  0  0
    0.0662    1.2278   -1.3655 O   0  0  0  0  0  0  0  0  0  0  0  0
    1.7598   -0.8444   -2.2376 C   0  0  0  0  0  0  0  0  0  0  0  0
    1.4509   -2.3396   -2.2296 C   0  0  0  0  0  0  0  0  0  0  0  0
    0.7499   -2.6270   -0.9105 C   0  0  0  0  0  0  0  0  0  0  0  0
    2.6337   -0.3810   -0.2742 H   0  0  0  0  0  0  0  0  0  0  0  0
    2.7817   -0.6973   -2.6072 H   0  0  0  0  0  0  0  0  0  0  0  0
    1.0693   -0.3146   -2.9010 H   0  0  0  0  0  0  0  0  0  0  0  0
    0.7727   -2.5933   -3.0525 H   0  0  0  0  0  0  0  0  0  0  0  0
    2.3540   -2.9484   -2.3295 H   0  0  0  0  0  0  0  0  0  0  0  0
   -0.2797   -2.9691   -1.0463 H   0  0  0  0  0  0  0  0  0  0  0  0
    1.2989   -3.3703   -0.3224 H   0  0  0  0  0  0  0  0  0  0  0  0
    1.6484    1.7278    0.3573 N   0  0  0  0  0  0  0  0  0  0  0  0
    1.7349    3.1625    0.5096 C   0  0  2  0  0  0  0  0  0  0  0  0
    0.6707    3.7946   -0.3777 C   0  0  0  0  0  0  0  0  0  0  0  0
    0.1833    3.2238   -1.3512 O   0  0  0  0  0  0  0  0  0  0  0  0
    3.1199    3.6749    0.1464 C   0  0  0  0  0  0  0  0  0  0  0  0
    1.4754    1.1634    1.1837 H   0  0  0  0  0  0  0  0  0  0  0  0
    1.5139    3.3829    1.5596 H   0  0  0  0  0  0  0  0  0  0  0  0
    3.3591    3.4631   -0.9021 H   0  0  0  0  0  0  0  0  0  0  0  0
    3.1923    4.7581    0.2896 H   0  0  0  0  0  0  0  0  0  0  0  0
    3.8870    3.1971    0.7654 H   0  0  0  0  0  0  0  0  0  0  0  0
    0.3604    5.0876    0.0199 N   0  0  0  0  0  0  0  0  0  0  0  0
   -0.6117    5.9032   -0.6698 C   0  0  0  0  0  0  0  0  0  0  0  0
    0.7997    5.4741    0.8502 H   0  0  0  0  0  0  0  0  0  0  0  0
   -0.1047    6.5136   -1.4317 H   0  0  0  0  0  0  0  0  0  0  0  0
   -1.3559    5.2548   -1.1553 H   0  0  0  0  0  0  0  0  0  0  0  0
   -1.1154    6.5626    0.0524 H   0  0  0  0  0  0  0  0  0  0  0  0
 18 19  1  0  0  0  0
 19 31  1  0  0  0  0
 19 20  2  0  0  0  0
  8  9  1  0  0  0  0
  9 17  1  0  0  0  0
  9 10  2  0  0  0  0
  1  3  1  0  0  0  0
  1  7  1  0  0  0  0
  1  2  2  0  0  0  0
 32 33  1  0  0  0  0
 33 41  1  0  0  0  0
 33 34  2  0  0  0  0
 21 22  1  0  0  0  0
 22 23  1  0  0  0  0
 18 21  1  0  0  0  0
 17 23  1  0  0  0  0
 17 18  1  0  0  0  0
  8 11  1  0  0  0  0
 32 35  1  0  0  0  0
 41 42  1  0  0  0  0
  7  8  1  0  0  0  0
 31 32  1  0  0  0  0
 22 27  1  0  0  0  0
 22 28  1  0  0  0  0
 21 25  1  0  0  0  0
 21 26  1  0  0  0  0
 23 29  1  0  0  0  0
 23 30  1  0  0  0  0
 18 24  1  0  0  0  0
  3  4  1  0  0  0  0
  3  5  1  0  0  0  0
  3  6  1  0  0  0  0
 11 14  1  0  0  0  0
 11 15  1  0  0  0  0
 11 16  1  0  0  0  0
 35 38  1  0  0  0  0
 35 39  1  0  0  0  0
 35 40  1  0  0  0  0
 42 44  1  0  0  0  0
 42 45  1  0  0  0  0
 42 46  1  0  0  0  0
  8 13  1  0  0  0  0
 32 37  1  0  0  0  0
 31 36  1  0  0  0  0
 41 43  1  0  0  0  0
  7 12  1  0  0  0  0
M  END
$$$$

  -OEChem-05262214473D

 46 46  0     1  0  0  0  0  0999 V2000
   -0.6012   -3.2995    3.8205 C   0  0  0  0  0  0  0  0  0  0  0  0
   -0.6574   -4.4683    3.4568 O   0  0  0  0  0  0  0  0  0  0  0  0
   -0.4935   -2.9859    5.2760 C   0  0  0  0  0  0  0  0  0  0  0  0
   -1.4789   -2.8689    5.7550 H   0  0  0  0  0  0  0  0  0  0  0  0
    0.0123   -3.7847    5.8419 H   0  0  0  0  0  0  0  0  0  0  0  0
    0.0585   -2.0642    5.5199 H   0  0  0  0  0  0  0  0  0  0  0  0
   -0.6261   -2.1849    2.9917 N   0  0  0  0  0  0  0  0  0  0  0  0
   -0.7237   -2.2601    1.5650 C   0  0  2  0  0  0  0  0  0  0  0  0
    0.1695   -1.1513    1.0687 C   0  0  0  0  0  0  0  0  0  0  0  0
    0.3193   -0.1267    1.7365 O   0  0  0  0  0  0  0  0  0  0  0  0
   -2.1397   -2.0663    1.0750 C   0  0  0  0  0  0  0  0  0  0  0  0
   -0.5717   -1.2606    3.4238 H   0  0  0  0  0  0  0  0  0  0  0  0
   -0.3076   -3.2111    1.2363 H   0  0  0  0  0  0  0  0  0  0  0  0
   -2.5584   -1.1089    1.4061 H   0  0  0  0  0  0  0  0  0  0  0  0
   -2.1682   -2.0790   -0.0197 H   0  0  0  0  0  0  0  0  0  0  0  0
   -2.7965   -2.8601    1.4459 H   0  0  0  0  0  0  0  0  0  0  0  0
    0.7724   -1.3745   -0.1593 N   0  0  0  0  0  0  0  0  0  0  0  0
    1.6644   -0.4046   -0.7812 C   0  0  2  0  0  0  0  0  0  0  0  0
    1.0167    0.9407   -0.6474 C   0  0  0  0  0  0  0  0  0  0  0  0
   -0.0837    1.1343   -1.1505 O   0  0  0  0  0  0  0  0  0  0  0  0
    1.7598   -0.8444   -2.2376 C   0  0  0  0  0  0  0  0  0  0  0  0
    1.4509   -2.3396   -2.2296 C   0  0  0  0  0  0  0  0  0  0  0  0
    0.7499   -2.6270   -0.9105 C   0  0  0  0  0  0  0  0  0  0  0  0
    2.6337   -0.3810   -0.2742 H   0  0  0  0  0  0  0  0  0  0  0  0
    2.7817   -0.6973   -2.6072 H   0  0  0  0  0  0  0  0  0  0  0  0
    1.0693   -0.3146   -2.9010 H   0  0  0  0  0  0  0  0  0  0  0  0
    0.7727   -2.5933   -3.0525 H   0  0  0  0  0  0  0  0  0  0  0  0
    2.3540   -2.9484   -2.3295 H   0  0  0  0  0  0  0  0  0  0  0  0
   -0.2797   -2.9691   -1.0463 H   0  0  0  0  0  0  0  0  0  0  0  0
    1.2989   -3.3703   -0.3224 H   0  0  0  0  0  0  0  0  0  0  0  0
    1.8343    1.8439    0.0899 N   0  0  0  0  0  0  0  0  0  0  0  0
    1.9015    3.2874    0.0603 C   0  0  2  0  0  0  0  0  0  0  0  0
    0.6389    3.8032   -0.6173 C   0  0  0  0  0  0  0  0  0  0  0  0
   -0.0391    3.1198   -1.3818 O   0  0  0  0  0  0  0  0  0  0  0  0
    3.1457    3.7685   -0.6699 C   0  0  0  0  0  0  0  0  0  0  0  0
    1.8775    1.3762    0.9904 H   0  0  0  0  0  0  0  0  0  0  0  0
    1.9211    3.6245    1.1025 H   0  0  0  0  0  0  0  0  0  0  0  0
    3.1438    3.4404   -1.7158 H   0  0  0  0  0  0  0  0  0  0  0  0
    3.2098    4.8617   -0.6666 H   0  0  0  0  0  0  0  0  0  0  0  0
    4.0517    3.3723   -0.1989 H   0  0  0  0  0  0  0  0  0  0  0  0
    0.3821    5.1300   -0.3017 N   0  0  0  0  0  0  0  0  0  0  0  0
   -0.7520    5.8516   -0.8300 C   0  0  0  0  0  0  0  0  0  0  0  0
    0.9869    5.6134    0.3558 H   0  0  0  0  0  0  0  0  0  0  0  0
   -0.4572    6.3757   -1.7511 H   0  0  0  0  0  0  0  0  0  0  0  0
   -1.5642    5.1445   -1.0545 H   0  0  0  0  0  0  0  0  0  0  0  0
   -1.0990    6.5843   -0.0865 H   0  0  0  0  0  0  0  0  0  0  0  0
 18 19  1  0  0  0  0
 19 31  1  0  0  0  0
 19 20  2  0  0  0  0
  8  9  1  0  0  0  0
  9 17  1  0  0  0  0
  9 10  2  0  0  0  0
  1  3  1  0  0  0  0
  1  7  1  0  0  0  0
  1  2  2  0  0  0  0
 32 33  1  0  0  0  0
 33 41  1  0  0  0  0
 33 34  2  0  0  0  0
 21 22  1  0  0  0  0
 22 23  1  0  0  0  0
 18 21  1  0  0  0  0
 17 23  1  0  0  0  0
 17 18  1  0  0  0  0
  8 11  1  0  0  0  0
 32 35  1  0  0  0  0
 41 42  1  0  0  0  0
  7  8  1  0  0  0  0
 31 32  1  0  0  0  0
 22 27  1  0  0  0  0
 22 28  1  0  0  0  0
 21 25  1  0  0  0  0
 21 26  1  0  0  0  0
 23 29  1  0  0  0  0
 23 30  1  0  0  0  0
 18 24  1  0  0  0  0
  3  4  1  0  0  0  0
  3  5  1  0  0  0  0
  3  6  1  0  0  0  0
 11 14  1  0  0  0  0
 11 15  1  0  0  0  0
 11 16  1  0  0  0  0
 35 38  1  0  0  0  0
 35 39  1  0  0  0  0
 35 40  1  0  0  0  0
 42 44  1  0  0  0  0
 42 45  1  0  0  0  0
 42 46  1  0  0  0  0
  8 13  1  0  0  0  0
 32 37  1  0  0  0  0
 31 36  1  0  0  0  0
 41 43  1  0  0  0  0
  7 12  1  0  0  0  0
M  END
$$$$

  -OEChem-05262214473D

 46 46  0     1  0  0  0  0  0999 V2000
   -0.6012   -3.2995    3.8205 C   0  0  0  0  0  0  0  0  0  0  0  0
   -0.6574   -4.4683    3.4568 O   0  0  0  0  0  0  0  0  0  0  0  0
   -0.4935   -2.9859    5.2760 C   0  0  0  0  0  0  0  0  0  0  0  0
   -1.4789   -2.8689    5.7550 H   0  0  0  0  0  0  0  0  0  0  0  0
    0.0123   -3.7847    5.8419 H   0  0  0  0  0  0  0  0  0  0  0  0
    0.0585   -2.0642    5.5199 H   0  0  0  0  0  0  0  0  0  0  0  0
   -0.6261   -2.1849    2.9917 N   0  0  0  0  0  0  0  0  0  0  0  0
   -0.7237   -2.2601    1.5650 C   0  0  2  0  0  0  0  0  0  0  0  0
    0.1695   -1.1513    1.0687 C   0  0  0  0  0  0  0  0  0  0  0  0
    0.3193   -0.1267    1.7365 O   0  0  0  0  0  0  0  0  0  0  0  0
   -2.1397   -2.0663    1.0750 C   0  0  0  0  0  0  0  0  0  0  0  0
   -0.5717   -1.2606    3.4238 H   0  0  0  0  0  0  0  0  0  0  0  0
   -0.3076   -3.2111    1.2363 H   0  0  0  0  0  0  0  0  0  0  0  0
   -2.5584   -1.1089    1.4061 H   0  0  0  0  0  0  0  0  0  0  0  0
   -2.1682   -2.0790   -0.0197 H   0  0  0  0  0  0  0  0  0  0  0  0
   -2.7965   -2.8601    1.4459 H   0  0  0  0  0  0  0  0  0  0  0  0
    0.7724   -1.3745   -0.1593 N   0  0  0  0  0  0  0  0  0  0  0  0
    1.6644   -0.4046   -0.7812 C   0  0  2  0  0  0  0  0  0  0  0  0
    1.0167    0.9407   -0.6474 C   0  0  0  0  0  0  0  0  0  0  0  0
   -0.1765    1.0645   -0.8976 O   0  0  0  0  0  0  0  0  0  0  0  0
    1.7598   -0.8444   -2.2376 C   0  0  0  0  0  0  0  0  0  0  0  0
    1.4509   -2.3396   -2.2296 C   0  0  0  0  0  0  0  0  0  0  0  0
    0.7499   -2.6270   -0.9105 C   0  0  0  0  0  0  0  0  0  0  0  0
    2.6337   -0.3810   -0.2742 H   0  0  0  0  0  0  0  0  0  0  0  0
    2.7817   -0.6973   -2.6072 H   0  0  0  0  0  0  0  0  0  0  0  0
    1.0693   -0.3146   -2.9010 H   0  0  0  0  0  0  0  0  0  0  0  0
    0.7727   -2.5933   -3.0525 H   0  0  0  0  0  0  0  0  0  0  0  0
    2.3540   -2.9484   -2.3295 H   0  0  0  0  0  0  0  0  0  0  0  0
   -0.2797   -2.9691   -1.0463 H   0  0  0  0  0  0  0  0  0  0  0  0
    1.2989   -3.3703   -0.3224 H   0  0  0  0  0  0  0  0  0  0  0  0
    1.9491    1.9304   -0.2245 N   0  0  0  0  0  0  0  0  0  0  0  0
    1.9552    3.3616   -0.4262 C   0  0  2  0  0  0  0  0  0  0  0  0
    0.5523    3.7839   -0.8423 C   0  0  0  0  0  0  0  0  0  0  0  0
   -0.2586    3.0108   -1.3480 O   0  0  0  0  0  0  0  0  0  0  0  0
    2.9787    3.7683   -1.4749 C   0  0  0  0  0  0  0  0  0  0  0  0
    2.2161    1.5695    0.6864 H   0  0  0  0  0  0  0  0  0  0  0  0
    2.2027    3.8160    0.5393 H   0  0  0  0  0  0  0  0  0  0  0  0
    2.7473    3.3225   -2.4492 H   0  0  0  0  0  0  0  0  0  0  0  0
    3.0021    4.8552   -1.6060 H   0  0  0  0  0  0  0  0  0  0  0  0
    3.9829    3.4376   -1.1883 H   0  0  0  0  0  0  0  0  0  0  0  0
    0.3273    5.1356   -0.6222 N   0  0  0  0  0  0  0  0  0  0  0  0
   -0.9236    5.7806   -0.9463 C   0  0  0  0  0  0  0  0  0  0  0  0
    1.0497    5.6970   -0.1809 H   0  0  0  0  0  0  0  0  0  0  0  0
   -0.8687    6.1986   -1.9624 H   0  0  0  0  0  0  0  0  0  0  0  0
   -1.7394    5.0444   -0.8964 H   0  0  0  0  0  0  0  0  0  0  0  0
   -1.1158    6.5902   -0.2269 H   0  0  0  0  0  0  0  0  0  0  0  0
 18 19  1  0  0  0  0
 19 31  1  0  0  0  0
 19 20  2  0  0  0  0
  8  9  1  0  0  0  0
  9 17  1  0  0  0  0
  9 10  2  0  0  0  0
  1  3  1  0  0  0  0
  1  7  1  0  0  0  0
  1  2  2  0  0  0  0
 32 33  1  0  0  0  0
 33 41  1  0  0  0  0
 33 34  2  0  0  0  0
 21 22  1  0  0  0  0
 22 23  1  0  0  0  0
 18 21  1  0  0  0  0
 17 23  1  0  0  0  0
 17 18  1  0  0  0  0
  8 11  1  0  0  0  0
 32 35  1  0  0  0  0
 41 42  1  0  0  0  0
  7  8  1  0  0  0  0
 31 32  1  0  0  0  0
 22 27  1  0  0  0  0
 22 28  1  0  0  0  0
 21 25  1  0  0  0  0
 21 26  1  0  0  0  0
 23 29  1  0  0  0  0
 23 30  1  0  0  0  0
 18 24  1  0  0  0  0
  3  4  1  0  0  0  0
  3  5  1  0  0  0  0
  3  6  1  0  0  0  0
 11 14  1  0  0  0  0
 11 15  1  0  0  0  0
 11 16  1  0  0  0  0
 35 38  1  0  0  0  0
 35 39  1  0  0  0  0
 35 40  1  0  0  0  0
 42 44  1  0  0  0  0
 42 45  1  0  0  0  0
 42 46  1  0  0  0  0
  8 13  1  0  0  0  0
 32 37  1  0  0  0  0
 31 36  1  0  0  0  0
 41 43  1  0  0  0  0
  7 12  1  0  0  0  0
M  END
$$$$

  -OEChem-05262214473D

 46 46  0     1  0  0  0  0  0999 V2000
   -0.6012   -3.2995    3.8205 C   0  0  0  0  0  0  0  0  0  0  0  0
   -0.6574   -4.4683    3.4568 O   0  0  0  0  0  0  0  0  0  0  0  0
   -0.4935   -2.9859    5.2760 C   0  0  0  0  0  0  0  0  0  0  0  0
   -1.4789   -2.8689    5.7550 H   0  0  0  0  0  0  0  0  0  0  0  0
    0.0123   -3.7847    5.8419 H   0  0  0  0  0  0  0  0  0  0  0  0
    0.0585   -2.0642    5.5199 H   0  0  0  0  0  0  0  0  0  0  0  0
   -0.6261   -2.1849    2.9917 N   0  0  0  0  0  0  0  0  0  0  0  0
   -0.7237   -2.2601    1.5650 C   0  0  2  0  0  0  0  0  0  0  0  0
    0.1695   -1.1513    1.0687 C   0  0  0  0  0  0  0  0  0  0  0  0
    0.3193   -0.1267    1.7365 O   0  0  0  0  0  0  0  0  0  0  0  0
   -2.1397   -2.0663    1.0750 C   0  0  0  0  0  0  0  0  0  0  0  0
   -0.5717   -1.2606    3.4238 H   0  0  0  0  0  0  0  0  0  0  0  0
   -0.3076   -3.2111    1.2363 H   0  0  0  0  0  0  0  0  0  0  0  0
   -2.5584   -1.1089    1.4061 H   0  0  0  0  0  0  0  0  0  0  0  0
   -2.1682   -2.0790   -0.0197 H   0  0  0  0  0  0  0  0  0  0  0  0
   -2.7965   -2.8601    1.4459 H   0  0  0  0  0  0  0  0  0  0  0  0
    0.7724   -1.3745   -0.1593 N   0  0  0  0  0  0  0  0  0  0  0  0
    1.6644   -0.4046   -0.7812 C   0  0  2  0  0  0  0  0  0  0  0  0
    1.0167    0.9407   -0.6474 C   0  0  0  0  0  0  0  0  0  0  0  0
   -0.2057    1.0232   -0.6239 O   0  0  0  0  0  0  0  0  0  0  0  0
    1.7598   -0.8444   -2.2376 C   0  0  0  0  0  0  0  0  0  0  0  0
    1.4509   -2.3396   -2.2296 C   0  0  0  0  0  0  0  0  0  0  0  0
    0.7499   -2.6270   -0.9105 C   0  0  0  0  0  0  0  0  0  0  0  0
    2.6337   -0.3810   -0.2742 H   0  0  0  0  0  0  0  0  0  0  0  0
    2.7817   -0.6973   -2.6072 H   0  0  0  0  0  0  0  0  0  0  0  0
    1.0693   -0.3146   -2.9010 H   0  0  0  0  0  0  0  0  0  0  0  0
    0.7727   -2.5933   -3.0525 H   0  0  0  0  0  0  0  0  0  0  0  0
    2.3540   -2.9484   -2.3295 H   0  0  0  0  0  0  0  0  0  0  0  0
   -0.2797   -2.9691   -1.0463 H   0  0  0  0  0  0  0  0  0  0  0  0
    1.2989   -3.3703   -0.3224 H   0  0  0  0  0  0  0  0  0  0  0  0
    1.9850    1.9815   -0.5646 N   0  0  0  0  0  0  0  0  0  0  0  0
    1.8923    3.3802   -0.9170 C   0  0  2  0  0  0  0  0  0  0  0  0
    0.4169    3.7381   -1.0374 C   0  0  0  0  0  0  0  0  0  0  0  0
   -0.4603    2.9042   -1.2523 O   0  0  0  0  0  0  0  0  0  0  0  0
    2.6305    3.6742   -2.2137 C   0  0  0  0  0  0  0  0  0  0  0  0
    2.4680    1.7299    0.2926 H   0  0  0  0  0  0  0  0  0  0  0  0
    2.3395    3.9446   -0.0915 H   0  0  0  0  0  0  0  0  0  0  0  0
    2.1966    3.1175   -3.0523 H   0  0  0  0  0  0  0  0  0  0  0  0
    2.5835    4.7391   -2.4643 H   0  0  0  0  0  0  0  0  0  0  0  0
    3.6850    3.3885   -2.1352 H   0  0  0  0  0  0  0  0  0  0  0  0
    0.1999    5.1038   -0.9195 N   0  0  0  0  0  0  0  0  0  0  0  0
   -1.1147    5.6951   -1.0110 C   0  0  0  0  0  0  0  0  0  0  0  0
    0.9838    5.7192   -0.7232 H   0  0  0  0  0  0  0  0  0  0  0  0
   -1.3111    5.9944   -2.0510 H   0  0  0  0  0  0  0  0  0  0  0  0
   -1.8696    4.9614   -0.6919 H   0  0  0  0  0  0  0  0  0  0  0  0
   -1.1648    6.5798   -0.3592 H   0  0  0  0  0  0  0  0  0  0  0  0
 18 19  1  0  0  0  0
 19 31  1  0  0  0  0
 19 20  2  0  0  0  0
  8  9  1  0  0  0  0
  9 17  1  0  0  0  0
  9 10  2  0  0  0  0
  1  3  1  0  0  0  0
  1  7  1  0  0  0  0
  1  2  2  0  0  0  0
 32 33  1  0  0  0  0
 33 41  1  0  0  0  0
 33 34  2  0  0  0  0
 21 22  1  0  0  0  0
 22 23  1  0  0  0  0
 18 21  1  0  0  0  0
 17 23  1  0  0  0  0
 17 18  1  0  0  0  0
  8 11  1  0  0  0  0
 32 35  1  0  0  0  0
 41 42  1  0  0  0  0
  7  8  1  0  0  0  0
 31 32  1  0  0  0  0
 22 27  1  0  0  0  0
 22 28  1  0  0  0  0
 21 25  1  0  0  0  0
 21 26  1  0  0  0  0
 23 29  1  0  0  0  0
 23 30  1  0  0  0  0
 18 24  1  0  0  0  0
  3  4  1  0  0  0  0
  3  5  1  0  0  0  0
  3  6  1  0  0  0  0
 11 14  1  0  0  0  0
 11 15  1  0  0  0  0
 11 16  1  0  0  0  0
 35 38  1  0  0  0  0
 35 39  1  0  0  0  0
 35 40  1  0  0  0  0
 42 44  1  0  0  0  0
 42 45  1  0  0  0  0
 42 46  1  0  0  0  0
  8 13  1  0  0  0  0
 32 37  1  0  0  0  0
 31 36  1  0  0  0  0
 41 43  1  0  0  0  0
  7 12  1  0  0  0  0
M  END
$$$$

  -OEChem-05262214473D

 46 46  0     1  0  0  0  0  0999 V2000
   -0.6012   -3.2995    3.8205 C   0  0  0  0  0  0  0  0  0  0  0  0
   -0.6574   -4.4683    3.4568 O   0  0  0  0  0  0  0  0  0  0  0  0
   -0.4935   -2.9859    5.2760 C   0  0  0  0  0  0  0  0  0  0  0  0
   -1.4789   -2.8689    5.7550 H   0  0  0  0  0  0  0  0  0  0  0  0
    0.0123   -3.7847    5.8419 H   0  0  0  0  0  0  0  0  0  0  0  0
    0.0585   -2.0642    5.5199 H   0  0  0  0  0  0  0  0  0  0  0  0
   -0.6261   -2.1849    2.9917 N   0  0  0  0  0  0  0  0  0  0  0  0
   -0.7237   -2.2601    1.5650 C   0  0  2  0  0  0  0  0  0  0  0  0
    0.1695   -1.1513    1.0687 C   0  0  0  0  0  0  0  0  0  0  0  0
    0.3193   -0.1267    1.7365 O   0  0  0  0  0  0  0  0  0  0  0  0
   -2.1397   -2.0663    1.0750 C   0  0  0  0  0  0  0  0  0  0  0  0
   -0.5717   -1.2606    3.4238 H   0  0  0  0  0  0  0  0  0  0  0  0
   -0.3076   -3.2111    1.2363 H   0  0  0  0  0  0  0  0  0  0  0  0
   -2.5584   -1.1089    1.4061 H   0  0  0  0  0  0  0  0  0  0  0  0
   -2.1682   -2.0790   -0.0197 H   0  0  0  0  0  0  0  0  0  0  0  0
   -2.7965   -2.8601    1.4459 H   0  0  0  0  0  0  0  0  0  0  0  0
    0.7724   -1.3745   -0.1593 N   0  0  0  0  0  0  0  0  0  0  0  0
    1.6644   -0.4046   -0.7812 C   0  0  2  0  0  0  0  0  0  0  0  0
    1.0167    0.9407   -0.6474 C   0  0  0  0  0  0  0  0  0  0  0  0
   -0.1694    1.0132   -0.3481 O   0  0  0  0  0  0  0  0  0  0  0  0
    1.7598   -0.8444   -2.2376 C   0  0  0  0  0  0  0  0  0  0  0  0
    1.4509   -2.3396   -2.2296 C   0  0  0  0  0  0  0  0  0  0  0  0
    0.7499   -2.6270   -0.9105 C   0  0  0  0  0  0  0  0  0  0  0  0
    2.6337   -0.3810   -0.2742 H   0  0  0  0  0  0  0  0  0  0  0  0
    2.7817   -0.6973   -2.6072 H   0  0  0  0  0  0  0  0  0  0  0  0
    1.0693   -0.3146   -2.9010 H   0  0  0  0  0  0  0  0  0  0  0  0
    0.7727   -2.5933   -3.0525 H   0  0  0  0  0  0  0  0  0  0  0  0
    2.3540   -2.9484   -2.3295 H   0  0  0  0  0  0  0  0  0  0  0  0
   -0.2797   -2.9691   -1.0463 H   0  0  0  0  0  0  0  0  0  0  0  0
    1.2989   -3.3703   -0.3224 H   0  0  0  0  0  0  0  0  0  0  0  0
    1.9395    1.9937   -0.9071 N   0  0  0  0  0  0  0  0  0  0  0  0
    1.7172    3.3418   -1.3785 C   0  0  2  0  0  0  0  0  0  0  0  0
    0.2418    3.6689   -1.1892 C   0  0  0  0  0  0  0  0  0  0  0  0
   -0.6304    2.8072   -1.1010 O   0  0  0  0  0  0  0  0  0  0  0  0
    2.1247    3.4926   -2.8359 C   0  0  0  0  0  0  0  0  0  0  0  0
    2.6163    1.8467   -0.1643 H   0  0  0  0  0  0  0  0  0  0  0  0
    2.3221    4.0015   -0.7469 H   0  0  0  0  0  0  0  0  0  0  0  0
    1.5294    2.8392   -3.4841 H   0  0  0  0  0  0  0  0  0  0  0  0
    1.9825    4.5213   -3.1832 H   0  0  0  0  0  0  0  0  0  0  0  0
    3.1785    3.2283   -2.9752 H   0  0  0  0  0  0  0  0  0  0  0  0
    0.0084    5.0369   -1.1737 N   0  0  0  0  0  0  0  0  0  0  0  0
   -1.3123    5.6008   -1.0194 C   0  0  0  0  0  0  0  0  0  0  0  0
    0.7936    5.6785   -1.2342 H   0  0  0  0  0  0  0  0  0  0  0  0
   -1.7544    5.7771   -2.0111 H   0  0  0  0  0  0  0  0  0  0  0  0
   -1.9459    4.9011   -0.4547 H   0  0  0  0  0  0  0  0  0  0  0  0
   -1.2426    6.5538   -0.4745 H   0  0  0  0  0  0  0  0  0  0  0  0
 18 19  1  0  0  0  0
 19 31  1  0  0  0  0
 19 20  2  0  0  0  0
  8  9  1  0  0  0  0
  9 17  1  0  0  0  0
  9 10  2  0  0  0  0
  1  3  1  0  0  0  0
  1  7  1  0  0  0  0
  1  2  2  0  0  0  0
 32 33  1  0  0  0  0
 33 41  1  0  0  0  0
 33 34  2  0  0  0  0
 21 22  1  0  0  0  0
 22 23  1  0  0  0  0
 18 21  1  0  0  0  0
 17 23  1  0  0  0  0
 17 18  1  0  0  0  0
  8 11  1  0  0  0  0
 32 35  1  0  0  0  0
 41 42  1  0  0  0  0
  7  8  1  0  0  0  0
 31 32  1  0  0  0  0
 22 27  1  0  0  0  0
 22 28  1  0  0  0  0
 21 25  1  0  0  0  0
 21 26  1  0  0  0  0
 23 29  1  0  0  0  0
 23 30  1  0  0  0  0
 18 24  1  0  0  0  0
  3  4  1  0  0  0  0
  3  5  1  0  0  0  0
  3  6  1  0  0  0  0
 11 14  1  0  0  0  0
 11 15  1  0  0  0  0
 11 16  1  0  0  0  0
 35 38  1  0  0  0  0
 35 39  1  0  0  0  0
 35 40  1  0  0  0  0
 42 44  1  0  0  0  0
 42 45  1  0  0  0  0
 42 46  1  0  0  0  0
  8 13  1  0  0  0  0
 32 37  1  0  0  0  0
 31 36  1  0  0  0  0
 41 43  1  0  0  0  0
  7 12  1  0  0  0  0
M  END
$$$$

  -OEChem-05262214473D

 46 46  0     1  0  0  0  0  0999 V2000
   -0.6012   -3.2995    3.8205 C   0  0  0  0  0  0  0  0  0  0  0  0
   -0.6574   -4.4683    3.4568 O   0  0  0  0  0  0  0  0  0  0  0  0
   -0.4935   -2.9859    5.2760 C   0  0  0  0  0  0  0  0  0  0  0  0
   -1.4789   -2.8689    5.7550 H   0  0  0  0  0  0  0  0  0  0  0  0
    0.0123   -3.7847    5.8419 H   0  0  0  0  0  0  0  0  0  0  0  0
    0.0585   -2.0642    5.5199 H   0  0  0  0  0  0  0  0  0  0  0  0
   -0.6261   -2.1849    2.9917 N   0  0  0  0  0  0  0  0  0  0  0  0
   -0.7237   -2.2601    1.5650 C   0  0  2  0  0  0  0  0  0  0  0  0
    0.1695   -1.1513    1.0687 C   0  0  0  0  0  0  0  0  0  0  0  0
    0.3193   -0.1267    1.7365 O   0  0  0  0  0  0  0  0  0  0  0  0
   -2.1397   -2.0663    1.0750 C   0  0  0  0  0  0  0  0  0  0  0  0
   -0.5717   -1.2606    3.4238 H   0  0  0  0  0  0  0  0  0  0  0  0
   -0.3076   -3.2111    1.2363 H   0  0  0  0  0  0  0  0  0  0  0  0
   -2.5584   -1.1089    1.4061 H   0  0  0  0  0  0  0  0  0  0  0  0
   -2.1682   -2.0790   -0.0197 H   0  0  0  0  0  0  0  0  0  0  0  0
   -2.7965   -2.8601    1.4459 H   0  0  0  0  0  0  0  0  0  0  0  0
    0.7724   -1.3745   -0.1593 N   0  0  0  0  0  0  0  0  0  0  0  0
    1.6644   -0.4046   -0.7812 C   0  0  2  0  0  0  0  0  0  0  0  0
    1.2197    0.9552   -0.3336 C   0  0  0  0  0  0  0  0  0  0  0  0
    0.2590    1.0591    0.4201 O   0  0  0  0  0  0  0  0  0  0  0  0
    1.4652   -0.6005   -2.2797 C   0  0  0  0  0  0  0  0  0  0  0  0
    0.9870   -2.0503   -2.2981 C   0  0  0  0  0  0  0  0  0  0  0  0
    0.7499   -2.6270   -0.9105 C   0  0  0  0  0  0  0  0  0  0  0  0
    2.6988   -0.5603   -0.4605 H   0  0  0  0  0  0  0  0  0  0  0  0
    2.4231   -0.4927   -2.8023 H   0  0  0  0  0  0  0  0  0  0  0  0
    0.7469    0.0975   -2.7207 H   0  0  0  0  0  0  0  0  0  0  0  0
    0.0219   -2.1271   -2.8120 H   0  0  0  0  0  0  0  0  0  0  0  0
    1.6970   -2.7129   -2.8010 H   0  0  0  0  0  0  0  0  0  0  0  0
   -0.1912   -3.1791   -0.8388 H   0  0  0  0  0  0  0  0  0  0  0  0
    1.5730   -3.2828   -0.6067 H   0  0  0  0  0  0  0  0  0  0  0  0
    1.9848    1.9904   -0.8519 N   0  0  0  0  0  0  0  0  0  0  0  0
    1.8090    3.3496   -1.3109 C   0  0  2  0  0  0  0  0  0  0  0  0
    0.3314    3.6989   -1.1913 C   0  0  0  0  0  0  0  0  0  0  0  0
   -0.5581    2.8510   -1.1623 O   0  0  0  0  0  0  0  0  0  0  0  0
    2.2930    3.5170   -2.7428 C   0  0  0  0  0  0  0  0  0  0  0  0
    2.6202    1.8197   -0.0782 H   0  0  0  0  0  0  0  0  0  0  0  0
    2.3915    3.9884   -0.6381 H   0  0  0  0  0  0  0  0  0  0  0  0
    1.7210    2.8846   -3.4315 H   0  0  0  0  0  0  0  0  0  0  0  0
    2.1855    4.5535   -3.0793 H   0  0  0  0  0  0  0  0  0  0  0  0
    3.3480    3.2368   -2.8329 H   0  0  0  0  0  0  0  0  0  0  0  0
    0.1200    5.0703   -1.1642 N   0  0  0  0  0  0  0  0  0  0  0  0
   -1.1975    5.6542   -1.0677 C   0  0  0  0  0  0  0  0  0  0  0  0
    0.9176    5.6992   -1.1737 H   0  0  0  0  0  0  0  0  0  0  0  0
   -1.5854    5.8542   -2.0775 H   0  0  0  0  0  0  0  0  0  0  0  0
   -1.8706    4.9564   -0.5481 H   0  0  0  0  0  0  0  0  0  0  0  0
   -1.1402    6.5969   -0.5038 H   0  0  0  0  0  0  0  0  0  0  0  0
 18 19  1  0  0  0  0
 19 31  1  0  0  0  0
 19 20  2  0  0  0  0
  8  9  1  0  0  0  0
  9 17  1  0  0  0  0
  9 10  2  0  0  0  0
  1  3  1  0  0  0  0
  1  7  1  0  0  0  0
  1  2  2  0  0  0  0
 32 33  1  0  0  0  0
 33 41  1  0  0  0  0
 33 34  2  0  0  0  0
 21 22  1  0  0  0  0
 22 23  1  0  0  0  0
 18 21  1  0  0  0  0
 17 23  1  0  0  0  0
 17 18  1  0  0  0  0
  8 11  1  0  0  0  0
 32 35  1  0  0  0  0
 41 42  1  0  0  0  0
  7  8  1  0  0  0  0
 31 32  1  0  0  0  0
 22 27  1  0  0  0  0
 22 28  1  0  0  0  0
 21 25  1  0  0  0  0
 21 26  1  0  0  0  0
 23 29  1  0  0  0  0
 23 30  1  0  0  0  0
 18 24  1  0  0  0  0
  3  4  1  0  0  0  0
  3  5  1  0  0  0  0
  3  6  1  0  0  0  0
 11 14  1  0  0  0  0
 11 15  1  0  0  0  0
 11 16  1  0  0  0  0
 35 38  1  0  0  0  0
 35 39  1  0  0  0  0
 35 40  1  0  0  0  0
 42 44  1  0  0  0  0
 42 45  1  0  0  0  0
 42 46  1  0  0  0  0
  8 13  1  0  0  0  0
 32 37  1  0  0  0  0
 31 36  1  0  0  0  0
 41 43  1  0  0  0  0
  7 12  1  0  0  0  0
M  END
$$$$

  -OEChem-05262214473D

 46 46  0     1  0  0  0  0  0999 V2000
   -0.6012   -3.2995    3.8205 C   0  0  0  0  0  0  0  0  0  0  0  0
   -0.6574   -4.4683    3.4568 O   0  0  0  0  0  0  0  0  0  0  0  0
   -0.4935   -2.9859    5.2760 C   0  0  0  0  0  0  0  0  0  0  0  0
   -1.4789   -2.8689    5.7550 H   0  0  0  0  0  0  0  0  0  0  0  0
    0.0123   -3.7847    5.8419 H   0  0  0  0  0  0  0  0  0  0  0  0
    0.0585   -2.0642    5.5199 H   0  0  0  0  0  0  0  0  0  0  0  0
   -0.6261   -2.1849    2.9917 N   0  0  0  0  0  0  0  0  0  0  0  0
   -0.7237   -2.2601    1.5650 C   0  0  2  0  0  0  0  0  0  0  0  0
    0.1695   -1.1513    1.0687 C   0  0  0  0  0  0  0  0  0  0  0  0
    0.3193   -0.1267    1.7365 O   0  0  0  0  0  0  0  0  0  0  0  0
   -2.1397   -2.0663    1.0750 C   0  0  0  0  0  0  0  0  0  0  0  0
   -0.5717   -1.2606    3.4238 H   0  0  0  0  0  0  0  0  0  0  0  0
   -0.3076   -3.2111    1.2363 H   0  0  0  0  0  0  0  0  0  0  0  0
   -2.5584   -1.1089    1.4061 H   0  0  0  0  0  0  0  0  0  0  0  0
   -2.1682   -2.0790   -0.0197 H   0  0  0  0  0  0  0  0  0  0  0  0
   -2.7965   -2.8601    1.4459 H   0  0  0  0  0  0  0  0  0  0  0  0
    0.7724   -1.3745   -0.1593 N   0  0  0  0  0  0  0  0  0  0  0  0
    1.6644   -0.4046   -0.7812 C   0  0  2  0  0  0  0  0  0  0  0  0
    1.2197    0.9552   -0.3336 C   0  0  0  0  0  0  0  0  0  0  0  0
    0.4546    1.0578    0.6181 O   0  0  0  0  0  0  0  0  0  0  0  0
    1.4652   -0.6005   -2.2797 C   0  0  0  0  0  0  0  0  0  0  0  0
    0.9870   -2.0503   -2.2981 C   0  0  0  0  0  0  0  0  0  0  0  0
    0.7499   -2.6270   -0.9105 C   0  0  0  0  0  0  0  0  0  0  0  0
    2.6988   -0.5603   -0.4605 H   0  0  0  0  0  0  0  0  0  0  0  0
    2.4231   -0.4927   -2.8023 H   0  0  0  0  0  0  0  0  0  0  0  0
    0.7469    0.0975   -2.7207 H   0  0  0  0  0  0  0  0  0  0  0  0
    0.0219   -2.1271   -2.8120 H   0  0  0  0  0  0  0  0  0  0  0  0
    1.6970   -2.7129   -2.8010 H   0  0  0  0  0  0  0  0  0  0  0  0
   -0.1912   -3.1791   -0.8388 H   0  0  0  0  0  0  0  0  0  0  0  0
    1.5730   -3.2828   -0.6067 H   0  0  0  0  0  0  0  0  0  0  0  0
    1.7514    1.9916   -1.0876 N   0  0  0  0  0  0  0  0  0  0  0  0
    1.3572    3.2912   -1.5824 C   0  0  2  0  0  0  0  0  0  0  0  0
   -0.0769    3.5481   -1.1388 C   0  0  0  0  0  0  0  0  0  0  0  0
   -0.8588    2.6472   -0.8419 O   0  0  0  0  0  0  0  0  0  0  0  0
    1.4798    3.3674   -3.0963 C   0  0  0  0  0  0  0  0  0  0  0  0
    2.5611    1.9318   -0.4776 H   0  0  0  0  0  0  0  0  0  0  0  0
    2.0223    4.0237   -1.1122 H   0  0  0  0  0  0  0  0  0  0  0  0
    0.8206    2.6407   -3.5849 H   0  0  0  0  0  0  0  0  0  0  0  0
    1.2081    4.3614   -3.4668 H   0  0  0  0  0  0  0  0  0  0  0  0
    2.5054    3.1531   -3.4155 H   0  0  0  0  0  0  0  0  0  0  0  0
   -0.3941    4.8991   -1.1549 N   0  0  0  0  0  0  0  0  0  0  0  0
   -1.6988    5.3981   -0.7875 C   0  0  0  0  0  0  0  0  0  0  0  0
    0.3221    5.5777   -1.3962 H   0  0  0  0  0  0  0  0  0  0  0  0
   -2.3259    5.4836   -1.6872 H   0  0  0  0  0  0  0  0  0  0  0  0
   -2.1701    4.7033   -0.0768 H   0  0  0  0  0  0  0  0  0  0  0  0
   -1.5940    6.3875   -0.3184 H   0  0  0  0  0  0  0  0  0  0  0  0
 18 19  1  0  0  0  0
 19 31  1  0  0  0  0
 19 20  2  0  0  0  0
  8  9  1  0  0  0  0
  9 17  1  0  0  0  0
  9 10  2  0  0  0  0
  1  3  1  0  0  0  0
  1  7  1  0  0  0  0
  1  2  2  0  0  0  0
 32 33  1  0  0  0  0
 33 41  1  0  0  0  0
 33 34  2  0  0  0  0
 21 22  1  0  0  0  0
 22 23  1  0  0  0  0
 18 21  1  0  0  0  0
 17 23  1  0  0  0  0
 17 18  1  0  0  0  0
  8 11  1  0  0  0  0
 32 35  1  0  0  0  0
 41 42  1  0  0  0  0
  7  8  1  0  0  0  0
 31 32  1  0  0  0  0
 22 27  1  0  0  0  0
 22 28  1  0  0  0  0
 21 25  1  0  0  0  0
 21 26  1  0  0  0  0
 23 29  1  0  0  0  0
 23 30  1  0  0  0  0
 18 24  1  0  0  0  0
  3  4  1  0  0  0  0
  3  5  1  0  0  0  0
  3  6  1  0  0  0  0
 11 14  1  0  0  0  0
 11 15  1  0  0  0  0
 11 16  1  0  0  0  0
 35 38  1  0  0  0  0
 35 39  1  0  0  0  0
 35 40  1  0  0  0  0
 42 44  1  0  0  0  0
 42 45  1  0  0  0  0
 42 46  1  0  0  0  0
  8 13  1  0  0  0  0
 32 37  1  0  0  0  0
 31 36  1  0  0  0  0
 41 43  1  0  0  0  0
  7 12  1  0  0  0  0
M  END
$$$$

  -OEChem-05262214473D

 46 46  0     1  0  0  0  0  0999 V2000
   -0.6012   -3.2995    3.8205 C   0  0  0  0  0  0  0  0  0  0  0  0
   -0.6574   -4.4683    3.4568 O   0  0  0  0  0  0  0  0  0  0  0  0
   -0.4935   -2.9859    5.2760 C   0  0  0  0  0  0  0  0  0  0  0  0
   -1.4789   -2.8689    5.7550 H   0  0  0  0  0  0  0  0  0  0  0  0
    0.0123   -3.7847    5.8419 H   0  0  0  0  0  0  0  0  0  0  0  0
    0.0585   -2.0642    5.5199 H   0  0  0  0  0  0  0  0  0  0  0  0
   -0.6261   -2.1849    2.9917 N   0  0  0  0  0  0  0  0  0  0  0  0
   -0.7237   -2.2601    1.5650 C   0  0  2  0  0  0  0  0  0  0  0  0
    0.1695   -1.1513    1.0687 C   0  0  0  0  0  0  0  0  0  0  0  0
    0.3193   -0.1267    1.7365 O   0  0  0  0  0  0  0  0  0  0  0  0
   -2.1397   -2.0663    1.0750 C   0  0  0  0  0  0  0  0  0  0  0  0
   -0.5717   -1.2606    3.4238 H   0  0  0  0  0  0  0  0  0  0  0  0
   -0.3076   -3.2111    1.2363 H   0  0  0  0  0  0  0  0  0  0  0  0
   -2.5584   -1.1089    1.4061 H   0  0  0  0  0  0  0  0  0  0  0  0
   -2.1682   -2.0790   -0.0197 H   0  0  0  0  0  0  0  0  0  0  0  0
   -2.7965   -2.8601    1.4459 H   0  0  0  0  0  0  0  0  0  0  0  0
    0.7724   -1.3745   -0.1593 N   0  0  0  0  0  0  0  0  0  0  0  0
    1.6644   -0.4046   -0.7812 C   0  0  2  0  0  0  0  0  0  0  0  0
    1.2197    0.9552   -0.3336 C   0  0  0  0  0  0  0  0  0  0  0  0
    0.6901    1.0869    0.7636 O   0  0  0  0  0  0  0  0  0  0  0  0
    1.4652   -0.6005   -2.2797 C   0  0  0  0  0  0  0  0  0  0  0  0
    0.9870   -2.0503   -2.2981 C   0  0  0  0  0  0  0  0  0  0  0  0
    0.7499   -2.6270   -0.9105 C   0  0  0  0  0  0  0  0  0  0  0  0
    2.6988   -0.5603   -0.4605 H   0  0  0  0  0  0  0  0  0  0  0  0
    2.4231   -0.4927   -2.8023 H   0  0  0  0  0  0  0  0  0  0  0  0
    0.7469    0.0975   -2.7207 H   0  0  0  0  0  0  0  0  0  0  0  0
    0.0219   -2.1271   -2.8120 H   0  0  0  0  0  0  0  0  0  0  0  0
    1.6970   -2.7129   -2.8010 H   0  0  0  0  0  0  0  0  0  0  0  0
   -0.1912   -3.1791   -0.8388 H   0  0  0  0  0  0  0  0  0  0  0  0
    1.5730   -3.2828   -0.6067 H   0  0  0  0  0  0  0  0  0  0  0  0
    1.4705    1.9568   -1.2607 N   0  0  0  0  0  0  0  0  0  0  0  0
    0.8616    3.1791   -1.7341 C   0  0  2  0  0  0  0  0  0  0  0  0
   -0.4474    3.3749   -0.9805 C   0  0  0  0  0  0  0  0  0  0  0  0
   -1.0583    2.4517   -0.4461 O   0  0  0  0  0  0  0  0  0  0  0  0
    0.6229    3.1330   -3.2353 C   0  0  0  0  0  0  0  0  0  0  0  0
    2.4016    2.0049   -0.8580 H   0  0  0  0  0  0  0  0  0  0  0  0
    1.5517    3.9929   -1.4861 H   0  0  0  0  0  0  0  0  0  0  0  0
   -0.0662    2.3237   -3.5029 H   0  0  0  0  0  0  0  0  0  0  0  0
    0.1879    4.0706   -3.5968 H   0  0  0  0  0  0  0  0  0  0  0  0
    1.5612    2.9624   -3.7740 H   0  0  0  0  0  0  0  0  0  0  0  0
   -0.8752    4.6948   -1.0120 N   0  0  0  0  0  0  0  0  0  0  0  0
   -2.0973    5.1335   -0.3795 C   0  0  0  0  0  0  0  0  0  0  0  0
   -0.2958    5.3973   -1.4620 H   0  0  0  0  0  0  0  0  0  0  0  0
   -2.9209    5.0984   -1.1079 H   0  0  0  0  0  0  0  0  0  0  0  0
   -2.3293    4.4719    0.4682 H   0  0  0  0  0  0  0  0  0  0  0  0
   -1.9727    6.1644   -0.0166 H   0  0  0  0  0  0  0  0  0  0  0  0
 18 19  1  0  0  0  0
 19 31  1  0  0  0  0
 19 20  2  0  0  0  0
  8  9  1  0  0  0  0
  9 17  1  0  0  0  0
  9 10  2  0  0  0  0
  1  3  1  0  0  0  0
  1  7  1  0  0  0  0
  1  2  2  0  0  0  0
 32 33  1  0  0  0  0
 33 41  1  0  0  0  0
 33 34  2  0  0  0  0
 21 22  1  0  0  0  0
 22 23  1  0  0  0  0
 18 21  1  0  0  0  0
 17 23  1  0  0  0  0
 17 18  1  0  0  0  0
  8 11  1  0  0  0  0
 32 35  1  0  0  0  0
 41 42  1  0  0  0  0
  7  8  1  0  0  0  0
 31 32  1  0  0  0  0
 22 27  1  0  0  0  0
 22 28  1  0  0  0  0
 21 25  1  0  0  0  0
 21 26  1  0  0  0  0
 23 29  1  0  0  0  0
 23 30  1  0  0  0  0
 18 24  1  0  0  0  0
  3  4  1  0  0  0  0
  3  5  1  0  0  0  0
  3  6  1  0  0  0  0
 11 14  1  0  0  0  0
 11 15  1  0  0  0  0
 11 16  1  0  0  0  0
 35 38  1  0  0  0  0
 35 39  1  0  0  0  0
 35 40  1  0  0  0  0
 42 44  1  0  0  0  0
 42 45  1  0  0  0  0
 42 46  1  0  0  0  0
  8 13  1  0  0  0  0
 32 37  1  0  0  0  0
 31 36  1  0  0  0  0
 41 43  1  0  0  0  0
  7 12  1  0  0  0  0
M  END
$$$$

  -OEChem-05262214473D

 46 46  0     1  0  0  0  0  0999 V2000
   -0.6012   -3.2995    3.8205 C   0  0  0  0  0  0  0  0  0  0  0  0
   -0.6574   -4.4683    3.4568 O   0  0  0  0  0  0  0  0  0  0  0  0
   -0.4935   -2.9859    5.2760 C   0  0  0  0  0  0  0  0  0  0  0  0
   -1.4789   -2.8689    5.7550 H   0  0  0  0  0  0  0  0  0  0  0  0
    0.0123   -3.7847    5.8419 H   0  0  0  0  0  0  0  0  0  0  0  0
    0.0585   -2.0642    5.5199 H   0  0  0  0  0  0  0  0  0  0  0  0
   -0.6261   -2.1849    2.9917 N   0  0  0  0  0  0  0  0  0  0  0  0
   -0.7237   -2.2601    1.5650 C   0  0  2  0  0  0  0  0  0  0  0  0
    0.1695   -1.1513    1.0687 C   0  0  0  0  0  0  0  0  0  0  0  0
    0.3193   -0.1267    1.7365 O   0  0  0  0  0  0  0  0  0  0  0  0
   -2.1397   -2.0663    1.0750 C   0  0  0  0  0  0  0  0  0  0  0  0
   -0.5717   -1.2606    3.4238 H   0  0  0  0  0  0  0  0  0  0  0  0
   -0.3076   -3.2111    1.2363 H   0  0  0  0  0  0  0  0  0  0  0  0
   -2.5584   -1.1089    1.4061 H   0  0  0  0  0  0  0  0  0  0  0  0
   -2.1682   -2.0790   -0.0197 H   0  0  0  0  0  0  0  0  0  0  0  0
   -2.7965   -2.8601    1.4459 H   0  0  0  0  0  0  0  0  0  0  0  0
    0.7724   -1.3745   -0.1593 N   0  0  0  0  0  0  0  0  0  0  0  0
    1.6644   -0.4046   -0.7812 C   0  0  2  0  0  0  0  0  0  0  0  0
    1.2197    0.9552   -0.3336 C   0  0  0  0  0  0  0  0  0  0  0  0
    0.9494    1.1444    0.8466 O   0  0  0  0  0  0  0  0  0  0  0  0
    1.4652   -0.6005   -2.2797 C   0  0  0  0  0  0  0  0  0  0  0  0
    0.9870   -2.0503   -2.2981 C   0  0  0  0  0  0  0  0  0  0  0  0
    0.7499   -2.6270   -0.9105 C   0  0  0  0  0  0  0  0  0  0  0  0
    2.6988   -0.5603   -0.4605 H   0  0  0  0  0  0  0  0  0  0  0  0
    2.4231   -0.4927   -2.8023 H   0  0  0  0  0  0  0  0  0  0  0  0
    0.7469    0.0975   -2.7207 H   0  0  0  0  0  0  0  0  0  0  0  0
    0.0219   -2.1271   -2.8120 H   0  0  0  0  0  0  0  0  0  0  0  0
    1.6970   -2.7129   -2.8010 H   0  0  0  0  0  0  0  0  0  0  0  0
   -0.1912   -3.1791   -0.8388 H   0  0  0  0  0  0  0  0  0  0  0  0
    1.5730   -3.2828   -0.6067 H   0  0  0  0  0  0  0  0  0  0  0  0
    1.1613    1.8881   -1.3592 N   0  0  0  0  0  0  0  0  0  0  0  0
    0.3559    3.0208   -1.7556 C   0  0  2  0  0  0  0  0  0  0  0  0
   -0.7547    3.1911   -0.7275 C   0  0  0  0  0  0  0  0  0  0  0  0
   -1.1429    2.2779   -0.0020 O   0  0  0  0  0  0  0  0  0  0  0  0
   -0.2193    2.8297   -3.1504 C   0  0  0  0  0  0  0  0  0  0  0  0
    2.1526    2.0340   -1.1937 H   0  0  0  0  0  0  0  0  0  0  0  0
    1.0116    3.8980   -1.7344 H   0  0  0  0  0  0  0  0  0  0  0  0
   -0.8791    1.9553   -3.1912 H   0  0  0  0  0  0  0  0  0  0  0  0
   -0.8057    3.7009   -3.4606 H   0  0  0  0  0  0  0  0  0  0  0  0
    0.5797    2.6776   -3.8840 H   0  0  0  0  0  0  0  0  0  0  0  0
   -1.2906    4.4712   -0.7453 N   0  0  0  0  0  0  0  0  0  0  0  0
   -2.3661    4.8784    0.1285 C   0  0  0  0  0  0  0  0  0  0  0  0
   -0.8943    5.1702   -1.3666 H   0  0  0  0  0  0  0  0  0  0  0  0
   -3.3298    4.7247   -0.3791 H   0  0  0  0  0  0  0  0  0  0  0  0
   -2.3372    4.2779    1.0497 H   0  0  0  0  0  0  0  0  0  0  0  0
   -2.2503    5.9428    0.3808 H   0  0  0  0  0  0  0  0  0  0  0  0
 18 19  1  0  0  0  0
 19 31  1  0  0  0  0
 19 20  2  0  0  0  0
  8  9  1  0  0  0  0
  9 17  1  0  0  0  0
  9 10  2  0  0  0  0
  1  3  1  0  0  0  0
  1  7  1  0  0  0  0
  1  2  2  0  0  0  0
 32 33  1  0  0  0  0
 33 41  1  0  0  0  0
 33 34  2  0  0  0  0
 21 22  1  0  0  0  0
 22 23  1  0  0  0  0
 18 21  1  0  0  0  0
 17 23  1  0  0  0  0
 17 18  1  0  0  0  0
  8 11  1  0  0  0  0
 32 35  1  0  0  0  0
 41 42  1  0  0  0  0
  7  8  1  0  0  0  0
 31 32  1  0  0  0  0
 22 27  1  0  0  0  0
 22 28  1  0  0  0  0
 21 25  1  0  0  0  0
 21 26  1  0  0  0  0
 23 29  1  0  0  0  0
 23 30  1  0  0  0  0
 18 24  1  0  0  0  0
  3  4  1  0  0  0  0
  3  5  1  0  0  0  0
  3  6  1  0  0  0  0
 11 14  1  0  0  0  0
 11 15  1  0  0  0  0
 11 16  1  0  0  0  0
 35 38  1  0  0  0  0
 35 39  1  0  0  0  0
 35 40  1  0  0  0  0
 42 44  1  0  0  0  0
 42 45  1  0  0  0  0
 42 46  1  0  0  0  0
  8 13  1  0  0  0  0
 32 37  1  0  0  0  0
 31 36  1  0  0  0  0
 41 43  1  0  0  0  0
  7 12  1  0  0  0  0
M  END
$$$$

  -OEChem-05262214473D

 46 46  0     1  0  0  0  0  0999 V2000
   -0.6012   -3.2995    3.8205 C   0  0  0  0  0  0  0  0  0  0  0  0
   -0.6574   -4.4683    3.4568 O   0  0  0  0  0  0  0  0  0  0  0  0
   -0.4935   -2.9859    5.2760 C   0  0  0  0  0  0  0  0  0  0  0  0
   -1.4789   -2.8689    5.7550 H   0  0  0  0  0  0  0  0  0  0  0  0
    0.0123   -3.7847    5.8419 H   0  0  0  0  0  0  0  0  0  0  0  0
    0.0585   -2.0642    5.5199 H   0  0  0  0  0  0  0  0  0  0  0  0
   -0.6261   -2.1849    2.9917 N   0  0  0  0  0  0  0  0  0  0  0  0
   -0.7237   -2.2601    1.5650 C   0  0  2  0  0  0  0  0  0  0  0  0
    0.1695   -1.1513    1.0687 C   0  0  0  0  0  0  0  0  0  0  0  0
    0.3193   -0.1267    1.7365 O   0  0  0  0  0  0  0  0  0  0  0  0
   -2.1397   -2.0663    1.0750 C   0  0  0  0  0  0  0  0  0  0  0  0
   -0.5717   -1.2606    3.4238 H   0  0  0  0  0  0  0  0  0  0  0  0
   -0.3076   -3.2111    1.2363 H   0  0  0  0  0  0  0  0  0  0  0  0
   -2.5584   -1.1089    1.4061 H   0  0  0  0  0  0  0  0  0  0  0  0
   -2.1682   -2.0790   -0.0197 H   0  0  0  0  0  0  0  0  0  0  0  0
   -2.7965   -2.8601    1.4459 H   0  0  0  0  0  0  0  0  0  0  0  0
    0.7724   -1.3745   -0.1593 N   0  0  0  0  0  0  0  0  0  0  0  0
    1.6644   -0.4046   -0.7812 C   0  0  2  0  0  0  0  0  0  0  0  0
    1.2197    0.9552   -0.3336 C   0  0  0  0  0  0  0  0  0  0  0  0
    1.2150    1.2264    0.8614 O   0  0  0  0  0  0  0  0  0  0  0  0
    1.4652   -0.6005   -2.2797 C   0  0  0  0  0  0  0  0  0  0  0  0
    0.9870   -2.0503   -2.2981 C   0  0  0  0  0  0  0  0  0  0  0  0
    0.7499   -2.6270   -0.9105 C   0  0  0  0  0  0  0  0  0  0  0  0
    2.6988   -0.5603   -0.4605 H   0  0  0  0  0  0  0  0  0  0  0  0
    2.4231   -0.4927   -2.8023 H   0  0  0  0  0  0  0  0  0  0  0  0
    0.7469    0.0975   -2.7207 H   0  0  0  0  0  0  0  0  0  0  0  0
    0.0219   -2.1271   -2.8120 H   0  0  0  0  0  0  0  0  0  0  0  0
    1.6970   -2.7129   -2.8010 H   0  0  0  0  0  0  0  0  0  0  0  0
   -0.1912   -3.1791   -0.8388 H   0  0  0  0  0  0  0  0  0  0  0  0
    1.5730   -3.2828   -0.6067 H   0  0  0  0  0  0  0  0  0  0  0  0
    0.8448    1.7903   -1.3765 N   0  0  0  0  0  0  0  0  0  0  0  0
   -0.1254    2.8272   -1.6456 C   0  0  2  0  0  0  0  0  0  0  0  0
   -0.9779    3.0093   -0.3967 C   0  0  0  0  0  0  0  0  0  0  0  0
   -1.1070    2.1375    0.4602 O   0  0  0  0  0  0  0  0  0  0  0  0
   -0.9895    2.4781   -2.8474 C   0  0  0  0  0  0  0  0  0  0  0  0
    1.8310    2.0171   -1.4617 H   0  0  0  0  0  0  0  0  0  0  0  0
    0.4390    3.7456   -1.8402 H   0  0  0  0  0  0  0  0  0  0  0  0
   -1.5626    1.5606   -2.6710 H   0  0  0  0  0  0  0  0  0  0  0  0
   -1.7048    3.2774   -3.0673 H   0  0  0  0  0  0  0  0  0  0  0  0
   -0.3721    2.3183   -3.7380 H   0  0  0  0  0  0  0  0  0  0  0  0
   -1.6120    4.2436   -0.3731 N   0  0  0  0  0  0  0  0  0  0  0  0
   -2.4867    4.6502    0.7019 C   0  0  0  0  0  0  0  0  0  0  0  0
   -1.4324    4.9119   -1.1165 H   0  0  0  0  0  0  0  0  0  0  0  0
   -3.5248    4.3882    0.4496 H   0  0  0  0  0  0  0  0  0  0  0  0
   -2.1933    4.1345    1.6282 H   0  0  0  0  0  0  0  0  0  0  0  0
   -2.4080    5.7377    0.8470 H   0  0  0  0  0  0  0  0  0  0  0  0
 18 19  1  0  0  0  0
 19 31  1  0  0  0  0
 19 20  2  0  0  0  0
  8  9  1  0  0  0  0
  9 17  1  0  0  0  0
  9 10  2  0  0  0  0
  1  3  1  0  0  0  0
  1  7  1  0  0  0  0
  1  2  2  0  0  0  0
 32 33  1  0  0  0  0
 33 41  1  0  0  0  0
 33 34  2  0  0  0  0
 21 22  1  0  0  0  0
 22 23  1  0  0  0  0
 18 21  1  0  0  0  0
 17 23  1  0  0  0  0
 17 18  1  0  0  0  0
  8 11  1  0  0  0  0
 32 35  1  0  0  0  0
 41 42  1  0  0  0  0
  7  8  1  0  0  0  0
 31 32  1  0  0  0  0
 22 27  1  0  0  0  0
 22 28  1  0  0  0  0
 21 25  1  0  0  0  0
 21 26  1  0  0  0  0
 23 29  1  0  0  0  0
 23 30  1  0  0  0  0
 18 24  1  0  0  0  0
  3  4  1  0  0  0  0
  3  5  1  0  0  0  0
  3  6  1  0  0  0  0
 11 14  1  0  0  0  0
 11 15  1  0  0  0  0
 11 16  1  0  0  0  0
 35 38  1  0  0  0  0
 35 39  1  0  0  0  0
 35 40  1  0  0  0  0
 42 44  1  0  0  0  0
 42 45  1  0  0  0  0
 42 46  1  0  0  0  0
  8 13  1  0  0  0  0
 32 37  1  0  0  0  0
 31 36  1  0  0  0  0
 41 43  1  0  0  0  0
  7 12  1  0  0  0  0
M  END
$$$$

  -OEChem-05262214473D

 46 46  0     1  0  0  0  0  0999 V2000
   -0.6012   -3.2995    3.8205 C   0  0  0  0  0  0  0  0  0  0  0  0
   -0.6574   -4.4683    3.4568 O   0  0  0  0  0  0  0  0  0  0  0  0
   -0.4935   -2.9859    5.2760 C   0  0  0  0  0  0  0  0  0  0  0  0
   -1.4789   -2.8689    5.7550 H   0  0  0  0  0  0  0  0  0  0  0  0
    0.0123   -3.7847    5.8419 H   0  0  0  0  0  0  0  0  0  0  0  0
    0.0585   -2.0642    5.5199 H   0  0  0  0  0  0  0  0  0  0  0  0
   -0.6261   -2.1849    2.9917 N   0  0  0  0  0  0  0  0  0  0  0  0
   -0.7237   -2.2601    1.5650 C   0  0  2  0  0  0  0  0  0  0  0  0
    0.1695   -1.1513    1.0687 C   0  0  0  0  0  0  0  0  0  0  0  0
    0.3193   -0.1267    1.7365 O   0  0  0  0  0  0  0  0  0  0  0  0
   -2.1397   -2.0663    1.0750 C   0  0  0  0  0  0  0  0  0  0  0  0
   -0.5717   -1.2606    3.4238 H   0  0  0  0  0  0  0  0  0  0  0  0
   -0.3076   -3.2111    1.2363 H   0  0  0  0  0  0  0  0  0  0  0  0
   -2.5584   -1.1089    1.4061 H   0  0  0  0  0  0  0  0  0  0  0  0
   -2.1682   -2.0790   -0.0197 H   0  0  0  0  0  0  0  0  0  0  0  0
   -2.7965   -2.8601    1.4459 H   0  0  0  0  0  0  0  0  0  0  0  0
    0.7724   -1.3745   -0.1593 N   0  0  0  0  0  0  0  0  0  0  0  0
    1.6644   -0.4046   -0.7812 C   0  0  2  0  0  0  0  0  0  0  0  0
    1.2197    0.9552   -0.3336 C   0  0  0  0  0  0  0  0  0  0  0  0
    1.4687    1.3272    0.8072 O   0  0  0  0  0  0  0  0  0  0  0  0
    1.4652   -0.6005   -2.2797 C   0  0  0  0  0  0  0  0  0  0  0  0
    0.9870   -2.0503   -2.2981 C   0  0  0  0  0  0  0  0  0  0  0  0
    0.7499   -2.6270   -0.9105 C   0  0  0  0  0  0  0  0  0  0  0  0
    2.6988   -0.5603   -0.4605 H   0  0  0  0  0  0  0  0  0  0  0  0
    2.4231   -0.4927   -2.8023 H   0  0  0  0  0  0  0  0  0  0  0  0
    0.7469    0.0975   -2.7207 H   0  0  0  0  0  0  0  0  0  0  0  0
    0.0219   -2.1271   -2.8120 H   0  0  0  0  0  0  0  0  0  0  0  0
    1.6970   -2.7129   -2.8010 H   0  0  0  0  0  0  0  0  0  0  0  0
   -0.1912   -3.1791   -0.8388 H   0  0  0  0  0  0  0  0  0  0  0  0
    1.5730   -3.2828   -0.6067 H   0  0  0  0  0  0  0  0  0  0  0  0
    0.5426    1.6700   -1.3113 N   0  0  0  0  0  0  0  0  0  0  0  0
   -0.5495    2.6115   -1.4114 C   0  0  2  0  0  0  0  0  0  0  0  0
   -1.1018    2.8417   -0.0109 C   0  0  0  0  0  0  0  0  0  0  0  0
   -0.9529    2.0401    0.9090 O   0  0  0  0  0  0  0  0  0  0  0  0
   -1.6351    2.1023   -2.3469 C   0  0  0  0  0  0  0  0  0  0  0  0
    1.4588    1.9553   -1.6438 H   0  0  0  0  0  0  0  0  0  0  0  0
   -0.1271    3.5461   -1.7963 H   0  0  0  0  0  0  0  0  0  0  0  0
   -2.0702    1.1664   -1.9777 H   0  0  0  0  0  0  0  0  0  0  0  0
   -2.4483    2.8291   -2.4439 H   0  0  0  0  0  0  0  0  0  0  0  0
   -1.2295    1.9089   -3.3458 H   0  0  0  0  0  0  0  0  0  0  0  0
   -1.8174    4.0274    0.0794 N   0  0  0  0  0  0  0  0  0  0  0  0
   -2.4510    4.4645    1.3016 C   0  0  0  0  0  0  0  0  0  0  0  0
   -1.8734    4.6401   -0.7288 H   0  0  0  0  0  0  0  0  0  0  0  0
   -3.4926    4.1117    1.3217 H   0  0  0  0  0  0  0  0  0  0  0  0
   -1.9074    4.0516    2.1642 H   0  0  0  0  0  0  0  0  0  0  0  0
   -2.4351    5.5633    1.3500 H   0  0  0  0  0  0  0  0  0  0  0  0
 18 19  1  0  0  0  0
 19 31  1  0  0  0  0
 19 20  2  0  0  0  0
  8  9  1  0  0  0  0
  9 17  1  0  0  0  0
  9 10  2  0  0  0  0
  1  3  1  0  0  0  0
  1  7  1  0  0  0  0
  1  2  2  0  0  0  0
 32 33  1  0  0  0  0
 33 41  1  0  0  0  0
 33 34  2  0  0  0  0
 21 22  1  0  0  0  0
 22 23  1  0  0  0  0
 18 21  1  0  0  0  0
 17 23  1  0  0  0  0
 17 18  1  0  0  0  0
  8 11  1  0  0  0  0
 32 35  1  0  0  0  0
 41 42  1  0  0  0  0
  7  8  1  0  0  0  0
 31 32  1  0  0  0  0
 22 27  1  0  0  0  0
 22 28  1  0  0  0  0
 21 25  1  0  0  0  0
 21 26  1  0  0  0  0
 23 29  1  0  0  0  0
 23 30  1  0  0  0  0
 18 24  1  0  0  0  0
  3  4  1  0  0  0  0
  3  5  1  0  0  0  0
  3  6  1  0  0  0  0
 11 14  1  0  0  0  0
 11 15  1  0  0  0  0
 11 16  1  0  0  0  0
 35 38  1  0  0  0  0
 35 39  1  0  0  0  0
 35 40  1  0  0  0  0
 42 44  1  0  0  0  0
 42 45  1  0  0  0  0
 42 46  1  0  0  0  0
  8 13  1  0  0  0  0
 32 37  1  0  0  0  0
 31 36  1  0  0  0  0
 41 43  1  0  0  0  0
  7 12  1  0  0  0  0
M  END
$$$$

  -OEChem-05262214473D

 46 46  0     1  0  0  0  0  0999 V2000
   -0.6012   -3.2995    3.8205 C   0  0  0  0  0  0  0  0  0  0  0  0
   -0.6574   -4.4683    3.4568 O   0  0  0  0  0  0  0  0  0  0  0  0
   -0.4935   -2.9859    5.2760 C   0  0  0  0  0  0  0  0  0  0  0  0
   -1.4789   -2.8689    5.7550 H   0  0  0  0  0  0  0  0  0  0  0  0
    0.0123   -3.7847    5.8419 H   0  0  0  0  0  0  0  0  0  0  0  0
    0.0585   -2.0642    5.5199 H   0  0  0  0  0  0  0  0  0  0  0  0
   -0.6261   -2.1849    2.9917 N   0  0  0  0  0  0  0  0  0  0  0  0
   -0.7237   -2.2601    1.5650 C   0  0  2  0  0  0  0  0  0  0  0  0
    0.1695   -1.1513    1.0687 C   0  0  0  0  0  0  0  0  0  0  0  0
    0.3193   -0.1267    1.7365 O   0  0  0  0  0  0  0  0  0  0  0  0
   -2.1397   -2.0663    1.0750 C   0  0  0  0  0  0  0  0  0  0  0  0
   -0.5717   -1.2606    3.4238 H   0  0  0  0  0  0  0  0  0  0  0  0
   -0.3076   -3.2111    1.2363 H   0  0  0  0  0  0  0  0  0  0  0  0
   -2.5584   -1.1089    1.4061 H   0  0  0  0  0  0  0  0  0  0  0  0
   -2.1682   -2.0790   -0.0197 H   0  0  0  0  0  0  0  0  0  0  0  0
   -2.7965   -2.8601    1.4459 H   0  0  0  0  0  0  0  0  0  0  0  0
    0.7724   -1.3745   -0.1593 N   0  0  0  0  0  0  0  0  0  0  0  0
    1.6644   -0.4046   -0.7812 C   0  0  2  0  0  0  0  0  0  0  0  0
    1.2197    0.9552   -0.3336 C   0  0  0  0  0  0  0  0  0  0  0  0
    1.6932    1.4400    0.6874 O   0  0  0  0  0  0  0  0  0  0  0  0
    1.4652   -0.6005   -2.2797 C   0  0  0  0  0  0  0  0  0  0  0  0
    0.9870   -2.0503   -2.2981 C   0  0  0  0  0  0  0  0  0  0  0  0
    0.7499   -2.6270   -0.9105 C   0  0  0  0  0  0  0  0  0  0  0  0
    2.6988   -0.5603   -0.4605 H   0  0  0  0  0  0  0  0  0  0  0  0
    2.4231   -0.4927   -2.8023 H   0  0  0  0  0  0  0  0  0  0  0  0
    0.7469    0.0975   -2.7207 H   0  0  0  0  0  0  0  0  0  0  0  0
    0.0219   -2.1271   -2.8120 H   0  0  0  0  0  0  0  0  0  0  0  0
    1.6970   -2.7129   -2.8010 H   0  0  0  0  0  0  0  0  0  0  0  0
   -0.1912   -3.1791   -0.8388 H   0  0  0  0  0  0  0  0  0  0  0  0
    1.5730   -3.2828   -0.6067 H   0  0  0  0  0  0  0  0  0  0  0  0
    0.2752    1.5355   -1.1682 N   0  0  0  0  0  0  0  0  0  0  0  0
   -0.8875    2.3883   -1.0691 C   0  0  2  0  0  0  0  0  0  0  0  0
   -1.1180    2.7000    0.4037 C   0  0  0  0  0  0  0  0  0  0  0  0
   -0.6912    1.9925    1.3138 O   0  0  0  0  0  0  0  0  0  0  0  0
   -2.1121    1.7278   -1.6830 C   0  0  0  0  0  0  0  0  0  0  0  0
    1.0613    1.8529   -1.7275 H   0  0  0  0  0  0  0  0  0  0  0  0
   -0.6482    3.3129   -1.6056 H   0  0  0  0  0  0  0  0  0  0  0  0
   -2.3672    0.7996   -1.1586 H   0  0  0  0  0  0  0  0  0  0  0  0
   -2.9853    2.3865   -1.6327 H   0  0  0  0  0  0  0  0  0  0  0  0
   -1.9340    1.4773   -2.7343 H   0  0  0  0  0  0  0  0  0  0  0  0
   -1.8929    3.8376    0.5814 N   0  0  0  0  0  0  0  0  0  0  0  0
   -2.2613    4.3339    1.8867 C   0  0  0  0  0  0  0  0  0  0  0  0
   -2.1875    4.3732   -0.2299 H   0  0  0  0  0  0  0  0  0  0  0  0
   -3.2354    3.9140    2.1777 H   0  0  0  0  0  0  0  0  0  0  0  0
   -1.4990    4.0347    2.6211 H   0  0  0  0  0  0  0  0  0  0  0  0
   -2.3297    5.4313    1.8556 H   0  0  0  0  0  0  0  0  0  0  0  0
 18 19  1  0  0  0  0
 19 31  1  0  0  0  0
 19 20  2  0  0  0  0
  8  9  1  0  0  0  0
  9 17  1  0  0  0  0
  9 10  2  0  0  0  0
  1  3  1  0  0  0  0
  1  7  1  0  0  0  0
  1  2  2  0  0  0  0
 32 33  1  0  0  0  0
 33 41  1  0  0  0  0
 33 34  2  0  0  0  0
 21 22  1  0  0  0  0
 22 23  1  0  0  0  0
 18 21  1  0  0  0  0
 17 23  1  0  0  0  0
 17 18  1  0  0  0  0
  8 11  1  0  0  0  0
 32 35  1  0  0  0  0
 41 42  1  0  0  0  0
  7  8  1  0  0  0  0
 31 32  1  0  0  0  0
 22 27  1  0  0  0  0
 22 28  1  0  0  0  0
 21 25  1  0  0  0  0
 21 26  1  0  0  0  0
 23 29  1  0  0  0  0
 23 30  1  0  0  0  0
 18 24  1  0  0  0  0
  3  4  1  0  0  0  0
  3  5  1  0  0  0  0
  3  6  1  0  0  0  0
 11 14  1  0  0  0  0
 11 15  1  0  0  0  0
 11 16  1  0  0  0  0
 35 38  1  0  0  0  0
 35 39  1  0  0  0  0
 35 40  1  0  0  0  0
 42 44  1  0  0  0  0
 42 45  1  0  0  0  0
 42 46  1  0  0  0  0
  8 13  1  0  0  0  0
 32 37  1  0  0  0  0
 31 36  1  0  0  0  0
 41 43  1  0  0  0  0
  7 12  1  0  0  0  0
M  END
$$$$

  -OEChem-05262214473D

 46 46  0     1  0  0  0  0  0999 V2000
   -0.6012   -3.2995    3.8205 C   0  0  0  0  0  0  0  0  0  0  0  0
   -0.6574   -4.4683    3.4568 O   0  0  0  0  0  0  0  0  0  0  0  0
   -0.4935   -2.9859    5.2760 C   0  0  0  0  0  0  0  0  0  0  0  0
   -1.4789   -2.8689    5.7550 H   0  0  0  0  0  0  0  0  0  0  0  0
    0.0123   -3.7847    5.8419 H   0  0  0  0  0  0  0  0  0  0  0  0
    0.0585   -2.0642    5.5199 H   0  0  0  0  0  0  0  0  0  0  0  0
   -0.6261   -2.1849    2.9917 N   0  0  0  0  0  0  0  0  0  0  0  0
   -0.7237   -2.2601    1.5650 C   0  0  2  0  0  0  0  0  0  0  0  0
    0.1695   -1.1513    1.0687 C   0  0  0  0  0  0  0  0  0  0  0  0
    0.3193   -0.1267    1.7365 O   0  0  0  0  0  0  0  0  0  0  0  0
   -2.1397   -2.0663    1.0750 C   0  0  0  0  0  0  0  0  0  0  0  0
   -0.5717   -1.2606    3.4238 H   0  0  0  0  0  0  0  0  0  0  0  0
   -0.3076   -3.2111    1.2363 H   0  0  0  0  0  0  0  0  0  0  0  0
   -2.5584   -1.1089    1.4061 H   0  0  0  0  0  0  0  0  0  0  0  0
   -2.1682   -2.0790   -0.0197 H   0  0  0  0  0  0  0  0  0  0  0  0
   -2.7965   -2.8601    1.4459 H   0  0  0  0  0  0  0  0  0  0  0  0
    0.7724   -1.3745   -0.1593 N   0  0  0  0  0  0  0  0  0  0  0  0
    1.6644   -0.4046   -0.7812 C   0  0  2  0  0  0  0  0  0  0  0  0
    1.2197    0.9552   -0.3336 C   0  0  0  0  0  0  0  0  0  0  0  0
    1.8732    1.5571    0.5104 O   0  0  0  0  0  0  0  0  0  0  0  0
    1.4652   -0.6005   -2.2797 C   0  0  0  0  0  0  0  0  0  0  0  0
    0.9870   -2.0503   -2.2981 C   0  0  0  0  0  0  0  0  0  0  0  0
    0.7499   -2.6270   -0.9105 C   0  0  0  0  0  0  0  0  0  0  0  0
    2.6988   -0.5603   -0.4605 H   0  0  0  0  0  0  0  0  0  0  0  0
    2.4231   -0.4927   -2.8023 H   0  0  0  0  0  0  0  0  0  0  0  0
    0.7469    0.0975   -2.7207 H   0  0  0  0  0  0  0  0  0  0  0  0
    0.0219   -2.1271   -2.8120 H   0  0  0  0  0  0  0  0  0  0  0  0
    1.6970   -2.7129   -2.8010 H   0  0  0  0  0  0  0  0  0  0  0  0
   -0.1912   -3.1791   -0.8388 H   0  0  0  0  0  0  0  0  0  0  0  0
    1.5730   -3.2828   -0.6067 H   0  0  0  0  0  0  0  0  0  0  0  0
    0.0610    1.3959   -0.9569 N   0  0  0  0  0  0  0  0  0  0  0  0
   -1.1164    2.1728   -0.6420 C   0  0  2  0  0  0  0  0  0  0  0  0
   -1.0253    2.5936    0.8189 C   0  0  0  0  0  0  0  0  0  0  0  0
   -0.3396    1.9977    1.6471 O   0  0  0  0  0  0  0  0  0  0  0  0
   -2.3881    1.3801   -0.9010 C   0  0  0  0  0  0  0  0  0  0  0  0
    0.6655    1.7168   -1.7072 H   0  0  0  0  0  0  0  0  0  0  0  0
   -1.0888    3.0620   -1.2812 H   0  0  0  0  0  0  0  0  0  0  0  0
   -2.4335    0.4853   -0.2695 H   0  0  0  0  0  0  0  0  0  0  0  0
   -3.2795    1.9797   -0.6891 H   0  0  0  0  0  0  0  0  0  0  0  0
   -2.4375    1.0529   -1.9452 H   0  0  0  0  0  0  0  0  0  0  0  0
   -1.8333    3.6868    1.0984 N   0  0  0  0  0  0  0  0  0  0  0  0
   -1.9306    4.2674    2.4174 C   0  0  0  0  0  0  0  0  0  0  0  0
   -2.3530    4.1294    0.3463 H   0  0  0  0  0  0  0  0  0  0  0  0
   -2.7707    3.8087    2.9593 H   0  0  0  0  0  0  0  0  0  0  0  0
   -0.9959    4.0851    2.9680 H   0  0  0  0  0  0  0  0  0  0  0  0
   -2.0990    5.3508    2.3294 H   0  0  0  0  0  0  0  0  0  0  0  0
 18 19  1  0  0  0  0
 19 31  1  0  0  0  0
 19 20  2  0  0  0  0
  8  9  1  0  0  0  0
  9 17  1  0  0  0  0
  9 10  2  0  0  0  0
  1  3  1  0  0  0  0
  1  7  1  0  0  0  0
  1  2  2  0  0  0  0
 32 33  1  0  0  0  0
 33 41  1  0  0  0  0
 33 34  2  0  0  0  0
 21 22  1  0  0  0  0
 22 23  1  0  0  0  0
 18 21  1  0  0  0  0
 17 23  1  0  0  0  0
 17 18  1  0  0  0  0
  8 11  1  0  0  0  0
 32 35  1  0  0  0  0
 41 42  1  0  0  0  0
  7  8  1  0  0  0  0
 31 32  1  0  0  0  0
 22 27  1  0  0  0  0
 22 28  1  0  0  0  0
 21 25  1  0  0  0  0
 21 26  1  0  0  0  0
 23 29  1  0  0  0  0
 23 30  1  0  0  0  0
 18 24  1  0  0  0  0
  3  4  1  0  0  0  0
  3  5  1  0  0  0  0
  3  6  1  0  0  0  0
 11 14  1  0  0  0  0
 11 15  1  0  0  0  0
 11 16  1  0  0  0  0
 35 38  1  0  0  0  0
 35 39  1  0  0  0  0
 35 40  1  0  0  0  0
 42 44  1  0  0  0  0
 42 45  1  0  0  0  0
 42 46  1  0  0  0  0
  8 13  1  0  0  0  0
 32 37  1  0  0  0  0
 31 36  1  0  0  0  0
 41 43  1  0  0  0  0
  7 12  1  0  0  0  0
M  END
$$$$

  -OEChem-05262214473D

 46 46  0     1  0  0  0  0  0999 V2000
   -0.6012   -3.2995    3.8205 C   0  0  0  0  0  0  0  0  0  0  0  0
   -0.6574   -4.4683    3.4568 O   0  0  0  0  0  0  0  0  0  0  0  0
   -0.4935   -2.9859    5.2760 C   0  0  0  0  0  0  0  0  0  0  0  0
   -1.4789   -2.8689    5.7550 H   0  0  0  0  0  0  0  0  0  0  0  0
    0.0123   -3.7847    5.8419 H   0  0  0  0  0  0  0  0  0  0  0  0
    0.0585   -2.0642    5.5199 H   0  0  0  0  0  0  0  0  0  0  0  0
   -0.6261   -2.1849    2.9917 N   0  0  0  0  0  0  0  0  0  0  0  0
   -0.7237   -2.2601    1.5650 C   0  0  2  0  0  0  0  0  0  0  0  0
    0.1695   -1.1513    1.0687 C   0  0  0  0  0  0  0  0  0  0  0  0
    0.3193   -0.1267    1.7365 O   0  0  0  0  0  0  0  0  0  0  0  0
   -2.1397   -2.0663    1.0750 C   0  0  0  0  0  0  0  0  0  0  0  0
   -0.5717   -1.2606    3.4238 H   0  0  0  0  0  0  0  0  0  0  0  0
   -0.3076   -3.2111    1.2363 H   0  0  0  0  0  0  0  0  0  0  0  0
   -2.5584   -1.1089    1.4061 H   0  0  0  0  0  0  0  0  0  0  0  0
   -2.1682   -2.0790   -0.0197 H   0  0  0  0  0  0  0  0  0  0  0  0
   -2.7965   -2.8601    1.4459 H   0  0  0  0  0  0  0  0  0  0  0  0
    0.7724   -1.3745   -0.1593 N   0  0  0  0  0  0  0  0  0  0  0  0
    1.6644   -0.4046   -0.7812 C   0  0  2  0  0  0  0  0  0  0  0  0
    1.2197    0.9552   -0.3336 C   0  0  0  0  0  0  0  0  0  0  0  0
    1.9965    1.6706    0.2882 O   0  0  0  0  0  0  0  0  0  0  0  0
    1.4652   -0.6005   -2.2797 C   0  0  0  0  0  0  0  0  0  0  0  0
    0.9870   -2.0503   -2.2981 C   0  0  0  0  0  0  0  0  0  0  0  0
    0.7499   -2.6270   -0.9105 C   0  0  0  0  0  0  0  0  0  0  0  0
    2.6988   -0.5603   -0.4605 H   0  0  0  0  0  0  0  0  0  0  0  0
    2.4231   -0.4927   -2.8023 H   0  0  0  0  0  0  0  0  0  0  0  0
    0.7469    0.0975   -2.7207 H   0  0  0  0  0  0  0  0  0  0  0  0
    0.0219   -2.1271   -2.8120 H   0  0  0  0  0  0  0  0  0  0  0  0
    1.6970   -2.7129   -2.8010 H   0  0  0  0  0  0  0  0  0  0  0  0
   -0.1912   -3.1791   -0.8388 H   0  0  0  0  0  0  0  0  0  0  0  0
    1.5730   -3.2828   -0.6067 H   0  0  0  0  0  0  0  0  0  0  0  0
   -0.0856    1.2607   -0.6918 N   0  0  0  0  0  0  0  0  0  0  0  0
   -1.2205    1.9799   -0.1591 C   0  0  2  0  0  0  0  0  0  0  0  0
   -0.8300    2.5299    1.2063 C   0  0  0  0  0  0  0  0  0  0  0  0
    0.0777    2.0556    1.8860 O   0  0  0  0  0  0  0  0  0  0  0  0
   -2.4442    1.0830   -0.0542 C   0  0  0  0  0  0  0  0  0  0  0  0
    0.2986    1.5563   -1.5842 H   0  0  0  0  0  0  0  0  0  0  0  0
   -1.4188    2.8106   -0.8451 H   0  0  0  0  0  0  0  0  0  0  0  0
   -2.2645    0.2448    0.6289 H   0  0  0  0  0  0  0  0  0  0  0  0
   -3.3106    1.6365    0.3226 H   0  0  0  0  0  0  0  0  0  0  0  0
   -2.7058    0.6646   -1.0321 H   0  0  0  0  0  0  0  0  0  0  0  0
   -1.6426    3.5856    1.5955 N   0  0  0  0  0  0  0  0  0  0  0  0
   -1.4815    4.2694    2.8574 C   0  0  0  0  0  0  0  0  0  0  0  0
   -2.3588    3.9254    0.9604 H   0  0  0  0  0  0  0  0  0  0  0  0
   -2.1302    3.8028    3.6133 H   0  0  0  0  0  0  0  0  0  0  0  0
   -0.4325    4.1992    3.1810 H   0  0  0  0  0  0  0  0  0  0  0  0
   -1.7587    5.3273    2.7391 H   0  0  0  0  0  0  0  0  0  0  0  0
 18 19  1  0  0  0  0
 19 31  1  0  0  0  0
 19 20  2  0  0  0  0
  8  9  1  0  0  0  0
  9 17  1  0  0  0  0
  9 10  2  0  0  0  0
  1  3  1  0  0  0  0
  1  7  1  0  0  0  0
  1  2  2  0  0  0  0
 32 33  1  0  0  0  0
 33 41  1  0  0  0  0
 33 34  2  0  0  0  0
 21 22  1  0  0  0  0
 22 23  1  0  0  0  0
 18 21  1  0  0  0  0
 17 23  1  0  0  0  0
 17 18  1  0  0  0  0
  8 11  1  0  0  0  0
 32 35  1  0  0  0  0
 41 42  1  0  0  0  0
  7  8  1  0  0  0  0
 31 32  1  0  0  0  0
 22 27  1  0  0  0  0
 22 28  1  0  0  0  0
 21 25  1  0  0  0  0
 21 26  1  0  0  0  0
 23 29  1  0  0  0  0
 23 30  1  0  0  0  0
 18 24  1  0  0  0  0
  3  4  1  0  0  0  0
  3  5  1  0  0  0  0
  3  6  1  0  0  0  0
 11 14  1  0  0  0  0
 11 15  1  0  0  0  0
 11 16  1  0  0  0  0
 35 38  1  0  0  0  0
 35 39  1  0  0  0  0
 35 40  1  0  0  0  0
 42 44  1  0  0  0  0
 42 45  1  0  0  0  0
 42 46  1  0  0  0  0
  8 13  1  0  0  0  0
 32 37  1  0  0  0  0
 31 36  1  0  0  0  0
 41 43  1  0  0  0  0
  7 12  1  0  0  0  0
M  END
$$$$

  -OEChem-05262214473D

 46 46  0     1  0  0  0  0  0999 V2000
   -0.6012   -3.2995    3.8205 C   0  0  0  0  0  0  0  0  0  0  0  0
   -0.6574   -4.4683    3.4568 O   0  0  0  0  0  0  0  0  0  0  0  0
   -0.4935   -2.9859    5.2760 C   0  0  0  0  0  0  0  0  0  0  0  0
   -1.4789   -2.8689    5.7550 H   0  0  0  0  0  0  0  0  0  0  0  0
    0.0123   -3.7847    5.8419 H   0  0  0  0  0  0  0  0  0  0  0  0
    0.0585   -2.0642    5.5199 H   0  0  0  0  0  0  0  0  0  0  0  0
   -0.6261   -2.1849    2.9917 N   0  0  0  0  0  0  0  0  0  0  0  0
   -0.7237   -2.2601    1.5650 C   0  0  2  0  0  0  0  0  0  0  0  0
    0.1695   -1.1513    1.0687 C   0  0  0  0  0  0  0  0  0  0  0  0
    0.3193   -0.1267    1.7365 O   0  0  0  0  0  0  0  0  0  0  0  0
   -2.1397   -2.0663    1.0750 C   0  0  0  0  0  0  0  0  0  0  0  0
   -0.5717   -1.2606    3.4238 H   0  0  0  0  0  0  0  0  0  0  0  0
   -0.3076   -3.2111    1.2363 H   0  0  0  0  0  0  0  0  0  0  0  0
   -2.5584   -1.1089    1.4061 H   0  0  0  0  0  0  0  0  0  0  0  0
   -2.1682   -2.0790   -0.0197 H   0  0  0  0  0  0  0  0  0  0  0  0
   -2.7965   -2.8601    1.4459 H   0  0  0  0  0  0  0  0  0  0  0  0
    0.7724   -1.3745   -0.1593 N   0  0  0  0  0  0  0  0  0  0  0  0
    1.6644   -0.4046   -0.7812 C   0  0  2  0  0  0  0  0  0  0  0  0
    1.2197    0.9552   -0.3336 C   0  0  0  0  0  0  0  0  0  0  0  0
    2.0546    1.7727    0.0359 O   0  0  0  0  0  0  0  0  0  0  0  0
    1.4652   -0.6005   -2.2797 C   0  0  0  0  0  0  0  0  0  0  0  0
    0.9870   -2.0503   -2.2981 C   0  0  0  0  0  0  0  0  0  0  0  0
    0.7499   -2.6270   -0.9105 C   0  0  0  0  0  0  0  0  0  0  0  0
    2.6988   -0.5603   -0.4605 H   0  0  0  0  0  0  0  0  0  0  0  0
    2.4231   -0.4927   -2.8023 H   0  0  0  0  0  0  0  0  0  0  0  0
    0.7469    0.0975   -2.7207 H   0  0  0  0  0  0  0  0  0  0  0  0
    0.0219   -2.1271   -2.8120 H   0  0  0  0  0  0  0  0  0  0  0  0
    1.6970   -2.7129   -2.8010 H   0  0  0  0  0  0  0  0  0  0  0  0
   -0.1912   -3.1791   -0.8388 H   0  0  0  0  0  0  0  0  0  0  0  0
    1.5730   -3.2828   -0.6067 H   0  0  0  0  0  0  0  0  0  0  0  0
   -0.1544    1.1391   -0.3909 N   0  0  0  0  0  0  0  0  0  0  0  0
   -1.1928    1.8225    0.3465 C   0  0  2  0  0  0  0  0  0  0  0  0
   -0.5456    2.5133    1.5396 C   0  0  0  0  0  0  0  0  0  0  0  0
    0.5325    2.1620    2.0143 O   0  0  0  0  0  0  0  0  0  0  0  0
   -2.2766    0.8567    0.7998 C   0  0  0  0  0  0  0  0  0  0  0  0
   -0.0146    1.3824   -1.3670 H   0  0  0  0  0  0  0  0  0  0  0  0
   -1.6157    2.5757   -0.3271 H   0  0  0  0  0  0  0  0  0  0  0  0
   -1.8717    0.0946    1.4756 H   0  0  0  0  0  0  0  0  0  0  0  0
   -3.0766    1.3803    1.3335 H   0  0  0  0  0  0  0  0  0  0  0  0
   -2.7205    0.3389   -0.0573 H   0  0  0  0  0  0  0  0  0  0  0  0
   -1.3340    3.5406    2.0386 N   0  0  0  0  0  0  0  0  0  0  0  0
   -0.9445    4.3398    3.1769 C   0  0  0  0  0  0  0  0  0  0  0  0
   -2.2045    3.7750    1.5706 H   0  0  0  0  0  0  0  0  0  0  0  0
   -1.3575    3.8969    4.0951 H   0  0  0  0  0  0  0  0  0  0  0  0
    0.1530    4.3693    3.2457 H   0  0  0  0  0  0  0  0  0  0  0  0
   -1.3319    5.3623    3.0567 H   0  0  0  0  0  0  0  0  0  0  0  0
 18 19  1  0  0  0  0
 19 31  1  0  0  0  0
 19 20  2  0  0  0  0
  8  9  1  0  0  0  0
  9 17  1  0  0  0  0
  9 10  2  0  0  0  0
  1  3  1  0  0  0  0
  1  7  1  0  0  0  0
  1  2  2  0  0  0  0
 32 33  1  0  0  0  0
 33 41  1  0  0  0  0
 33 34  2  0  0  0  0
 21 22  1  0  0  0  0
 22 23  1  0  0  0  0
 18 21  1  0  0  0  0
 17 23  1  0  0  0  0
 17 18  1  0  0  0  0
  8 11  1  0  0  0  0
 32 35  1  0  0  0  0
 41 42  1  0  0  0  0
  7  8  1  0  0  0  0
 31 32  1  0  0  0  0
 22 27  1  0  0  0  0
 22 28  1  0  0  0  0
 21 25  1  0  0  0  0
 21 26  1  0  0  0  0
 23 29  1  0  0  0  0
 23 30  1  0  0  0  0
 18 24  1  0  0  0  0
  3  4  1  0  0  0  0
  3  5  1  0  0  0  0
  3  6  1  0  0  0  0
 11 14  1  0  0  0  0
 11 15  1  0  0  0  0
 11 16  1  0  0  0  0
 35 38  1  0  0  0  0
 35 39  1  0  0  0  0
 35 40  1  0  0  0  0
 42 44  1  0  0  0  0
 42 45  1  0  0  0  0
 42 46  1  0  0  0  0
  8 13  1  0  0  0  0
 32 37  1  0  0  0  0
 31 36  1  0  0  0  0
 41 43  1  0  0  0  0
  7 12  1  0  0  0  0
M  END
$$$$

  -OEChem-05262214473D

 46 46  0     1  0  0  0  0  0999 V2000
   -0.6012   -3.2995    3.8205 C   0  0  0  0  0  0  0  0  0  0  0  0
   -0.6574   -4.4683    3.4568 O   0  0  0  0  0  0  0  0  0  0  0  0
   -0.4935   -2.9859    5.2760 C   0  0  0  0  0  0  0  0  0  0  0  0
   -1.4789   -2.8689    5.7550 H   0  0  0  0  0  0  0  0  0  0  0  0
    0.0123   -3.7847    5.8419 H   0  0  0  0  0  0  0  0  0  0  0  0
    0.0585   -2.0642    5.5199 H   0  0  0  0  0  0  0  0  0  0  0  0
   -0.6261   -2.1849    2.9917 N   0  0  0  0  0  0  0  0  0  0  0  0
   -0.7237   -2.2601    1.5650 C   0  0  2  0  0  0  0  0  0  0  0  0
    0.1695   -1.1513    1.0687 C   0  0  0  0  0  0  0  0  0  0  0  0
    0.3193   -0.1267    1.7365 O   0  0  0  0  0  0  0  0  0  0  0  0
   -2.1397   -2.0663    1.0750 C   0  0  0  0  0  0  0  0  0  0  0  0
   -0.5717   -1.2606    3.4238 H   0  0  0  0  0  0  0  0  0  0  0  0
   -0.3076   -3.2111    1.2363 H   0  0  0  0  0  0  0  0  0  0  0  0
   -2.5584   -1.1089    1.4061 H   0  0  0  0  0  0  0  0  0  0  0  0
   -2.1682   -2.0790   -0.0197 H   0  0  0  0  0  0  0  0  0  0  0  0
   -2.7965   -2.8601    1.4459 H   0  0  0  0  0  0  0  0  0  0  0  0
    0.7724   -1.3745   -0.1593 N   0  0  0  0  0  0  0  0  0  0  0  0
    1.6644   -0.4046   -0.7812 C   0  0  2  0  0  0  0  0  0  0  0  0
    1.2197    0.9552   -0.3336 C   0  0  0  0  0  0  0  0  0  0  0  0
    2.0436    1.8564   -0.2294 O   0  0  0  0  0  0  0  0  0  0  0  0
    1.4652   -0.6005   -2.2797 C   0  0  0  0  0  0  0  0  0  0  0  0
    0.9870   -2.0503   -2.2981 C   0  0  0  0  0  0  0  0  0  0  0  0
    0.7499   -2.6270   -0.9105 C   0  0  0  0  0  0  0  0  0  0  0  0
    2.6988   -0.5603   -0.4605 H   0  0  0  0  0  0  0  0  0  0  0  0
    2.4231   -0.4927   -2.8023 H   0  0  0  0  0  0  0  0  0  0  0  0
    0.7469    0.0975   -2.7207 H   0  0  0  0  0  0  0  0  0  0  0  0
    0.0219   -2.1271   -2.8120 H   0  0  0  0  0  0  0  0  0  0  0  0
    1.6970   -2.7129   -2.8010 H   0  0  0  0  0  0  0  0  0  0  0  0
   -0.1912   -3.1791   -0.8388 H   0  0  0  0  0  0  0  0  0  0  0  0
    1.5730   -3.2828   -0.6067 H   0  0  0  0  0  0  0  0  0  0  0  0
   -0.1409    1.0395   -0.0748 N   0  0  0  0  0  0  0  0  0  0  0  0
   -1.0352    1.7114    0.8405 C   0  0  2  0  0  0  0  0  0  0  0  0
   -0.1913    2.5447    1.7960 C   0  0  0  0  0  0  0  0  0  0  0  0
    0.9937    2.3099    2.0234 O   0  0  0  0  0  0  0  0  0  0  0  0
   -1.8968    0.7166    1.6027 C   0  0  0  0  0  0  0  0  0  0  0  0
   -0.2527    1.2069   -1.0702 H   0  0  0  0  0  0  0  0  0  0  0  0
   -1.6662    2.3733    0.2375 H   0  0  0  0  0  0  0  0  0  0  0  0
   -1.2819    0.0448    2.2127 H   0  0  0  0  0  0  0  0  0  0  0  0
   -2.5935    1.2284    2.2747 H   0  0  0  0  0  0  0  0  0  0  0  0
   -2.4807    0.0980    0.9127 H   0  0  0  0  0  0  0  0  0  0  0  0
   -0.9283    3.5551    2.3977 N   0  0  0  0  0  0  0  0  0  0  0  0
   -0.3562    4.4739    3.3540 C   0  0  0  0  0  0  0  0  0  0  0  0
   -1.9005    3.6885    2.1353 H   0  0  0  0  0  0  0  0  0  0  0  0
   -0.5053    4.0845    4.3719 H   0  0  0  0  0  0  0  0  0  0  0  0
    0.7205    4.5839    3.1577 H   0  0  0  0  0  0  0  0  0  0  0  0
   -0.8479    5.4534    3.2606 H   0  0  0  0  0  0  0  0  0  0  0  0
 18 19  1  0  0  0  0
 19 31  1  0  0  0  0
 19 20  2  0  0  0  0
  8  9  1  0  0  0  0
  9 17  1  0  0  0  0
  9 10  2  0  0  0  0
  1  3  1  0  0  0  0
  1  7  1  0  0  0  0
  1  2  2  0  0  0  0
 32 33  1  0  0  0  0
 33 41  1  0  0  0  0
 33 34  2  0  0  0  0
 21 22  1  0  0  0  0
 22 23  1  0  0  0  0
 18 21  1  0  0  0  0
 17 23  1  0  0  0  0
 17 18  1  0  0  0  0
  8 11  1  0  0  0  0
 32 35  1  0  0  0  0
 41 42  1  0  0  0  0
  7  8  1  0  0  0  0
 31 32  1  0  0  0  0
 22 27  1  0  0  0  0
 22 28  1  0  0  0  0
 21 25  1  0  0  0  0
 21 26  1  0  0  0  0
 23 29  1  0  0  0  0
 23 30  1  0  0  0  0
 18 24  1  0  0  0  0
  3  4  1  0  0  0  0
  3  5  1  0  0  0  0
  3  6  1  0  0  0  0
 11 14  1  0  0  0  0
 11 15  1  0  0  0  0
 11 16  1  0  0  0  0
 35 38  1  0  0  0  0
 35 39  1  0  0  0  0
 35 40  1  0  0  0  0
 42 44  1  0  0  0  0
 42 45  1  0  0  0  0
 42 46  1  0  0  0  0
  8 13  1  0  0  0  0
 32 37  1  0  0  0  0
 31 36  1  0  0  0  0
 41 43  1  0  0  0  0
  7 12  1  0  0  0  0
M  END
$$$$

  -OEChem-05262214473D

 46 46  0     1  0  0  0  0  0999 V2000
   -0.6012   -3.2995    3.8205 C   0  0  0  0  0  0  0  0  0  0  0  0
   -0.6574   -4.4683    3.4568 O   0  0  0  0  0  0  0  0  0  0  0  0
   -0.4935   -2.9859    5.2760 C   0  0  0  0  0  0  0  0  0  0  0  0
   -1.4789   -2.8689    5.7550 H   0  0  0  0  0  0  0  0  0  0  0  0
    0.0123   -3.7847    5.8419 H   0  0  0  0  0  0  0  0  0  0  0  0
    0.0585   -2.0642    5.5199 H   0  0  0  0  0  0  0  0  0  0  0  0
   -0.6261   -2.1849    2.9917 N   0  0  0  0  0  0  0  0  0  0  0  0
   -0.7237   -2.2601    1.5650 C   0  0  2  0  0  0  0  0  0  0  0  0
    0.1695   -1.1513    1.0687 C   0  0  0  0  0  0  0  0  0  0  0  0
    0.3193   -0.1267    1.7365 O   0  0  0  0  0  0  0  0  0  0  0  0
   -2.1397   -2.0663    1.0750 C   0  0  0  0  0  0  0  0  0  0  0  0
   -0.5717   -1.2606    3.4238 H   0  0  0  0  0  0  0  0  0  0  0  0
   -0.3076   -3.2111    1.2363 H   0  0  0  0  0  0  0  0  0  0  0  0
   -2.5584   -1.1089    1.4061 H   0  0  0  0  0  0  0  0  0  0  0  0
   -2.1682   -2.0790   -0.0197 H   0  0  0  0  0  0  0  0  0  0  0  0
   -2.7965   -2.8601    1.4459 H   0  0  0  0  0  0  0  0  0  0  0  0
    0.7724   -1.3745   -0.1593 N   0  0  0  0  0  0  0  0  0  0  0  0
    1.6644   -0.4046   -0.7812 C   0  0  2  0  0  0  0  0  0  0  0  0
    1.2197    0.9552   -0.3336 C   0  0  0  0  0  0  0  0  0  0  0  0
    1.9643    1.9160   -0.4894 O   0  0  0  0  0  0  0  0  0  0  0  0
    1.4652   -0.6005   -2.2797 C   0  0  0  0  0  0  0  0  0  0  0  0
    0.9870   -2.0503   -2.2981 C   0  0  0  0  0  0  0  0  0  0  0  0
    0.7499   -2.6270   -0.9105 C   0  0  0  0  0  0  0  0  0  0  0  0
    2.6988   -0.5603   -0.4605 H   0  0  0  0  0  0  0  0  0  0  0  0
    2.4231   -0.4927   -2.8023 H   0  0  0  0  0  0  0  0  0  0  0  0
    0.7469    0.0975   -2.7207 H   0  0  0  0  0  0  0  0  0  0  0  0
    0.0219   -2.1271   -2.8120 H   0  0  0  0  0  0  0  0  0  0  0  0
    1.6970   -2.7129   -2.8010 H   0  0  0  0  0  0  0  0  0  0  0  0
   -0.1912   -3.1791   -0.8388 H   0  0  0  0  0  0  0  0  0  0  0  0
    1.5730   -3.2828   -0.6067 H   0  0  0  0  0  0  0  0  0  0  0  0
   -0.0459    0.9686    0.2350 N   0  0  0  0  0  0  0  0  0  0  0  0
   -0.7584    1.6542    1.2892 C   0  0  2  0  0  0  0  0  0  0  0  0
    0.2087    2.6222    1.9581 C   0  0  0  0  0  0  0  0  0  0  0  0
    1.4299    2.4890    1.9125 O   0  0  0  0  0  0  0  0  0  0  0  0
   -1.3305    0.6723    2.2998 C   0  0  0  0  0  0  0  0  0  0  0  0
   -0.3994    1.0417   -0.7142 H   0  0  0  0  0  0  0  0  0  0  0  0
   -1.5668    2.2173    0.8103 H   0  0  0  0  0  0  0  0  0  0  0  0
   -0.5353    0.0989    2.7900 H   0  0  0  0  0  0  0  0  0  0  0  0
   -1.8941    1.1914    3.0821 H   0  0  0  0  0  0  0  0  0  0  0  0
   -2.0028   -0.0417    1.8119 H   0  0  0  0  0  0  0  0  0  0  0  0
   -0.4533    3.6280    2.6481 N   0  0  0  0  0  0  0  0  0  0  0  0
    0.2432    4.6624    3.3766 C   0  0  0  0  0  0  0  0  0  0  0  0
   -1.4676    3.6718    2.6160 H   0  0  0  0  0  0  0  0  0  0  0  0
    0.3683    4.3528    4.4247 H   0  0  0  0  0  0  0  0  0  0  0  0
    1.2315    4.8282    2.9230 H   0  0  0  0  0  0  0  0  0  0  0  0
   -0.3395    5.5946    3.3369 H   0  0  0  0  0  0  0  0  0  0  0  0
 18 19  1  0  0  0  0
 19 31  1  0  0  0  0
 19 20  2  0  0  0  0
  8  9  1  0  0  0  0
  9 17  1  0  0  0  0
  9 10  2  0  0  0  0
  1  3  1  0  0  0  0
  1  7  1  0  0  0  0
  1  2  2  0  0  0  0
 32 33  1  0  0  0  0
 33 41  1  0  0  0  0
 33 34  2  0  0  0  0
 21 22  1  0  0  0  0
 22 23  1  0  0  0  0
 18 21  1  0  0  0  0
 17 23  1  0  0  0  0
 17 18  1  0  0  0  0
  8 11  1  0  0  0  0
 32 35  1  0  0  0  0
 41 42  1  0  0  0  0
  7  8  1  0  0  0  0
 31 32  1  0  0  0  0
 22 27  1  0  0  0  0
 22 28  1  0  0  0  0
 21 25  1  0  0  0  0
 21 26  1  0  0  0  0
 23 29  1  0  0  0  0
 23 30  1  0  0  0  0
 18 24  1  0  0  0  0
  3  4  1  0  0  0  0
  3  5  1  0  0  0  0
  3  6  1  0  0  0  0
 11 14  1  0  0  0  0
 11 15  1  0  0  0  0
 11 16  1  0  0  0  0
 35 38  1  0  0  0  0
 35 39  1  0  0  0  0
 35 40  1  0  0  0  0
 42 44  1  0  0  0  0
 42 45  1  0  0  0  0
 42 46  1  0  0  0  0
  8 13  1  0  0  0  0
 32 37  1  0  0  0  0
 31 36  1  0  0  0  0
 41 43  1  0  0  0  0
  7 12  1  0  0  0  0
M  END
$$$$

  -OEChem-05262214473D

 46 46  0     1  0  0  0  0  0999 V2000
   -0.6012   -3.2995    3.8205 C   0  0  0  0  0  0  0  0  0  0  0  0
   -0.6574   -4.4683    3.4568 O   0  0  0  0  0  0  0  0  0  0  0  0
   -0.4935   -2.9859    5.2760 C   0  0  0  0  0  0  0  0  0  0  0  0
   -1.4789   -2.8689    5.7550 H   0  0  0  0  0  0  0  0  0  0  0  0
    0.0123   -3.7847    5.8419 H   0  0  0  0  0  0  0  0  0  0  0  0
    0.0585   -2.0642    5.5199 H   0  0  0  0  0  0  0  0  0  0  0  0
   -0.6261   -2.1849    2.9917 N   0  0  0  0  0  0  0  0  0  0  0  0
   -0.7237   -2.2601    1.5650 C   0  0  2  0  0  0  0  0  0  0  0  0
    0.1695   -1.1513    1.0687 C   0  0  0  0  0  0  0  0  0  0  0  0
    0.3193   -0.1267    1.7365 O   0  0  0  0  0  0  0  0  0  0  0  0
   -2.1397   -2.0663    1.0750 C   0  0  0  0  0  0  0  0  0  0  0  0
   -0.5717   -1.2606    3.4238 H   0  0  0  0  0  0  0  0  0  0  0  0
   -0.3076   -3.2111    1.2363 H   0  0  0  0  0  0  0  0  0  0  0  0
   -2.5584   -1.1089    1.4061 H   0  0  0  0  0  0  0  0  0  0  0  0
   -2.1682   -2.0790   -0.0197 H   0  0  0  0  0  0  0  0  0  0  0  0
   -2.7965   -2.8601    1.4459 H   0  0  0  0  0  0  0  0  0  0  0  0
    0.7724   -1.3745   -0.1593 N   0  0  0  0  0  0  0  0  0  0  0  0
    1.6644   -0.4046   -0.7812 C   0  0  2  0  0  0  0  0  0  0  0  0
    1.2197    0.9552   -0.3336 C   0  0  0  0  0  0  0  0  0  0  0  0
    1.8220    1.9475   -0.7265 O   0  0  0  0  0  0  0  0  0  0  0  0
    1.4652   -0.6005   -2.2797 C   0  0  0  0  0  0  0  0  0  0  0  0
    0.9870   -2.0503   -2.2981 C   0  0  0  0  0  0  0  0  0  0  0  0
    0.7499   -2.6270   -0.9105 C   0  0  0  0  0  0  0  0  0  0  0  0
    2.6988   -0.5603   -0.4605 H   0  0  0  0  0  0  0  0  0  0  0  0
    2.4231   -0.4927   -2.8023 H   0  0  0  0  0  0  0  0  0  0  0  0
    0.7469    0.0975   -2.7207 H   0  0  0  0  0  0  0  0  0  0  0  0
    0.0219   -2.1271   -2.8120 H   0  0  0  0  0  0  0  0  0  0  0  0
    1.6970   -2.7129   -2.8010 H   0  0  0  0  0  0  0  0  0  0  0  0
   -0.1912   -3.1791   -0.8388 H   0  0  0  0  0  0  0  0  0  0  0  0
    1.5730   -3.2828   -0.6067 H   0  0  0  0  0  0  0  0  0  0  0  0
    0.1241    0.9312    0.5175 N   0  0  0  0  0  0  0  0  0  0  0  0
   -0.3812    1.6548    1.6620 C   0  0  2  0  0  0  0  0  0  0  0  0
    0.6272    2.7403    2.0148 C   0  0  0  0  0  0  0  0  0  0  0  0
    1.8113    2.6872    1.6892 O   0  0  0  0  0  0  0  0  0  0  0  0
   -0.6165    0.7268    2.8436 C   0  0  0  0  0  0  0  0  0  0  0  0
   -0.4447    0.8982   -0.3232 H   0  0  0  0  0  0  0  0  0  0  0  0
   -1.3242    2.1183    1.3521 H   0  0  0  0  0  0  0  0  0  0  0  0
    0.3172    0.2531    3.1683 H   0  0  0  0  0  0  0  0  0  0  0  0
   -1.0261    1.2716    3.7006 H   0  0  0  0  0  0  0  0  0  0  0  0
   -1.3192   -0.0707    2.5790 H   0  0  0  0  0  0  0  0  0  0  0  0
    0.0587    3.7543    2.7729 N   0  0  0  0  0  0  0  0  0  0  0  0
    0.8130    4.8926    3.2433 C   0  0  0  0  0  0  0  0  0  0  0  0
   -0.9353    3.7260    2.9801 H   0  0  0  0  0  0  0  0  0  0  0  0
    1.2038    4.6835    4.2500 H   0  0  0  0  0  0  0  0  0  0  0  0
    1.6511    5.0857    2.5575 H   0  0  0  0  0  0  0  0  0  0  0  0
    0.1586    5.7760    3.2804 H   0  0  0  0  0  0  0  0  0  0  0  0
 18 19  1  0  0  0  0
 19 31  1  0  0  0  0
 19 20  2  0  0  0  0
  8  9  1  0  0  0  0
  9 17  1  0  0  0  0
  9 10  2  0  0  0  0
  1  3  1  0  0  0  0
  1  7  1  0  0  0  0
  1  2  2  0  0  0  0
 32 33  1  0  0  0  0
 33 41  1  0  0  0  0
 33 34  2  0  0  0  0
 21 22  1  0  0  0  0
 22 23  1  0  0  0  0
 18 21  1  0  0  0  0
 17 23  1  0  0  0  0
 17 18  1  0  0  0  0
  8 11  1  0  0  0  0
 32 35  1  0  0  0  0
 41 42  1  0  0  0  0
  7  8  1  0  0  0  0
 31 32  1  0  0  0  0
 22 27  1  0  0  0  0
 22 28  1  0  0  0  0
 21 25  1  0  0  0  0
 21 26  1  0  0  0  0
 23 29  1  0  0  0  0
 23 30  1  0  0  0  0
 18 24  1  0  0  0  0
  3  4  1  0  0  0  0
  3  5  1  0  0  0  0
  3  6  1  0  0  0  0
 11 14  1  0  0  0  0
 11 15  1  0  0  0  0
 11 16  1  0  0  0  0
 35 38  1  0  0  0  0
 35 39  1  0  0  0  0
 35 40  1  0  0  0  0
 42 44  1  0  0  0  0
 42 45  1  0  0  0  0
 42 46  1  0  0  0  0
  8 13  1  0  0  0  0
 32 37  1  0  0  0  0
 31 36  1  0  0  0  0
 41 43  1  0  0  0  0
  7 12  1  0  0  0  0
M  END
$$$$

  -OEChem-05262214473D

 46 46  0     1  0  0  0  0  0999 V2000
   -0.6012   -3.2995    3.8205 C   0  0  0  0  0  0  0  0  0  0  0  0
   -0.6574   -4.4683    3.4568 O   0  0  0  0  0  0  0  0  0  0  0  0
   -0.4935   -2.9859    5.2760 C   0  0  0  0  0  0  0  0  0  0  0  0
   -1.4789   -2.8689    5.7550 H   0  0  0  0  0  0  0  0  0  0  0  0
    0.0123   -3.7847    5.8419 H   0  0  0  0  0  0  0  0  0  0  0  0
    0.0585   -2.0642    5.5199 H   0  0  0  0  0  0  0  0  0  0  0  0
   -0.6261   -2.1849    2.9917 N   0  0  0  0  0  0  0  0  0  0  0  0
   -0.7237   -2.2601    1.5650 C   0  0  2  0  0  0  0  0  0  0  0  0
    0.1695   -1.1513    1.0687 C   0  0  0  0  0  0  0  0  0  0  0  0
    0.3193   -0.1267    1.7365 O   0  0  0  0  0  0  0  0  0  0  0  0
   -2.1397   -2.0663    1.0750 C   0  0  0  0  0  0  0  0  0  0  0  0
   -0.5717   -1.2606    3.4238 H   0  0  0  0  0  0  0  0  0  0  0  0
   -0.3076   -3.2111    1.2363 H   0  0  0  0  0  0  0  0  0  0  0  0
   -2.5584   -1.1089    1.4061 H   0  0  0  0  0  0  0  0  0  0  0  0
   -2.1682   -2.0790   -0.0197 H   0  0  0  0  0  0  0  0  0  0  0  0
   -2.7965   -2.8601    1.4459 H   0  0  0  0  0  0  0  0  0  0  0  0
    0.7724   -1.3745   -0.1593 N   0  0  0  0  0  0  0  0  0  0  0  0
    1.6644   -0.4046   -0.7812 C   0  0  2  0  0  0  0  0  0  0  0  0
    1.2197    0.9552   -0.3336 C   0  0  0  0  0  0  0  0  0  0  0  0
    1.6264    1.9488   -0.9245 O   0  0  0  0  0  0  0  0  0  0  0  0
    1.4652   -0.6005   -2.2797 C   0  0  0  0  0  0  0  0  0  0  0  0
    0.9870   -2.0503   -2.2981 C   0  0  0  0  0  0  0  0  0  0  0  0
    0.7499   -2.6270   -0.9105 C   0  0  0  0  0  0  0  0  0  0  0  0
    2.6988   -0.5603   -0.4605 H   0  0  0  0  0  0  0  0  0  0  0  0
    2.4231   -0.4927   -2.8023 H   0  0  0  0  0  0  0  0  0  0  0  0
    0.7469    0.0975   -2.7207 H   0  0  0  0  0  0  0  0  0  0  0  0
    0.0219   -2.1271   -2.8120 H   0  0  0  0  0  0  0  0  0  0  0  0
    1.6970   -2.7129   -2.8010 H   0  0  0  0  0  0  0  0  0  0  0  0
   -0.1912   -3.1791   -0.8388 H   0  0  0  0  0  0  0  0  0  0  0  0
    1.5730   -3.2828   -0.6067 H   0  0  0  0  0  0  0  0  0  0  0  0
    0.3574    0.9299    0.7532 N   0  0  0  0  0  0  0  0  0  0  0  0
    0.0706    1.7132    1.9335 C   0  0  2  0  0  0  0  0  0  0  0  0
    1.0355    2.8911    1.9622 C   0  0  0  0  0  0  0  0  0  0  0  0
    2.1120    2.8910    1.3688 O   0  0  0  0  0  0  0  0  0  0  0  0
    0.1967    0.8764    3.1971 C   0  0  0  0  0  0  0  0  0  0  0  0
   -0.3857    0.7860    0.0761 H   0  0  0  0  0  0  0  0  0  0  0  0
   -0.9550    2.0830    1.8262 H   0  0  0  0  0  0  0  0  0  0  0  0
    1.2175    0.4971    3.3216 H   0  0  0  0  0  0  0  0  0  0  0  0
   -0.0487    1.4637    4.0881 H   0  0  0  0  0  0  0  0  0  0  0  0
   -0.4766    0.0131    3.1616 H   0  0  0  0  0  0  0  0  0  0  0  0
    0.5727    3.9255    2.7635 N   0  0  0  0  0  0  0  0  0  0  0  0
    1.3142    5.1488    2.9631 C   0  0  0  0  0  0  0  0  0  0  0  0
   -0.3399    3.8475    3.2025 H   0  0  0  0  0  0  0  0  0  0  0  0
    1.9443    5.0541    3.8597 H   0  0  0  0  0  0  0  0  0  0  0  0
    1.9506    5.3388    2.0862 H   0  0  0  0  0  0  0  0  0  0  0  0
    0.6124    5.9854    3.0950 H   0  0  0  0  0  0  0  0  0  0  0  0
 18 19  1  0  0  0  0
 19 31  1  0  0  0  0
 19 20  2  0  0  0  0
  8  9  1  0  0  0  0
  9 17  1  0  0  0  0
  9 10  2  0  0  0  0
  1  3  1  0  0  0  0
  1  7  1  0  0  0  0
  1  2  2  0  0  0  0
 32 33  1  0  0  0  0
 33 41  1  0  0  0  0
 33 34  2  0  0  0  0
 21 22  1  0  0  0  0
 22 23  1  0  0  0  0
 18 21  1  0  0  0  0
 17 23  1  0  0  0  0
 17 18  1  0  0  0  0
  8 11  1  0  0  0  0
 32 35  1  0  0  0  0
 41 42  1  0  0  0  0
  7  8  1  0  0  0  0
 31 32  1  0  0  0  0
 22 27  1  0  0  0  0
 22 28  1  0  0  0  0
 21 25  1  0  0  0  0
 21 26  1  0  0  0  0
 23 29  1  0  0  0  0
 23 30  1  0  0  0  0
 18 24  1  0  0  0  0
  3  4  1  0  0  0  0
  3  5  1  0  0  0  0
  3  6  1  0  0  0  0
 11 14  1  0  0  0  0
 11 15  1  0  0  0  0
 11 16  1  0  0  0  0
 35 38  1  0  0  0  0
 35 39  1  0  0  0  0
 35 40  1  0  0  0  0
 42 44  1  0  0  0  0
 42 45  1  0  0  0  0
 42 46  1  0  0  0  0
  8 13  1  0  0  0  0
 32 37  1  0  0  0  0
 31 36  1  0  0  0  0
 41 43  1  0  0  0  0
  7 12  1  0  0  0  0
M  END
$$$$

  -OEChem-05262214473D

 46 46  0     1  0  0  0  0  0999 V2000
   -0.6012   -3.2995    3.8205 C   0  0  0  0  0  0  0  0  0  0  0  0
   -0.6574   -4.4683    3.4568 O   0  0  0  0  0  0  0  0  0  0  0  0
   -0.4935   -2.9859    5.2760 C   0  0  0  0  0  0  0  0  0  0  0  0
   -1.4789   -2.8689    5.7550 H   0  0  0  0  0  0  0  0  0  0  0  0
    0.0123   -3.7847    5.8419 H   0  0  0  0  0  0  0  0  0  0  0  0
    0.0585   -2.0642    5.5199 H   0  0  0  0  0  0  0  0  0  0  0  0
   -0.6261   -2.1849    2.9917 N   0  0  0  0  0  0  0  0  0  0  0  0
   -0.7237   -2.2601    1.5650 C   0  0  2  0  0  0  0  0  0  0  0  0
    0.1695   -1.1513    1.0687 C   0  0  0  0  0  0  0  0  0  0  0  0
    0.3193   -0.1267    1.7365 O   0  0  0  0  0  0  0  0  0  0  0  0
   -2.1397   -2.0663    1.0750 C   0  0  0  0  0  0  0  0  0  0  0  0
   -0.5717   -1.2606    3.4238 H   0  0  0  0  0  0  0  0  0  0  0  0
   -0.3076   -3.2111    1.2363 H   0  0  0  0  0  0  0  0  0  0  0  0
   -2.5584   -1.1089    1.4061 H   0  0  0  0  0  0  0  0  0  0  0  0
   -2.1682   -2.0790   -0.0197 H   0  0  0  0  0  0  0  0  0  0  0  0
   -2.7965   -2.8601    1.4459 H   0  0  0  0  0  0  0  0  0  0  0  0
    0.7724   -1.3745   -0.1593 N   0  0  0  0  0  0  0  0  0  0  0  0
    1.6644   -0.4046   -0.7812 C   0  0  2  0  0  0  0  0  0  0  0  0
    1.2197    0.9552   -0.3336 C   0  0  0  0  0  0  0  0  0  0  0  0
    1.3909    1.9197   -1.0700 O   0  0  0  0  0  0  0  0  0  0  0  0
    1.4652   -0.6005   -2.2797 C   0  0  0  0  0  0  0  0  0  0  0  0
    0.9870   -2.0503   -2.2981 C   0  0  0  0  0  0  0  0  0  0  0  0
    0.7499   -2.6270   -0.9105 C   0  0  0  0  0  0  0  0  0  0  0  0
    2.6988   -0.5603   -0.4605 H   0  0  0  0  0  0  0  0  0  0  0  0
    2.4231   -0.4927   -2.8023 H   0  0  0  0  0  0  0  0  0  0  0  0
    0.7469    0.0975   -2.7207 H   0  0  0  0  0  0  0  0  0  0  0  0
    0.0219   -2.1271   -2.8120 H   0  0  0  0  0  0  0  0  0  0  0  0
    1.6970   -2.7129   -2.8010 H   0  0  0  0  0  0  0  0  0  0  0  0
   -0.1912   -3.1791   -0.8388 H   0  0  0  0  0  0  0  0  0  0  0  0
    1.5730   -3.2828   -0.6067 H   0  0  0  0  0  0  0  0  0  0  0  0
    0.6383    0.9648    0.9262 N   0  0  0  0  0  0  0  0  0  0  0  0
    0.5662    1.8253    2.0852 C   0  0  2  0  0  0  0  0  0  0  0  0
    1.4060    3.0643    1.8040 C   0  0  0  0  0  0  0  0  0  0  0  0
    2.3115    3.0865    0.9730 O   0  0  0  0  0  0  0  0  0  0  0  0
    1.0536    1.1108    3.3361 C   0  0  0  0  0  0  0  0  0  0  0  0
   -0.2262    0.7130    0.4566 H   0  0  0  0  0  0  0  0  0  0  0  0
   -0.4843    2.1138    2.2001 H   0  0  0  0  0  0  0  0  0  0  0  0
    2.1043    0.8140    3.2397 H   0  0  0  0  0  0  0  0  0  0  0  0
    0.9716    1.7545    4.2181 H   0  0  0  0  0  0  0  0  0  0  0  0
    0.4676    0.2038    3.5201 H   0  0  0  0  0  0  0  0  0  0  0  0
    1.0539    4.1298    2.6206 N   0  0  0  0  0  0  0  0  0  0  0  0
    1.7128    5.4134    2.5550 C   0  0  0  0  0  0  0  0  0  0  0  0
    0.2781    4.0279    3.2683 H   0  0  0  0  0  0  0  0  0  0  0  0
    2.5393    5.4393    3.2804 H   0  0  0  0  0  0  0  0  0  0  0  0
    2.1098    5.5702    1.5412 H   0  0  0  0  0  0  0  0  0  0  0  0
    0.9910    6.2086    2.7932 H   0  0  0  0  0  0  0  0  0  0  0  0
 18 19  1  0  0  0  0
 19 31  1  0  0  0  0
 19 20  2  0  0  0  0
  8  9  1  0  0  0  0
  9 17  1  0  0  0  0
  9 10  2  0  0  0  0
  1  3  1  0  0  0  0
  1  7  1  0  0  0  0
  1  2  2  0  0  0  0
 32 33  1  0  0  0  0
 33 41  1  0  0  0  0
 33 34  2  0  0  0  0
 21 22  1  0  0  0  0
 22 23  1  0  0  0  0
 18 21  1  0  0  0  0
 17 23  1  0  0  0  0
 17 18  1  0  0  0  0
  8 11  1  0  0  0  0
 32 35  1  0  0  0  0
 41 42  1  0  0  0  0
  7  8  1  0  0  0  0
 31 32  1  0  0  0  0
 22 27  1  0  0  0  0
 22 28  1  0  0  0  0
 21 25  1  0  0  0  0
 21 26  1  0  0  0  0
 23 29  1  0  0  0  0
 23 30  1  0  0  0  0
 18 24  1  0  0  0  0
  3  4  1  0  0  0  0
  3  5  1  0  0  0  0
  3  6  1  0  0  0  0
 11 14  1  0  0  0  0
 11 15  1  0  0  0  0
 11 16  1  0  0  0  0
 35 38  1  0  0  0  0
 35 39  1  0  0  0  0
 35 40  1  0  0  0  0
 42 44  1  0  0  0  0
 42 45  1  0  0  0  0
 42 46  1  0  0  0  0
  8 13  1  0  0  0  0
 32 37  1  0  0  0  0
 31 36  1  0  0  0  0
 41 43  1  0  0  0  0
  7 12  1  0  0  0  0
M  END
$$$$

  -OEChem-05262214473D

 46 46  0     1  0  0  0  0  0999 V2000
   -0.6012   -3.2995    3.8205 C   0  0  0  0  0  0  0  0  0  0  0  0
   -0.6574   -4.4683    3.4568 O   0  0  0  0  0  0  0  0  0  0  0  0
   -0.4935   -2.9859    5.2760 C   0  0  0  0  0  0  0  0  0  0  0  0
   -1.4789   -2.8689    5.7550 H   0  0  0  0  0  0  0  0  0  0  0  0
    0.0123   -3.7847    5.8419 H   0  0  0  0  0  0  0  0  0  0  0  0
    0.0585   -2.0642    5.5199 H   0  0  0  0  0  0  0  0  0  0  0  0
   -0.6261   -2.1849    2.9917 N   0  0  0  0  0  0  0  0  0  0  0  0
   -0.7237   -2.2601    1.5650 C   0  0  2  0  0  0  0  0  0  0  0  0
    0.1695   -1.1513    1.0687 C   0  0  0  0  0  0  0  0  0  0  0  0
    0.3193   -0.1267    1.7365 O   0  0  0  0  0  0  0  0  0  0  0  0
   -2.1397   -2.0663    1.0750 C   0  0  0  0  0  0  0  0  0  0  0  0
   -0.5717   -1.2606    3.4238 H   0  0  0  0  0  0  0  0  0  0  0  0
   -0.3076   -3.2111    1.2363 H   0  0  0  0  0  0  0  0  0  0  0  0
   -2.5584   -1.1089    1.4061 H   0  0  0  0  0  0  0  0  0  0  0  0
   -2.1682   -2.0790   -0.0197 H   0  0  0  0  0  0  0  0  0  0  0  0
   -2.7965   -2.8601    1.4459 H   0  0  0  0  0  0  0  0  0  0  0  0
    0.7724   -1.3745   -0.1593 N   0  0  0  0  0  0  0  0  0  0  0  0
    1.6644   -0.4046   -0.7812 C   0  0  2  0  0  0  0  0  0  0  0  0
    1.2197    0.9552   -0.3336 C   0  0  0  0  0  0  0  0  0  0  0  0
    1.1316    1.8622   -1.1530 O   0  0  0  0  0  0  0  0  0  0  0  0
    1.4652   -0.6005   -2.2797 C   0  0  0  0  0  0  0  0  0  0  0  0
    0.9870   -2.0503   -2.2981 C   0  0  0  0  0  0  0  0  0  0  0  0
    0.7499   -2.6270   -0.9105 C   0  0  0  0  0  0  0  0  0  0  0  0
    2.6988   -0.5603   -0.4605 H   0  0  0  0  0  0  0  0  0  0  0  0
    2.4231   -0.4927   -2.8023 H   0  0  0  0  0  0  0  0  0  0  0  0
    0.7469    0.0975   -2.7207 H   0  0  0  0  0  0  0  0  0  0  0  0
    0.0219   -2.1271   -2.8120 H   0  0  0  0  0  0  0  0  0  0  0  0
    1.6970   -2.7129   -2.8010 H   0  0  0  0  0  0  0  0  0  0  0  0
   -0.1912   -3.1791   -0.8388 H   0  0  0  0  0  0  0  0  0  0  0  0
    1.5730   -3.2828   -0.6067 H   0  0  0  0  0  0  0  0  0  0  0  0
    0.9475    1.0335    1.0248 N   0  0  0  0  0  0  0  0  0  0  0  0
    1.0719    1.9836    2.1068 C   0  0  2  0  0  0  0  0  0  0  0  0
    1.7133    3.2481    1.5509 C   0  0  0  0  0  0  0  0  0  0  0  0
    2.3961    3.2604    0.5289 O   0  0  0  0  0  0  0  0  0  0  0  0
    1.8958    1.4141    3.2512 C   0  0  0  0  0  0  0  0  0  0  0  0
    0.0228    0.6839    0.7922 H   0  0  0  0  0  0  0  0  0  0  0  0
    0.0557    2.2086    2.4485 H   0  0  0  0  0  0  0  0  0  0  0  0
    2.9172    1.1824    2.9279 H   0  0  0  0  0  0  0  0  0  0  0  0
    1.9651    2.1242    4.0819 H   0  0  0  0  0  0  0  0  0  0  0  0
    1.4491    0.4885    3.6301 H   0  0  0  0  0  0  0  0  0  0  0  0
    1.4692    4.3535    2.3540 N   0  0  0  0  0  0  0  0  0  0  0  0
    1.9816    5.6685    2.0470 C   0  0  0  0  0  0  0  0  0  0  0  0
    0.8765    4.2550    3.1729 H   0  0  0  0  0  0  0  0  0  0  0  0
    2.9483    5.8129    2.5516 H   0  0  0  0  0  0  0  0  0  0  0  0
    2.1177    5.7642    0.9597 H   0  0  0  0  0  0  0  0  0  0  0  0
    1.2687    6.4302    2.3958 H   0  0  0  0  0  0  0  0  0  0  0  0
 18 19  1  0  0  0  0
 19 31  1  0  0  0  0
 19 20  2  0  0  0  0
  8  9  1  0  0  0  0
  9 17  1  0  0  0  0
  9 10  2  0  0  0  0
  1  3  1  0  0  0  0
  1  7  1  0  0  0  0
  1  2  2  0  0  0  0
 32 33  1  0  0  0  0
 33 41  1  0  0  0  0
 33 34  2  0  0  0  0
 21 22  1  0  0  0  0
 22 23  1  0  0  0  0
 18 21  1  0  0  0  0
 17 23  1  0  0  0  0
 17 18  1  0  0  0  0
  8 11  1  0  0  0  0
 32 35  1  0  0  0  0
 41 42  1  0  0  0  0
  7  8  1  0  0  0  0
 31 32  1  0  0  0  0
 22 27  1  0  0  0  0
 22 28  1  0  0  0  0
 21 25  1  0  0  0  0
 21 26  1  0  0  0  0
 23 29  1  0  0  0  0
 23 30  1  0  0  0  0
 18 24  1  0  0  0  0
  3  4  1  0  0  0  0
  3  5  1  0  0  0  0
  3  6  1  0  0  0  0
 11 14  1  0  0  0  0
 11 15  1  0  0  0  0
 11 16  1  0  0  0  0
 35 38  1  0  0  0  0
 35 39  1  0  0  0  0
 35 40  1  0  0  0  0
 42 44  1  0  0  0  0
 42 45  1  0  0  0  0
 42 46  1  0  0  0  0
  8 13  1  0  0  0  0
 32 37  1  0  0  0  0
 31 36  1  0  0  0  0
 41 43  1  0  0  0  0
  7 12  1  0  0  0  0
M  END
$$$$

  -OEChem-05262214473D

 46 46  0     1  0  0  0  0  0999 V2000
   -0.6012   -3.2995    3.8205 C   0  0  0  0  0  0  0  0  0  0  0  0
   -0.6574   -4.4683    3.4568 O   0  0  0  0  0  0  0  0  0  0  0  0
   -0.4935   -2.9859    5.2760 C   0  0  0  0  0  0  0  0  0  0  0  0
   -1.4789   -2.8689    5.7550 H   0  0  0  0  0  0  0  0  0  0  0  0
    0.0123   -3.7847    5.8419 H   0  0  0  0  0  0  0  0  0  0  0  0
    0.0585   -2.0642    5.5199 H   0  0  0  0  0  0  0  0  0  0  0  0
   -0.6261   -2.1849    2.9917 N   0  0  0  0  0  0  0  0  0  0  0  0
   -0.7237   -2.2601    1.5650 C   0  0  2  0  0  0  0  0  0  0  0  0
    0.1695   -1.1513    1.0687 C   0  0  0  0  0  0  0  0  0  0  0  0
    0.3193   -0.1267    1.7365 O   0  0  0  0  0  0  0  0  0  0  0  0
   -2.1397   -2.0663    1.0750 C   0  0  0  0  0  0  0  0  0  0  0  0
   -0.5717   -1.2606    3.4238 H   0  0  0  0  0  0  0  0  0  0  0  0
   -0.3076   -3.2111    1.2363 H   0  0  0  0  0  0  0  0  0  0  0  0
   -2.5584   -1.1089    1.4061 H   0  0  0  0  0  0  0  0  0  0  0  0
   -2.1682   -2.0790   -0.0197 H   0  0  0  0  0  0  0  0  0  0  0  0
   -2.7965   -2.8601    1.4459 H   0  0  0  0  0  0  0  0  0  0  0  0
    0.7724   -1.3745   -0.1593 N   0  0  0  0  0  0  0  0  0  0  0  0
    1.6644   -0.4046   -0.7812 C   0  0  2  0  0  0  0  0  0  0  0  0
    1.2197    0.9552   -0.3336 C   0  0  0  0  0  0  0  0  0  0  0  0
    0.8660    1.7802   -1.1679 O   0  0  0  0  0  0  0  0  0  0  0  0
    1.4652   -0.6005   -2.2797 C   0  0  0  0  0  0  0  0  0  0  0  0
    0.9870   -2.0503   -2.2981 C   0  0  0  0  0  0  0  0  0  0  0  0
    0.7499   -2.6270   -0.9105 C   0  0  0  0  0  0  0  0  0  0  0  0
    2.6988   -0.5603   -0.4605 H   0  0  0  0  0  0  0  0  0  0  0  0
    2.4231   -0.4927   -2.8023 H   0  0  0  0  0  0  0  0  0  0  0  0
    0.7469    0.0975   -2.7207 H   0  0  0  0  0  0  0  0  0  0  0  0
    0.0219   -2.1271   -2.8120 H   0  0  0  0  0  0  0  0  0  0  0  0
    1.6970   -2.7129   -2.8010 H   0  0  0  0  0  0  0  0  0  0  0  0
   -0.1912   -3.1791   -0.8388 H   0  0  0  0  0  0  0  0  0  0  0  0
    1.5730   -3.2828   -0.6067 H   0  0  0  0  0  0  0  0  0  0  0  0
    1.2640    1.1313    1.0420 N   0  0  0  0  0  0  0  0  0  0  0  0
    1.5532    2.1772    1.9968 C   0  0  2  0  0  0  0  0  0  0  0  0
    1.9365    3.4300    1.2202 C   0  0  0  0  0  0  0  0  0  0  0  0
    2.3602    3.4008    0.0667 O   0  0  0  0  0  0  0  0  0  0  0  0
    2.6659    1.7657    2.9482 C   0  0  0  0  0  0  0  0  0  0  0  0
    0.3444    0.7008    1.0603 H   0  0  0  0  0  0  0  0  0  0  0  0
    0.6283    2.3610    2.5543 H   0  0  0  0  0  0  0  0  0  0  0  0
    3.6007    1.5772    2.4077 H   0  0  0  0  0  0  0  0  0  0  0  0
    2.8642    2.5476    3.6887 H   0  0  0  0  0  0  0  0  0  0  0  0
    2.4010    0.8479    3.4841 H   0  0  0  0  0  0  0  0  0  0  0  0
    1.7906    4.5811    1.9817 N   0  0  0  0  0  0  0  0  0  0  0  0
    2.1022    5.8967    1.4736 C   0  0  0  0  0  0  0  0  0  0  0  0
    1.4146    4.5133    2.9229 H   0  0  0  0  0  0  0  0  0  0  0  0
    3.1433    6.1495    1.7229 H   0  0  0  0  0  0  0  0  0  0  0  0
    1.9738    5.9076    0.3812 H   0  0  0  0  0  0  0  0  0  0  0  0
    1.4264    6.6352    1.9296 H   0  0  0  0  0  0  0  0  0  0  0  0
 18 19  1  0  0  0  0
 19 31  1  0  0  0  0
 19 20  2  0  0  0  0
  8  9  1  0  0  0  0
  9 17  1  0  0  0  0
  9 10  2  0  0  0  0
  1  3  1  0  0  0  0
  1  7  1  0  0  0  0
  1  2  2  0  0  0  0
 32 33  1  0  0  0  0
 33 41  1  0  0  0  0
 33 34  2  0  0  0  0
 21 22  1  0  0  0  0
 22 23  1  0  0  0  0
 18 21  1  0  0  0  0
 17 23  1  0  0  0  0
 17 18  1  0  0  0  0
  8 11  1  0  0  0  0
 32 35  1  0  0  0  0
 41 42  1  0  0  0  0
  7  8  1  0  0  0  0
 31 32  1  0  0  0  0
 22 27  1  0  0  0  0
 22 28  1  0  0  0  0
 21 25  1  0  0  0  0
 21 26  1  0  0  0  0
 23 29  1  0  0  0  0
 23 30  1  0  0  0  0
 18 24  1  0  0  0  0
  3  4  1  0  0  0  0
  3  5  1  0  0  0  0
  3  6  1  0  0  0  0
 11 14  1  0  0  0  0
 11 15  1  0  0  0  0
 11 16  1  0  0  0  0
 35 38  1  0  0  0  0
 35 39  1  0  0  0  0
 35 40  1  0  0  0  0
 42 44  1  0  0  0  0
 42 45  1  0  0  0  0
 42 46  1  0  0  0  0
  8 13  1  0  0  0  0
 32 37  1  0  0  0  0
 31 36  1  0  0  0  0
 41 43  1  0  0  0  0
  7 12  1  0  0  0  0
M  END
$$$$

  -OEChem-05262214473D

 46 46  0     1  0  0  0  0  0999 V2000
   -0.6012   -3.2995    3.8205 C   0  0  0  0  0  0  0  0  0  0  0  0
   -0.6574   -4.4683    3.4568 O   0  0  0  0  0  0  0  0  0  0  0  0
   -0.4935   -2.9859    5.2760 C   0  0  0  0  0  0  0  0  0  0  0  0
   -1.4789   -2.8689    5.7550 H   0  0  0  0  0  0  0  0  0  0  0  0
    0.0123   -3.7847    5.8419 H   0  0  0  0  0  0  0  0  0  0  0  0
    0.0585   -2.0642    5.5199 H   0  0  0  0  0  0  0  0  0  0  0  0
   -0.6261   -2.1849    2.9917 N   0  0  0  0  0  0  0  0  0  0  0  0
   -0.7237   -2.2601    1.5650 C   0  0  2  0  0  0  0  0  0  0  0  0
    0.1695   -1.1513    1.0687 C   0  0  0  0  0  0  0  0  0  0  0  0
    0.3193   -0.1267    1.7365 O   0  0  0  0  0  0  0  0  0  0  0  0
   -2.1397   -2.0663    1.0750 C   0  0  0  0  0  0  0  0  0  0  0  0
   -0.5717   -1.2606    3.4238 H   0  0  0  0  0  0  0  0  0  0  0  0
   -0.3076   -3.2111    1.2363 H   0  0  0  0  0  0  0  0  0  0  0  0
   -2.5584   -1.1089    1.4061 H   0  0  0  0  0  0  0  0  0  0  0  0
   -2.1682   -2.0790   -0.0197 H   0  0  0  0  0  0  0  0  0  0  0  0
   -2.7965   -2.8601    1.4459 H   0  0  0  0  0  0  0  0  0  0  0  0
    0.7724   -1.3745   -0.1593 N   0  0  0  0  0  0  0  0  0  0  0  0
    1.6644   -0.4046   -0.7812 C   0  0  2  0  0  0  0  0  0  0  0  0
    1.2197    0.9552   -0.3336 C   0  0  0  0  0  0  0  0  0  0  0  0
    0.6123    1.6794   -1.1136 O   0  0  0  0  0  0  0  0  0  0  0  0
    1.4652   -0.6005   -2.2797 C   0  0  0  0  0  0  0  0  0  0  0  0
    0.9870   -2.0503   -2.2981 C   0  0  0  0  0  0  0  0  0  0  0  0
    0.7499   -2.6270   -0.9105 C   0  0  0  0  0  0  0  0  0  0  0  0
    2.6988   -0.5603   -0.4605 H   0  0  0  0  0  0  0  0  0  0  0  0
    2.4231   -0.4927   -2.8023 H   0  0  0  0  0  0  0  0  0  0  0  0
    0.7469    0.0975   -2.7207 H   0  0  0  0  0  0  0  0  0  0  0  0
    0.0219   -2.1271   -2.8120 H   0  0  0  0  0  0  0  0  0  0  0  0
    1.6970   -2.7129   -2.8010 H   0  0  0  0  0  0  0  0  0  0  0  0
   -0.1912   -3.1791   -0.8388 H   0  0  0  0  0  0  0  0  0  0  0  0
    1.5730   -3.2828   -0.6067 H   0  0  0  0  0  0  0  0  0  0  0  0
    1.5663    1.2515    0.9769 N   0  0  0  0  0  0  0  0  0  0  0  0
    1.9773    2.3929    1.7626 C   0  0  2  0  0  0  0  0  0  0  0  0
    2.0604    3.5975    0.8344 C   0  0  0  0  0  0  0  0  0  0  0  0
    2.2061    3.4981   -0.3821 O   0  0  0  0  0  0  0  0  0  0  0  0
    3.3115    2.1415    2.4477 C   0  0  0  0  0  0  0  0  0  0  0  0
    0.7166    0.7626    1.2423 H   0  0  0  0  0  0  0  0  0  0  0  0
    1.1944    2.5606    2.5103 H   0  0  0  0  0  0  0  0  0  0  0  0
    4.1083    1.9713    1.7144 H   0  0  0  0  0  0  0  0  0  0  0  0
    3.6077    2.9959    3.0652 H   0  0  0  0  0  0  0  0  0  0  0  0
    3.2583    1.2573    3.0919 H   0  0  0  0  0  0  0  0  0  0  0  0
    1.9960    4.7972    1.5292 N   0  0  0  0  0  0  0  0  0  0  0  0
    2.0664    6.0824    0.8740 C   0  0  0  0  0  0  0  0  0  0  0  0
    1.8557    4.7851    2.5351 H   0  0  0  0  0  0  0  0  0  0  0  0
    3.1111    6.4260    0.8508 H   0  0  0  0  0  0  0  0  0  0  0  0
    1.6879    5.9905   -0.1548 H   0  0  0  0  0  0  0  0  0  0  0  0
    1.4535    6.8096    1.4266 H   0  0  0  0  0  0  0  0  0  0  0  0
 18 19  1  0  0  0  0
 19 31  1  0  0  0  0
 19 20  2  0  0  0  0
  8  9  1  0  0  0  0
  9 17  1  0  0  0  0
  9 10  2  0  0  0  0
  1  3  1  0  0  0  0
  1  7  1  0  0  0  0
  1  2  2  0  0  0  0
 32 33  1  0  0  0  0
 33 41  1  0  0  0  0
 33 34  2  0  0  0  0
 21 22  1  0  0  0  0
 22 23  1  0  0  0  0
 18 21  1  0  0  0  0
 17 23  1  0  0  0  0
 17 18  1  0  0  0  0
  8 11  1  0  0  0  0
 32 35  1  0  0  0  0
 41 42  1  0  0  0  0
  7  8  1  0  0  0  0
 31 32  1  0  0  0  0
 22 27  1  0  0  0  0
 22 28  1  0  0  0  0
 21 25  1  0  0  0  0
 21 26  1  0  0  0  0
 23 29  1  0  0  0  0
 23 30  1  0  0  0  0
 18 24  1  0  0  0  0
  3  4  1  0  0  0  0
  3  5  1  0  0  0  0
  3  6  1  0  0  0  0
 11 14  1  0  0  0  0
 11 15  1  0  0  0  0
 11 16  1  0  0  0  0
 35 38  1  0  0  0  0
 35 39  1  0  0  0  0
 35 40  1  0  0  0  0
 42 44  1  0  0  0  0
 42 45  1  0  0  0  0
 42 46  1  0  0  0  0
  8 13  1  0  0  0  0
 32 37  1  0  0  0  0
 31 36  1  0  0  0  0
 41 43  1  0  0  0  0
  7 12  1  0  0  0  0
M  END
$$$$

  -OEChem-05262214473D

 46 46  0     1  0  0  0  0  0999 V2000
   -0.6012   -3.2995    3.8205 C   0  0  0  0  0  0  0  0  0  0  0  0
   -0.6574   -4.4683    3.4568 O   0  0  0  0  0  0  0  0  0  0  0  0
   -0.4935   -2.9859    5.2760 C   0  0  0  0  0  0  0  0  0  0  0  0
   -1.4789   -2.8689    5.7550 H   0  0  0  0  0  0  0  0  0  0  0  0
    0.0123   -3.7847    5.8419 H   0  0  0  0  0  0  0  0  0  0  0  0
    0.0585   -2.0642    5.5199 H   0  0  0  0  0  0  0  0  0  0  0  0
   -0.6261   -2.1849    2.9917 N   0  0  0  0  0  0  0  0  0  0  0  0
   -0.7237   -2.2601    1.5650 C   0  0  2  0  0  0  0  0  0  0  0  0
    0.1695   -1.1513    1.0687 C   0  0  0  0  0  0  0  0  0  0  0  0
    0.3193   -0.1267    1.7365 O   0  0  0  0  0  0  0  0  0  0  0  0
   -2.1397   -2.0663    1.0750 C   0  0  0  0  0  0  0  0  0  0  0  0
   -0.5717   -1.2606    3.4238 H   0  0  0  0  0  0  0  0  0  0  0  0
   -0.3076   -3.2111    1.2363 H   0  0  0  0  0  0  0  0  0  0  0  0
   -2.5584   -1.1089    1.4061 H   0  0  0  0  0  0  0  0  0  0  0  0
   -2.1682   -2.0790   -0.0197 H   0  0  0  0  0  0  0  0  0  0  0  0
   -2.7965   -2.8601    1.4459 H   0  0  0  0  0  0  0  0  0  0  0  0
    0.7724   -1.3745   -0.1593 N   0  0  0  0  0  0  0  0  0  0  0  0
    1.6644   -0.4046   -0.7812 C   0  0  2  0  0  0  0  0  0  0  0  0
    1.2197    0.9552   -0.3336 C   0  0  0  0  0  0  0  0  0  0  0  0
    0.3878    1.5666   -0.9938 O   0  0  0  0  0  0  0  0  0  0  0  0
    1.4652   -0.6005   -2.2797 C   0  0  0  0  0  0  0  0  0  0  0  0
    0.9870   -2.0503   -2.2981 C   0  0  0  0  0  0  0  0  0  0  0  0
    0.7499   -2.6270   -0.9105 C   0  0  0  0  0  0  0  0  0  0  0  0
    2.6988   -0.5603   -0.4605 H   0  0  0  0  0  0  0  0  0  0  0  0
    2.4231   -0.4927   -2.8023 H   0  0  0  0  0  0  0  0  0  0  0  0
    0.7469    0.0975   -2.7207 H   0  0  0  0  0  0  0  0  0  0  0  0
    0.0219   -2.1271   -2.8120 H   0  0  0  0  0  0  0  0  0  0  0  0
    1.6970   -2.7129   -2.8010 H   0  0  0  0  0  0  0  0  0  0  0  0
   -0.1912   -3.1791   -0.8388 H   0  0  0  0  0  0  0  0  0  0  0  0
    1.5730   -3.2828   -0.6067 H   0  0  0  0  0  0  0  0  0  0  0  0
    1.8336    1.3861    0.8338 N   0  0  0  0  0  0  0  0  0  0  0  0
    2.3153    2.6161    1.4203 C   0  0  2  0  0  0  0  0  0  0  0  0
    2.0766    3.7392    0.4198 C   0  0  0  0  0  0  0  0  0  0  0  0
    1.9444    3.5458   -0.7869 O   0  0  0  0  0  0  0  0  0  0  0  0
    3.7886    2.5160    1.7838 C   0  0  0  0  0  0  0  0  0  0  0  0
    1.1142    0.8650    1.3261 H   0  0  0  0  0  0  0  0  0  0  0  0
    1.7156    2.7938    2.3196 H   0  0  0  0  0  0  0  0  0  0  0  0
    4.4053    2.3381    0.8953 H   0  0  0  0  0  0  0  0  0  0  0  0
    4.1448    3.4386    2.2540 H   0  0  0  0  0  0  0  0  0  0  0  0
    3.9628    1.6889    2.4804 H   0  0  0  0  0  0  0  0  0  0  0  0
    2.0715    4.9871    1.0273 N   0  0  0  0  0  0  0  0  0  0  0  0
    1.8767    6.2129    0.2889 C   0  0  0  0  0  0  0  0  0  0  0  0
    2.1697    5.0520    2.0362 H   0  0  0  0  0  0  0  0  0  0  0  0
    2.8539    6.6237   -0.0052 H   0  0  0  0  0  0  0  0  0  0  0  0
    1.2795    6.0074   -0.6117 H   0  0  0  0  0  0  0  0  0  0  0  0
    1.3481    6.9416    0.9210 H   0  0  0  0  0  0  0  0  0  0  0  0
 18 19  1  0  0  0  0
 19 31  1  0  0  0  0
 19 20  2  0  0  0  0
  8  9  1  0  0  0  0
  9 17  1  0  0  0  0
  9 10  2  0  0  0  0
  1  3  1  0  0  0  0
  1  7  1  0  0  0  0
  1  2  2  0  0  0  0
 32 33  1  0  0  0  0
 33 41  1  0  0  0  0
 33 34  2  0  0  0  0
 21 22  1  0  0  0  0
 22 23  1  0  0  0  0
 18 21  1  0  0  0  0
 17 23  1  0  0  0  0
 17 18  1  0  0  0  0
  8 11  1  0  0  0  0
 32 35  1  0  0  0  0
 41 42  1  0  0  0  0
  7  8  1  0  0  0  0
 31 32  1  0  0  0  0
 22 27  1  0  0  0  0
 22 28  1  0  0  0  0
 21 25  1  0  0  0  0
 21 26  1  0  0  0  0
 23 29  1  0  0  0  0
 23 30  1  0  0  0  0
 18 24  1  0  0  0  0
  3  4  1  0  0  0  0
  3  5  1  0  0  0  0
  3  6  1  0  0  0  0
 11 14  1  0  0  0  0
 11 15  1  0  0  0  0
 11 16  1  0  0  0  0
 35 38  1  0  0  0  0
 35 39  1  0  0  0  0
 35 40  1  0  0  0  0
 42 44  1  0  0  0  0
 42 45  1  0  0  0  0
 42 46  1  0  0  0  0
  8 13  1  0  0  0  0
 32 37  1  0  0  0  0
 31 36  1  0  0  0  0
 41 43  1  0  0  0  0
  7 12  1  0  0  0  0
M  END
$$$$

  -OEChem-05262214473D

 46 46  0     1  0  0  0  0  0999 V2000
   -0.6012   -3.2995    3.8205 C   0  0  0  0  0  0  0  0  0  0  0  0
   -0.6574   -4.4683    3.4568 O   0  0  0  0  0  0  0  0  0  0  0  0
   -0.4935   -2.9859    5.2760 C   0  0  0  0  0  0  0  0  0  0  0  0
   -1.4789   -2.8689    5.7550 H   0  0  0  0  0  0  0  0  0  0  0  0
    0.0123   -3.7847    5.8419 H   0  0  0  0  0  0  0  0  0  0  0  0
    0.0585   -2.0642    5.5199 H   0  0  0  0  0  0  0  0  0  0  0  0
   -0.6261   -2.1849    2.9917 N   0  0  0  0  0  0  0  0  0  0  0  0
   -0.7237   -2.2601    1.5650 C   0  0  2  0  0  0  0  0  0  0  0  0
    0.1695   -1.1513    1.0687 C   0  0  0  0  0  0  0  0  0  0  0  0
    0.3193   -0.1267    1.7365 O   0  0  0  0  0  0  0  0  0  0  0  0
   -2.1397   -2.0663    1.0750 C   0  0  0  0  0  0  0  0  0  0  0  0
   -0.5717   -1.2606    3.4238 H   0  0  0  0  0  0  0  0  0  0  0  0
   -0.3076   -3.2111    1.2363 H   0  0  0  0  0  0  0  0  0  0  0  0
   -2.5584   -1.1089    1.4061 H   0  0  0  0  0  0  0  0  0  0  0  0
   -2.1682   -2.0790   -0.0197 H   0  0  0  0  0  0  0  0  0  0  0  0
   -2.7965   -2.8601    1.4459 H   0  0  0  0  0  0  0  0  0  0  0  0
    0.7724   -1.3745   -0.1593 N   0  0  0  0  0  0  0  0  0  0  0  0
    1.6644   -0.4046   -0.7812 C   0  0  2  0  0  0  0  0  0  0  0  0
    1.2197    0.9552   -0.3336 C   0  0  0  0  0  0  0  0  0  0  0  0
    0.2078    1.4495   -0.8168 O   0  0  0  0  0  0  0  0  0  0  0  0
    1.4652   -0.6005   -2.2797 C   0  0  0  0  0  0  0  0  0  0  0  0
    0.9870   -2.0503   -2.2981 C   0  0  0  0  0  0  0  0  0  0  0  0
    0.7499   -2.6270   -0.9105 C   0  0  0  0  0  0  0  0  0  0  0  0
    2.6988   -0.5603   -0.4605 H   0  0  0  0  0  0  0  0  0  0  0  0
    2.4231   -0.4927   -2.8023 H   0  0  0  0  0  0  0  0  0  0  0  0
    0.7469    0.0975   -2.7207 H   0  0  0  0  0  0  0  0  0  0  0  0
    0.0219   -2.1271   -2.8120 H   0  0  0  0  0  0  0  0  0  0  0  0
    1.6970   -2.7129   -2.8010 H   0  0  0  0  0  0  0  0  0  0  0  0
   -0.1912   -3.1791   -0.8388 H   0  0  0  0  0  0  0  0  0  0  0  0
    1.5730   -3.2828   -0.6067 H   0  0  0  0  0  0  0  0  0  0  0  0
    2.0479    1.5257    0.6225 N   0  0  0  0  0  0  0  0  0  0  0  0
    2.5441    2.8315    0.9932 C   0  0  2  0  0  0  0  0  0  0  0  0
    1.9839    3.8456    0.0046 C   0  0  0  0  0  0  0  0  0  0  0  0
    1.5929    3.5405   -1.1202 O   0  0  0  0  0  0  0  0  0  0  0  0
    4.0645    2.8637    1.0018 C   0  0  0  0  0  0  0  0  0  0  0  0
    1.5099    1.0011    1.3057 H   0  0  0  0  0  0  0  0  0  0  0  0
    2.1561    3.0446    1.9952 H   0  0  0  0  0  0  0  0  0  0  0  0
    4.4716    2.6524    0.0063 H   0  0  0  0  0  0  0  0  0  0  0  0
    4.4389    3.8453    1.3104 H   0  0  0  0  0  0  0  0  0  0  0  0
    4.4663    2.1133    1.6913 H   0  0  0  0  0  0  0  0  0  0  0  0
    2.0119    5.1378    0.5102 N   0  0  0  0  0  0  0  0  0  0  0  0
    1.5461    6.2795   -0.2418 C   0  0  0  0  0  0  0  0  0  0  0  0
    2.3352    5.2958    1.4601 H   0  0  0  0  0  0  0  0  0  0  0  0
    2.3892    6.7290   -0.7868 H   0  0  0  0  0  0  0  0  0  0  0  0
    0.7764    5.9571   -0.9586 H   0  0  0  0  0  0  0  0  0  0  0  0
    1.1174    7.0221    0.4472 H   0  0  0  0  0  0  0  0  0  0  0  0
 18 19  1  0  0  0  0
 19 31  1  0  0  0  0
 19 20  2  0  0  0  0
  8  9  1  0  0  0  0
  9 17  1  0  0  0  0
  9 10  2  0  0  0  0
  1  3  1  0  0  0  0
  1  7  1  0  0  0  0
  1  2  2  0  0  0  0
 32 33  1  0  0  0  0
 33 41  1  0  0  0  0
 33 34  2  0  0  0  0
 21 22  1  0  0  0  0
 22 23  1  0  0  0  0
 18 21  1  0  0  0  0
 17 23  1  0  0  0  0
 17 18  1  0  0  0  0
  8 11  1  0  0  0  0
 32 35  1  0  0  0  0
 41 42  1  0  0  0  0
  7  8  1  0  0  0  0
 31 32  1  0  0  0  0
 22 27  1  0  0  0  0
 22 28  1  0  0  0  0
 21 25  1  0  0  0  0
 21 26  1  0  0  0  0
 23 29  1  0  0  0  0
 23 30  1  0  0  0  0
 18 24  1  0  0  0  0
  3  4  1  0  0  0  0
  3  5  1  0  0  0  0
  3  6  1  0  0  0  0
 11 14  1  0  0  0  0
 11 15  1  0  0  0  0
 11 16  1  0  0  0  0
 35 38  1  0  0  0  0
 35 39  1  0  0  0  0
 35 40  1  0  0  0  0
 42 44  1  0  0  0  0
 42 45  1  0  0  0  0
 42 46  1  0  0  0  0
  8 13  1  0  0  0  0
 32 37  1  0  0  0  0
 31 36  1  0  0  0  0
 41 43  1  0  0  0  0
  7 12  1  0  0  0  0
M  END
$$$$

  -OEChem-05262214473D

 46 46  0     1  0  0  0  0  0999 V2000
   -0.6012   -3.2995    3.8205 C   0  0  0  0  0  0  0  0  0  0  0  0
   -0.6574   -4.4683    3.4568 O   0  0  0  0  0  0  0  0  0  0  0  0
   -0.4935   -2.9859    5.2760 C   0  0  0  0  0  0  0  0  0  0  0  0
   -1.4789   -2.8689    5.7550 H   0  0  0  0  0  0  0  0  0  0  0  0
    0.0123   -3.7847    5.8419 H   0  0  0  0  0  0  0  0  0  0  0  0
    0.0585   -2.0642    5.5199 H   0  0  0  0  0  0  0  0  0  0  0  0
   -0.6261   -2.1849    2.9917 N   0  0  0  0  0  0  0  0  0  0  0  0
   -0.7237   -2.2601    1.5650 C   0  0  2  0  0  0  0  0  0  0  0  0
    0.1695   -1.1513    1.0687 C   0  0  0  0  0  0  0  0  0  0  0  0
    0.3193   -0.1267    1.7365 O   0  0  0  0  0  0  0  0  0  0  0  0
   -2.1397   -2.0663    1.0750 C   0  0  0  0  0  0  0  0  0  0  0  0
   -0.5717   -1.2606    3.4238 H   0  0  0  0  0  0  0  0  0  0  0  0
   -0.3076   -3.2111    1.2363 H   0  0  0  0  0  0  0  0  0  0  0  0
   -2.5584   -1.1089    1.4061 H   0  0  0  0  0  0  0  0  0  0  0  0
   -2.1682   -2.0790   -0.0197 H   0  0  0  0  0  0  0  0  0  0  0  0
   -2.7965   -2.8601    1.4459 H   0  0  0  0  0  0  0  0  0  0  0  0
    0.7724   -1.3745   -0.1593 N   0  0  0  0  0  0  0  0  0  0  0  0
    1.6644   -0.4046   -0.7812 C   0  0  2  0  0  0  0  0  0  0  0  0
    1.2197    0.9552   -0.3336 C   0  0  0  0  0  0  0  0  0  0  0  0
    0.0846    1.3360   -0.5946 O   0  0  0  0  0  0  0  0  0  0  0  0
    1.4652   -0.6005   -2.2797 C   0  0  0  0  0  0  0  0  0  0  0  0
    0.9870   -2.0503   -2.2981 C   0  0  0  0  0  0  0  0  0  0  0  0
    0.7499   -2.6270   -0.9105 C   0  0  0  0  0  0  0  0  0  0  0  0
    2.6988   -0.5603   -0.4605 H   0  0  0  0  0  0  0  0  0  0  0  0
    2.4231   -0.4927   -2.8023 H   0  0  0  0  0  0  0  0  0  0  0  0
    0.7469    0.0975   -2.7207 H   0  0  0  0  0  0  0  0  0  0  0  0
    0.0219   -2.1271   -2.8120 H   0  0  0  0  0  0  0  0  0  0  0  0
    1.6970   -2.7129   -2.8010 H   0  0  0  0  0  0  0  0  0  0  0  0
   -0.1912   -3.1791   -0.8388 H   0  0  0  0  0  0  0  0  0  0  0  0
    1.5730   -3.2828   -0.6067 H   0  0  0  0  0  0  0  0  0  0  0  0
    2.1944    1.6609    0.3574 N   0  0  0  0  0  0  0  0  0  0  0  0
    2.6483    3.0245    0.5103 C   0  0  2  0  0  0  0  0  0  0  0  0
    1.7886    3.9093   -0.3828 C   0  0  0  0  0  0  0  0  0  0  0  0
    1.1755    3.4827   -1.3591 O   0  0  0  0  0  0  0  0  0  0  0  0
    4.1207    3.1608    0.1550 C   0  0  0  0  0  0  0  0  0  0  0  0
    1.8768    1.1616    1.1828 H   0  0  0  0  0  0  0  0  0  0  0  0
    2.4861    3.2961    1.5591 H   0  0  0  0  0  0  0  0  0  0  0  0
    4.3026    2.8929   -0.8922 H   0  0  0  0  0  0  0  0  0  0  0  0
    4.4700    4.1886    0.2987 H   0  0  0  0  0  0  0  0  0  0  0  0
    4.7346    2.5016    0.7782 H   0  0  0  0  0  0  0  0  0  0  0  0
    1.8213    5.2391    0.0131 N   0  0  0  0  0  0  0  0  0  0  0  0
    1.0969    6.2775   -0.6819 C   0  0  0  0  0  0  0  0  0  0  0  0
    2.3410    5.4998    0.8460 H   0  0  0  0  0  0  0  0  0  0  0  0
    1.7487    6.7348   -1.4408 H   0  0  0  0  0  0  0  0  0  0  0  0
    0.2130    5.8429   -1.1716 H   0  0  0  0  0  0  0  0  0  0  0  0
    0.7770    7.0456    0.0376 H   0  0  0  0  0  0  0  0  0  0  0  0
 18 19  1  0  0  0  0
 19 31  1  0  0  0  0
 19 20  2  0  0  0  0
  8  9  1  0  0  0  0
  9 17  1  0  0  0  0
  9 10  2  0  0  0  0
  1  3  1  0  0  0  0
  1  7  1  0  0  0  0
  1  2  2  0  0  0  0
 32 33  1  0  0  0  0
 33 41  1  0  0  0  0
 33 34  2  0  0  0  0
 21 22  1  0  0  0  0
 22 23  1  0  0  0  0
 18 21  1  0  0  0  0
 17 23  1  0  0  0  0
 17 18  1  0  0  0  0
  8 11  1  0  0  0  0
 32 35  1  0  0  0  0
 41 42  1  0  0  0  0
  7  8  1  0  0  0  0
 31 32  1  0  0  0  0
 22 27  1  0  0  0  0
 22 28  1  0  0  0  0
 21 25  1  0  0  0  0
 21 26  1  0  0  0  0
 23 29  1  0  0  0  0
 23 30  1  0  0  0  0
 18 24  1  0  0  0  0
  3  4  1  0  0  0  0
  3  5  1  0  0  0  0
  3  6  1  0  0  0  0
 11 14  1  0  0  0  0
 11 15  1  0  0  0  0
 11 16  1  0  0  0  0
 35 38  1  0  0  0  0
 35 39  1  0  0  0  0
 35 40  1  0  0  0  0
 42 44  1  0  0  0  0
 42 45  1  0  0  0  0
 42 46  1  0  0  0  0
  8 13  1  0  0  0  0
 32 37  1  0  0  0  0
 31 36  1  0  0  0  0
 41 43  1  0  0  0  0
  7 12  1  0  0  0  0
M  END
$$$$

  -OEChem-05262214473D

 46 46  0     1  0  0  0  0  0999 V2000
   -0.6012   -3.2995    3.8205 C   0  0  0  0  0  0  0  0  0  0  0  0
   -0.6574   -4.4683    3.4568 O   0  0  0  0  0  0  0  0  0  0  0  0
   -0.4935   -2.9859    5.2760 C   0  0  0  0  0  0  0  0  0  0  0  0
   -1.4789   -2.8689    5.7550 H   0  0  0  0  0  0  0  0  0  0  0  0
    0.0123   -3.7847    5.8419 H   0  0  0  0  0  0  0  0  0  0  0  0
    0.0585   -2.0642    5.5199 H   0  0  0  0  0  0  0  0  0  0  0  0
   -0.6261   -2.1849    2.9917 N   0  0  0  0  0  0  0  0  0  0  0  0
   -0.7237   -2.2601    1.5650 C   0  0  2  0  0  0  0  0  0  0  0  0
    0.1695   -1.1513    1.0687 C   0  0  0  0  0  0  0  0  0  0  0  0
    0.3193   -0.1267    1.7365 O   0  0  0  0  0  0  0  0  0  0  0  0
   -2.1397   -2.0663    1.0750 C   0  0  0  0  0  0  0  0  0  0  0  0
   -0.5717   -1.2606    3.4238 H   0  0  0  0  0  0  0  0  0  0  0  0
   -0.3076   -3.2111    1.2363 H   0  0  0  0  0  0  0  0  0  0  0  0
   -2.5584   -1.1089    1.4061 H   0  0  0  0  0  0  0  0  0  0  0  0
   -2.1682   -2.0790   -0.0197 H   0  0  0  0  0  0  0  0  0  0  0  0
   -2.7965   -2.8601    1.4459 H   0  0  0  0  0  0  0  0  0  0  0  0
    0.7724   -1.3745   -0.1593 N   0  0  0  0  0  0  0  0  0  0  0  0
    1.6644   -0.4046   -0.7812 C   0  0  2  0  0  0  0  0  0  0  0  0
    1.2197    0.9552   -0.3336 C   0  0  0  0  0  0  0  0  0  0  0  0
    0.0264    1.2339   -0.3423 O   0  0  0  0  0  0  0  0  0  0  0  0
    1.4652   -0.6005   -2.2797 C   0  0  0  0  0  0  0  0  0  0  0  0
    0.9870   -2.0503   -2.2981 C   0  0  0  0  0  0  0  0  0  0  0  0
    0.7499   -2.6270   -0.9105 C   0  0  0  0  0  0  0  0  0  0  0  0
    2.6988   -0.5603   -0.4605 H   0  0  0  0  0  0  0  0  0  0  0  0
    2.4231   -0.4927   -2.8023 H   0  0  0  0  0  0  0  0  0  0  0  0
    0.7469    0.0975   -2.7207 H   0  0  0  0  0  0  0  0  0  0  0  0
    0.0219   -2.1271   -2.8120 H   0  0  0  0  0  0  0  0  0  0  0  0
    1.6970   -2.7129   -2.8010 H   0  0  0  0  0  0  0  0  0  0  0  0
   -0.1912   -3.1791   -0.8388 H   0  0  0  0  0  0  0  0  0  0  0  0
    1.5730   -3.2828   -0.6067 H   0  0  0  0  0  0  0  0  0  0  0  0
    2.2633    1.7824    0.0565 N   0  0  0  0  0  0  0  0  0  0  0  0
    2.6206    3.1819    0.0047 C   0  0  2  0  0  0  0  0  0  0  0  0
    1.5042    3.9260   -0.7161 C   0  0  0  0  0  0  0  0  0  0  0  0
    0.7207    3.3762   -1.4875 O   0  0  0  0  0  0  0  0  0  0  0  0
    3.9531    3.3871   -0.6990 C   0  0  0  0  0  0  0  0  0  0  0  0
    2.1900    1.3355    0.9655 H   0  0  0  0  0  0  0  0  0  0  0  0
    2.6831    3.5310    1.0411 H   0  0  0  0  0  0  0  0  0  0  0  0
    3.9098    3.0431   -1.7388 H   0  0  0  0  0  0  0  0  0  0  0  0
    4.2361    4.4448   -0.7122 H   0  0  0  0  0  0  0  0  0  0  0  0
    4.7493    2.8273   -0.1966 H   0  0  0  0  0  0  0  0  0  0  0  0
    1.5126    5.2840   -0.4300 N   0  0  0  0  0  0  0  0  0  0  0  0
    0.5599    6.2070   -1.0013 C   0  0  0  0  0  0  0  0  0  0  0  0
    2.1867    5.6502    0.2358 H   0  0  0  0  0  0  0  0  0  0  0  0
    0.9760    6.6408   -1.9226 H   0  0  0  0  0  0  0  0  0  0  0  0
   -0.3725    5.6728   -1.2363 H   0  0  0  0  0  0  0  0  0  0  0  0
    0.3503    7.0107   -0.2800 H   0  0  0  0  0  0  0  0  0  0  0  0
 18 19  1  0  0  0  0
 19 31  1  0  0  0  0
 19 20  2  0  0  0  0
  8  9  1  0  0  0  0
  9 17  1  0  0  0  0
  9 10  2  0  0  0  0
  1  3  1  0  0  0  0
  1  7  1  0  0  0  0
  1  2  2  0  0  0  0
 32 33  1  0  0  0  0
 33 41  1  0  0  0  0
 33 34  2  0  0  0  0
 21 22  1  0  0  0  0
 22 23  1  0  0  0  0
 18 21  1  0  0  0  0
 17 23  1  0  0  0  0
 17 18  1  0  0  0  0
  8 11  1  0  0  0  0
 32 35  1  0  0  0  0
 41 42  1  0  0  0  0
  7  8  1  0  0  0  0
 31 32  1  0  0  0  0
 22 27  1  0  0  0  0
 22 28  1  0  0  0  0
 21 25  1  0  0  0  0
 21 26  1  0  0  0  0
 23 29  1  0  0  0  0
 23 30  1  0  0  0  0
 18 24  1  0  0  0  0
  3  4  1  0  0  0  0
  3  5  1  0  0  0  0
  3  6  1  0  0  0  0
 11 14  1  0  0  0  0
 11 15  1  0  0  0  0
 11 16  1  0  0  0  0
 35 38  1  0  0  0  0
 35 39  1  0  0  0  0
 35 40  1  0  0  0  0
 42 44  1  0  0  0  0
 42 45  1  0  0  0  0
 42 46  1  0  0  0  0
  8 13  1  0  0  0  0
 32 37  1  0  0  0  0
 31 36  1  0  0  0  0
 41 43  1  0  0  0  0
  7 12  1  0  0  0  0
M  END
$$$$

  -OEChem-05262214473D

 46 46  0     1  0  0  0  0  0999 V2000
   -0.6012   -3.2995    3.8205 C   0  0  0  0  0  0  0  0  0  0  0  0
   -0.6574   -4.4683    3.4568 O   0  0  0  0  0  0  0  0  0  0  0  0
   -0.4935   -2.9859    5.2760 C   0  0  0  0  0  0  0  0  0  0  0  0
   -1.4789   -2.8689    5.7550 H   0  0  0  0  0  0  0  0  0  0  0  0
    0.0123   -3.7847    5.8419 H   0  0  0  0  0  0  0  0  0  0  0  0
    0.0585   -2.0642    5.5199 H   0  0  0  0  0  0  0  0  0  0  0  0
   -0.6261   -2.1849    2.9917 N   0  0  0  0  0  0  0  0  0  0  0  0
   -0.7237   -2.2601    1.5650 C   0  0  2  0  0  0  0  0  0  0  0  0
    0.1695   -1.1513    1.0687 C   0  0  0  0  0  0  0  0  0  0  0  0
    0.3193   -0.1267    1.7365 O   0  0  0  0  0  0  0  0  0  0  0  0
   -2.1397   -2.0663    1.0750 C   0  0  0  0  0  0  0  0  0  0  0  0
   -0.5717   -1.2606    3.4238 H   0  0  0  0  0  0  0  0  0  0  0  0
   -0.3076   -3.2111    1.2363 H   0  0  0  0  0  0  0  0  0  0  0  0
   -2.5584   -1.1089    1.4061 H   0  0  0  0  0  0  0  0  0  0  0  0
   -2.1682   -2.0790   -0.0197 H   0  0  0  0  0  0  0  0  0  0  0  0
   -2.7965   -2.8601    1.4459 H   0  0  0  0  0  0  0  0  0  0  0  0
    0.7724   -1.3745   -0.1593 N   0  0  0  0  0  0  0  0  0  0  0  0
    1.6644   -0.4046   -0.7812 C   0  0  2  0  0  0  0  0  0  0  0  0
    1.2197    0.9552   -0.3336 C   0  0  0  0  0  0  0  0  0  0  0  0
    0.0374    1.1502   -0.0771 O   0  0  0  0  0  0  0  0  0  0  0  0
    1.4652   -0.6005   -2.2797 C   0  0  0  0  0  0  0  0  0  0  0  0
    0.9870   -2.0503   -2.2981 C   0  0  0  0  0  0  0  0  0  0  0  0
    0.7499   -2.6270   -0.9105 C   0  0  0  0  0  0  0  0  0  0  0  0
    2.6988   -0.5603   -0.4605 H   0  0  0  0  0  0  0  0  0  0  0  0
    2.4231   -0.4927   -2.8023 H   0  0  0  0  0  0  0  0  0  0  0  0
    0.7469    0.0975   -2.7207 H   0  0  0  0  0  0  0  0  0  0  0  0
    0.0219   -2.1271   -2.8120 H   0  0  0  0  0  0  0  0  0  0  0  0
    1.6970   -2.7129   -2.8010 H   0  0  0  0  0  0  0  0  0  0  0  0
   -0.1912   -3.1791   -0.8388 H   0  0  0  0  0  0  0  0  0  0  0  0
    1.5730   -3.2828   -0.6067 H   0  0  0  0  0  0  0  0  0  0  0  0
    2.2497    1.8820   -0.2596 N   0  0  0  0  0  0  0  0  0  0  0  0
    2.4630    3.2930   -0.4894 C   0  0  2  0  0  0  0  0  0  0  0  0
    1.1499    3.8945   -0.9725 C   0  0  0  0  0  0  0  0  0  0  0  0
    0.2595    3.2284   -1.4965 O   0  0  0  0  0  0  0  0  0  0  0  0
    3.5732    3.5272   -1.5019 C   0  0  0  0  0  0  0  0  0  0  0  0
    2.4281    1.5110    0.6688 H   0  0  0  0  0  0  0  0  0  0  0  0
    2.7335    3.7333    0.4765 H   0  0  0  0  0  0  0  0  0  0  0  0
    3.3201    3.0929   -2.4760 H   0  0  0  0  0  0  0  0  0  0  0  0
    3.7529    4.5966   -1.6534 H   0  0  0  0  0  0  0  0  0  0  0  0
    4.5096    3.0682   -1.1666 H   0  0  0  0  0  0  0  0  0  0  0  0
    1.1069    5.2695   -0.7890 N   0  0  0  0  0  0  0  0  0  0  0  0
   -0.0283    6.0730   -1.1784 C   0  0  0  0  0  0  0  0  0  0  0  0
    1.8827    5.7367   -0.3290 H   0  0  0  0  0  0  0  0  0  0  0  0
    0.1238    6.4532   -2.1993 H   0  0  0  0  0  0  0  0  0  0  0  0
   -0.9400    5.4582   -1.1483 H   0  0  0  0  0  0  0  0  0  0  0  0
   -0.1338    6.9195   -0.4839 H   0  0  0  0  0  0  0  0  0  0  0  0
 18 19  1  0  0  0  0
 19 31  1  0  0  0  0
 19 20  2  0  0  0  0
  8  9  1  0  0  0  0
  9 17  1  0  0  0  0
  9 10  2  0  0  0  0
  1  3  1  0  0  0  0
  1  7  1  0  0  0  0
  1  2  2  0  0  0  0
 32 33  1  0  0  0  0
 33 41  1  0  0  0  0
 33 34  2  0  0  0  0
 21 22  1  0  0  0  0
 22 23  1  0  0  0  0
 18 21  1  0  0  0  0
 17 23  1  0  0  0  0
 17 18  1  0  0  0  0
  8 11  1  0  0  0  0
 32 35  1  0  0  0  0
 41 42  1  0  0  0  0
  7  8  1  0  0  0  0
 31 32  1  0  0  0  0
 22 27  1  0  0  0  0
 22 28  1  0  0  0  0
 21 25  1  0  0  0  0
 21 26  1  0  0  0  0
 23 29  1  0  0  0  0
 23 30  1  0  0  0  0
 18 24  1  0  0  0  0
  3  4  1  0  0  0  0
  3  5  1  0  0  0  0
  3  6  1  0  0  0  0
 11 14  1  0  0  0  0
 11 15  1  0  0  0  0
 11 16  1  0  0  0  0
 35 38  1  0  0  0  0
 35 39  1  0  0  0  0
 35 40  1  0  0  0  0
 42 44  1  0  0  0  0
 42 45  1  0  0  0  0
 42 46  1  0  0  0  0
  8 13  1  0  0  0  0
 32 37  1  0  0  0  0
 31 36  1  0  0  0  0
 41 43  1  0  0  0  0
  7 12  1  0  0  0  0
M  END
$$$$

  -OEChem-05262214473D

 46 46  0     1  0  0  0  0  0999 V2000
   -0.6012   -3.2995    3.8205 C   0  0  0  0  0  0  0  0  0  0  0  0
   -0.6574   -4.4683    3.4568 O   0  0  0  0  0  0  0  0  0  0  0  0
   -0.4935   -2.9859    5.2760 C   0  0  0  0  0  0  0  0  0  0  0  0
   -1.4789   -2.8689    5.7550 H   0  0  0  0  0  0  0  0  0  0  0  0
    0.0123   -3.7847    5.8419 H   0  0  0  0  0  0  0  0  0  0  0  0
    0.0585   -2.0642    5.5199 H   0  0  0  0  0  0  0  0  0  0  0  0
   -0.6261   -2.1849    2.9917 N   0  0  0  0  0  0  0  0  0  0  0  0
   -0.7237   -2.2601    1.5650 C   0  0  2  0  0  0  0  0  0  0  0  0
    0.1695   -1.1513    1.0687 C   0  0  0  0  0  0  0  0  0  0  0  0
    0.3193   -0.1267    1.7365 O   0  0  0  0  0  0  0  0  0  0  0  0
   -2.1397   -2.0663    1.0750 C   0  0  0  0  0  0  0  0  0  0  0  0
   -0.5717   -1.2606    3.4238 H   0  0  0  0  0  0  0  0  0  0  0  0
   -0.3076   -3.2111    1.2363 H   0  0  0  0  0  0  0  0  0  0  0  0
   -2.5584   -1.1089    1.4061 H   0  0  0  0  0  0  0  0  0  0  0  0
   -2.1682   -2.0790   -0.0197 H   0  0  0  0  0  0  0  0  0  0  0  0
   -2.7965   -2.8601    1.4459 H   0  0  0  0  0  0  0  0  0  0  0  0
    0.7724   -1.3745   -0.1593 N   0  0  0  0  0  0  0  0  0  0  0  0
    1.6644   -0.4046   -0.7812 C   0  0  2  0  0  0  0  0  0  0  0  0
    1.2197    0.9552   -0.3336 C   0  0  0  0  0  0  0  0  0  0  0  0
    0.1168    1.0906    0.1830 O   0  0  0  0  0  0  0  0  0  0  0  0
    1.4652   -0.6005   -2.2797 C   0  0  0  0  0  0  0  0  0  0  0  0
    0.9870   -2.0503   -2.2981 C   0  0  0  0  0  0  0  0  0  0  0  0
    0.7499   -2.6270   -0.9105 C   0  0  0  0  0  0  0  0  0  0  0  0
    2.6988   -0.5603   -0.4605 H   0  0  0  0  0  0  0  0  0  0  0  0
    2.4231   -0.4927   -2.8023 H   0  0  0  0  0  0  0  0  0  0  0  0
    0.7469    0.0975   -2.7207 H   0  0  0  0  0  0  0  0  0  0  0  0
    0.0219   -2.1271   -2.8120 H   0  0  0  0  0  0  0  0  0  0  0  0
    1.6970   -2.7129   -2.8010 H   0  0  0  0  0  0  0  0  0  0  0  0
   -0.1912   -3.1791   -0.8388 H   0  0  0  0  0  0  0  0  0  0  0  0
    1.5730   -3.2828   -0.6067 H   0  0  0  0  0  0  0  0  0  0  0  0
    2.1547    1.9530   -0.5695 N   0  0  0  0  0  0  0  0  0  0  0  0
    2.1861    3.3502   -0.9381 C   0  0  2  0  0  0  0  0  0  0  0  0
    0.7499    3.8171   -1.1346 C   0  0  0  0  0  0  0  0  0  0  0  0
   -0.1767    3.0492   -1.3856 O   0  0  0  0  0  0  0  0  0  0  0  0
    3.0070    3.5715   -2.1990 C   0  0  0  0  0  0  0  0  0  0  0  0
    2.5748    1.6762    0.3128 H   0  0  0  0  0  0  0  0  0  0  0  0
    2.6341    3.8893   -0.0963 H   0  0  0  0  0  0  0  0  0  0  0  0
    2.5735    3.0388   -3.0533 H   0  0  0  0  0  0  0  0  0  0  0  0
    3.0535    4.6337   -2.4608 H   0  0  0  0  0  0  0  0  0  0  0  0
    4.0316    3.2079   -2.0658 H   0  0  0  0  0  0  0  0  0  0  0  0
    0.6319    5.1966   -1.0394 N   0  0  0  0  0  0  0  0  0  0  0  0
   -0.6278    5.8844   -1.2011 C   0  0  0  0  0  0  0  0  0  0  0  0
    1.4499    5.7534   -0.8097 H   0  0  0  0  0  0  0  0  0  0  0  0
   -0.7498    6.1849   -2.2522 H   0  0  0  0  0  0  0  0  0  0  0  0
   -1.4510    5.2139   -0.9136 H   0  0  0  0  0  0  0  0  0  0  0  0
   -0.6421    6.7784   -0.5603 H   0  0  0  0  0  0  0  0  0  0  0  0
 18 19  1  0  0  0  0
 19 31  1  0  0  0  0
 19 20  2  0  0  0  0
  8  9  1  0  0  0  0
  9 17  1  0  0  0  0
  9 10  2  0  0  0  0
  1  3  1  0  0  0  0
  1  7  1  0  0  0  0
  1  2  2  0  0  0  0
 32 33  1  0  0  0  0
 33 41  1  0  0  0  0
 33 34  2  0  0  0  0
 21 22  1  0  0  0  0
 22 23  1  0  0  0  0
 18 21  1  0  0  0  0
 17 23  1  0  0  0  0
 17 18  1  0  0  0  0
  8 11  1  0  0  0  0
 32 35  1  0  0  0  0
 41 42  1  0  0  0  0
  7  8  1  0  0  0  0
 31 32  1  0  0  0  0
 22 27  1  0  0  0  0
 22 28  1  0  0  0  0
 21 25  1  0  0  0  0
 21 26  1  0  0  0  0
 23 29  1  0  0  0  0
 23 30  1  0  0  0  0
 18 24  1  0  0  0  0
  3  4  1  0  0  0  0
  3  5  1  0  0  0  0
  3  6  1  0  0  0  0
 11 14  1  0  0  0  0
 11 15  1  0  0  0  0
 11 16  1  0  0  0  0
 35 38  1  0  0  0  0
 35 39  1  0  0  0  0
 35 40  1  0  0  0  0
 42 44  1  0  0  0  0
 42 45  1  0  0  0  0
 42 46  1  0  0  0  0
  8 13  1  0  0  0  0
 32 37  1  0  0  0  0
 31 36  1  0  0  0  0
 41 43  1  0  0  0  0
  7 12  1  0  0  0  0
M  END
$$$$

  -OEChem-05262214473D

 46 46  0     1  0  0  0  0  0999 V2000
   -0.6012   -3.2995    3.8205 C   0  0  0  0  0  0  0  0  0  0  0  0
   -0.6574   -4.4683    3.4568 O   0  0  0  0  0  0  0  0  0  0  0  0
   -0.4935   -2.9859    5.2760 C   0  0  0  0  0  0  0  0  0  0  0  0
   -1.4789   -2.8689    5.7550 H   0  0  0  0  0  0  0  0  0  0  0  0
    0.0123   -3.7847    5.8419 H   0  0  0  0  0  0  0  0  0  0  0  0
    0.0585   -2.0642    5.5199 H   0  0  0  0  0  0  0  0  0  0  0  0
   -0.6261   -2.1849    2.9917 N   0  0  0  0  0  0  0  0  0  0  0  0
   -0.7237   -2.2601    1.5650 C   0  0  2  0  0  0  0  0  0  0  0  0
    0.1695   -1.1513    1.0687 C   0  0  0  0  0  0  0  0  0  0  0  0
    0.3193   -0.1267    1.7365 O   0  0  0  0  0  0  0  0  0  0  0  0
   -2.1397   -2.0663    1.0750 C   0  0  0  0  0  0  0  0  0  0  0  0
   -0.5717   -1.2606    3.4238 H   0  0  0  0  0  0  0  0  0  0  0  0
   -0.3076   -3.2111    1.2363 H   0  0  0  0  0  0  0  0  0  0  0  0
   -2.5584   -1.1089    1.4061 H   0  0  0  0  0  0  0  0  0  0  0  0
   -2.1682   -2.0790   -0.0197 H   0  0  0  0  0  0  0  0  0  0  0  0
   -2.7965   -2.8601    1.4459 H   0  0  0  0  0  0  0  0  0  0  0  0
    0.7724   -1.3745   -0.1593 N   0  0  0  0  0  0  0  0  0  0  0  0
    1.6644   -0.4046   -0.7812 C   0  0  2  0  0  0  0  0  0  0  0  0
    1.4714    0.8971   -0.0632 C   0  0  0  0  0  0  0  0  0  0  0  0
    0.6673    0.9651    0.8589 O   0  0  0  0  0  0  0  0  0  0  0  0
    1.2003   -0.3256   -2.2310 C   0  0  0  0  0  0  0  0  0  0  0  0
    0.6175   -1.7334   -2.1345 C   0  0  0  0  0  0  0  0  0  0  0  0
    0.7499   -2.6270   -0.9105 C   0  0  0  0  0  0  0  0  0  0  0  0
    2.7098   -0.7112   -0.6800 H   0  0  0  0  0  0  0  0  0  0  0  0
    2.0659   -0.2245   -2.8965 H   0  0  0  0  0  0  0  0  0  0  0  0
    0.5120    0.5027   -2.4257 H   0  0  0  0  0  0  0  0  0  0  0  0
   -0.4746   -1.7010   -2.2227 H   0  0  0  0  0  0  0  0  0  0  0  0
    1.0050   -2.3951   -2.9143 H   0  0  0  0  0  0  0  0  0  0  0  0
   -0.0890   -3.3199   -0.8019 H   0  0  0  0  0  0  0  0  0  0  0  0
    1.6844   -3.1980   -0.9346 H   0  0  0  0  0  0  0  0  0  0  0  0
    2.2276    1.9304   -0.5089 N   0  0  0  0  0  0  0  0  0  0  0  0
    2.3371    3.3286   -0.8583 C   0  0  2  0  0  0  0  0  0  0  0  0
    0.9366    3.8521   -1.1479 C   0  0  0  0  0  0  0  0  0  0  0  0
    0.0013    3.1228   -1.4710 O   0  0  0  0  0  0  0  0  0  0  0  0
    3.2512    3.5294   -2.0570 C   0  0  0  0  0  0  0  0  0  0  0  0
    2.5747    1.6298    0.3969 H   0  0  0  0  0  0  0  0  0  0  0  0
    2.7457    3.8426    0.0185 H   0  0  0  0  0  0  0  0  0  0  0  0
    2.8581    3.0215   -2.9453 H   0  0  0  0  0  0  0  0  0  0  0  0
    3.3558    4.5913   -2.3027 H   0  0  0  0  0  0  0  0  0  0  0  0
    4.2496    3.1254   -1.8578 H   0  0  0  0  0  0  0  0  0  0  0  0
    0.8645    5.2343   -1.0452 N   0  0  0  0  0  0  0  0  0  0  0  0
   -0.3540    5.9714   -1.2853 C   0  0  0  0  0  0  0  0  0  0  0  0
    1.6850    5.7571   -0.7532 H   0  0  0  0  0  0  0  0  0  0  0  0
   -0.3916    6.2858   -2.3387 H   0  0  0  0  0  0  0  0  0  0  0  0
   -1.2200    5.3305   -1.0629 H   0  0  0  0  0  0  0  0  0  0  0  0
   -0.3790    6.8595   -0.6367 H   0  0  0  0  0  0  0  0  0  0  0  0
 18 19  1  0  0  0  0
 19 31  1  0  0  0  0
 19 20  2  0  0  0  0
  8  9  1  0  0  0  0
  9 17  1  0  0  0  0
  9 10  2  0  0  0  0
  1  3  1  0  0  0  0
  1  7  1  0  0  0  0
  1  2  2  0  0  0  0
 32 33  1  0  0  0  0
 33 41  1  0  0  0  0
 33 34  2  0  0  0  0
 21 22  1  0  0  0  0
 22 23  1  0  0  0  0
 18 21  1  0  0  0  0
 17 23  1  0  0  0  0
 17 18  1  0  0  0  0
  8 11  1  0  0  0  0
 32 35  1  0  0  0  0
 41 42  1  0  0  0  0
  7  8  1  0  0  0  0
 31 32  1  0  0  0  0
 22 27  1  0  0  0  0
 22 28  1  0  0  0  0
 21 25  1  0  0  0  0
 21 26  1  0  0  0  0
 23 29  1  0  0  0  0
 23 30  1  0  0  0  0
 18 24  1  0  0  0  0
  3  4  1  0  0  0  0
  3  5  1  0  0  0  0
  3  6  1  0  0  0  0
 11 14  1  0  0  0  0
 11 15  1  0  0  0  0
 11 16  1  0  0  0  0
 35 38  1  0  0  0  0
 35 39  1  0  0  0  0
 35 40  1  0  0  0  0
 42 44  1  0  0  0  0
 42 45  1  0  0  0  0
 42 46  1  0  0  0  0
  8 13  1  0  0  0  0
 32 37  1  0  0  0  0
 31 36  1  0  0  0  0
 41 43  1  0  0  0  0
  7 12  1  0  0  0  0
M  END
$$$$

  -OEChem-05262214473D

 46 46  0     1  0  0  0  0  0999 V2000
   -0.6012   -3.2995    3.8205 C   0  0  0  0  0  0  0  0  0  0  0  0
   -0.6574   -4.4683    3.4568 O   0  0  0  0  0  0  0  0  0  0  0  0
   -0.4935   -2.9859    5.2760 C   0  0  0  0  0  0  0  0  0  0  0  0
   -1.4789   -2.8689    5.7550 H   0  0  0  0  0  0  0  0  0  0  0  0
    0.0123   -3.7847    5.8419 H   0  0  0  0  0  0  0  0  0  0  0  0
    0.0585   -2.0642    5.5199 H   0  0  0  0  0  0  0  0  0  0  0  0
   -0.6261   -2.1849    2.9917 N   0  0  0  0  0  0  0  0  0  0  0  0
   -0.7237   -2.2601    1.5650 C   0  0  2  0  0  0  0  0  0  0  0  0
    0.1695   -1.1513    1.0687 C   0  0  0  0  0  0  0  0  0  0  0  0
    0.3193   -0.1267    1.7365 O   0  0  0  0  0  0  0  0  0  0  0  0
   -2.1397   -2.0663    1.0750 C   0  0  0  0  0  0  0  0  0  0  0  0
   -0.5717   -1.2606    3.4238 H   0  0  0  0  0  0  0  0  0  0  0  0
   -0.3076   -3.2111    1.2363 H   0  0  0  0  0  0  0  0  0  0  0  0
   -2.5584   -1.1089    1.4061 H   0  0  0  0  0  0  0  0  0  0  0  0
   -2.1682   -2.0790   -0.0197 H   0  0  0  0  0  0  0  0  0  0  0  0
   -2.7965   -2.8601    1.4459 H   0  0  0  0  0  0  0  0  0  0  0  0
    0.7724   -1.3745   -0.1593 N   0  0  0  0  0  0  0  0  0  0  0  0
    1.6644   -0.4046   -0.7812 C   0  0  2  0  0  0  0  0  0  0  0  0
    1.4714    0.8971   -0.0632 C   0  0  0  0  0  0  0  0  0  0  0  0
    0.8909    0.9117    1.0159 O   0  0  0  0  0  0  0  0  0  0  0  0
    1.2003   -0.3256   -2.2310 C   0  0  0  0  0  0  0  0  0  0  0  0
    0.6175   -1.7334   -2.1345 C   0  0  0  0  0  0  0  0  0  0  0  0
    0.7499   -2.6270   -0.9105 C   0  0  0  0  0  0  0  0  0  0  0  0
    2.7098   -0.7112   -0.6800 H   0  0  0  0  0  0  0  0  0  0  0  0
    2.0659   -0.2245   -2.8965 H   0  0  0  0  0  0  0  0  0  0  0  0
    0.5120    0.5027   -2.4257 H   0  0  0  0  0  0  0  0  0  0  0  0
   -0.4746   -1.7010   -2.2227 H   0  0  0  0  0  0  0  0  0  0  0  0
    1.0050   -2.3951   -2.9143 H   0  0  0  0  0  0  0  0  0  0  0  0
   -0.0890   -3.3199   -0.8019 H   0  0  0  0  0  0  0  0  0  0  0  0
    1.6844   -3.1980   -0.9346 H   0  0  0  0  0  0  0  0  0  0  0  0
    1.9710    1.9914   -0.6885 N   0  0  0  0  0  0  0  0  0  0  0  0
    1.8204    3.3745   -1.0804 C   0  0  2  0  0  0  0  0  0  0  0  0
    0.3355    3.7116   -1.0547 C   0  0  0  0  0  0  0  0  0  0  0  0
   -0.5472    2.8606   -1.1432 O   0  0  0  0  0  0  0  0  0  0  0  0
    2.4113    3.6265   -2.4588 C   0  0  0  0  0  0  0  0  0  0  0  0
    2.5466    1.7780    0.1205 H   0  0  0  0  0  0  0  0  0  0  0  0
    2.3449    3.9749   -0.3291 H   0  0  0  0  0  0  0  0  0  0  0  0
    1.8985    3.0334   -3.2248 H   0  0  0  0  0  0  0  0  0  0  0  0
    2.3220    4.6804   -2.7421 H   0  0  0  0  0  0  0  0  0  0  0  0
    3.4723    3.3554   -2.4836 H   0  0  0  0  0  0  0  0  0  0  0  0
    0.1121    5.0784   -0.9648 N   0  0  0  0  0  0  0  0  0  0  0  0
   -1.2133    5.6515   -0.9362 C   0  0  0  0  0  0  0  0  0  0  0  0
    0.9033    5.7093   -0.8766 H   0  0  0  0  0  0  0  0  0  0  0  0
   -1.5243    5.9087   -1.9595 H   0  0  0  0  0  0  0  0  0  0  0  0
   -1.9188    4.9225   -0.5110 H   0  0  0  0  0  0  0  0  0  0  0  0
   -1.2065    6.5600   -0.3160 H   0  0  0  0  0  0  0  0  0  0  0  0
 18 19  1  0  0  0  0
 19 31  1  0  0  0  0
 19 20  2  0  0  0  0
  8  9  1  0  0  0  0
  9 17  1  0  0  0  0
  9 10  2  0  0  0  0
  1  3  1  0  0  0  0
  1  7  1  0  0  0  0
  1  2  2  0  0  0  0
 32 33  1  0  0  0  0
 33 41  1  0  0  0  0
 33 34  2  0  0  0  0
 21 22  1  0  0  0  0
 22 23  1  0  0  0  0
 18 21  1  0  0  0  0
 17 23  1  0  0  0  0
 17 18  1  0  0  0  0
  8 11  1  0  0  0  0
 32 35  1  0  0  0  0
 41 42  1  0  0  0  0
  7  8  1  0  0  0  0
 31 32  1  0  0  0  0
 22 27  1  0  0  0  0
 22 28  1  0  0  0  0
 21 25  1  0  0  0  0
 21 26  1  0  0  0  0
 23 29  1  0  0  0  0
 23 30  1  0  0  0  0
 18 24  1  0  0  0  0
  3  4  1  0  0  0  0
  3  5  1  0  0  0  0
  3  6  1  0  0  0  0
 11 14  1  0  0  0  0
 11 15  1  0  0  0  0
 11 16  1  0  0  0  0
 35 38  1  0  0  0  0
 35 39  1  0  0  0  0
 35 40  1  0  0  0  0
 42 44  1  0  0  0  0
 42 45  1  0  0  0  0
 42 46  1  0  0  0  0
  8 13  1  0  0  0  0
 32 37  1  0  0  0  0
 31 36  1  0  0  0  0
 41 43  1  0  0  0  0
  7 12  1  0  0  0  0
M  END
$$$$

  -OEChem-05262214473D

 46 46  0     1  0  0  0  0  0999 V2000
   -0.6012   -3.2995    3.8205 C   0  0  0  0  0  0  0  0  0  0  0  0
   -0.6574   -4.4683    3.4568 O   0  0  0  0  0  0  0  0  0  0  0  0
   -0.4935   -2.9859    5.2760 C   0  0  0  0  0  0  0  0  0  0  0  0
   -1.4789   -2.8689    5.7550 H   0  0  0  0  0  0  0  0  0  0  0  0
    0.0123   -3.7847    5.8419 H   0  0  0  0  0  0  0  0  0  0  0  0
    0.0585   -2.0642    5.5199 H   0  0  0  0  0  0  0  0  0  0  0  0
   -0.6261   -2.1849    2.9917 N   0  0  0  0  0  0  0  0  0  0  0  0
   -0.7237   -2.2601    1.5650 C   0  0  2  0  0  0  0  0  0  0  0  0
    0.1695   -1.1513    1.0687 C   0  0  0  0  0  0  0  0  0  0  0  0
    0.3193   -0.1267    1.7365 O   0  0  0  0  0  0  0  0  0  0  0  0
   -2.1397   -2.0663    1.0750 C   0  0  0  0  0  0  0  0  0  0  0  0
   -0.5717   -1.2606    3.4238 H   0  0  0  0  0  0  0  0  0  0  0  0
   -0.3076   -3.2111    1.2363 H   0  0  0  0  0  0  0  0  0  0  0  0
   -2.5584   -1.1089    1.4061 H   0  0  0  0  0  0  0  0  0  0  0  0
   -2.1682   -2.0790   -0.0197 H   0  0  0  0  0  0  0  0  0  0  0  0
   -2.7965   -2.8601    1.4459 H   0  0  0  0  0  0  0  0  0  0  0  0
    0.7724   -1.3745   -0.1593 N   0  0  0  0  0  0  0  0  0  0  0  0
    1.6644   -0.4046   -0.7812 C   0  0  2  0  0  0  0  0  0  0  0  0
    1.4714    0.8971   -0.0632 C   0  0  0  0  0  0  0  0  0  0  0  0
    1.1487    0.8930    1.1189 O   0  0  0  0  0  0  0  0  0  0  0  0
    1.2003   -0.3256   -2.2310 C   0  0  0  0  0  0  0  0  0  0  0  0
    0.6175   -1.7334   -2.1345 C   0  0  0  0  0  0  0  0  0  0  0  0
    0.7499   -2.6270   -0.9105 C   0  0  0  0  0  0  0  0  0  0  0  0
    2.7098   -0.7112   -0.6800 H   0  0  0  0  0  0  0  0  0  0  0  0
    2.0659   -0.2245   -2.8965 H   0  0  0  0  0  0  0  0  0  0  0  0
    0.5120    0.5027   -2.4257 H   0  0  0  0  0  0  0  0  0  0  0  0
   -0.4746   -1.7010   -2.2227 H   0  0  0  0  0  0  0  0  0  0  0  0
    1.0050   -2.3951   -2.9143 H   0  0  0  0  0  0  0  0  0  0  0  0
   -0.0890   -3.3199   -0.8019 H   0  0  0  0  0  0  0  0  0  0  0  0
    1.6844   -3.1980   -0.9346 H   0  0  0  0  0  0  0  0  0  0  0  0
    1.6752    2.0126   -0.8064 N   0  0  0  0  0  0  0  0  0  0  0  0
    1.2658    3.3473   -1.1802 C   0  0  2  0  0  0  0  0  0  0  0  0
   -0.2068    3.5044   -0.8248 C   0  0  0  0  0  0  0  0  0  0  0  0
   -0.9709    2.5503   -0.6945 O   0  0  0  0  0  0  0  0  0  0  0  0
    1.4977    3.6028   -2.6613 C   0  0  0  0  0  0  0  0  0  0  0  0
    2.4389    1.9086   -0.1451 H   0  0  0  0  0  0  0  0  0  0  0  0
    1.8632    4.0414   -0.5791 H   0  0  0  0  0  0  0  0  0  0  0  0
    0.9073    2.9167   -3.2796 H   0  0  0  0  0  0  0  0  0  0  0  0
    1.2137    4.6237   -2.9371 H   0  0  0  0  0  0  0  0  0  0  0  0
    2.5523    3.4603   -2.9209 H   0  0  0  0  0  0  0  0  0  0  0  0
   -0.5773    4.8372   -0.7128 N   0  0  0  0  0  0  0  0  0  0  0  0
   -1.9252    5.2477   -0.3953 C   0  0  0  0  0  0  0  0  0  0  0  0
    0.1264    5.5621   -0.8184 H   0  0  0  0  0  0  0  0  0  0  0  0
   -2.4864    5.4167   -1.3261 H   0  0  0  0  0  0  0  0  0  0  0  0
   -2.4192    4.4602    0.1928 H   0  0  0  0  0  0  0  0  0  0  0  0
   -1.8966    6.1788    0.1898 H   0  0  0  0  0  0  0  0  0  0  0  0
 18 19  1  0  0  0  0
 19 31  1  0  0  0  0
 19 20  2  0  0  0  0
  8  9  1  0  0  0  0
  9 17  1  0  0  0  0
  9 10  2  0  0  0  0
  1  3  1  0  0  0  0
  1  7  1  0  0  0  0
  1  2  2  0  0  0  0
 32 33  1  0  0  0  0
 33 41  1  0  0  0  0
 33 34  2  0  0  0  0
 21 22  1  0  0  0  0
 22 23  1  0  0  0  0
 18 21  1  0  0  0  0
 17 23  1  0  0  0  0
 17 18  1  0  0  0  0
  8 11  1  0  0  0  0
 32 35  1  0  0  0  0
 41 42  1  0  0  0  0
  7  8  1  0  0  0  0
 31 32  1  0  0  0  0
 22 27  1  0  0  0  0
 22 28  1  0  0  0  0
 21 25  1  0  0  0  0
 21 26  1  0  0  0  0
 23 29  1  0  0  0  0
 23 30  1  0  0  0  0
 18 24  1  0  0  0  0
  3  4  1  0  0  0  0
  3  5  1  0  0  0  0
  3  6  1  0  0  0  0
 11 14  1  0  0  0  0
 11 15  1  0  0  0  0
 11 16  1  0  0  0  0
 35 38  1  0  0  0  0
 35 39  1  0  0  0  0
 35 40  1  0  0  0  0
 42 44  1  0  0  0  0
 42 45  1  0  0  0  0
 42 46  1  0  0  0  0
  8 13  1  0  0  0  0
 32 37  1  0  0  0  0
 31 36  1  0  0  0  0
 41 43  1  0  0  0  0
  7 12  1  0  0  0  0
M  END
$$$$

  -OEChem-05262214473D

 46 46  0     1  0  0  0  0  0999 V2000
   -0.6012   -3.2995    3.8205 C   0  0  0  0  0  0  0  0  0  0  0  0
   -0.6574   -4.4683    3.4568 O   0  0  0  0  0  0  0  0  0  0  0  0
   -0.4935   -2.9859    5.2760 C   0  0  0  0  0  0  0  0  0  0  0  0
   -1.4789   -2.8689    5.7550 H   0  0  0  0  0  0  0  0  0  0  0  0
    0.0123   -3.7847    5.8419 H   0  0  0  0  0  0  0  0  0  0  0  0
    0.0585   -2.0642    5.5199 H   0  0  0  0  0  0  0  0  0  0  0  0
   -0.6261   -2.1849    2.9917 N   0  0  0  0  0  0  0  0  0  0  0  0
   -0.7237   -2.2601    1.5650 C   0  0  2  0  0  0  0  0  0  0  0  0
    0.1695   -1.1513    1.0687 C   0  0  0  0  0  0  0  0  0  0  0  0
    0.3193   -0.1267    1.7365 O   0  0  0  0  0  0  0  0  0  0  0  0
   -2.1397   -2.0663    1.0750 C   0  0  0  0  0  0  0  0  0  0  0  0
   -0.5717   -1.2606    3.4238 H   0  0  0  0  0  0  0  0  0  0  0  0
   -0.3076   -3.2111    1.2363 H   0  0  0  0  0  0  0  0  0  0  0  0
   -2.5584   -1.1089    1.4061 H   0  0  0  0  0  0  0  0  0  0  0  0
   -2.1682   -2.0790   -0.0197 H   0  0  0  0  0  0  0  0  0  0  0  0
   -2.7965   -2.8601    1.4459 H   0  0  0  0  0  0  0  0  0  0  0  0
    0.7724   -1.3745   -0.1593 N   0  0  0  0  0  0  0  0  0  0  0  0
    1.6644   -0.4046   -0.7812 C   0  0  2  0  0  0  0  0  0  0  0  0
    1.4714    0.8971   -0.0632 C   0  0  0  0  0  0  0  0  0  0  0  0
    1.4232    0.9104    1.1612 O   0  0  0  0  0  0  0  0  0  0  0  0
    1.2003   -0.3256   -2.2310 C   0  0  0  0  0  0  0  0  0  0  0  0
    0.6175   -1.7334   -2.1345 C   0  0  0  0  0  0  0  0  0  0  0  0
    0.7499   -2.6270   -0.9105 C   0  0  0  0  0  0  0  0  0  0  0  0
    2.7098   -0.7112   -0.6800 H   0  0  0  0  0  0  0  0  0  0  0  0
    2.0659   -0.2245   -2.8965 H   0  0  0  0  0  0  0  0  0  0  0  0
    0.5120    0.5027   -2.4257 H   0  0  0  0  0  0  0  0  0  0  0  0
   -0.4746   -1.7010   -2.2227 H   0  0  0  0  0  0  0  0  0  0  0  0
    1.0050   -2.3951   -2.9143 H   0  0  0  0  0  0  0  0  0  0  0  0
   -0.0890   -3.3199   -0.8019 H   0  0  0  0  0  0  0  0  0  0  0  0
    1.6844   -3.1980   -0.9346 H   0  0  0  0  0  0  0  0  0  0  0  0
    1.3604    1.9924   -0.8544 N   0  0  0  0  0  0  0  0  0  0  0  0
    0.7109    3.2490   -1.1512 C   0  0  2  0  0  0  0  0  0  0  0  0
   -0.6533    3.2448   -0.4740 C   0  0  0  0  0  0  0  0  0  0  0  0
   -1.2408    2.2131   -0.1555 O   0  0  0  0  0  0  0  0  0  0  0  0
    0.5727    3.4599   -2.6509 C   0  0  0  0  0  0  0  0  0  0  0  0
    2.2590    2.0124   -0.3817 H   0  0  0  0  0  0  0  0  0  0  0  0
    1.3335    4.0376   -0.7146 H   0  0  0  0  0  0  0  0  0  0  0  0
   -0.0479    2.6793   -3.1058 H   0  0  0  0  0  0  0  0  0  0  0  0
    0.1063    4.4251   -2.8745 H   0  0  0  0  0  0  0  0  0  0  0  0
    1.5523    3.4329   -3.1402 H   0  0  0  0  0  0  0  0  0  0  0  0
   -1.1567    4.5272   -0.3064 N   0  0  0  0  0  0  0  0  0  0  0  0
   -2.4412    4.7873    0.3007 C   0  0  0  0  0  0  0  0  0  0  0  0
   -0.5928    5.3255   -0.5828 H   0  0  0  0  0  0  0  0  0  0  0  0
   -3.2124    4.8433   -0.4816 H   0  0  0  0  0  0  0  0  0  0  0  0
   -2.6871    3.9750    1.0004 H   0  0  0  0  0  0  0  0  0  0  0  0
   -2.4023    5.7418    0.8461 H   0  0  0  0  0  0  0  0  0  0  0  0
 18 19  1  0  0  0  0
 19 31  1  0  0  0  0
 19 20  2  0  0  0  0
  8  9  1  0  0  0  0
  9 17  1  0  0  0  0
  9 10  2  0  0  0  0
  1  3  1  0  0  0  0
  1  7  1  0  0  0  0
  1  2  2  0  0  0  0
 32 33  1  0  0  0  0
 33 41  1  0  0  0  0
 33 34  2  0  0  0  0
 21 22  1  0  0  0  0
 22 23  1  0  0  0  0
 18 21  1  0  0  0  0
 17 23  1  0  0  0  0
 17 18  1  0  0  0  0
  8 11  1  0  0  0  0
 32 35  1  0  0  0  0
 41 42  1  0  0  0  0
  7  8  1  0  0  0  0
 31 32  1  0  0  0  0
 22 27  1  0  0  0  0
 22 28  1  0  0  0  0
 21 25  1  0  0  0  0
 21 26  1  0  0  0  0
 23 29  1  0  0  0  0
 23 30  1  0  0  0  0
 18 24  1  0  0  0  0
  3  4  1  0  0  0  0
  3  5  1  0  0  0  0
  3  6  1  0  0  0  0
 11 14  1  0  0  0  0
 11 15  1  0  0  0  0
 11 16  1  0  0  0  0
 35 38  1  0  0  0  0
 35 39  1  0  0  0  0
 35 40  1  0  0  0  0
 42 44  1  0  0  0  0
 42 45  1  0  0  0  0
 42 46  1  0  0  0  0
  8 13  1  0  0  0  0
 32 37  1  0  0  0  0
 31 36  1  0  0  0  0
 41 43  1  0  0  0  0
  7 12  1  0  0  0  0
M  END
$$$$

  -OEChem-05262214473D

 46 46  0     1  0  0  0  0  0999 V2000
   -0.6012   -3.2995    3.8205 C   0  0  0  0  0  0  0  0  0  0  0  0
   -0.6574   -4.4683    3.4568 O   0  0  0  0  0  0  0  0  0  0  0  0
   -0.4935   -2.9859    5.2760 C   0  0  0  0  0  0  0  0  0  0  0  0
   -1.4789   -2.8689    5.7550 H   0  0  0  0  0  0  0  0  0  0  0  0
    0.0123   -3.7847    5.8419 H   0  0  0  0  0  0  0  0  0  0  0  0
    0.0585   -2.0642    5.5199 H   0  0  0  0  0  0  0  0  0  0  0  0
   -0.6261   -2.1849    2.9917 N   0  0  0  0  0  0  0  0  0  0  0  0
   -0.7237   -2.2601    1.5650 C   0  0  2  0  0  0  0  0  0  0  0  0
    0.1695   -1.1513    1.0687 C   0  0  0  0  0  0  0  0  0  0  0  0
    0.3193   -0.1267    1.7365 O   0  0  0  0  0  0  0  0  0  0  0  0
   -2.1397   -2.0663    1.0750 C   0  0  0  0  0  0  0  0  0  0  0  0
   -0.5717   -1.2606    3.4238 H   0  0  0  0  0  0  0  0  0  0  0  0
   -0.3076   -3.2111    1.2363 H   0  0  0  0  0  0  0  0  0  0  0  0
   -2.5584   -1.1089    1.4061 H   0  0  0  0  0  0  0  0  0  0  0  0
   -2.1682   -2.0790   -0.0197 H   0  0  0  0  0  0  0  0  0  0  0  0
   -2.7965   -2.8601    1.4459 H   0  0  0  0  0  0  0  0  0  0  0  0
    0.7724   -1.3745   -0.1593 N   0  0  0  0  0  0  0  0  0  0  0  0
    1.6644   -0.4046   -0.7812 C   0  0  2  0  0  0  0  0  0  0  0  0
    1.4714    0.8971   -0.0632 C   0  0  0  0  0  0  0  0  0  0  0  0
    1.6958    0.9627    1.1397 O   0  0  0  0  0  0  0  0  0  0  0  0
    1.2003   -0.3256   -2.2310 C   0  0  0  0  0  0  0  0  0  0  0  0
    0.6175   -1.7334   -2.1345 C   0  0  0  0  0  0  0  0  0  0  0  0
    0.7499   -2.6270   -0.9105 C   0  0  0  0  0  0  0  0  0  0  0  0
    2.7098   -0.7112   -0.6800 H   0  0  0  0  0  0  0  0  0  0  0  0
    2.0659   -0.2245   -2.8965 H   0  0  0  0  0  0  0  0  0  0  0  0
    0.5120    0.5027   -2.4257 H   0  0  0  0  0  0  0  0  0  0  0  0
   -0.4746   -1.7010   -2.2227 H   0  0  0  0  0  0  0  0  0  0  0  0
    1.0050   -2.3951   -2.9143 H   0  0  0  0  0  0  0  0  0  0  0  0
   -0.0890   -3.3199   -0.8019 H   0  0  0  0  0  0  0  0  0  0  0  0
    1.6844   -3.1980   -0.9346 H   0  0  0  0  0  0  0  0  0  0  0  0
    1.0480    1.9323   -0.8294 N   0  0  0  0  0  0  0  0  0  0  0  0
    0.1936    3.0863   -0.9951 C   0  0  2  0  0  0  0  0  0  0  0  0
   -0.9735    2.9503   -0.0262 C   0  0  0  0  0  0  0  0  0  0  0  0
   -1.3386    1.8718    0.4370 O   0  0  0  0  0  0  0  0  0  0  0  0
   -0.3008    3.2076   -2.4281 C   0  0  0  0  0  0  0  0  0  0  0  0
    2.0192    2.0826   -0.5734 H   0  0  0  0  0  0  0  0  0  0  0  0
    0.7918    3.9638   -0.7264 H   0  0  0  0  0  0  0  0  0  0  0  0
   -0.9021    2.3373   -2.7154 H   0  0  0  0  0  0  0  0  0  0  0  0
   -0.9246    4.0980   -2.5586 H   0  0  0  0  0  0  0  0  0  0  0  0
    0.5405    3.2753   -3.1262 H   0  0  0  0  0  0  0  0  0  0  0  0
   -1.5866    4.1694    0.2267 N   0  0  0  0  0  0  0  0  0  0  0  0
   -2.7261    4.3019    1.1042 C   0  0  0  0  0  0  0  0  0  0  0  0
   -1.2051    5.0157   -0.1856 H   0  0  0  0  0  0  0  0  0  0  0  0
   -3.6528    4.2276    0.5164 H   0  0  0  0  0  0  0  0  0  0  0  0
   -2.7042    3.5000    1.8570 H   0  0  0  0  0  0  0  0  0  0  0  0
   -2.6890    5.2790    1.6082 H   0  0  0  0  0  0  0  0  0  0  0  0
 18 19  1  0  0  0  0
 19 31  1  0  0  0  0
 19 20  2  0  0  0  0
  8  9  1  0  0  0  0
  9 17  1  0  0  0  0
  9 10  2  0  0  0  0
  1  3  1  0  0  0  0
  1  7  1  0  0  0  0
  1  2  2  0  0  0  0
 32 33  1  0  0  0  0
 33 41  1  0  0  0  0
 33 34  2  0  0  0  0
 21 22  1  0  0  0  0
 22 23  1  0  0  0  0
 18 21  1  0  0  0  0
 17 23  1  0  0  0  0
 17 18  1  0  0  0  0
  8 11  1  0  0  0  0
 32 35  1  0  0  0  0
 41 42  1  0  0  0  0
  7  8  1  0  0  0  0
 31 32  1  0  0  0  0
 22 27  1  0  0  0  0
 22 28  1  0  0  0  0
 21 25  1  0  0  0  0
 21 26  1  0  0  0  0
 23 29  1  0  0  0  0
 23 30  1  0  0  0  0
 18 24  1  0  0  0  0
  3  4  1  0  0  0  0
  3  5  1  0  0  0  0
  3  6  1  0  0  0  0
 11 14  1  0  0  0  0
 11 15  1  0  0  0  0
 11 16  1  0  0  0  0
 35 38  1  0  0  0  0
 35 39  1  0  0  0  0
 35 40  1  0  0  0  0
 42 44  1  0  0  0  0
 42 45  1  0  0  0  0
 42 46  1  0  0  0  0
  8 13  1  0  0  0  0
 32 37  1  0  0  0  0
 31 36  1  0  0  0  0
 41 43  1  0  0  0  0
  7 12  1  0  0  0  0
M  END
$$$$

  -OEChem-05262214473D

 46 46  0     1  0  0  0  0  0999 V2000
   -0.6012   -3.2995    3.8205 C   0  0  0  0  0  0  0  0  0  0  0  0
   -0.6574   -4.4683    3.4568 O   0  0  0  0  0  0  0  0  0  0  0  0
   -0.4935   -2.9859    5.2760 C   0  0  0  0  0  0  0  0  0  0  0  0
   -1.4789   -2.8689    5.7550 H   0  0  0  0  0  0  0  0  0  0  0  0
    0.0123   -3.7847    5.8419 H   0  0  0  0  0  0  0  0  0  0  0  0
    0.0585   -2.0642    5.5199 H   0  0  0  0  0  0  0  0  0  0  0  0
   -0.6261   -2.1849    2.9917 N   0  0  0  0  0  0  0  0  0  0  0  0
   -0.7237   -2.2601    1.5650 C   0  0  2  0  0  0  0  0  0  0  0  0
    0.1695   -1.1513    1.0687 C   0  0  0  0  0  0  0  0  0  0  0  0
    0.3193   -0.1267    1.7365 O   0  0  0  0  0  0  0  0  0  0  0  0
   -2.1397   -2.0663    1.0750 C   0  0  0  0  0  0  0  0  0  0  0  0
   -0.5717   -1.2606    3.4238 H   0  0  0  0  0  0  0  0  0  0  0  0
   -0.3076   -3.2111    1.2363 H   0  0  0  0  0  0  0  0  0  0  0  0
   -2.5584   -1.1089    1.4061 H   0  0  0  0  0  0  0  0  0  0  0  0
   -2.1682   -2.0790   -0.0197 H   0  0  0  0  0  0  0  0  0  0  0  0
   -2.7965   -2.8601    1.4459 H   0  0  0  0  0  0  0  0  0  0  0  0
    0.7724   -1.3745   -0.1593 N   0  0  0  0  0  0  0  0  0  0  0  0
    1.6644   -0.4046   -0.7812 C   0  0  2  0  0  0  0  0  0  0  0  0
    1.4714    0.8971   -0.0632 C   0  0  0  0  0  0  0  0  0  0  0  0
    1.9477    1.0462    1.0560 O   0  0  0  0  0  0  0  0  0  0  0  0
    1.2003   -0.3256   -2.2310 C   0  0  0  0  0  0  0  0  0  0  0  0
    0.6175   -1.7334   -2.1345 C   0  0  0  0  0  0  0  0  0  0  0  0
    0.7499   -2.6270   -0.9105 C   0  0  0  0  0  0  0  0  0  0  0  0
    2.7098   -0.7112   -0.6800 H   0  0  0  0  0  0  0  0  0  0  0  0
    2.0659   -0.2245   -2.8965 H   0  0  0  0  0  0  0  0  0  0  0  0
    0.5120    0.5027   -2.4257 H   0  0  0  0  0  0  0  0  0  0  0  0
   -0.4746   -1.7010   -2.2227 H   0  0  0  0  0  0  0  0  0  0  0  0
    1.0050   -2.3951   -2.9143 H   0  0  0  0  0  0  0  0  0  0  0  0
   -0.0890   -3.3199   -0.8019 H   0  0  0  0  0  0  0  0  0  0  0  0
    1.6844   -3.1980   -0.9346 H   0  0  0  0  0  0  0  0  0  0  0  0
    0.7593    1.8364   -0.7331 N   0  0  0  0  0  0  0  0  0  0  0  0
   -0.2507    2.8702   -0.7226 C   0  0  2  0  0  0  0  0  0  0  0  0
   -1.1457    2.6411    0.4882 C   0  0  0  0  0  0  0  0  0  0  0  0
   -1.2576    1.5497    1.0427 O   0  0  0  0  0  0  0  0  0  0  0  0
   -1.0631    2.8630   -2.0082 C   0  0  0  0  0  0  0  0  0  0  0  0
    1.7358    2.1143   -0.7070 H   0  0  0  0  0  0  0  0  0  0  0  0
    0.2751    3.8250   -0.6135 H   0  0  0  0  0  0  0  0  0  0  0  0
   -1.5971    1.9141   -2.1349 H   0  0  0  0  0  0  0  0  0  0  0  0
   -1.8089    3.6648   -2.0108 H   0  0  0  0  0  0  0  0  0  0  0  0
   -0.4141    2.9981   -2.8802 H   0  0  0  0  0  0  0  0  0  0  0  0
   -1.8377    3.7883    0.8502 N   0  0  0  0  0  0  0  0  0  0  0  0
   -2.7605    3.8244    1.9606 C   0  0  0  0  0  0  0  0  0  0  0  0
   -1.6689    4.6538    0.3459 H   0  0  0  0  0  0  0  0  0  0  0  0
   -3.7776    3.6115    1.5998 H   0  0  0  0  0  0  0  0  0  0  0  0
   -2.4693    3.0677    2.7039 H   0  0  0  0  0  0  0  0  0  0  0  0
   -2.7373    4.8217    2.4242 H   0  0  0  0  0  0  0  0  0  0  0  0
 18 19  1  0  0  0  0
 19 31  1  0  0  0  0
 19 20  2  0  0  0  0
  8  9  1  0  0  0  0
  9 17  1  0  0  0  0
  9 10  2  0  0  0  0
  1  3  1  0  0  0  0
  1  7  1  0  0  0  0
  1  2  2  0  0  0  0
 32 33  1  0  0  0  0
 33 41  1  0  0  0  0
 33 34  2  0  0  0  0
 21 22  1  0  0  0  0
 22 23  1  0  0  0  0
 18 21  1  0  0  0  0
 17 23  1  0  0  0  0
 17 18  1  0  0  0  0
  8 11  1  0  0  0  0
 32 35  1  0  0  0  0
 41 42  1  0  0  0  0
  7  8  1  0  0  0  0
 31 32  1  0  0  0  0
 22 27  1  0  0  0  0
 22 28  1  0  0  0  0
 21 25  1  0  0  0  0
 21 26  1  0  0  0  0
 23 29  1  0  0  0  0
 23 30  1  0  0  0  0
 18 24  1  0  0  0  0
  3  4  1  0  0  0  0
  3  5  1  0  0  0  0
  3  6  1  0  0  0  0
 11 14  1  0  0  0  0
 11 15  1  0  0  0  0
 11 16  1  0  0  0  0
 35 38  1  0  0  0  0
 35 39  1  0  0  0  0
 35 40  1  0  0  0  0
 42 44  1  0  0  0  0
 42 45  1  0  0  0  0
 42 46  1  0  0  0  0
  8 13  1  0  0  0  0
 32 37  1  0  0  0  0
 31 36  1  0  0  0  0
 41 43  1  0  0  0  0
  7 12  1  0  0  0  0
M  END
$$$$

  -OEChem-05262214473D

 46 46  0     1  0  0  0  0  0999 V2000
   -0.6012   -3.2995    3.8205 C   0  0  0  0  0  0  0  0  0  0  0  0
   -0.6574   -4.4683    3.4568 O   0  0  0  0  0  0  0  0  0  0  0  0
   -0.4935   -2.9859    5.2760 C   0  0  0  0  0  0  0  0  0  0  0  0
   -1.4789   -2.8689    5.7550 H   0  0  0  0  0  0  0  0  0  0  0  0
    0.0123   -3.7847    5.8419 H   0  0  0  0  0  0  0  0  0  0  0  0
    0.0585   -2.0642    5.5199 H   0  0  0  0  0  0  0  0  0  0  0  0
   -0.6261   -2.1849    2.9917 N   0  0  0  0  0  0  0  0  0  0  0  0
   -0.7237   -2.2601    1.5650 C   0  0  2  0  0  0  0  0  0  0  0  0
    0.1695   -1.1513    1.0687 C   0  0  0  0  0  0  0  0  0  0  0  0
    0.3193   -0.1267    1.7365 O   0  0  0  0  0  0  0  0  0  0  0  0
   -2.1397   -2.0663    1.0750 C   0  0  0  0  0  0  0  0  0  0  0  0
   -0.5717   -1.2606    3.4238 H   0  0  0  0  0  0  0  0  0  0  0  0
   -0.3076   -3.2111    1.2363 H   0  0  0  0  0  0  0  0  0  0  0  0
   -2.5584   -1.1089    1.4061 H   0  0  0  0  0  0  0  0  0  0  0  0
   -2.1682   -2.0790   -0.0197 H   0  0  0  0  0  0  0  0  0  0  0  0
   -2.7965   -2.8601    1.4459 H   0  0  0  0  0  0  0  0  0  0  0  0
    0.7724   -1.3745   -0.1593 N   0  0  0  0  0  0  0  0  0  0  0  0
    1.6644   -0.4046   -0.7812 C   0  0  2  0  0  0  0  0  0  0  0  0
    1.4714    0.8971   -0.0632 C   0  0  0  0  0  0  0  0  0  0  0  0
    2.1619    1.1553    0.9157 O   0  0  0  0  0  0  0  0  0  0  0  0
    1.2003   -0.3256   -2.2310 C   0  0  0  0  0  0  0  0  0  0  0  0
    0.6175   -1.7334   -2.1345 C   0  0  0  0  0  0  0  0  0  0  0  0
    0.7499   -2.6270   -0.9105 C   0  0  0  0  0  0  0  0  0  0  0  0
    2.7098   -0.7112   -0.6800 H   0  0  0  0  0  0  0  0  0  0  0  0
    2.0659   -0.2245   -2.8965 H   0  0  0  0  0  0  0  0  0  0  0  0
    0.5120    0.5027   -2.4257 H   0  0  0  0  0  0  0  0  0  0  0  0
   -0.4746   -1.7010   -2.2227 H   0  0  0  0  0  0  0  0  0  0  0  0
    1.0050   -2.3951   -2.9143 H   0  0  0  0  0  0  0  0  0  0  0  0
   -0.0890   -3.3199   -0.8019 H   0  0  0  0  0  0  0  0  0  0  0  0
    1.6844   -3.1980   -0.9346 H   0  0  0  0  0  0  0  0  0  0  0  0
    0.5140    1.7111   -0.5719 N   0  0  0  0  0  0  0  0  0  0  0  0
   -0.5919    2.6154   -0.3524 C   0  0  2  0  0  0  0  0  0  0  0  0
   -1.1580    2.3382    1.0340 C   0  0  0  0  0  0  0  0  0  0  0  0
   -1.0033    1.2688    1.6202 O   0  0  0  0  0  0  0  0  0  0  0  0
   -1.6624    2.4496   -1.4198 C   0  0  0  0  0  0  0  0  0  0  0  0
    1.4281    2.1053   -0.7733 H   0  0  0  0  0  0  0  0  0  0  0  0
   -0.1814    3.6305   -0.3837 H   0  0  0  0  0  0  0  0  0  0  0  0
   -2.0855    1.4385   -1.4039 H   0  0  0  0  0  0  0  0  0  0  0  0
   -2.4862    3.1549   -1.2685 H   0  0  0  0  0  0  0  0  0  0  0  0
   -1.2466    2.6202   -2.4187 H   0  0  0  0  0  0  0  0  0  0  0  0
   -1.8928    3.4099    1.5215 N   0  0  0  0  0  0  0  0  0  0  0  0
   -2.5421    3.3875    2.8115 C   0  0  0  0  0  0  0  0  0  0  0  0
   -1.9525    4.2644    0.9756 H   0  0  0  0  0  0  0  0  0  0  0  0
   -3.5783    3.0370    2.6950 H   0  0  0  0  0  0  0  0  0  0  0  0
   -1.9985    2.7074    3.4837 H   0  0  0  0  0  0  0  0  0  0  0  0
   -2.5439    4.4012    3.2385 H   0  0  0  0  0  0  0  0  0  0  0  0
 18 19  1  0  0  0  0
 19 31  1  0  0  0  0
 19 20  2  0  0  0  0
  8  9  1  0  0  0  0
  9 17  1  0  0  0  0
  9 10  2  0  0  0  0
  1  3  1  0  0  0  0
  1  7  1  0  0  0  0
  1  2  2  0  0  0  0
 32 33  1  0  0  0  0
 33 41  1  0  0  0  0
 33 34  2  0  0  0  0
 21 22  1  0  0  0  0
 22 23  1  0  0  0  0
 18 21  1  0  0  0  0
 17 23  1  0  0  0  0
 17 18  1  0  0  0  0
  8 11  1  0  0  0  0
 32 35  1  0  0  0  0
 41 42  1  0  0  0  0
  7  8  1  0  0  0  0
 31 32  1  0  0  0  0
 22 27  1  0  0  0  0
 22 28  1  0  0  0  0
 21 25  1  0  0  0  0
 21 26  1  0  0  0  0
 23 29  1  0  0  0  0
 23 30  1  0  0  0  0
 18 24  1  0  0  0  0
  3  4  1  0  0  0  0
  3  5  1  0  0  0  0
  3  6  1  0  0  0  0
 11 14  1  0  0  0  0
 11 15  1  0  0  0  0
 11 16  1  0  0  0  0
 35 38  1  0  0  0  0
 35 39  1  0  0  0  0
 35 40  1  0  0  0  0
 42 44  1  0  0  0  0
 42 45  1  0  0  0  0
 42 46  1  0  0  0  0
  8 13  1  0  0  0  0
 32 37  1  0  0  0  0
 31 36  1  0  0  0  0
 41 43  1  0  0  0  0
  7 12  1  0  0  0  0
M  END
$$$$

  -OEChem-05262214473D

 46 46  0     1  0  0  0  0  0999 V2000
   -0.6012   -3.2995    3.8205 C   0  0  0  0  0  0  0  0  0  0  0  0
   -0.6574   -4.4683    3.4568 O   0  0  0  0  0  0  0  0  0  0  0  0
   -0.4935   -2.9859    5.2760 C   0  0  0  0  0  0  0  0  0  0  0  0
   -1.4789   -2.8689    5.7550 H   0  0  0  0  0  0  0  0  0  0  0  0
    0.0123   -3.7847    5.8419 H   0  0  0  0  0  0  0  0  0  0  0  0
    0.0585   -2.0642    5.5199 H   0  0  0  0  0  0  0  0  0  0  0  0
   -0.6261   -2.1849    2.9917 N   0  0  0  0  0  0  0  0  0  0  0  0
   -0.7237   -2.2601    1.5650 C   0  0  2  0  0  0  0  0  0  0  0  0
    0.1695   -1.1513    1.0687 C   0  0  0  0  0  0  0  0  0  0  0  0
    0.3193   -0.1267    1.7365 O   0  0  0  0  0  0  0  0  0  0  0  0
   -2.1397   -2.0663    1.0750 C   0  0  0  0  0  0  0  0  0  0  0  0
   -0.5717   -1.2606    3.4238 H   0  0  0  0  0  0  0  0  0  0  0  0
   -0.3076   -3.2111    1.2363 H   0  0  0  0  0  0  0  0  0  0  0  0
   -2.5584   -1.1089    1.4061 H   0  0  0  0  0  0  0  0  0  0  0  0
   -2.1682   -2.0790   -0.0197 H   0  0  0  0  0  0  0  0  0  0  0  0
   -2.7965   -2.8601    1.4459 H   0  0  0  0  0  0  0  0  0  0  0  0
    0.7724   -1.3745   -0.1593 N   0  0  0  0  0  0  0  0  0  0  0  0
    1.6644   -0.4046   -0.7812 C   0  0  2  0  0  0  0  0  0  0  0  0
    1.4714    0.8971   -0.0632 C   0  0  0  0  0  0  0  0  0  0  0  0
    2.3237    1.2826    0.7284 O   0  0  0  0  0  0  0  0  0  0  0  0
    1.2003   -0.3256   -2.2310 C   0  0  0  0  0  0  0  0  0  0  0  0
    0.6175   -1.7334   -2.1345 C   0  0  0  0  0  0  0  0  0  0  0  0
    0.7499   -2.6270   -0.9105 C   0  0  0  0  0  0  0  0  0  0  0  0
    2.7098   -0.7112   -0.6800 H   0  0  0  0  0  0  0  0  0  0  0  0
    2.0659   -0.2245   -2.8965 H   0  0  0  0  0  0  0  0  0  0  0  0
    0.5120    0.5027   -2.4257 H   0  0  0  0  0  0  0  0  0  0  0  0
   -0.4746   -1.7010   -2.2227 H   0  0  0  0  0  0  0  0  0  0  0  0
    1.0050   -2.3951   -2.9143 H   0  0  0  0  0  0  0  0  0  0  0  0
   -0.0890   -3.3199   -0.8019 H   0  0  0  0  0  0  0  0  0  0  0  0
    1.6844   -3.1980   -0.9346 H   0  0  0  0  0  0  0  0  0  0  0  0
    0.3289    1.5651   -0.3570 N   0  0  0  0  0  0  0  0  0  0  0  0
   -0.8067    2.3393    0.0903 C   0  0  2  0  0  0  0  0  0  0  0  0
   -1.0098    2.0623    1.5741 C   0  0  0  0  0  0  0  0  0  0  0  0
   -0.5931    1.0483    2.1303 O   0  0  0  0  0  0  0  0  0  0  0  0
   -2.0578    1.9956   -0.7030 C   0  0  0  0  0  0  0  0  0  0  0  0
    1.1171    2.0562   -0.7680 H   0  0  0  0  0  0  0  0  0  0  0  0
   -0.5466    3.3938   -0.0526 H   0  0  0  0  0  0  0  0  0  0  0  0
   -2.3340    0.9430   -0.5722 H   0  0  0  0  0  0  0  0  0  0  0  0
   -2.9104    2.6033   -0.3823 H   0  0  0  0  0  0  0  0  0  0  0  0
   -1.9001    2.1673   -1.7732 H   0  0  0  0  0  0  0  0  0  0  0  0
   -1.7483    3.0598    2.1950 N   0  0  0  0  0  0  0  0  0  0  0  0
   -2.0858    3.0209    3.5988 C   0  0  0  0  0  0  0  0  0  0  0  0
   -2.0367    3.8741    1.6606 H   0  0  0  0  0  0  0  0  0  0  0  0
   -3.0684    2.5433    3.7271 H   0  0  0  0  0  0  0  0  0  0  0  0
   -1.3238    2.4437    4.1431 H   0  0  0  0  0  0  0  0  0  0  0  0
   -2.1220    4.0462    3.9956 H   0  0  0  0  0  0  0  0  0  0  0  0
 18 19  1  0  0  0  0
 19 31  1  0  0  0  0
 19 20  2  0  0  0  0
  8  9  1  0  0  0  0
  9 17  1  0  0  0  0
  9 10  2  0  0  0  0
  1  3  1  0  0  0  0
  1  7  1  0  0  0  0
  1  2  2  0  0  0  0
 32 33  1  0  0  0  0
 33 41  1  0  0  0  0
 33 34  2  0  0  0  0
 21 22  1  0  0  0  0
 22 23  1  0  0  0  0
 18 21  1  0  0  0  0
 17 23  1  0  0  0  0
 17 18  1  0  0  0  0
  8 11  1  0  0  0  0
 32 35  1  0  0  0  0
 41 42  1  0  0  0  0
  7  8  1  0  0  0  0
 31 32  1  0  0  0  0
 22 27  1  0  0  0  0
 22 28  1  0  0  0  0
 21 25  1  0  0  0  0
 21 26  1  0  0  0  0
 23 29  1  0  0  0  0
 23 30  1  0  0  0  0
 18 24  1  0  0  0  0
  3  4  1  0  0  0  0
  3  5  1  0  0  0  0
  3  6  1  0  0  0  0
 11 14  1  0  0  0  0
 11 15  1  0  0  0  0
 11 16  1  0  0  0  0
 35 38  1  0  0  0  0
 35 39  1  0  0  0  0
 35 40  1  0  0  0  0
 42 44  1  0  0  0  0
 42 45  1  0  0  0  0
 42 46  1  0  0  0  0
  8 13  1  0  0  0  0
 32 37  1  0  0  0  0
 31 36  1  0  0  0  0
 41 43  1  0  0  0  0
  7 12  1  0  0  0  0
M  END
$$$$

  -OEChem-05262214473D

 46 46  0     1  0  0  0  0  0999 V2000
   -0.6012   -3.2995    3.8205 C   0  0  0  0  0  0  0  0  0  0  0  0
   -0.6574   -4.4683    3.4568 O   0  0  0  0  0  0  0  0  0  0  0  0
   -0.4935   -2.9859    5.2760 C   0  0  0  0  0  0  0  0  0  0  0  0
   -1.4789   -2.8689    5.7550 H   0  0  0  0  0  0  0  0  0  0  0  0
    0.0123   -3.7847    5.8419 H   0  0  0  0  0  0  0  0  0  0  0  0
    0.0585   -2.0642    5.5199 H   0  0  0  0  0  0  0  0  0  0  0  0
   -0.6261   -2.1849    2.9917 N   0  0  0  0  0  0  0  0  0  0  0  0
   -0.7237   -2.2601    1.5650 C   0  0  2  0  0  0  0  0  0  0  0  0
    0.1695   -1.1513    1.0687 C   0  0  0  0  0  0  0  0  0  0  0  0
    0.3193   -0.1267    1.7365 O   0  0  0  0  0  0  0  0  0  0  0  0
   -2.1397   -2.0663    1.0750 C   0  0  0  0  0  0  0  0  0  0  0  0
   -0.5717   -1.2606    3.4238 H   0  0  0  0  0  0  0  0  0  0  0  0
   -0.3076   -3.2111    1.2363 H   0  0  0  0  0  0  0  0  0  0  0  0
   -2.5584   -1.1089    1.4061 H   0  0  0  0  0  0  0  0  0  0  0  0
   -2.1682   -2.0790   -0.0197 H   0  0  0  0  0  0  0  0  0  0  0  0
   -2.7965   -2.8601    1.4459 H   0  0  0  0  0  0  0  0  0  0  0  0
    0.7724   -1.3745   -0.1593 N   0  0  0  0  0  0  0  0  0  0  0  0
    1.6644   -0.4046   -0.7812 C   0  0  2  0  0  0  0  0  0  0  0  0
    1.4714    0.8971   -0.0632 C   0  0  0  0  0  0  0  0  0  0  0  0
    2.4222    1.4193    0.5069 O   0  0  0  0  0  0  0  0  0  0  0  0
    1.2003   -0.3256   -2.2310 C   0  0  0  0  0  0  0  0  0  0  0  0
    0.6175   -1.7334   -2.1345 C   0  0  0  0  0  0  0  0  0  0  0  0
    0.7499   -2.6270   -0.9105 C   0  0  0  0  0  0  0  0  0  0  0  0
    2.7098   -0.7112   -0.6800 H   0  0  0  0  0  0  0  0  0  0  0  0
    2.0659   -0.2245   -2.8965 H   0  0  0  0  0  0  0  0  0  0  0  0
    0.5120    0.5027   -2.4257 H   0  0  0  0  0  0  0  0  0  0  0  0
   -0.4746   -1.7010   -2.2227 H   0  0  0  0  0  0  0  0  0  0  0  0
    1.0050   -2.3951   -2.9143 H   0  0  0  0  0  0  0  0  0  0  0  0
   -0.0890   -3.3199   -0.8019 H   0  0  0  0  0  0  0  0  0  0  0  0
    1.6844   -3.1980   -0.9346 H   0  0  0  0  0  0  0  0  0  0  0  0
    0.2164    1.4083   -0.1028 N   0  0  0  0  0  0  0  0  0  0  0  0
   -0.8805    2.0608    0.5755 C   0  0  2  0  0  0  0  0  0  0  0  0
   -0.7110    1.8321    2.0716 C   0  0  0  0  0  0  0  0  0  0  0  0
   -0.0549    0.9031    2.5381 O   0  0  0  0  0  0  0  0  0  0  0  0
   -2.2223    1.5320    0.0934 C   0  0  0  0  0  0  0  0  0  0  0  0
    0.8240    1.9704   -0.6913 H   0  0  0  0  0  0  0  0  0  0  0  0
   -0.7957    3.1309    0.3571 H   0  0  0  0  0  0  0  0  0  0  0  0
   -2.3256    0.4612    0.3036 H   0  0  0  0  0  0  0  0  0  0  0  0
   -3.0526    2.0473    0.5875 H   0  0  0  0  0  0  0  0  0  0  0  0
   -2.3301    1.6704   -0.9878 H   0  0  0  0  0  0  0  0  0  0  0  0
   -1.4140    2.7621    2.8247 N   0  0  0  0  0  0  0  0  0  0  0  0
   -1.4226    2.7496    4.2689 C   0  0  0  0  0  0  0  0  0  0  0  0
   -1.9158    3.5095    2.3542 H   0  0  0  0  0  0  0  0  0  0  0  0
   -2.2827    2.1640    4.6259 H   0  0  0  0  0  0  0  0  0  0  0  0
   -0.4913    2.2946    4.6371 H   0  0  0  0  0  0  0  0  0  0  0  0
   -1.5002    3.7807    4.6439 H   0  0  0  0  0  0  0  0  0  0  0  0
 18 19  1  0  0  0  0
 19 31  1  0  0  0  0
 19 20  2  0  0  0  0
  8  9  1  0  0  0  0
  9 17  1  0  0  0  0
  9 10  2  0  0  0  0
  1  3  1  0  0  0  0
  1  7  1  0  0  0  0
  1  2  2  0  0  0  0
 32 33  1  0  0  0  0
 33 41  1  0  0  0  0
 33 34  2  0  0  0  0
 21 22  1  0  0  0  0
 22 23  1  0  0  0  0
 18 21  1  0  0  0  0
 17 23  1  0  0  0  0
 17 18  1  0  0  0  0
  8 11  1  0  0  0  0
 32 35  1  0  0  0  0
 41 42  1  0  0  0  0
  7  8  1  0  0  0  0
 31 32  1  0  0  0  0
 22 27  1  0  0  0  0
 22 28  1  0  0  0  0
 21 25  1  0  0  0  0
 21 26  1  0  0  0  0
 23 29  1  0  0  0  0
 23 30  1  0  0  0  0
 18 24  1  0  0  0  0
  3  4  1  0  0  0  0
  3  5  1  0  0  0  0
  3  6  1  0  0  0  0
 11 14  1  0  0  0  0
 11 15  1  0  0  0  0
 11 16  1  0  0  0  0
 35 38  1  0  0  0  0
 35 39  1  0  0  0  0
 35 40  1  0  0  0  0
 42 44  1  0  0  0  0
 42 45  1  0  0  0  0
 42 46  1  0  0  0  0
  8 13  1  0  0  0  0
 32 37  1  0  0  0  0
 31 36  1  0  0  0  0
 41 43  1  0  0  0  0
  7 12  1  0  0  0  0
M  END
$$$$

  -OEChem-05262214473D

 46 46  0     1  0  0  0  0  0999 V2000
   -0.6012   -3.2995    3.8205 C   0  0  0  0  0  0  0  0  0  0  0  0
   -0.6574   -4.4683    3.4568 O   0  0  0  0  0  0  0  0  0  0  0  0
   -0.4935   -2.9859    5.2760 C   0  0  0  0  0  0  0  0  0  0  0  0
   -1.4789   -2.8689    5.7550 H   0  0  0  0  0  0  0  0  0  0  0  0
    0.0123   -3.7847    5.8419 H   0  0  0  0  0  0  0  0  0  0  0  0
    0.0585   -2.0642    5.5199 H   0  0  0  0  0  0  0  0  0  0  0  0
   -0.6261   -2.1849    2.9917 N   0  0  0  0  0  0  0  0  0  0  0  0
   -0.7237   -2.2601    1.5650 C   0  0  2  0  0  0  0  0  0  0  0  0
    0.1695   -1.1513    1.0687 C   0  0  0  0  0  0  0  0  0  0  0  0
    0.3193   -0.1267    1.7365 O   0  0  0  0  0  0  0  0  0  0  0  0
   -2.1397   -2.0663    1.0750 C   0  0  0  0  0  0  0  0  0  0  0  0
   -0.5717   -1.2606    3.4238 H   0  0  0  0  0  0  0  0  0  0  0  0
   -0.3076   -3.2111    1.2363 H   0  0  0  0  0  0  0  0  0  0  0  0
   -2.5584   -1.1089    1.4061 H   0  0  0  0  0  0  0  0  0  0  0  0
   -2.1682   -2.0790   -0.0197 H   0  0  0  0  0  0  0  0  0  0  0  0
   -2.7965   -2.8601    1.4459 H   0  0  0  0  0  0  0  0  0  0  0  0
    0.7724   -1.3745   -0.1593 N   0  0  0  0  0  0  0  0  0  0  0  0
    1.6644   -0.4046   -0.7812 C   0  0  2  0  0  0  0  0  0  0  0  0
    1.4714    0.8971   -0.0632 C   0  0  0  0  0  0  0  0  0  0  0  0
    2.4505    1.5563    0.2663 O   0  0  0  0  0  0  0  0  0  0  0  0
    1.2003   -0.3256   -2.2310 C   0  0  0  0  0  0  0  0  0  0  0  0
    0.6175   -1.7334   -2.1345 C   0  0  0  0  0  0  0  0  0  0  0  0
    0.7499   -2.6270   -0.9105 C   0  0  0  0  0  0  0  0  0  0  0  0
    2.7098   -0.7112   -0.6800 H   0  0  0  0  0  0  0  0  0  0  0  0
    2.0659   -0.2245   -2.8965 H   0  0  0  0  0  0  0  0  0  0  0  0
    0.5120    0.5027   -2.4257 H   0  0  0  0  0  0  0  0  0  0  0  0
   -0.4746   -1.7010   -2.2227 H   0  0  0  0  0  0  0  0  0  0  0  0
    1.0050   -2.3951   -2.9143 H   0  0  0  0  0  0  0  0  0  0  0  0
   -0.0890   -3.3199   -0.8019 H   0  0  0  0  0  0  0  0  0  0  0  0
    1.6844   -3.1980   -0.9346 H   0  0  0  0  0  0  0  0  0  0  0  0
    0.1843    1.2513    0.1731 N   0  0  0  0  0  0  0  0  0  0  0  0
   -0.8081    1.7988    1.0700 C   0  0  2  0  0  0  0  0  0  0  0  0
   -0.2820    1.6634    2.4928 C   0  0  0  0  0  0  0  0  0  0  0  0
    0.5747    0.8432    2.8159 O   0  0  0  0  0  0  0  0  0  0  0  0
   -2.1448    1.0903    0.9151 C   0  0  0  0  0  0  0  0  0  0  0  0
    0.5687    1.8538   -0.5484 H   0  0  0  0  0  0  0  0  0  0  0  0
   -0.9115    2.8598    0.8176 H   0  0  0  0  0  0  0  0  0  0  0  0
   -2.0610    0.0260    1.1636 H   0  0  0  0  0  0  0  0  0  0  0  0
   -2.9031    1.5250    1.5746 H   0  0  0  0  0  0  0  0  0  0  0  0
   -2.5074    1.1632   -0.1160 H   0  0  0  0  0  0  0  0  0  0  0  0
   -0.9126    2.5369    3.3677 N   0  0  0  0  0  0  0  0  0  0  0  0
   -0.5978    2.5920    4.7762 C   0  0  0  0  0  0  0  0  0  0  0  0
   -1.5978    3.1954    3.0091 H   0  0  0  0  0  0  0  0  0  0  0  0
   -1.2747    1.9250    5.3301 H   0  0  0  0  0  0  0  0  0  0  0  0
    0.4425    2.2703    4.9322 H   0  0  0  0  0  0  0  0  0  0  0  0
   -0.7211    3.6230    5.1393 H   0  0  0  0  0  0  0  0  0  0  0  0
 18 19  1  0  0  0  0
 19 31  1  0  0  0  0
 19 20  2  0  0  0  0
  8  9  1  0  0  0  0
  9 17  1  0  0  0  0
  9 10  2  0  0  0  0
  1  3  1  0  0  0  0
  1  7  1  0  0  0  0
  1  2  2  0  0  0  0
 32 33  1  0  0  0  0
 33 41  1  0  0  0  0
 33 34  2  0  0  0  0
 21 22  1  0  0  0  0
 22 23  1  0  0  0  0
 18 21  1  0  0  0  0
 17 23  1  0  0  0  0
 17 18  1  0  0  0  0
  8 11  1  0  0  0  0
 32 35  1  0  0  0  0
 41 42  1  0  0  0  0
  7  8  1  0  0  0  0
 31 32  1  0  0  0  0
 22 27  1  0  0  0  0
 22 28  1  0  0  0  0
 21 25  1  0  0  0  0
 21 26  1  0  0  0  0
 23 29  1  0  0  0  0
 23 30  1  0  0  0  0
 18 24  1  0  0  0  0
  3  4  1  0  0  0  0
  3  5  1  0  0  0  0
  3  6  1  0  0  0  0
 11 14  1  0  0  0  0
 11 15  1  0  0  0  0
 11 16  1  0  0  0  0
 35 38  1  0  0  0  0
 35 39  1  0  0  0  0
 35 40  1  0  0  0  0
 42 44  1  0  0  0  0
 42 45  1  0  0  0  0
 42 46  1  0  0  0  0
  8 13  1  0  0  0  0
 32 37  1  0  0  0  0
 31 36  1  0  0  0  0
 41 43  1  0  0  0  0
  7 12  1  0  0  0  0
M  END
$$$$

  -OEChem-05262214473D

 46 46  0     1  0  0  0  0  0999 V2000
   -0.6012   -3.2995    3.8205 C   0  0  0  0  0  0  0  0  0  0  0  0
   -0.6574   -4.4683    3.4568 O   0  0  0  0  0  0  0  0  0  0  0  0
   -0.4935   -2.9859    5.2760 C   0  0  0  0  0  0  0  0  0  0  0  0
   -1.4789   -2.8689    5.7550 H   0  0  0  0  0  0  0  0  0  0  0  0
    0.0123   -3.7847    5.8419 H   0  0  0  0  0  0  0  0  0  0  0  0
    0.0585   -2.0642    5.5199 H   0  0  0  0  0  0  0  0  0  0  0  0
   -0.6261   -2.1849    2.9917 N   0  0  0  0  0  0  0  0  0  0  0  0
   -0.7237   -2.2601    1.5650 C   0  0  2  0  0  0  0  0  0  0  0  0
    0.1695   -1.1513    1.0687 C   0  0  0  0  0  0  0  0  0  0  0  0
    0.3193   -0.1267    1.7365 O   0  0  0  0  0  0  0  0  0  0  0  0
   -2.1397   -2.0663    1.0750 C   0  0  0  0  0  0  0  0  0  0  0  0
   -0.5717   -1.2606    3.4238 H   0  0  0  0  0  0  0  0  0  0  0  0
   -0.3076   -3.2111    1.2363 H   0  0  0  0  0  0  0  0  0  0  0  0
   -2.5584   -1.1089    1.4061 H   0  0  0  0  0  0  0  0  0  0  0  0
   -2.1682   -2.0790   -0.0197 H   0  0  0  0  0  0  0  0  0  0  0  0
   -2.7965   -2.8601    1.4459 H   0  0  0  0  0  0  0  0  0  0  0  0
    0.7724   -1.3745   -0.1593 N   0  0  0  0  0  0  0  0  0  0  0  0
    1.6644   -0.4046   -0.7812 C   0  0  2  0  0  0  0  0  0  0  0  0
    1.4714    0.8971   -0.0632 C   0  0  0  0  0  0  0  0  0  0  0  0
    2.4069    1.6840    0.0229 O   0  0  0  0  0  0  0  0  0  0  0  0
    1.2003   -0.3256   -2.2310 C   0  0  0  0  0  0  0  0  0  0  0  0
    0.6175   -1.7334   -2.1345 C   0  0  0  0  0  0  0  0  0  0  0  0
    0.7499   -2.6270   -0.9105 C   0  0  0  0  0  0  0  0  0  0  0  0
    2.7098   -0.7112   -0.6800 H   0  0  0  0  0  0  0  0  0  0  0  0
    2.0659   -0.2245   -2.8965 H   0  0  0  0  0  0  0  0  0  0  0  0
    0.5120    0.5027   -2.4257 H   0  0  0  0  0  0  0  0  0  0  0  0
   -0.4746   -1.7010   -2.2227 H   0  0  0  0  0  0  0  0  0  0  0  0
    1.0050   -2.3951   -2.9143 H   0  0  0  0  0  0  0  0  0  0  0  0
   -0.0890   -3.3199   -0.8019 H   0  0  0  0  0  0  0  0  0  0  0  0
    1.6844   -3.1980   -0.9346 H   0  0  0  0  0  0  0  0  0  0  0  0
    0.2348    1.1049    0.4521 N   0  0  0  0  0  0  0  0  0  0  0  0
   -0.5947    1.5711    1.5401 C   0  0  2  0  0  0  0  0  0  0  0  0
    0.2480    1.5677    2.8087 C   0  0  0  0  0  0  0  0  0  0  0  0
    1.2527    0.8726    2.9448 O   0  0  0  0  0  0  0  0  0  0  0  0
   -1.8305    0.7006    1.7060 C   0  0  0  0  0  0  0  0  0  0  0  0
    0.3687    1.7143   -0.3492 H   0  0  0  0  0  0  0  0  0  0  0  0
   -0.8863    2.5988    1.2975 H   0  0  0  0  0  0  0  0  0  0  0  0
   -1.5582   -0.3329    1.9494 H   0  0  0  0  0  0  0  0  0  0  0  0
   -2.4721    1.0719    2.5120 H   0  0  0  0  0  0  0  0  0  0  0  0
   -2.4198    0.6804    0.7829 H   0  0  0  0  0  0  0  0  0  0  0  0
   -0.2783    2.3996    3.7870 N   0  0  0  0  0  0  0  0  0  0  0  0
    0.3325    2.5590    5.0861 C   0  0  0  0  0  0  0  0  0  0  0  0
   -1.1046    2.9532    3.5807 H   0  0  0  0  0  0  0  0  0  0  0  0
   -0.1132    1.8425    5.7918 H   0  0  0  0  0  0  0  0  0  0  0  0
    1.4137    2.3723    5.0081 H   0  0  0  0  0  0  0  0  0  0  0  0
    0.1624    3.5838    5.4478 H   0  0  0  0  0  0  0  0  0  0  0  0
 18 19  1  0  0  0  0
 19 31  1  0  0  0  0
 19 20  2  0  0  0  0
  8  9  1  0  0  0  0
  9 17  1  0  0  0  0
  9 10  2  0  0  0  0
  1  3  1  0  0  0  0
  1  7  1  0  0  0  0
  1  2  2  0  0  0  0
 32 33  1  0  0  0  0
 33 41  1  0  0  0  0
 33 34  2  0  0  0  0
 21 22  1  0  0  0  0
 22 23  1  0  0  0  0
 18 21  1  0  0  0  0
 17 23  1  0  0  0  0
 17 18  1  0  0  0  0
  8 11  1  0  0  0  0
 32 35  1  0  0  0  0
 41 42  1  0  0  0  0
  7  8  1  0  0  0  0
 31 32  1  0  0  0  0
 22 27  1  0  0  0  0
 22 28  1  0  0  0  0
 21 25  1  0  0  0  0
 21 26  1  0  0  0  0
 23 29  1  0  0  0  0
 23 30  1  0  0  0  0
 18 24  1  0  0  0  0
  3  4  1  0  0  0  0
  3  5  1  0  0  0  0
  3  6  1  0  0  0  0
 11 14  1  0  0  0  0
 11 15  1  0  0  0  0
 11 16  1  0  0  0  0
 35 38  1  0  0  0  0
 35 39  1  0  0  0  0
 35 40  1  0  0  0  0
 42 44  1  0  0  0  0
 42 45  1  0  0  0  0
 42 46  1  0  0  0  0
  8 13  1  0  0  0  0
 32 37  1  0  0  0  0
 31 36  1  0  0  0  0
 41 43  1  0  0  0  0
  7 12  1  0  0  0  0
M  END
$$$$

  -OEChem-05262214473D

 46 46  0     1  0  0  0  0  0999 V2000
   -0.6012   -3.2995    3.8205 C   0  0  0  0  0  0  0  0  0  0  0  0
   -0.6574   -4.4683    3.4568 O   0  0  0  0  0  0  0  0  0  0  0  0
   -0.4935   -2.9859    5.2760 C   0  0  0  0  0  0  0  0  0  0  0  0
   -1.4789   -2.8689    5.7550 H   0  0  0  0  0  0  0  0  0  0  0  0
    0.0123   -3.7847    5.8419 H   0  0  0  0  0  0  0  0  0  0  0  0
    0.0585   -2.0642    5.5199 H   0  0  0  0  0  0  0  0  0  0  0  0
   -0.6261   -2.1849    2.9917 N   0  0  0  0  0  0  0  0  0  0  0  0
   -0.7237   -2.2601    1.5650 C   0  0  2  0  0  0  0  0  0  0  0  0
    0.1695   -1.1513    1.0687 C   0  0  0  0  0  0  0  0  0  0  0  0
    0.3193   -0.1267    1.7365 O   0  0  0  0  0  0  0  0  0  0  0  0
   -2.1397   -2.0663    1.0750 C   0  0  0  0  0  0  0  0  0  0  0  0
   -0.5717   -1.2606    3.4238 H   0  0  0  0  0  0  0  0  0  0  0  0
   -0.3076   -3.2111    1.2363 H   0  0  0  0  0  0  0  0  0  0  0  0
   -2.5584   -1.1089    1.4061 H   0  0  0  0  0  0  0  0  0  0  0  0
   -2.1682   -2.0790   -0.0197 H   0  0  0  0  0  0  0  0  0  0  0  0
   -2.7965   -2.8601    1.4459 H   0  0  0  0  0  0  0  0  0  0  0  0
    0.7724   -1.3745   -0.1593 N   0  0  0  0  0  0  0  0  0  0  0  0
    1.6644   -0.4046   -0.7812 C   0  0  2  0  0  0  0  0  0  0  0  0
    1.4714    0.8971   -0.0632 C   0  0  0  0  0  0  0  0  0  0  0  0
    2.2941    1.7939   -0.2066 O   0  0  0  0  0  0  0  0  0  0  0  0
    1.2003   -0.3256   -2.2310 C   0  0  0  0  0  0  0  0  0  0  0  0
    0.6175   -1.7334   -2.1345 C   0  0  0  0  0  0  0  0  0  0  0  0
    0.7499   -2.6270   -0.9105 C   0  0  0  0  0  0  0  0  0  0  0  0
    2.7098   -0.7112   -0.6800 H   0  0  0  0  0  0  0  0  0  0  0  0
    2.0659   -0.2245   -2.8965 H   0  0  0  0  0  0  0  0  0  0  0  0
    0.5120    0.5027   -2.4257 H   0  0  0  0  0  0  0  0  0  0  0  0
   -0.4746   -1.7010   -2.2227 H   0  0  0  0  0  0  0  0  0  0  0  0
    1.0050   -2.3951   -2.9143 H   0  0  0  0  0  0  0  0  0  0  0  0
   -0.0890   -3.3199   -0.8019 H   0  0  0  0  0  0  0  0  0  0  0  0
    1.6844   -3.1980   -0.9346 H   0  0  0  0  0  0  0  0  0  0  0  0
    0.3644    0.9791    0.7151 N   0  0  0  0  0  0  0  0  0  0  0  0
   -0.2546    1.3934    1.9538 C   0  0  2  0  0  0  0  0  0  0  0  0
    0.8427    1.5514    2.9980 C   0  0  0  0  0  0  0  0  0  0  0  0
    1.9329    0.9894    2.9159 O   0  0  0  0  0  0  0  0  0  0  0  0
   -1.3008    0.3895    2.4123 C   0  0  0  0  0  0  0  0  0  0  0  0
    0.2375    1.5614   -0.1072 H   0  0  0  0  0  0  0  0  0  0  0  0
   -0.7218    2.3659    1.7640 H   0  0  0  0  0  0  0  0  0  0  0  0
   -0.8514   -0.5910    2.6074 H   0  0  0  0  0  0  0  0  0  0  0  0
   -1.7889    0.7189    3.3356 H   0  0  0  0  0  0  0  0  0  0  0  0
   -2.0733    0.2548    1.6475 H   0  0  0  0  0  0  0  0  0  0  0  0
    0.4456    2.3596    4.0541 N   0  0  0  0  0  0  0  0  0  0  0  0
    1.3048    2.6527    5.1775 C   0  0  0  0  0  0  0  0  0  0  0  0
   -0.4697    2.7995    4.0300 H   0  0  0  0  0  0  0  0  0  0  0  0
    1.1227    1.9222    5.9794 H   0  0  0  0  0  0  0  0  0  0  0  0
    2.3563    2.5938    4.8598 H   0  0  0  0  0  0  0  0  0  0  0  0
    1.0900    3.6657    5.5486 H   0  0  0  0  0  0  0  0  0  0  0  0
 18 19  1  0  0  0  0
 19 31  1  0  0  0  0
 19 20  2  0  0  0  0
  8  9  1  0  0  0  0
  9 17  1  0  0  0  0
  9 10  2  0  0  0  0
  1  3  1  0  0  0  0
  1  7  1  0  0  0  0
  1  2  2  0  0  0  0
 32 33  1  0  0  0  0
 33 41  1  0  0  0  0
 33 34  2  0  0  0  0
 21 22  1  0  0  0  0
 22 23  1  0  0  0  0
 18 21  1  0  0  0  0
 17 23  1  0  0  0  0
 17 18  1  0  0  0  0
  8 11  1  0  0  0  0
 32 35  1  0  0  0  0
 41 42  1  0  0  0  0
  7  8  1  0  0  0  0
 31 32  1  0  0  0  0
 22 27  1  0  0  0  0
 22 28  1  0  0  0  0
 21 25  1  0  0  0  0
 21 26  1  0  0  0  0
 23 29  1  0  0  0  0
 23 30  1  0  0  0  0
 18 24  1  0  0  0  0
  3  4  1  0  0  0  0
  3  5  1  0  0  0  0
  3  6  1  0  0  0  0
 11 14  1  0  0  0  0
 11 15  1  0  0  0  0
 11 16  1  0  0  0  0
 35 38  1  0  0  0  0
 35 39  1  0  0  0  0
 35 40  1  0  0  0  0
 42 44  1  0  0  0  0
 42 45  1  0  0  0  0
 42 46  1  0  0  0  0
  8 13  1  0  0  0  0
 32 37  1  0  0  0  0
 31 36  1  0  0  0  0
 41 43  1  0  0  0  0
  7 12  1  0  0  0  0
M  END
$$$$

  -OEChem-05262214473D

 46 46  0     1  0  0  0  0  0999 V2000
   -0.6012   -3.2995    3.8205 C   0  0  0  0  0  0  0  0  0  0  0  0
   -0.6574   -4.4683    3.4568 O   0  0  0  0  0  0  0  0  0  0  0  0
   -0.4935   -2.9859    5.2760 C   0  0  0  0  0  0  0  0  0  0  0  0
   -1.4789   -2.8689    5.7550 H   0  0  0  0  0  0  0  0  0  0  0  0
    0.0123   -3.7847    5.8419 H   0  0  0  0  0  0  0  0  0  0  0  0
    0.0585   -2.0642    5.5199 H   0  0  0  0  0  0  0  0  0  0  0  0
   -0.6261   -2.1849    2.9917 N   0  0  0  0  0  0  0  0  0  0  0  0
   -0.7237   -2.2601    1.5650 C   0  0  2  0  0  0  0  0  0  0  0  0
    0.1695   -1.1513    1.0687 C   0  0  0  0  0  0  0  0  0  0  0  0
    0.3193   -0.1267    1.7365 O   0  0  0  0  0  0  0  0  0  0  0  0
   -2.1397   -2.0663    1.0750 C   0  0  0  0  0  0  0  0  0  0  0  0
   -0.5717   -1.2606    3.4238 H   0  0  0  0  0  0  0  0  0  0  0  0
   -0.3076   -3.2111    1.2363 H   0  0  0  0  0  0  0  0  0  0  0  0
   -2.5584   -1.1089    1.4061 H   0  0  0  0  0  0  0  0  0  0  0  0
   -2.1682   -2.0790   -0.0197 H   0  0  0  0  0  0  0  0  0  0  0  0
   -2.7965   -2.8601    1.4459 H   0  0  0  0  0  0  0  0  0  0  0  0
    0.7724   -1.3745   -0.1593 N   0  0  0  0  0  0  0  0  0  0  0  0
    1.6644   -0.4046   -0.7812 C   0  0  2  0  0  0  0  0  0  0  0  0
    1.4714    0.8971   -0.0632 C   0  0  0  0  0  0  0  0  0  0  0  0
    2.1201    1.8785   -0.4066 O   0  0  0  0  0  0  0  0  0  0  0  0
    1.2003   -0.3256   -2.2310 C   0  0  0  0  0  0  0  0  0  0  0  0
    0.6175   -1.7334   -2.1345 C   0  0  0  0  0  0  0  0  0  0  0  0
    0.7499   -2.6270   -0.9105 C   0  0  0  0  0  0  0  0  0  0  0  0
    2.7098   -0.7112   -0.6800 H   0  0  0  0  0  0  0  0  0  0  0  0
    2.0659   -0.2245   -2.8965 H   0  0  0  0  0  0  0  0  0  0  0  0
    0.5120    0.5027   -2.4257 H   0  0  0  0  0  0  0  0  0  0  0  0
   -0.4746   -1.7010   -2.2227 H   0  0  0  0  0  0  0  0  0  0  0  0
    1.0050   -2.3951   -2.9143 H   0  0  0  0  0  0  0  0  0  0  0  0
   -0.0890   -3.3199   -0.8019 H   0  0  0  0  0  0  0  0  0  0  0  0
    1.6844   -3.1980   -0.9346 H   0  0  0  0  0  0  0  0  0  0  0  0
    0.5643    0.8823    0.9442 N   0  0  0  0  0  0  0  0  0  0  0  0
    0.1889    1.2776    2.2828 C   0  0  2  0  0  0  0  0  0  0  0  0
    1.4617    1.6158    3.0477 C   0  0  0  0  0  0  0  0  0  0  0  0
    2.5689    1.1855    2.7312 O   0  0  0  0  0  0  0  0  0  0  0  0
   -0.5919    0.1782    2.9859 C   0  0  0  0  0  0  0  0  0  0  0  0
    0.1842    1.4055    0.1612 H   0  0  0  0  0  0  0  0  0  0  0  0
   -0.4291    2.1768    2.1855 H   0  0  0  0  0  0  0  0  0  0  0  0
    0.0112   -0.7308    3.0926 H   0  0  0  0  0  0  0  0  0  0  0  0
   -0.9001    0.4900    3.9893 H   0  0  0  0  0  0  0  0  0  0  0  0
   -1.4916   -0.0845    2.4190 H   0  0  0  0  0  0  0  0  0  0  0  0
    1.2098    2.4196    4.1507 N   0  0  0  0  0  0  0  0  0  0  0  0
    2.2529    2.8668    5.0441 C   0  0  0  0  0  0  0  0  0  0  0  0
    0.2637    2.7447    4.3264 H   0  0  0  0  0  0  0  0  0  0  0  0
    2.3487    2.1586    5.8803 H   0  0  0  0  0  0  0  0  0  0  0  0
    3.2059    2.9197    4.4974 H   0  0  0  0  0  0  0  0  0  0  0  0
    1.9985    3.8631    5.4348 H   0  0  0  0  0  0  0  0  0  0  0  0
 18 19  1  0  0  0  0
 19 31  1  0  0  0  0
 19 20  2  0  0  0  0
  8  9  1  0  0  0  0
  9 17  1  0  0  0  0
  9 10  2  0  0  0  0
  1  3  1  0  0  0  0
  1  7  1  0  0  0  0
  1  2  2  0  0  0  0
 32 33  1  0  0  0  0
 33 41  1  0  0  0  0
 33 34  2  0  0  0  0
 21 22  1  0  0  0  0
 22 23  1  0  0  0  0
 18 21  1  0  0  0  0
 17 23  1  0  0  0  0
 17 18  1  0  0  0  0
  8 11  1  0  0  0  0
 32 35  1  0  0  0  0
 41 42  1  0  0  0  0
  7  8  1  0  0  0  0
 31 32  1  0  0  0  0
 22 27  1  0  0  0  0
 22 28  1  0  0  0  0
 21 25  1  0  0  0  0
 21 26  1  0  0  0  0
 23 29  1  0  0  0  0
 23 30  1  0  0  0  0
 18 24  1  0  0  0  0
  3  4  1  0  0  0  0
  3  5  1  0  0  0  0
  3  6  1  0  0  0  0
 11 14  1  0  0  0  0
 11 15  1  0  0  0  0
 11 16  1  0  0  0  0
 35 38  1  0  0  0  0
 35 39  1  0  0  0  0
 35 40  1  0  0  0  0
 42 44  1  0  0  0  0
 42 45  1  0  0  0  0
 42 46  1  0  0  0  0
  8 13  1  0  0  0  0
 32 37  1  0  0  0  0
 31 36  1  0  0  0  0
 41 43  1  0  0  0  0
  7 12  1  0  0  0  0
M  END
$$$$

  -OEChem-05262214473D

 46 46  0     1  0  0  0  0  0999 V2000
   -0.6012   -3.2995    3.8205 C   0  0  0  0  0  0  0  0  0  0  0  0
   -0.6574   -4.4683    3.4568 O   0  0  0  0  0  0  0  0  0  0  0  0
   -0.4935   -2.9859    5.2760 C   0  0  0  0  0  0  0  0  0  0  0  0
   -1.4789   -2.8689    5.7550 H   0  0  0  0  0  0  0  0  0  0  0  0
    0.0123   -3.7847    5.8419 H   0  0  0  0  0  0  0  0  0  0  0  0
    0.0585   -2.0642    5.5199 H   0  0  0  0  0  0  0  0  0  0  0  0
   -0.6261   -2.1849    2.9917 N   0  0  0  0  0  0  0  0  0  0  0  0
   -0.7237   -2.2601    1.5650 C   0  0  2  0  0  0  0  0  0  0  0  0
    0.1695   -1.1513    1.0687 C   0  0  0  0  0  0  0  0  0  0  0  0
    0.3193   -0.1267    1.7365 O   0  0  0  0  0  0  0  0  0  0  0  0
   -2.1397   -2.0663    1.0750 C   0  0  0  0  0  0  0  0  0  0  0  0
   -0.5717   -1.2606    3.4238 H   0  0  0  0  0  0  0  0  0  0  0  0
   -0.3076   -3.2111    1.2363 H   0  0  0  0  0  0  0  0  0  0  0  0
   -2.5584   -1.1089    1.4061 H   0  0  0  0  0  0  0  0  0  0  0  0
   -2.1682   -2.0790   -0.0197 H   0  0  0  0  0  0  0  0  0  0  0  0
   -2.7965   -2.8601    1.4459 H   0  0  0  0  0  0  0  0  0  0  0  0
    0.7724   -1.3745   -0.1593 N   0  0  0  0  0  0  0  0  0  0  0  0
    1.6644   -0.4046   -0.7812 C   0  0  2  0  0  0  0  0  0  0  0  0
    1.4714    0.8971   -0.0632 C   0  0  0  0  0  0  0  0  0  0  0  0
    1.8965    1.9319   -0.5635 O   0  0  0  0  0  0  0  0  0  0  0  0
    1.2003   -0.3256   -2.2310 C   0  0  0  0  0  0  0  0  0  0  0  0
    0.6175   -1.7334   -2.1345 C   0  0  0  0  0  0  0  0  0  0  0  0
    0.7499   -2.6270   -0.9105 C   0  0  0  0  0  0  0  0  0  0  0  0
    2.7098   -0.7112   -0.6800 H   0  0  0  0  0  0  0  0  0  0  0  0
    2.0659   -0.2245   -2.8965 H   0  0  0  0  0  0  0  0  0  0  0  0
    0.5120    0.5027   -2.4257 H   0  0  0  0  0  0  0  0  0  0  0  0
   -0.4746   -1.7010   -2.2227 H   0  0  0  0  0  0  0  0  0  0  0  0
    1.0050   -2.3951   -2.9143 H   0  0  0  0  0  0  0  0  0  0  0  0
   -0.0890   -3.3199   -0.8019 H   0  0  0  0  0  0  0  0  0  0  0  0
    1.6844   -3.1980   -0.9346 H   0  0  0  0  0  0  0  0  0  0  0  0
    0.8209    0.8213    1.1238 N   0  0  0  0  0  0  0  0  0  0  0  0
    0.7056    1.2317    2.5049 C   0  0  2  0  0  0  0  0  0  0  0  0
    2.0629    1.7563    2.9545 C   0  0  0  0  0  0  0  0  0  0  0  0
    3.1174    1.4476    2.4034 O   0  0  0  0  0  0  0  0  0  0  0  0
    0.2480    0.0811    3.3877 C   0  0  0  0  0  0  0  0  0  0  0  0
    0.2124    1.2572    0.4375 H   0  0  0  0  0  0  0  0  0  0  0  0
   -0.0283    2.0445    2.5331 H   0  0  0  0  0  0  0  0  0  0  0  0
    0.9708   -0.7428    3.3722 H   0  0  0  0  0  0  0  0  0  0  0  0
    0.1336    0.4009    4.4287 H   0  0  0  0  0  0  0  0  0  0  0  0
   -0.7142   -0.3144    3.0448 H   0  0  0  0  0  0  0  0  0  0  0  0
    1.9623    2.5755    4.0703 N   0  0  0  0  0  0  0  0  0  0  0  0
    3.1121    3.1867    4.6950 C   0  0  0  0  0  0  0  0  0  0  0  0
    1.0454    2.7925    4.4498 H   0  0  0  0  0  0  0  0  0  0  0  0
    3.4815    2.5357    5.5011 H   0  0  0  0  0  0  0  0  0  0  0  0
    3.9048    3.3277    3.9454 H   0  0  0  0  0  0  0  0  0  0  0  0
    2.8260    4.1626    5.1141 H   0  0  0  0  0  0  0  0  0  0  0  0
 18 19  1  0  0  0  0
 19 31  1  0  0  0  0
 19 20  2  0  0  0  0
  8  9  1  0  0  0  0
  9 17  1  0  0  0  0
  9 10  2  0  0  0  0
  1  3  1  0  0  0  0
  1  7  1  0  0  0  0
  1  2  2  0  0  0  0
 32 33  1  0  0  0  0
 33 41  1  0  0  0  0
 33 34  2  0  0  0  0
 21 22  1  0  0  0  0
 22 23  1  0  0  0  0
 18 21  1  0  0  0  0
 17 23  1  0  0  0  0
 17 18  1  0  0  0  0
  8 11  1  0  0  0  0
 32 35  1  0  0  0  0
 41 42  1  0  0  0  0
  7  8  1  0  0  0  0
 31 32  1  0  0  0  0
 22 27  1  0  0  0  0
 22 28  1  0  0  0  0
 21 25  1  0  0  0  0
 21 26  1  0  0  0  0
 23 29  1  0  0  0  0
 23 30  1  0  0  0  0
 18 24  1  0  0  0  0
  3  4  1  0  0  0  0
  3  5  1  0  0  0  0
  3  6  1  0  0  0  0
 11 14  1  0  0  0  0
 11 15  1  0  0  0  0
 11 16  1  0  0  0  0
 35 38  1  0  0  0  0
 35 39  1  0  0  0  0
 35 40  1  0  0  0  0
 42 44  1  0  0  0  0
 42 45  1  0  0  0  0
 42 46  1  0  0  0  0
  8 13  1  0  0  0  0
 32 37  1  0  0  0  0
 31 36  1  0  0  0  0
 41 43  1  0  0  0  0
  7 12  1  0  0  0  0
M  END
$$$$

  -OEChem-05262214473D

 46 46  0     1  0  0  0  0  0999 V2000
   -0.6012   -3.2995    3.8205 C   0  0  0  0  0  0  0  0  0  0  0  0
   -0.6574   -4.4683    3.4568 O   0  0  0  0  0  0  0  0  0  0  0  0
   -0.4935   -2.9859    5.2760 C   0  0  0  0  0  0  0  0  0  0  0  0
   -1.4789   -2.8689    5.7550 H   0  0  0  0  0  0  0  0  0  0  0  0
    0.0123   -3.7847    5.8419 H   0  0  0  0  0  0  0  0  0  0  0  0
    0.0585   -2.0642    5.5199 H   0  0  0  0  0  0  0  0  0  0  0  0
   -0.6261   -2.1849    2.9917 N   0  0  0  0  0  0  0  0  0  0  0  0
   -0.7237   -2.2601    1.5650 C   0  0  2  0  0  0  0  0  0  0  0  0
    0.1695   -1.1513    1.0687 C   0  0  0  0  0  0  0  0  0  0  0  0
    0.3193   -0.1267    1.7365 O   0  0  0  0  0  0  0  0  0  0  0  0
   -2.1397   -2.0663    1.0750 C   0  0  0  0  0  0  0  0  0  0  0  0
   -0.5717   -1.2606    3.4238 H   0  0  0  0  0  0  0  0  0  0  0  0
   -0.3076   -3.2111    1.2363 H   0  0  0  0  0  0  0  0  0  0  0  0
   -2.5584   -1.1089    1.4061 H   0  0  0  0  0  0  0  0  0  0  0  0
   -2.1682   -2.0790   -0.0197 H   0  0  0  0  0  0  0  0  0  0  0  0
   -2.7965   -2.8601    1.4459 H   0  0  0  0  0  0  0  0  0  0  0  0
    0.7724   -1.3745   -0.1593 N   0  0  0  0  0  0  0  0  0  0  0  0
    1.6644   -0.4046   -0.7812 C   0  0  2  0  0  0  0  0  0  0  0  0
    1.4714    0.8971   -0.0632 C   0  0  0  0  0  0  0  0  0  0  0  0
    1.6386    1.9505   -0.6666 O   0  0  0  0  0  0  0  0  0  0  0  0
    1.2003   -0.3256   -2.2310 C   0  0  0  0  0  0  0  0  0  0  0  0
    0.6175   -1.7334   -2.1345 C   0  0  0  0  0  0  0  0  0  0  0  0
    0.7499   -2.6270   -0.9105 C   0  0  0  0  0  0  0  0  0  0  0  0
    2.7098   -0.7112   -0.6800 H   0  0  0  0  0  0  0  0  0  0  0  0
    2.0659   -0.2245   -2.8965 H   0  0  0  0  0  0  0  0  0  0  0  0
    0.5120    0.5027   -2.4257 H   0  0  0  0  0  0  0  0  0  0  0  0
   -0.4746   -1.7010   -2.2227 H   0  0  0  0  0  0  0  0  0  0  0  0
    1.0050   -2.3951   -2.9143 H   0  0  0  0  0  0  0  0  0  0  0  0
   -0.0890   -3.3199   -0.8019 H   0  0  0  0  0  0  0  0  0  0  0  0
    1.6844   -3.1980   -0.9346 H   0  0  0  0  0  0  0  0  0  0  0  0
    1.1167    0.8002    1.2417 N   0  0  0  0  0  0  0  0  0  0  0  0
    1.2603    1.2588    2.6048 C   0  0  2  0  0  0  0  0  0  0  0  0
    2.6052    1.9635    2.7246 C   0  0  0  0  0  0  0  0  0  0  0  0
    3.5411    1.7579    1.9547 O   0  0  0  0  0  0  0  0  0  0  0  0
    1.1616    0.1048    3.5902 C   0  0  0  0  0  0  0  0  0  0  0  0
    0.3200    1.1267    0.7031 H   0  0  0  0  0  0  0  0  0  0  0  0
    0.4534    1.9780    2.7831 H   0  0  0  0  0  0  0  0  0  0  0  0
    1.9619   -0.6261    3.4270 H   0  0  0  0  0  0  0  0  0  0  0  0
    1.2420    0.4576    4.6237 H   0  0  0  0  0  0  0  0  0  0  0  0
    0.2058   -0.4193    3.4822 H   0  0  0  0  0  0  0  0  0  0  0  0
    2.6517    2.8167    3.8183 N   0  0  0  0  0  0  0  0  0  0  0  0
    3.8240    3.5906    4.1540 C   0  0  0  0  0  0  0  0  0  0  0  0
    1.8223    2.9397    4.3916 H   0  0  0  0  0  0  0  0  0  0  0  0
    4.4436    3.0277    4.8676 H   0  0  0  0  0  0  0  0  0  0  0  0
    4.4052    3.7900    3.2417 H   0  0  0  0  0  0  0  0  0  0  0  0
    3.5161    4.5439    4.6084 H   0  0  0  0  0  0  0  0  0  0  0  0
 18 19  1  0  0  0  0
 19 31  1  0  0  0  0
 19 20  2  0  0  0  0
  8  9  1  0  0  0  0
  9 17  1  0  0  0  0
  9 10  2  0  0  0  0
  1  3  1  0  0  0  0
  1  7  1  0  0  0  0
  1  2  2  0  0  0  0
 32 33  1  0  0  0  0
 33 41  1  0  0  0  0
 33 34  2  0  0  0  0
 21 22  1  0  0  0  0
 22 23  1  0  0  0  0
 18 21  1  0  0  0  0
 17 23  1  0  0  0  0
 17 18  1  0  0  0  0
  8 11  1  0  0  0  0
 32 35  1  0  0  0  0
 41 42  1  0  0  0  0
  7  8  1  0  0  0  0
 31 32  1  0  0  0  0
 22 27  1  0  0  0  0
 22 28  1  0  0  0  0
 21 25  1  0  0  0  0
 21 26  1  0  0  0  0
 23 29  1  0  0  0  0
 23 30  1  0  0  0  0
 18 24  1  0  0  0  0
  3  4  1  0  0  0  0
  3  5  1  0  0  0  0
  3  6  1  0  0  0  0
 11 14  1  0  0  0  0
 11 15  1  0  0  0  0
 11 16  1  0  0  0  0
 35 38  1  0  0  0  0
 35 39  1  0  0  0  0
 35 40  1  0  0  0  0
 42 44  1  0  0  0  0
 42 45  1  0  0  0  0
 42 46  1  0  0  0  0
  8 13  1  0  0  0  0
 32 37  1  0  0  0  0
 31 36  1  0  0  0  0
 41 43  1  0  0  0  0
  7 12  1  0  0  0  0
M  END
$$$$

  -OEChem-05262214473D

 46 46  0     1  0  0  0  0  0999 V2000
   -0.6012   -3.2995    3.8205 C   0  0  0  0  0  0  0  0  0  0  0  0
   -0.6574   -4.4683    3.4568 O   0  0  0  0  0  0  0  0  0  0  0  0
   -0.4935   -2.9859    5.2760 C   0  0  0  0  0  0  0  0  0  0  0  0
   -1.4789   -2.8689    5.7550 H   0  0  0  0  0  0  0  0  0  0  0  0
    0.0123   -3.7847    5.8419 H   0  0  0  0  0  0  0  0  0  0  0  0
    0.0585   -2.0642    5.5199 H   0  0  0  0  0  0  0  0  0  0  0  0
   -0.6261   -2.1849    2.9917 N   0  0  0  0  0  0  0  0  0  0  0  0
   -0.7237   -2.2601    1.5650 C   0  0  2  0  0  0  0  0  0  0  0  0
    0.1695   -1.1513    1.0687 C   0  0  0  0  0  0  0  0  0  0  0  0
    0.3193   -0.1267    1.7365 O   0  0  0  0  0  0  0  0  0  0  0  0
   -2.1397   -2.0663    1.0750 C   0  0  0  0  0  0  0  0  0  0  0  0
   -0.5717   -1.2606    3.4238 H   0  0  0  0  0  0  0  0  0  0  0  0
   -0.3076   -3.2111    1.2363 H   0  0  0  0  0  0  0  0  0  0  0  0
   -2.5584   -1.1089    1.4061 H   0  0  0  0  0  0  0  0  0  0  0  0
   -2.1682   -2.0790   -0.0197 H   0  0  0  0  0  0  0  0  0  0  0  0
   -2.7965   -2.8601    1.4459 H   0  0  0  0  0  0  0  0  0  0  0  0
    0.7724   -1.3745   -0.1593 N   0  0  0  0  0  0  0  0  0  0  0  0
    1.6644   -0.4046   -0.7812 C   0  0  2  0  0  0  0  0  0  0  0  0
    1.4714    0.8971   -0.0632 C   0  0  0  0  0  0  0  0  0  0  0  0
    1.3641    1.9331   -0.7089 O   0  0  0  0  0  0  0  0  0  0  0  0
    1.2003   -0.3256   -2.2310 C   0  0  0  0  0  0  0  0  0  0  0  0
    0.6175   -1.7334   -2.1345 C   0  0  0  0  0  0  0  0  0  0  0  0
    0.7499   -2.6270   -0.9105 C   0  0  0  0  0  0  0  0  0  0  0  0
    2.7098   -0.7112   -0.6800 H   0  0  0  0  0  0  0  0  0  0  0  0
    2.0659   -0.2245   -2.8965 H   0  0  0  0  0  0  0  0  0  0  0  0
    0.5120    0.5027   -2.4257 H   0  0  0  0  0  0  0  0  0  0  0  0
   -0.4746   -1.7010   -2.2227 H   0  0  0  0  0  0  0  0  0  0  0  0
    1.0050   -2.3951   -2.9143 H   0  0  0  0  0  0  0  0  0  0  0  0
   -0.0890   -3.3199   -0.8019 H   0  0  0  0  0  0  0  0  0  0  0  0
    1.6844   -3.1980   -0.9346 H   0  0  0  0  0  0  0  0  0  0  0  0
    1.4315    0.8203    1.2897 N   0  0  0  0  0  0  0  0  0  0  0  0
    1.8152    1.3571    2.5757 C   0  0  2  0  0  0  0  0  0  0  0  0
    3.0516    2.2231    2.3738 C   0  0  0  0  0  0  0  0  0  0  0  0
    3.8111    2.0952    1.4157 O   0  0  0  0  0  0  0  0  0  0  0  0
    2.0866    0.2477    3.5798 C   0  0  0  0  0  0  0  0  0  0  0  0
    0.4999    1.0228    0.9398 H   0  0  0  0  0  0  0  0  0  0  0  0
    0.9832    1.9817    2.9186 H   0  0  0  0  0  0  0  0  0  0  0  0
    2.9172   -0.3887    3.2532 H   0  0  0  0  0  0  0  0  0  0  0  0
    2.3493    0.6563    4.5611 H   0  0  0  0  0  0  0  0  0  0  0  0
    1.2058   -0.3920    3.7014 H   0  0  0  0  0  0  0  0  0  0  0  0
    3.2311    3.1267    3.4119 N   0  0  0  0  0  0  0  0  0  0  0  0
    4.3400    4.0509    3.4581 C   0  0  0  0  0  0  0  0  0  0  0  0
    2.5414    3.1763    4.1560 H   0  0  0  0  0  0  0  0  0  0  0  0
    5.1696    3.6011    4.0231 H   0  0  0  0  0  0  0  0  0  0  0  0
    4.6731    4.2752    2.4340 H   0  0  0  0  0  0  0  0  0  0  0  0
    4.0218    4.9808    3.9521 H   0  0  0  0  0  0  0  0  0  0  0  0
 18 19  1  0  0  0  0
 19 31  1  0  0  0  0
 19 20  2  0  0  0  0
  8  9  1  0  0  0  0
  9 17  1  0  0  0  0
  9 10  2  0  0  0  0
  1  3  1  0  0  0  0
  1  7  1  0  0  0  0
  1  2  2  0  0  0  0
 32 33  1  0  0  0  0
 33 41  1  0  0  0  0
 33 34  2  0  0  0  0
 21 22  1  0  0  0  0
 22 23  1  0  0  0  0
 18 21  1  0  0  0  0
 17 23  1  0  0  0  0
 17 18  1  0  0  0  0
  8 11  1  0  0  0  0
 32 35  1  0  0  0  0
 41 42  1  0  0  0  0
  7  8  1  0  0  0  0
 31 32  1  0  0  0  0
 22 27  1  0  0  0  0
 22 28  1  0  0  0  0
 21 25  1  0  0  0  0
 21 26  1  0  0  0  0
 23 29  1  0  0  0  0
 23 30  1  0  0  0  0
 18 24  1  0  0  0  0
  3  4  1  0  0  0  0
  3  5  1  0  0  0  0
  3  6  1  0  0  0  0
 11 14  1  0  0  0  0
 11 15  1  0  0  0  0
 11 16  1  0  0  0  0
 35 38  1  0  0  0  0
 35 39  1  0  0  0  0
 35 40  1  0  0  0  0
 42 44  1  0  0  0  0
 42 45  1  0  0  0  0
 42 46  1  0  0  0  0
  8 13  1  0  0  0  0
 32 37  1  0  0  0  0
 31 36  1  0  0  0  0
 41 43  1  0  0  0  0
  7 12  1  0  0  0  0
M  END
$$$$

  -OEChem-05262214473D

 46 46  0     1  0  0  0  0  0999 V2000
   -0.6012   -3.2995    3.8205 C   0  0  0  0  0  0  0  0  0  0  0  0
   -0.6574   -4.4683    3.4568 O   0  0  0  0  0  0  0  0  0  0  0  0
   -0.4935   -2.9859    5.2760 C   0  0  0  0  0  0  0  0  0  0  0  0
   -1.4789   -2.8689    5.7550 H   0  0  0  0  0  0  0  0  0  0  0  0
    0.0123   -3.7847    5.8419 H   0  0  0  0  0  0  0  0  0  0  0  0
    0.0585   -2.0642    5.5199 H   0  0  0  0  0  0  0  0  0  0  0  0
   -0.6261   -2.1849    2.9917 N   0  0  0  0  0  0  0  0  0  0  0  0
   -0.7237   -2.2601    1.5650 C   0  0  2  0  0  0  0  0  0  0  0  0
    0.1695   -1.1513    1.0687 C   0  0  0  0  0  0  0  0  0  0  0  0
    0.3193   -0.1267    1.7365 O   0  0  0  0  0  0  0  0  0  0  0  0
   -2.1397   -2.0663    1.0750 C   0  0  0  0  0  0  0  0  0  0  0  0
   -0.5717   -1.2606    3.4238 H   0  0  0  0  0  0  0  0  0  0  0  0
   -0.3076   -3.2111    1.2363 H   0  0  0  0  0  0  0  0  0  0  0  0
   -2.5584   -1.1089    1.4061 H   0  0  0  0  0  0  0  0  0  0  0  0
   -2.1682   -2.0790   -0.0197 H   0  0  0  0  0  0  0  0  0  0  0  0
   -2.7965   -2.8601    1.4459 H   0  0  0  0  0  0  0  0  0  0  0  0
    0.7724   -1.3745   -0.1593 N   0  0  0  0  0  0  0  0  0  0  0  0
    1.6644   -0.4046   -0.7812 C   0  0  2  0  0  0  0  0  0  0  0  0
    1.4714    0.8971   -0.0632 C   0  0  0  0  0  0  0  0  0  0  0  0
    1.0916    1.8809   -0.6874 O   0  0  0  0  0  0  0  0  0  0  0  0
    1.2003   -0.3256   -2.2310 C   0  0  0  0  0  0  0  0  0  0  0  0
    0.6175   -1.7334   -2.1345 C   0  0  0  0  0  0  0  0  0  0  0  0
    0.7499   -2.6270   -0.9105 C   0  0  0  0  0  0  0  0  0  0  0  0
    2.7098   -0.7112   -0.6800 H   0  0  0  0  0  0  0  0  0  0  0  0
    2.0659   -0.2245   -2.8965 H   0  0  0  0  0  0  0  0  0  0  0  0
    0.5120    0.5027   -2.4257 H   0  0  0  0  0  0  0  0  0  0  0  0
   -0.4746   -1.7010   -2.2227 H   0  0  0  0  0  0  0  0  0  0  0  0
    1.0050   -2.3951   -2.9143 H   0  0  0  0  0  0  0  0  0  0  0  0
   -0.0890   -3.3199   -0.8019 H   0  0  0  0  0  0  0  0  0  0  0  0
    1.6844   -3.1980   -0.9346 H   0  0  0  0  0  0  0  0  0  0  0  0
    1.7439    0.8804    1.2647 N   0  0  0  0  0  0  0  0  0  0  0  0
    2.3324    1.5199    2.4196 C   0  0  2  0  0  0  0  0  0  0  0  0
    3.3719    2.5176    1.9260 C   0  0  0  0  0  0  0  0  0  0  0  0
    3.9089    2.4365    0.8232 O   0  0  0  0  0  0  0  0  0  0  0  0
    2.9601    0.5000    3.3570 C   0  0  0  0  0  0  0  0  0  0  0  0
    0.7397    0.9526    1.1314 H   0  0  0  0  0  0  0  0  0  0  0  0
    1.5248    2.0556    2.9303 H   0  0  0  0  0  0  0  0  0  0  0  0
    3.7714   -0.0467    2.8627 H   0  0  0  0  0  0  0  0  0  0  0  0
    3.3803    0.9834    4.2452 H   0  0  0  0  0  0  0  0  0  0  0  0
    2.2176   -0.2343    3.6875 H   0  0  0  0  0  0  0  0  0  0  0  0
    3.6610    3.4844    2.8788 N   0  0  0  0  0  0  0  0  0  0  0  0
    4.6249    4.5364    2.6545 C   0  0  0  0  0  0  0  0  0  0  0  0
    3.1538    3.4861    3.7588 H   0  0  0  0  0  0  0  0  0  0  0  0
    5.6100    4.2168    3.0252 H   0  0  0  0  0  0  0  0  0  0  0  0
    4.6902    4.7502    1.5775 H   0  0  0  0  0  0  0  0  0  0  0  0
    4.3085    5.4437    3.1900 H   0  0  0  0  0  0  0  0  0  0  0  0
 18 19  1  0  0  0  0
 19 31  1  0  0  0  0
 19 20  2  0  0  0  0
  8  9  1  0  0  0  0
  9 17  1  0  0  0  0
  9 10  2  0  0  0  0
  1  3  1  0  0  0  0
  1  7  1  0  0  0  0
  1  2  2  0  0  0  0
 32 33  1  0  0  0  0
 33 41  1  0  0  0  0
 33 34  2  0  0  0  0
 21 22  1  0  0  0  0
 22 23  1  0  0  0  0
 18 21  1  0  0  0  0
 17 23  1  0  0  0  0
 17 18  1  0  0  0  0
  8 11  1  0  0  0  0
 32 35  1  0  0  0  0
 41 42  1  0  0  0  0
  7  8  1  0  0  0  0
 31 32  1  0  0  0  0
 22 27  1  0  0  0  0
 22 28  1  0  0  0  0
 21 25  1  0  0  0  0
 21 26  1  0  0  0  0
 23 29  1  0  0  0  0
 23 30  1  0  0  0  0
 18 24  1  0  0  0  0
  3  4  1  0  0  0  0
  3  5  1  0  0  0  0
  3  6  1  0  0  0  0
 11 14  1  0  0  0  0
 11 15  1  0  0  0  0
 11 16  1  0  0  0  0
 35 38  1  0  0  0  0
 35 39  1  0  0  0  0
 35 40  1  0  0  0  0
 42 44  1  0  0  0  0
 42 45  1  0  0  0  0
 42 46  1  0  0  0  0
  8 13  1  0  0  0  0
 32 37  1  0  0  0  0
 31 36  1  0  0  0  0
 41 43  1  0  0  0  0
  7 12  1  0  0  0  0
M  END
$$$$

  -OEChem-05262214473D

 46 46  0     1  0  0  0  0  0999 V2000
   -0.6012   -3.2995    3.8205 C   0  0  0  0  0  0  0  0  0  0  0  0
   -0.6574   -4.4683    3.4568 O   0  0  0  0  0  0  0  0  0  0  0  0
   -0.4935   -2.9859    5.2760 C   0  0  0  0  0  0  0  0  0  0  0  0
   -1.4789   -2.8689    5.7550 H   0  0  0  0  0  0  0  0  0  0  0  0
    0.0123   -3.7847    5.8419 H   0  0  0  0  0  0  0  0  0  0  0  0
    0.0585   -2.0642    5.5199 H   0  0  0  0  0  0  0  0  0  0  0  0
   -0.6261   -2.1849    2.9917 N   0  0  0  0  0  0  0  0  0  0  0  0
   -0.7237   -2.2601    1.5650 C   0  0  2  0  0  0  0  0  0  0  0  0
    0.1695   -1.1513    1.0687 C   0  0  0  0  0  0  0  0  0  0  0  0
    0.3193   -0.1267    1.7365 O   0  0  0  0  0  0  0  0  0  0  0  0
   -2.1397   -2.0663    1.0750 C   0  0  0  0  0  0  0  0  0  0  0  0
   -0.5717   -1.2606    3.4238 H   0  0  0  0  0  0  0  0  0  0  0  0
   -0.3076   -3.2111    1.2363 H   0  0  0  0  0  0  0  0  0  0  0  0
   -2.5584   -1.1089    1.4061 H   0  0  0  0  0  0  0  0  0  0  0  0
   -2.1682   -2.0790   -0.0197 H   0  0  0  0  0  0  0  0  0  0  0  0
   -2.7965   -2.8601    1.4459 H   0  0  0  0  0  0  0  0  0  0  0  0
    0.7724   -1.3745   -0.1593 N   0  0  0  0  0  0  0  0  0  0  0  0
    1.6644   -0.4046   -0.7812 C   0  0  2  0  0  0  0  0  0  0  0  0
    1.4714    0.8971   -0.0632 C   0  0  0  0  0  0  0  0  0  0  0  0
    0.8396    1.7974   -0.6037 O   0  0  0  0  0  0  0  0  0  0  0  0
    1.2003   -0.3256   -2.2310 C   0  0  0  0  0  0  0  0  0  0  0  0
    0.6175   -1.7334   -2.1345 C   0  0  0  0  0  0  0  0  0  0  0  0
    0.7499   -2.6270   -0.9105 C   0  0  0  0  0  0  0  0  0  0  0  0
    2.7098   -0.7112   -0.6800 H   0  0  0  0  0  0  0  0  0  0  0  0
    2.0659   -0.2245   -2.8965 H   0  0  0  0  0  0  0  0  0  0  0  0
    0.5120    0.5027   -2.4257 H   0  0  0  0  0  0  0  0  0  0  0  0
   -0.4746   -1.7010   -2.2227 H   0  0  0  0  0  0  0  0  0  0  0  0
    1.0050   -2.3951   -2.9143 H   0  0  0  0  0  0  0  0  0  0  0  0
   -0.0890   -3.3199   -0.8019 H   0  0  0  0  0  0  0  0  0  0  0  0
    1.6844   -3.1980   -0.9346 H   0  0  0  0  0  0  0  0  0  0  0  0
    2.0326    0.9763    1.1684 N   0  0  0  0  0  0  0  0  0  0  0  0
    2.7768    1.7360    2.1472 C   0  0  2  0  0  0  0  0  0  0  0  0
    3.5440    2.8268    1.4116 C   0  0  0  0  0  0  0  0  0  0  0  0
    3.8279    2.7586    0.2176 O   0  0  0  0  0  0  0  0  0  0  0  0
    3.7224    0.8446    2.9371 C   0  0  0  0  0  0  0  0  0  0  0  0
    1.0231    0.9210    1.2650 H   0  0  0  0  0  0  0  0  0  0  0  0
    2.0415    2.1944    2.8174 H   0  0  0  0  0  0  0  0  0  0  0  0
    4.4664    0.3765    2.2822 H   0  0  0  0  0  0  0  0  0  0  0  0
    4.2645    1.4166    3.6974 H   0  0  0  0  0  0  0  0  0  0  0  0
    3.1722    0.0429    3.4414 H   0  0  0  0  0  0  0  0  0  0  0  0
    3.9120    3.8655    2.2553 N   0  0  0  0  0  0  0  0  0  0  0  0
    4.6593    5.0138    1.7982 C   0  0  0  0  0  0  0  0  0  0  0  0
    3.6176    3.8480    3.2273 H   0  0  0  0  0  0  0  0  0  0  0  0
    5.7348    4.8329    1.9417 H   0  0  0  0  0  0  0  0  0  0  0  0
    4.4553    5.1825    0.7305 H   0  0  0  0  0  0  0  0  0  0  0  0
    4.3568    5.9009    2.3739 H   0  0  0  0  0  0  0  0  0  0  0  0
 18 19  1  0  0  0  0
 19 31  1  0  0  0  0
 19 20  2  0  0  0  0
  8  9  1  0  0  0  0
  9 17  1  0  0  0  0
  9 10  2  0  0  0  0
  1  3  1  0  0  0  0
  1  7  1  0  0  0  0
  1  2  2  0  0  0  0
 32 33  1  0  0  0  0
 33 41  1  0  0  0  0
 33 34  2  0  0  0  0
 21 22  1  0  0  0  0
 22 23  1  0  0  0  0
 18 21  1  0  0  0  0
 17 23  1  0  0  0  0
 17 18  1  0  0  0  0
  8 11  1  0  0  0  0
 32 35  1  0  0  0  0
 41 42  1  0  0  0  0
  7  8  1  0  0  0  0
 31 32  1  0  0  0  0
 22 27  1  0  0  0  0
 22 28  1  0  0  0  0
 21 25  1  0  0  0  0
 21 26  1  0  0  0  0
 23 29  1  0  0  0  0
 23 30  1  0  0  0  0
 18 24  1  0  0  0  0
  3  4  1  0  0  0  0
  3  5  1  0  0  0  0
  3  6  1  0  0  0  0
 11 14  1  0  0  0  0
 11 15  1  0  0  0  0
 11 16  1  0  0  0  0
 35 38  1  0  0  0  0
 35 39  1  0  0  0  0
 35 40  1  0  0  0  0
 42 44  1  0  0  0  0
 42 45  1  0  0  0  0
 42 46  1  0  0  0  0
  8 13  1  0  0  0  0
 32 37  1  0  0  0  0
 31 36  1  0  0  0  0
 41 43  1  0  0  0  0
  7 12  1  0  0  0  0
M  END
$$$$

  -OEChem-05262214473D

 46 46  0     1  0  0  0  0  0999 V2000
   -0.6012   -3.2995    3.8205 C   0  0  0  0  0  0  0  0  0  0  0  0
   -0.6574   -4.4683    3.4568 O   0  0  0  0  0  0  0  0  0  0  0  0
   -0.4935   -2.9859    5.2760 C   0  0  0  0  0  0  0  0  0  0  0  0
   -1.4789   -2.8689    5.7550 H   0  0  0  0  0  0  0  0  0  0  0  0
    0.0123   -3.7847    5.8419 H   0  0  0  0  0  0  0  0  0  0  0  0
    0.0585   -2.0642    5.5199 H   0  0  0  0  0  0  0  0  0  0  0  0
   -0.6261   -2.1849    2.9917 N   0  0  0  0  0  0  0  0  0  0  0  0
   -0.7237   -2.2601    1.5650 C   0  0  2  0  0  0  0  0  0  0  0  0
    0.1695   -1.1513    1.0687 C   0  0  0  0  0  0  0  0  0  0  0  0
    0.3193   -0.1267    1.7365 O   0  0  0  0  0  0  0  0  0  0  0  0
   -2.1397   -2.0663    1.0750 C   0  0  0  0  0  0  0  0  0  0  0  0
   -0.5717   -1.2606    3.4238 H   0  0  0  0  0  0  0  0  0  0  0  0
   -0.3076   -3.2111    1.2363 H   0  0  0  0  0  0  0  0  0  0  0  0
   -2.5584   -1.1089    1.4061 H   0  0  0  0  0  0  0  0  0  0  0  0
   -2.1682   -2.0790   -0.0197 H   0  0  0  0  0  0  0  0  0  0  0  0
   -2.7965   -2.8601    1.4459 H   0  0  0  0  0  0  0  0  0  0  0  0
    0.7724   -1.3745   -0.1593 N   0  0  0  0  0  0  0  0  0  0  0  0
    1.6644   -0.4046   -0.7812 C   0  0  2  0  0  0  0  0  0  0  0  0
    1.4714    0.8971   -0.0632 C   0  0  0  0  0  0  0  0  0  0  0  0
    0.6254    1.6882   -0.4634 O   0  0  0  0  0  0  0  0  0  0  0  0
    1.2003   -0.3256   -2.2310 C   0  0  0  0  0  0  0  0  0  0  0  0
    0.6175   -1.7334   -2.1345 C   0  0  0  0  0  0  0  0  0  0  0  0
    0.7499   -2.6270   -0.9105 C   0  0  0  0  0  0  0  0  0  0  0  0
    2.7098   -0.7112   -0.6800 H   0  0  0  0  0  0  0  0  0  0  0  0
    2.0659   -0.2245   -2.8965 H   0  0  0  0  0  0  0  0  0  0  0  0
    0.5120    0.5027   -2.4257 H   0  0  0  0  0  0  0  0  0  0  0  0
   -0.4746   -1.7010   -2.2227 H   0  0  0  0  0  0  0  0  0  0  0  0
    1.0050   -2.3951   -2.9143 H   0  0  0  0  0  0  0  0  0  0  0  0
   -0.0890   -3.3199   -0.8019 H   0  0  0  0  0  0  0  0  0  0  0  0
    1.6844   -3.1980   -0.9346 H   0  0  0  0  0  0  0  0  0  0  0  0
    2.2779    1.1016    1.0072 N   0  0  0  0  0  0  0  0  0  0  0  0
    3.1180    1.9908    1.7769 C   0  0  2  0  0  0  0  0  0  0  0  0
    3.5564    3.1297    0.8658 C   0  0  0  0  0  0  0  0  0  0  0  0
    3.5736    3.0394   -0.3600 O   0  0  0  0  0  0  0  0  0  0  0  0
    4.3217    1.2580    2.3487 C   0  0  0  0  0  0  0  0  0  0  0  0
    1.3308    0.9300    1.3314 H   0  0  0  0  0  0  0  0  0  0  0  0
    2.4981    2.3888    2.5876 H   0  0  0  0  0  0  0  0  0  0  0  0
    4.9548    0.8521    1.5512 H   0  0  0  0  0  0  0  0  0  0  0  0
    4.9419    1.9264    2.9551 H   0  0  0  0  0  0  0  0  0  0  0  0
    4.0046    0.4208    2.9799 H   0  0  0  0  0  0  0  0  0  0  0  0
    3.9672    4.2440    1.5840 N   0  0  0  0  0  0  0  0  0  0  0  0
    4.4409    5.4507    0.9473 C   0  0  0  0  0  0  0  0  0  0  0  0
    3.9012    4.2374    2.5976 H   0  0  0  0  0  0  0  0  0  0  0  0
    5.5355    5.4073    0.8466 H   0  0  0  0  0  0  0  0  0  0  0  0
    3.9845    5.5428   -0.0493 H   0  0  0  0  0  0  0  0  0  0  0  0
    4.1634    6.3214    1.5596 H   0  0  0  0  0  0  0  0  0  0  0  0
 18 19  1  0  0  0  0
 19 31  1  0  0  0  0
 19 20  2  0  0  0  0
  8  9  1  0  0  0  0
  9 17  1  0  0  0  0
  9 10  2  0  0  0  0
  1  3  1  0  0  0  0
  1  7  1  0  0  0  0
  1  2  2  0  0  0  0
 32 33  1  0  0  0  0
 33 41  1  0  0  0  0
 33 34  2  0  0  0  0
 21 22  1  0  0  0  0
 22 23  1  0  0  0  0
 18 21  1  0  0  0  0
 17 23  1  0  0  0  0
 17 18  1  0  0  0  0
  8 11  1  0  0  0  0
 32 35  1  0  0  0  0
 41 42  1  0  0  0  0
  7  8  1  0  0  0  0
 31 32  1  0  0  0  0
 22 27  1  0  0  0  0
 22 28  1  0  0  0  0
 21 25  1  0  0  0  0
 21 26  1  0  0  0  0
 23 29  1  0  0  0  0
 23 30  1  0  0  0  0
 18 24  1  0  0  0  0
  3  4  1  0  0  0  0
  3  5  1  0  0  0  0
  3  6  1  0  0  0  0
 11 14  1  0  0  0  0
 11 15  1  0  0  0  0
 11 16  1  0  0  0  0
 35 38  1  0  0  0  0
 35 39  1  0  0  0  0
 35 40  1  0  0  0  0
 42 44  1  0  0  0  0
 42 45  1  0  0  0  0
 42 46  1  0  0  0  0
  8 13  1  0  0  0  0
 32 37  1  0  0  0  0
 31 36  1  0  0  0  0
 41 43  1  0  0  0  0
  7 12  1  0  0  0  0
M  END
$$$$

  -OEChem-05262214473D

 46 46  0     1  0  0  0  0  0999 V2000
   -0.6012   -3.2995    3.8205 C   0  0  0  0  0  0  0  0  0  0  0  0
   -0.6574   -4.4683    3.4568 O   0  0  0  0  0  0  0  0  0  0  0  0
   -0.4935   -2.9859    5.2760 C   0  0  0  0  0  0  0  0  0  0  0  0
   -1.4789   -2.8689    5.7550 H   0  0  0  0  0  0  0  0  0  0  0  0
    0.0123   -3.7847    5.8419 H   0  0  0  0  0  0  0  0  0  0  0  0
    0.0585   -2.0642    5.5199 H   0  0  0  0  0  0  0  0  0  0  0  0
   -0.6261   -2.1849    2.9917 N   0  0  0  0  0  0  0  0  0  0  0  0
   -0.7237   -2.2601    1.5650 C   0  0  2  0  0  0  0  0  0  0  0  0
    0.1695   -1.1513    1.0687 C   0  0  0  0  0  0  0  0  0  0  0  0
    0.3193   -0.1267    1.7365 O   0  0  0  0  0  0  0  0  0  0  0  0
   -2.1397   -2.0663    1.0750 C   0  0  0  0  0  0  0  0  0  0  0  0
   -0.5717   -1.2606    3.4238 H   0  0  0  0  0  0  0  0  0  0  0  0
   -0.3076   -3.2111    1.2363 H   0  0  0  0  0  0  0  0  0  0  0  0
   -2.5584   -1.1089    1.4061 H   0  0  0  0  0  0  0  0  0  0  0  0
   -2.1682   -2.0790   -0.0197 H   0  0  0  0  0  0  0  0  0  0  0  0
   -2.7965   -2.8601    1.4459 H   0  0  0  0  0  0  0  0  0  0  0  0
    0.7724   -1.3745   -0.1593 N   0  0  0  0  0  0  0  0  0  0  0  0
    1.6644   -0.4046   -0.7812 C   0  0  2  0  0  0  0  0  0  0  0  0
    1.4714    0.8971   -0.0632 C   0  0  0  0  0  0  0  0  0  0  0  0
    0.4636    1.5610   -0.2761 O   0  0  0  0  0  0  0  0  0  0  0  0
    1.2003   -0.3256   -2.2310 C   0  0  0  0  0  0  0  0  0  0  0  0
    0.6175   -1.7334   -2.1345 C   0  0  0  0  0  0  0  0  0  0  0  0
    0.7499   -2.6270   -0.9105 C   0  0  0  0  0  0  0  0  0  0  0  0
    2.7098   -0.7112   -0.6800 H   0  0  0  0  0  0  0  0  0  0  0  0
    2.0659   -0.2245   -2.8965 H   0  0  0  0  0  0  0  0  0  0  0  0
    0.5120    0.5027   -2.4257 H   0  0  0  0  0  0  0  0  0  0  0  0
   -0.4746   -1.7010   -2.2227 H   0  0  0  0  0  0  0  0  0  0  0  0
    1.0050   -2.3951   -2.9143 H   0  0  0  0  0  0  0  0  0  0  0  0
   -0.0890   -3.3199   -0.8019 H   0  0  0  0  0  0  0  0  0  0  0  0
    1.6844   -3.1980   -0.9346 H   0  0  0  0  0  0  0  0  0  0  0  0
    2.4631    1.2476    0.7923 N   0  0  0  0  0  0  0  0  0  0  0  0
    3.3328    2.2668    1.3342 C   0  0  2  0  0  0  0  0  0  0  0  0
    3.4081    3.4056    0.3257 C   0  0  0  0  0  0  0  0  0  0  0  0
    3.1633    3.2600   -0.8701 O   0  0  0  0  0  0  0  0  0  0  0  0
    4.7171    1.7120    1.6319 C   0  0  0  0  0  0  0  0  0  0  0  0
    1.6418    0.9790    1.3260 H   0  0  0  0  0  0  0  0  0  0  0  0
    2.8633    2.6256    2.2566 H   0  0  0  0  0  0  0  0  0  0  0  0
    5.2032    1.3477    0.7195 H   0  0  0  0  0  0  0  0  0  0  0  0
    5.3661    2.4781    2.0689 H   0  0  0  0  0  0  0  0  0  0  0  0
    4.6581    0.8737    2.3344 H   0  0  0  0  0  0  0  0  0  0  0  0
    3.8227    4.5940    0.9105 N   0  0  0  0  0  0  0  0  0  0  0  0
    3.9846    5.8173    0.1600 C   0  0  0  0  0  0  0  0  0  0  0  0
    3.9854    4.6277    1.9126 H   0  0  0  0  0  0  0  0  0  0  0  0
    5.0256    5.9011   -0.1855 H   0  0  0  0  0  0  0  0  0  0  0  0
    3.3098    5.8065   -0.7086 H   0  0  0  0  0  0  0  0  0  0  0  0
    3.7415    6.6765    0.8025 H   0  0  0  0  0  0  0  0  0  0  0  0
 18 19  1  0  0  0  0
 19 31  1  0  0  0  0
 19 20  2  0  0  0  0
  8  9  1  0  0  0  0
  9 17  1  0  0  0  0
  9 10  2  0  0  0  0
  1  3  1  0  0  0  0
  1  7  1  0  0  0  0
  1  2  2  0  0  0  0
 32 33  1  0  0  0  0
 33 41  1  0  0  0  0
 33 34  2  0  0  0  0
 21 22  1  0  0  0  0
 22 23  1  0  0  0  0
 18 21  1  0  0  0  0
 17 23  1  0  0  0  0
 17 18  1  0  0  0  0
  8 11  1  0  0  0  0
 32 35  1  0  0  0  0
 41 42  1  0  0  0  0
  7  8  1  0  0  0  0
 31 32  1  0  0  0  0
 22 27  1  0  0  0  0
 22 28  1  0  0  0  0
 21 25  1  0  0  0  0
 21 26  1  0  0  0  0
 23 29  1  0  0  0  0
 23 30  1  0  0  0  0
 18 24  1  0  0  0  0
  3  4  1  0  0  0  0
  3  5  1  0  0  0  0
  3  6  1  0  0  0  0
 11 14  1  0  0  0  0
 11 15  1  0  0  0  0
 11 16  1  0  0  0  0
 35 38  1  0  0  0  0
 35 39  1  0  0  0  0
 35 40  1  0  0  0  0
 42 44  1  0  0  0  0
 42 45  1  0  0  0  0
 42 46  1  0  0  0  0
  8 13  1  0  0  0  0
 32 37  1  0  0  0  0
 31 36  1  0  0  0  0
 41 43  1  0  0  0  0
  7 12  1  0  0  0  0
M  END
$$$$

  -OEChem-05262214473D

 46 46  0     1  0  0  0  0  0999 V2000
   -0.6012   -3.2995    3.8205 C   0  0  0  0  0  0  0  0  0  0  0  0
   -0.6574   -4.4683    3.4568 O   0  0  0  0  0  0  0  0  0  0  0  0
   -0.4935   -2.9859    5.2760 C   0  0  0  0  0  0  0  0  0  0  0  0
   -1.4789   -2.8689    5.7550 H   0  0  0  0  0  0  0  0  0  0  0  0
    0.0123   -3.7847    5.8419 H   0  0  0  0  0  0  0  0  0  0  0  0
    0.0585   -2.0642    5.5199 H   0  0  0  0  0  0  0  0  0  0  0  0
   -0.6261   -2.1849    2.9917 N   0  0  0  0  0  0  0  0  0  0  0  0
   -0.7237   -2.2601    1.5650 C   0  0  2  0  0  0  0  0  0  0  0  0
    0.1695   -1.1513    1.0687 C   0  0  0  0  0  0  0  0  0  0  0  0
    0.3193   -0.1267    1.7365 O   0  0  0  0  0  0  0  0  0  0  0  0
   -2.1397   -2.0663    1.0750 C   0  0  0  0  0  0  0  0  0  0  0  0
   -0.5717   -1.2606    3.4238 H   0  0  0  0  0  0  0  0  0  0  0  0
   -0.3076   -3.2111    1.2363 H   0  0  0  0  0  0  0  0  0  0  0  0
   -2.5584   -1.1089    1.4061 H   0  0  0  0  0  0  0  0  0  0  0  0
   -2.1682   -2.0790   -0.0197 H   0  0  0  0  0  0  0  0  0  0  0  0
   -2.7965   -2.8601    1.4459 H   0  0  0  0  0  0  0  0  0  0  0  0
    0.7724   -1.3745   -0.1593 N   0  0  0  0  0  0  0  0  0  0  0  0
    1.6644   -0.4046   -0.7812 C   0  0  2  0  0  0  0  0  0  0  0  0
    1.4714    0.8971   -0.0632 C   0  0  0  0  0  0  0  0  0  0  0  0
    0.3652    1.4242   -0.0546 O   0  0  0  0  0  0  0  0  0  0  0  0
    1.2003   -0.3256   -2.2310 C   0  0  0  0  0  0  0  0  0  0  0  0
    0.6175   -1.7334   -2.1345 C   0  0  0  0  0  0  0  0  0  0  0  0
    0.7499   -2.6270   -0.9105 C   0  0  0  0  0  0  0  0  0  0  0  0
    2.7098   -0.7112   -0.6800 H   0  0  0  0  0  0  0  0  0  0  0  0
    2.0659   -0.2245   -2.8965 H   0  0  0  0  0  0  0  0  0  0  0  0
    0.5120    0.5027   -2.4257 H   0  0  0  0  0  0  0  0  0  0  0  0
   -0.4746   -1.7010   -2.2227 H   0  0  0  0  0  0  0  0  0  0  0  0
    1.0050   -2.3951   -2.9143 H   0  0  0  0  0  0  0  0  0  0  0  0
   -0.0890   -3.3199   -0.8019 H   0  0  0  0  0  0  0  0  0  0  0  0
    1.6844   -3.1980   -0.9346 H   0  0  0  0  0  0  0  0  0  0  0  0
    2.5755    1.4044    0.5382 N   0  0  0  0  0  0  0  0  0  0  0  0
    3.4065    2.5454    0.8490 C   0  0  2  0  0  0  0  0  0  0  0  0
    3.1093    3.6358   -0.1718 C   0  0  0  0  0  0  0  0  0  0  0  0
    2.6251    3.4051   -1.2779 O   0  0  0  0  0  0  0  0  0  0  0  0
    4.8816    2.1756    0.8355 C   0  0  0  0  0  0  0  0  0  0  0  0
    1.9350    1.0648    1.2493 H   0  0  0  0  0  0  0  0  0  0  0  0
    3.1123    2.8885    1.8469 H   0  0  0  0  0  0  0  0  0  0  0  0
    5.1949    1.8295   -0.1562 H   0  0  0  0  0  0  0  0  0  0  0  0
    5.5083    3.0340    1.0991 H   0  0  0  0  0  0  0  0  0  0  0  0
    5.0882    1.3706    1.5490 H   0  0  0  0  0  0  0  0  0  0  0  0
    3.4883    4.8918    0.2808 N   0  0  0  0  0  0  0  0  0  0  0  0
    3.3214    6.0887   -0.5101 C   0  0  0  0  0  0  0  0  0  0  0  0
    3.8644    4.9923    1.2190 H   0  0  0  0  0  0  0  0  0  0  0  0
    4.2399    6.2804   -1.0844 H   0  0  0  0  0  0  0  0  0  0  0  0
    2.4772    5.9556   -1.2027 H   0  0  0  0  0  0  0  0  0  0  0  0
    3.1197    6.9419    0.1542 H   0  0  0  0  0  0  0  0  0  0  0  0
 18 19  1  0  0  0  0
 19 31  1  0  0  0  0
 19 20  2  0  0  0  0
  8  9  1  0  0  0  0
  9 17  1  0  0  0  0
  9 10  2  0  0  0  0
  1  3  1  0  0  0  0
  1  7  1  0  0  0  0
  1  2  2  0  0  0  0
 32 33  1  0  0  0  0
 33 41  1  0  0  0  0
 33 34  2  0  0  0  0
 21 22  1  0  0  0  0
 22 23  1  0  0  0  0
 18 21  1  0  0  0  0
 17 23  1  0  0  0  0
 17 18  1  0  0  0  0
  8 11  1  0  0  0  0
 32 35  1  0  0  0  0
 41 42  1  0  0  0  0
  7  8  1  0  0  0  0
 31 32  1  0  0  0  0
 22 27  1  0  0  0  0
 22 28  1  0  0  0  0
 21 25  1  0  0  0  0
 21 26  1  0  0  0  0
 23 29  1  0  0  0  0
 23 30  1  0  0  0  0
 18 24  1  0  0  0  0
  3  4  1  0  0  0  0
  3  5  1  0  0  0  0
  3  6  1  0  0  0  0
 11 14  1  0  0  0  0
 11 15  1  0  0  0  0
 11 16  1  0  0  0  0
 35 38  1  0  0  0  0
 35 39  1  0  0  0  0
 35 40  1  0  0  0  0
 42 44  1  0  0  0  0
 42 45  1  0  0  0  0
 42 46  1  0  0  0  0
  8 13  1  0  0  0  0
 32 37  1  0  0  0  0
 31 36  1  0  0  0  0
 41 43  1  0  0  0  0
  7 12  1  0  0  0  0
M  END
$$$$

  -OEChem-05262214473D

 46 46  0     1  0  0  0  0  0999 V2000
   -0.6012   -3.2995    3.8205 C   0  0  0  0  0  0  0  0  0  0  0  0
   -0.6574   -4.4683    3.4568 O   0  0  0  0  0  0  0  0  0  0  0  0
   -0.4935   -2.9859    5.2760 C   0  0  0  0  0  0  0  0  0  0  0  0
   -1.4789   -2.8689    5.7550 H   0  0  0  0  0  0  0  0  0  0  0  0
    0.0123   -3.7847    5.8419 H   0  0  0  0  0  0  0  0  0  0  0  0
    0.0585   -2.0642    5.5199 H   0  0  0  0  0  0  0  0  0  0  0  0
   -0.6261   -2.1849    2.9917 N   0  0  0  0  0  0  0  0  0  0  0  0
   -0.7237   -2.2601    1.5650 C   0  0  2  0  0  0  0  0  0  0  0  0
    0.1695   -1.1513    1.0687 C   0  0  0  0  0  0  0  0  0  0  0  0
    0.3193   -0.1267    1.7365 O   0  0  0  0  0  0  0  0  0  0  0  0
   -2.1397   -2.0663    1.0750 C   0  0  0  0  0  0  0  0  0  0  0  0
   -0.5717   -1.2606    3.4238 H   0  0  0  0  0  0  0  0  0  0  0  0
   -0.3076   -3.2111    1.2363 H   0  0  0  0  0  0  0  0  0  0  0  0
   -2.5584   -1.1089    1.4061 H   0  0  0  0  0  0  0  0  0  0  0  0
   -2.1682   -2.0790   -0.0197 H   0  0  0  0  0  0  0  0  0  0  0  0
   -2.7965   -2.8601    1.4459 H   0  0  0  0  0  0  0  0  0  0  0  0
    0.7724   -1.3745   -0.1593 N   0  0  0  0  0  0  0  0  0  0  0  0
    1.6644   -0.4046   -0.7812 C   0  0  2  0  0  0  0  0  0  0  0  0
    1.4714    0.8971   -0.0632 C   0  0  0  0  0  0  0  0  0  0  0  0
    0.3368    1.2873    0.1860 O   0  0  0  0  0  0  0  0  0  0  0  0
    1.2003   -0.3256   -2.2310 C   0  0  0  0  0  0  0  0  0  0  0  0
    0.6175   -1.7334   -2.1345 C   0  0  0  0  0  0  0  0  0  0  0  0
    0.7499   -2.6270   -0.9105 C   0  0  0  0  0  0  0  0  0  0  0  0
    2.7098   -0.7112   -0.6800 H   0  0  0  0  0  0  0  0  0  0  0  0
    2.0659   -0.2245   -2.8965 H   0  0  0  0  0  0  0  0  0  0  0  0
    0.5120    0.5027   -2.4257 H   0  0  0  0  0  0  0  0  0  0  0  0
   -0.4746   -1.7010   -2.2227 H   0  0  0  0  0  0  0  0  0  0  0  0
    1.0050   -2.3951   -2.9143 H   0  0  0  0  0  0  0  0  0  0  0  0
   -0.0890   -3.3199   -0.8019 H   0  0  0  0  0  0  0  0  0  0  0  0
    1.6844   -3.1980   -0.9346 H   0  0  0  0  0  0  0  0  0  0  0  0
    2.6076    1.5614    0.2622 N   0  0  0  0  0  0  0  0  0  0  0  0
    3.3342    2.8074    0.3545 C   0  0  2  0  0  0  0  0  0  0  0  0
    2.6803    3.8045   -0.5930 C   0  0  0  0  0  0  0  0  0  0  0  0
    1.9955    3.4651   -1.5557 O   0  0  0  0  0  0  0  0  0  0  0  0
    4.8041    2.6173    0.0138 C   0  0  0  0  0  0  0  0  0  0  0  0
    2.1902    1.1814    1.1065 H   0  0  0  0  0  0  0  0  0  0  0  0
    3.2281    3.1596    1.3864 H   0  0  0  0  0  0  0  0  0  0  0  0
    4.9303    2.2646   -1.0163 H   0  0  0  0  0  0  0  0  0  0  0  0
    5.3587    3.5563    0.1120 H   0  0  0  0  0  0  0  0  0  0  0  0
    5.2654    1.8778    0.6772 H   0  0  0  0  0  0  0  0  0  0  0  0
    2.9869    5.1170   -0.2622 N   0  0  0  0  0  0  0  0  0  0  0  0
    2.4966    6.2462   -1.0174 C   0  0  0  0  0  0  0  0  0  0  0  0
    3.5465    5.3064    0.5641 H   0  0  0  0  0  0  0  0  0  0  0  0
    3.2319    6.5194   -1.7886 H   0  0  0  0  0  0  0  0  0  0  0  0
    1.5435    5.9800   -1.4977 H   0  0  0  0  0  0  0  0  0  0  0  0
    2.3406    7.0996   -0.3411 H   0  0  0  0  0  0  0  0  0  0  0  0
 18 19  1  0  0  0  0
 19 31  1  0  0  0  0
 19 20  2  0  0  0  0
  8  9  1  0  0  0  0
  9 17  1  0  0  0  0
  9 10  2  0  0  0  0
  1  3  1  0  0  0  0
  1  7  1  0  0  0  0
  1  2  2  0  0  0  0
 32 33  1  0  0  0  0
 33 41  1  0  0  0  0
 33 34  2  0  0  0  0
 21 22  1  0  0  0  0
 22 23  1  0  0  0  0
 18 21  1  0  0  0  0
 17 23  1  0  0  0  0
 17 18  1  0  0  0  0
  8 11  1  0  0  0  0
 32 35  1  0  0  0  0
 41 42  1  0  0  0  0
  7  8  1  0  0  0  0
 31 32  1  0  0  0  0
 22 27  1  0  0  0  0
 22 28  1  0  0  0  0
 21 25  1  0  0  0  0
 21 26  1  0  0  0  0
 23 29  1  0  0  0  0
 23 30  1  0  0  0  0
 18 24  1  0  0  0  0
  3  4  1  0  0  0  0
  3  5  1  0  0  0  0
  3  6  1  0  0  0  0
 11 14  1  0  0  0  0
 11 15  1  0  0  0  0
 11 16  1  0  0  0  0
 35 38  1  0  0  0  0
 35 39  1  0  0  0  0
 35 40  1  0  0  0  0
 42 44  1  0  0  0  0
 42 45  1  0  0  0  0
 42 46  1  0  0  0  0
  8 13  1  0  0  0  0
 32 37  1  0  0  0  0
 31 36  1  0  0  0  0
 41 43  1  0  0  0  0
  7 12  1  0  0  0  0
M  END
$$$$

  -OEChem-05262214473D

 46 46  0     1  0  0  0  0  0999 V2000
   -0.6012   -3.2995    3.8205 C   0  0  0  0  0  0  0  0  0  0  0  0
   -0.6574   -4.4683    3.4568 O   0  0  0  0  0  0  0  0  0  0  0  0
   -0.4935   -2.9859    5.2760 C   0  0  0  0  0  0  0  0  0  0  0  0
   -1.4789   -2.8689    5.7550 H   0  0  0  0  0  0  0  0  0  0  0  0
    0.0123   -3.7847    5.8419 H   0  0  0  0  0  0  0  0  0  0  0  0
    0.0585   -2.0642    5.5199 H   0  0  0  0  0  0  0  0  0  0  0  0
   -0.6261   -2.1849    2.9917 N   0  0  0  0  0  0  0  0  0  0  0  0
   -0.7237   -2.2601    1.5650 C   0  0  2  0  0  0  0  0  0  0  0  0
    0.1695   -1.1513    1.0687 C   0  0  0  0  0  0  0  0  0  0  0  0
    0.3193   -0.1267    1.7365 O   0  0  0  0  0  0  0  0  0  0  0  0
   -2.1397   -2.0663    1.0750 C   0  0  0  0  0  0  0  0  0  0  0  0
   -0.5717   -1.2606    3.4238 H   0  0  0  0  0  0  0  0  0  0  0  0
   -0.3076   -3.2111    1.2363 H   0  0  0  0  0  0  0  0  0  0  0  0
   -2.5584   -1.1089    1.4061 H   0  0  0  0  0  0  0  0  0  0  0  0
   -2.1682   -2.0790   -0.0197 H   0  0  0  0  0  0  0  0  0  0  0  0
   -2.7965   -2.8601    1.4459 H   0  0  0  0  0  0  0  0  0  0  0  0
    0.7724   -1.3745   -0.1593 N   0  0  0  0  0  0  0  0  0  0  0  0
    1.6644   -0.4046   -0.7812 C   0  0  2  0  0  0  0  0  0  0  0  0
    1.4714    0.8971   -0.0632 C   0  0  0  0  0  0  0  0  0  0  0  0
    0.3805    1.1595    0.4294 O   0  0  0  0  0  0  0  0  0  0  0  0
    1.2003   -0.3256   -2.2310 C   0  0  0  0  0  0  0  0  0  0  0  0
    0.6175   -1.7334   -2.1345 C   0  0  0  0  0  0  0  0  0  0  0  0
    0.7499   -2.6270   -0.9105 C   0  0  0  0  0  0  0  0  0  0  0  0
    2.7098   -0.7112   -0.6800 H   0  0  0  0  0  0  0  0  0  0  0  0
    2.0659   -0.2245   -2.8965 H   0  0  0  0  0  0  0  0  0  0  0  0
    0.5120    0.5027   -2.4257 H   0  0  0  0  0  0  0  0  0  0  0  0
   -0.4746   -1.7010   -2.2227 H   0  0  0  0  0  0  0  0  0  0  0  0
    1.0050   -2.3951   -2.9143 H   0  0  0  0  0  0  0  0  0  0  0  0
   -0.0890   -3.3199   -0.8019 H   0  0  0  0  0  0  0  0  0  0  0  0
    1.6844   -3.1980   -0.9346 H   0  0  0  0  0  0  0  0  0  0  0  0
    2.5571    1.7078   -0.0168 N   0  0  0  0  0  0  0  0  0  0  0  0
    3.1207    3.0350   -0.1156 C   0  0  2  0  0  0  0  0  0  0  0  0
    2.1504    3.9002   -0.9089 C   0  0  0  0  0  0  0  0  0  0  0  0
    1.3176    3.4356   -1.6846 O   0  0  0  0  0  0  0  0  0  0  0  0
    4.4898    3.0070   -0.7771 C   0  0  0  0  0  0  0  0  0  0  0  0
    2.3903    1.3209    0.9073 H   0  0  0  0  0  0  0  0  0  0  0  0
    3.2029    3.4206    0.9065 H   0  0  0  0  0  0  0  0  0  0  0  0
    4.4275    2.6235   -1.8021 H   0  0  0  0  0  0  0  0  0  0  0  0
    4.9277    4.0094   -0.8254 H   0  0  0  0  0  0  0  0  0  0  0  0
    5.1779    2.3606   -0.2217 H   0  0  0  0  0  0  0  0  0  0  0  0
    2.3527    5.2543   -0.6815 N   0  0  0  0  0  0  0  0  0  0  0  0
    1.5663    6.2793   -1.3273 C   0  0  0  0  0  0  0  0  0  0  0  0
    3.0532    5.5486   -0.0075 H   0  0  0  0  0  0  0  0  0  0  0  0
    2.0704    6.6019   -2.2503 H   0  0  0  0  0  0  0  0  0  0  0  0
    0.5723    5.8779   -1.5737 H   0  0  0  0  0  0  0  0  0  0  0  0
    1.4571    7.1389   -0.6497 H   0  0  0  0  0  0  0  0  0  0  0  0
 18 19  1  0  0  0  0
 19 31  1  0  0  0  0
 19 20  2  0  0  0  0
  8  9  1  0  0  0  0
  9 17  1  0  0  0  0
  9 10  2  0  0  0  0
  1  3  1  0  0  0  0
  1  7  1  0  0  0  0
  1  2  2  0  0  0  0
 32 33  1  0  0  0  0
 33 41  1  0  0  0  0
 33 34  2  0  0  0  0
 21 22  1  0  0  0  0
 22 23  1  0  0  0  0
 18 21  1  0  0  0  0
 17 23  1  0  0  0  0
 17 18  1  0  0  0  0
  8 11  1  0  0  0  0
 32 35  1  0  0  0  0
 41 42  1  0  0  0  0
  7  8  1  0  0  0  0
 31 32  1  0  0  0  0
 22 27  1  0  0  0  0
 22 28  1  0  0  0  0
 21 25  1  0  0  0  0
 21 26  1  0  0  0  0
 23 29  1  0  0  0  0
 23 30  1  0  0  0  0
 18 24  1  0  0  0  0
  3  4  1  0  0  0  0
  3  5  1  0  0  0  0
  3  6  1  0  0  0  0
 11 14  1  0  0  0  0
 11 15  1  0  0  0  0
 11 16  1  0  0  0  0
 35 38  1  0  0  0  0
 35 39  1  0  0  0  0
 35 40  1  0  0  0  0
 42 44  1  0  0  0  0
 42 45  1  0  0  0  0
 42 46  1  0  0  0  0
  8 13  1  0  0  0  0
 32 37  1  0  0  0  0
 31 36  1  0  0  0  0
 41 43  1  0  0  0  0
  7 12  1  0  0  0  0
M  END
$$$$

  -OEChem-05262214473D

 46 46  0     1  0  0  0  0  0999 V2000
   -0.6012   -3.2995    3.8205 C   0  0  0  0  0  0  0  0  0  0  0  0
   -0.6574   -4.4683    3.4568 O   0  0  0  0  0  0  0  0  0  0  0  0
   -0.4935   -2.9859    5.2760 C   0  0  0  0  0  0  0  0  0  0  0  0
   -1.4789   -2.8689    5.7550 H   0  0  0  0  0  0  0  0  0  0  0  0
    0.0123   -3.7847    5.8419 H   0  0  0  0  0  0  0  0  0  0  0  0
    0.0585   -2.0642    5.5199 H   0  0  0  0  0  0  0  0  0  0  0  0
   -0.6261   -2.1849    2.9917 N   0  0  0  0  0  0  0  0  0  0  0  0
   -0.7237   -2.2601    1.5650 C   0  0  2  0  0  0  0  0  0  0  0  0
    0.1695   -1.1513    1.0687 C   0  0  0  0  0  0  0  0  0  0  0  0
    0.3193   -0.1267    1.7365 O   0  0  0  0  0  0  0  0  0  0  0  0
   -2.1397   -2.0663    1.0750 C   0  0  0  0  0  0  0  0  0  0  0  0
   -0.5717   -1.2606    3.4238 H   0  0  0  0  0  0  0  0  0  0  0  0
   -0.3076   -3.2111    1.2363 H   0  0  0  0  0  0  0  0  0  0  0  0
   -2.5584   -1.1089    1.4061 H   0  0  0  0  0  0  0  0  0  0  0  0
   -2.1682   -2.0790   -0.0197 H   0  0  0  0  0  0  0  0  0  0  0  0
   -2.7965   -2.8601    1.4459 H   0  0  0  0  0  0  0  0  0  0  0  0
    0.7724   -1.3745   -0.1593 N   0  0  0  0  0  0  0  0  0  0  0  0
    1.6644   -0.4046   -0.7812 C   0  0  2  0  0  0  0  0  0  0  0  0
    1.4714    0.8971   -0.0632 C   0  0  0  0  0  0  0  0  0  0  0  0
    0.4932    1.0496    0.6589 O   0  0  0  0  0  0  0  0  0  0  0  0
    1.2003   -0.3256   -2.2310 C   0  0  0  0  0  0  0  0  0  0  0  0
    0.6175   -1.7334   -2.1345 C   0  0  0  0  0  0  0  0  0  0  0  0
    0.7499   -2.6270   -0.9105 C   0  0  0  0  0  0  0  0  0  0  0  0
    2.7098   -0.7112   -0.6800 H   0  0  0  0  0  0  0  0  0  0  0  0
    2.0659   -0.2245   -2.8965 H   0  0  0  0  0  0  0  0  0  0  0  0
    0.5120    0.5027   -2.4257 H   0  0  0  0  0  0  0  0  0  0  0  0
   -0.4746   -1.7010   -2.2227 H   0  0  0  0  0  0  0  0  0  0  0  0
    1.0050   -2.3951   -2.9143 H   0  0  0  0  0  0  0  0  0  0  0  0
   -0.0890   -3.3199   -0.8019 H   0  0  0  0  0  0  0  0  0  0  0  0
    1.6844   -3.1980   -0.9346 H   0  0  0  0  0  0  0  0  0  0  0  0
    2.4275    1.8336   -0.2798 N   0  0  0  0  0  0  0  0  0  0  0  0
    2.7806    3.2128   -0.5292 C   0  0  2  0  0  0  0  0  0  0  0  0
    1.5557    3.9164   -1.0982 C   0  0  0  0  0  0  0  0  0  0  0  0
    0.6374    3.3189   -1.6557 O   0  0  0  0  0  0  0  0  0  0  0  0
    3.9601    3.3181   -1.4834 C   0  0  0  0  0  0  0  0  0  0  0  0
    2.5214    1.4738    0.6652 H   0  0  0  0  0  0  0  0  0  0  0  0
    3.0384    3.6535    0.4400 H   0  0  0  0  0  0  0  0  0  0  0  0
    3.7207    2.8816   -2.4600 H   0  0  0  0  0  0  0  0  0  0  0  0
    4.2446    4.3624   -1.6490 H   0  0  0  0  0  0  0  0  0  0  0  0
    4.8314    2.7861   -1.0863 H   0  0  0  0  0  0  0  0  0  0  0  0
    1.6288    5.2943   -0.9486 N   0  0  0  0  0  0  0  0  0  0  0  0
    0.5940    6.1855   -1.4187 C   0  0  0  0  0  0  0  0  0  0  0  0
    2.4183    5.7023   -0.4568 H   0  0  0  0  0  0  0  0  0  0  0  0
    0.8345    6.5222   -2.4379 H   0  0  0  0  0  0  0  0  0  0  0  0
   -0.3703    5.6564   -1.4254 H   0  0  0  0  0  0  0  0  0  0  0  0
    0.5295    7.0570   -0.7505 H   0  0  0  0  0  0  0  0  0  0  0  0
 18 19  1  0  0  0  0
 19 31  1  0  0  0  0
 19 20  2  0  0  0  0
  8  9  1  0  0  0  0
  9 17  1  0  0  0  0
  9 10  2  0  0  0  0
  1  3  1  0  0  0  0
  1  7  1  0  0  0  0
  1  2  2  0  0  0  0
 32 33  1  0  0  0  0
 33 41  1  0  0  0  0
 33 34  2  0  0  0  0
 21 22  1  0  0  0  0
 22 23  1  0  0  0  0
 18 21  1  0  0  0  0
 17 23  1  0  0  0  0
 17 18  1  0  0  0  0
  8 11  1  0  0  0  0
 32 35  1  0  0  0  0
 41 42  1  0  0  0  0
  7  8  1  0  0  0  0
 31 32  1  0  0  0  0
 22 27  1  0  0  0  0
 22 28  1  0  0  0  0
 21 25  1  0  0  0  0
 21 26  1  0  0  0  0
 23 29  1  0  0  0  0
 23 30  1  0  0  0  0
 18 24  1  0  0  0  0
  3  4  1  0  0  0  0
  3  5  1  0  0  0  0
  3  6  1  0  0  0  0
 11 14  1  0  0  0  0
 11 15  1  0  0  0  0
 11 16  1  0  0  0  0
 35 38  1  0  0  0  0
 35 39  1  0  0  0  0
 35 40  1  0  0  0  0
 42 44  1  0  0  0  0
 42 45  1  0  0  0  0
 42 46  1  0  0  0  0
  8 13  1  0  0  0  0
 32 37  1  0  0  0  0
 31 36  1  0  0  0  0
 41 43  1  0  0  0  0
  7 12  1  0  0  0  0
M  END
$$$$

  -OEChem-05262214473D

 46 46  0     1  0  0  0  0  0999 V2000
   -0.6012   -3.2995    3.8205 C   0  0  0  0  0  0  0  0  0  0  0  0
   -0.6574   -4.4683    3.4568 O   0  0  0  0  0  0  0  0  0  0  0  0
   -0.4935   -2.9859    5.2760 C   0  0  0  0  0  0  0  0  0  0  0  0
   -1.4789   -2.8689    5.7550 H   0  0  0  0  0  0  0  0  0  0  0  0
    0.0123   -3.7847    5.8419 H   0  0  0  0  0  0  0  0  0  0  0  0
    0.0585   -2.0642    5.5199 H   0  0  0  0  0  0  0  0  0  0  0  0
   -0.6261   -2.1849    2.9917 N   0  0  0  0  0  0  0  0  0  0  0  0
   -0.7237   -2.2601    1.5650 C   0  0  2  0  0  0  0  0  0  0  0  0
    0.1695   -1.1513    1.0687 C   0  0  0  0  0  0  0  0  0  0  0  0
    0.3193   -0.1267    1.7365 O   0  0  0  0  0  0  0  0  0  0  0  0
   -2.1397   -2.0663    1.0750 C   0  0  0  0  0  0  0  0  0  0  0  0
   -0.5717   -1.2606    3.4238 H   0  0  0  0  0  0  0  0  0  0  0  0
   -0.3076   -3.2111    1.2363 H   0  0  0  0  0  0  0  0  0  0  0  0
   -2.5584   -1.1089    1.4061 H   0  0  0  0  0  0  0  0  0  0  0  0
   -2.1682   -2.0790   -0.0197 H   0  0  0  0  0  0  0  0  0  0  0  0
   -2.7965   -2.8601    1.4459 H   0  0  0  0  0  0  0  0  0  0  0  0
    0.7724   -1.3745   -0.1593 N   0  0  0  0  0  0  0  0  0  0  0  0
    1.6644   -0.4046   -0.7812 C   0  0  2  0  0  0  0  0  0  0  0  0
    1.7547    0.7703    0.1454 C   0  0  0  0  0  0  0  0  0  0  0  0
    1.1268    0.7596    1.1977 O   0  0  0  0  0  0  0  0  0  0  0  0
    0.9832   -0.0385   -2.0947 C   0  0  0  0  0  0  0  0  0  0  0  0
    0.4329   -1.4308   -1.7953 C   0  0  0  0  0  0  0  0  0  0  0  0
    0.7499   -2.6270   -0.9105 C   0  0  0  0  0  0  0  0  0  0  0  0
    2.6660   -0.8234   -0.9178 H   0  0  0  0  0  0  0  0  0  0  0  0
    1.7341    0.0889   -2.8835 H   0  0  0  0  0  0  0  0  0  0  0  0
    0.3808    0.8733   -2.0362 H   0  0  0  0  0  0  0  0  0  0  0  0
   -0.5797   -1.3599   -1.3815 H   0  0  0  0  0  0  0  0  0  0  0  0
    0.3950   -2.0608   -2.6885 H   0  0  0  0  0  0  0  0  0  0  0  0
   -0.0575   -3.3641   -0.8933 H   0  0  0  0  0  0  0  0  0  0  0  0
    1.6766   -3.1193   -1.2248 H   0  0  0  0  0  0  0  0  0  0  0  0
    2.5251    1.7856   -0.2284 N   0  0  0  0  0  0  0  0  0  0  0  0
    2.9835    3.1377   -0.4538 C   0  0  2  0  0  0  0  0  0  0  0  0
    1.8547    3.9118   -1.1215 C   0  0  0  0  0  0  0  0  0  0  0  0
    0.9478    3.3683   -1.7486 O   0  0  0  0  0  0  0  0  0  0  0  0
    4.2395    3.1605   -1.3109 C   0  0  0  0  0  0  0  0  0  0  0  0
    2.5205    1.4288    0.7224 H   0  0  0  0  0  0  0  0  0  0  0  0
    3.1906    3.5697    0.5313 H   0  0  0  0  0  0  0  0  0  0  0  0
    4.0515    2.7315   -2.3019 H   0  0  0  0  0  0  0  0  0  0  0  0
    4.6017    4.1835   -1.4569 H   0  0  0  0  0  0  0  0  0  0  0  0
    5.0410    2.5784   -0.8434 H   0  0  0  0  0  0  0  0  0  0  0  0
    2.0026    5.2836   -0.9715 N   0  0  0  0  0  0  0  0  0  0  0  0
    1.0670    6.2339   -1.5262 C   0  0  0  0  0  0  0  0  0  0  0  0
    2.7747    5.6456   -0.4196 H   0  0  0  0  0  0  0  0  0  0  0  0
    1.4087    6.5460   -2.5241 H   0  0  0  0  0  0  0  0  0  0  0  0
    0.0748    5.7663   -1.6081 H   0  0  0  0  0  0  0  0  0  0  0  0
    1.0046    7.1135   -0.8685 H   0  0  0  0  0  0  0  0  0  0  0  0
 18 19  1  0  0  0  0
 19 31  1  0  0  0  0
 19 20  2  0  0  0  0
  8  9  1  0  0  0  0
  9 17  1  0  0  0  0
  9 10  2  0  0  0  0
  1  3  1  0  0  0  0
  1  7  1  0  0  0  0
  1  2  2  0  0  0  0
 32 33  1  0  0  0  0
 33 41  1  0  0  0  0
 33 34  2  0  0  0  0
 21 22  1  0  0  0  0
 22 23  1  0  0  0  0
 18 21  1  0  0  0  0
 17 23  1  0  0  0  0
 17 18  1  0  0  0  0
  8 11  1  0  0  0  0
 32 35  1  0  0  0  0
 41 42  1  0  0  0  0
  7  8  1  0  0  0  0
 31 32  1  0  0  0  0
 22 27  1  0  0  0  0
 22 28  1  0  0  0  0
 21 25  1  0  0  0  0
 21 26  1  0  0  0  0
 23 29  1  0  0  0  0
 23 30  1  0  0  0  0
 18 24  1  0  0  0  0
  3  4  1  0  0  0  0
  3  5  1  0  0  0  0
  3  6  1  0  0  0  0
 11 14  1  0  0  0  0
 11 15  1  0  0  0  0
 11 16  1  0  0  0  0
 35 38  1  0  0  0  0
 35 39  1  0  0  0  0
 35 40  1  0  0  0  0
 42 44  1  0  0  0  0
 42 45  1  0  0  0  0
 42 46  1  0  0  0  0
  8 13  1  0  0  0  0
 32 37  1  0  0  0  0
 31 36  1  0  0  0  0
 41 43  1  0  0  0  0
  7 12  1  0  0  0  0
M  END
$$$$

  -OEChem-05262214473D

 46 46  0     1  0  0  0  0  0999 V2000
   -0.6012   -3.2995    3.8205 C   0  0  0  0  0  0  0  0  0  0  0  0
   -0.6574   -4.4683    3.4568 O   0  0  0  0  0  0  0  0  0  0  0  0
   -0.4935   -2.9859    5.2760 C   0  0  0  0  0  0  0  0  0  0  0  0
   -1.4789   -2.8689    5.7550 H   0  0  0  0  0  0  0  0  0  0  0  0
    0.0123   -3.7847    5.8419 H   0  0  0  0  0  0  0  0  0  0  0  0
    0.0585   -2.0642    5.5199 H   0  0  0  0  0  0  0  0  0  0  0  0
   -0.6261   -2.1849    2.9917 N   0  0  0  0  0  0  0  0  0  0  0  0
   -0.7237   -2.2601    1.5650 C   0  0  2  0  0  0  0  0  0  0  0  0
    0.1695   -1.1513    1.0687 C   0  0  0  0  0  0  0  0  0  0  0  0
    0.3193   -0.1267    1.7365 O   0  0  0  0  0  0  0  0  0  0  0  0
   -2.1397   -2.0663    1.0750 C   0  0  0  0  0  0  0  0  0  0  0  0
   -0.5717   -1.2606    3.4238 H   0  0  0  0  0  0  0  0  0  0  0  0
   -0.3076   -3.2111    1.2363 H   0  0  0  0  0  0  0  0  0  0  0  0
   -2.5584   -1.1089    1.4061 H   0  0  0  0  0  0  0  0  0  0  0  0
   -2.1682   -2.0790   -0.0197 H   0  0  0  0  0  0  0  0  0  0  0  0
   -2.7965   -2.8601    1.4459 H   0  0  0  0  0  0  0  0  0  0  0  0
    0.7724   -1.3745   -0.1593 N   0  0  0  0  0  0  0  0  0  0  0  0
    1.6644   -0.4046   -0.7812 C   0  0  2  0  0  0  0  0  0  0  0  0
    1.7547    0.7703    0.1454 C   0  0  0  0  0  0  0  0  0  0  0  0
    1.3646    0.6593    1.3017 O   0  0  0  0  0  0  0  0  0  0  0  0
    0.9832   -0.0385   -2.0947 C   0  0  0  0  0  0  0  0  0  0  0  0
    0.4329   -1.4308   -1.7953 C   0  0  0  0  0  0  0  0  0  0  0  0
    0.7499   -2.6270   -0.9105 C   0  0  0  0  0  0  0  0  0  0  0  0
    2.6660   -0.8234   -0.9178 H   0  0  0  0  0  0  0  0  0  0  0  0
    1.7341    0.0889   -2.8835 H   0  0  0  0  0  0  0  0  0  0  0  0
    0.3808    0.8733   -2.0362 H   0  0  0  0  0  0  0  0  0  0  0  0
   -0.5797   -1.3599   -1.3815 H   0  0  0  0  0  0  0  0  0  0  0  0
    0.3950   -2.0608   -2.6885 H   0  0  0  0  0  0  0  0  0  0  0  0
   -0.0575   -3.3641   -0.8933 H   0  0  0  0  0  0  0  0  0  0  0  0
    1.6766   -3.1193   -1.2248 H   0  0  0  0  0  0  0  0  0  0  0  0
    2.2618    1.8964   -0.3433 N   0  0  0  0  0  0  0  0  0  0  0  0
    2.4446    3.3046   -0.6129 C   0  0  2  0  0  0  0  0  0  0  0  0
    1.0951    3.8856   -1.0141 C   0  0  0  0  0  0  0  0  0  0  0  0
    0.1771    3.2020   -1.4626 O   0  0  0  0  0  0  0  0  0  0  0  0
    3.4793    3.5293   -1.7044 C   0  0  0  0  0  0  0  0  0  0  0  0
    2.5080    1.5445    0.5770 H   0  0  0  0  0  0  0  0  0  0  0  0
    2.7773    3.7653    0.3236 H   0  0  0  0  0  0  0  0  0  0  0  0
    3.1634    3.0746   -2.6504 H   0  0  0  0  0  0  0  0  0  0  0  0
    3.6374    4.5972   -1.8875 H   0  0  0  0  0  0  0  0  0  0  0  0
    4.4413    3.0848   -1.4270 H   0  0  0  0  0  0  0  0  0  0  0  0
    1.0514    5.2633   -0.8531 N   0  0  0  0  0  0  0  0  0  0  0  0
   -0.1161    6.0495   -1.1769 C   0  0  0  0  0  0  0  0  0  0  0  0
    1.8526    5.7458   -0.4568 H   0  0  0  0  0  0  0  0  0  0  0  0
   -0.0391    6.4118   -2.2127 H   0  0  0  0  0  0  0  0  0  0  0  0
   -1.0174    5.4276   -1.0722 H   0  0  0  0  0  0  0  0  0  0  0  0
   -0.1814    6.9080   -0.4923 H   0  0  0  0  0  0  0  0  0  0  0  0
 18 19  1  0  0  0  0
 19 31  1  0  0  0  0
 19 20  2  0  0  0  0
  8  9  1  0  0  0  0
  9 17  1  0  0  0  0
  9 10  2  0  0  0  0
  1  3  1  0  0  0  0
  1  7  1  0  0  0  0
  1  2  2  0  0  0  0
 32 33  1  0  0  0  0
 33 41  1  0  0  0  0
 33 34  2  0  0  0  0
 21 22  1  0  0  0  0
 22 23  1  0  0  0  0
 18 21  1  0  0  0  0
 17 23  1  0  0  0  0
 17 18  1  0  0  0  0
  8 11  1  0  0  0  0
 32 35  1  0  0  0  0
 41 42  1  0  0  0  0
  7  8  1  0  0  0  0
 31 32  1  0  0  0  0
 22 27  1  0  0  0  0
 22 28  1  0  0  0  0
 21 25  1  0  0  0  0
 21 26  1  0  0  0  0
 23 29  1  0  0  0  0
 23 30  1  0  0  0  0
 18 24  1  0  0  0  0
  3  4  1  0  0  0  0
  3  5  1  0  0  0  0
  3  6  1  0  0  0  0
 11 14  1  0  0  0  0
 11 15  1  0  0  0  0
 11 16  1  0  0  0  0
 35 38  1  0  0  0  0
 35 39  1  0  0  0  0
 35 40  1  0  0  0  0
 42 44  1  0  0  0  0
 42 45  1  0  0  0  0
 42 46  1  0  0  0  0
  8 13  1  0  0  0  0
 32 37  1  0  0  0  0
 31 36  1  0  0  0  0
 41 43  1  0  0  0  0
  7 12  1  0  0  0  0
M  END
$$$$

  -OEChem-05262214473D

 46 46  0     1  0  0  0  0  0999 V2000
   -0.6012   -3.2995    3.8205 C   0  0  0  0  0  0  0  0  0  0  0  0
   -0.6574   -4.4683    3.4568 O   0  0  0  0  0  0  0  0  0  0  0  0
   -0.4935   -2.9859    5.2760 C   0  0  0  0  0  0  0  0  0  0  0  0
   -1.4789   -2.8689    5.7550 H   0  0  0  0  0  0  0  0  0  0  0  0
    0.0123   -3.7847    5.8419 H   0  0  0  0  0  0  0  0  0  0  0  0
    0.0585   -2.0642    5.5199 H   0  0  0  0  0  0  0  0  0  0  0  0
   -0.6261   -2.1849    2.9917 N   0  0  0  0  0  0  0  0  0  0  0  0
   -0.7237   -2.2601    1.5650 C   0  0  2  0  0  0  0  0  0  0  0  0
    0.1695   -1.1513    1.0687 C   0  0  0  0  0  0  0  0  0  0  0  0
    0.3193   -0.1267    1.7365 O   0  0  0  0  0  0  0  0  0  0  0  0
   -2.1397   -2.0663    1.0750 C   0  0  0  0  0  0  0  0  0  0  0  0
   -0.5717   -1.2606    3.4238 H   0  0  0  0  0  0  0  0  0  0  0  0
   -0.3076   -3.2111    1.2363 H   0  0  0  0  0  0  0  0  0  0  0  0
   -2.5584   -1.1089    1.4061 H   0  0  0  0  0  0  0  0  0  0  0  0
   -2.1682   -2.0790   -0.0197 H   0  0  0  0  0  0  0  0  0  0  0  0
   -2.7965   -2.8601    1.4459 H   0  0  0  0  0  0  0  0  0  0  0  0
    0.7724   -1.3745   -0.1593 N   0  0  0  0  0  0  0  0  0  0  0  0
    1.6644   -0.4046   -0.7812 C   0  0  2  0  0  0  0  0  0  0  0  0
    1.7547    0.7703    0.1454 C   0  0  0  0  0  0  0  0  0  0  0  0
    1.6315    0.5987    1.3525 O   0  0  0  0  0  0  0  0  0  0  0  0
    0.9832   -0.0385   -2.0947 C   0  0  0  0  0  0  0  0  0  0  0  0
    0.4329   -1.4308   -1.7953 C   0  0  0  0  0  0  0  0  0  0  0  0
    0.7499   -2.6270   -0.9105 C   0  0  0  0  0  0  0  0  0  0  0  0
    2.6660   -0.8234   -0.9178 H   0  0  0  0  0  0  0  0  0  0  0  0
    1.7341    0.0889   -2.8835 H   0  0  0  0  0  0  0  0  0  0  0  0
    0.3808    0.8733   -2.0362 H   0  0  0  0  0  0  0  0  0  0  0  0
   -0.5797   -1.3599   -1.3815 H   0  0  0  0  0  0  0  0  0  0  0  0
    0.3950   -2.0608   -2.6885 H   0  0  0  0  0  0  0  0  0  0  0  0
   -0.0575   -3.3641   -0.8933 H   0  0  0  0  0  0  0  0  0  0  0  0
    1.6766   -3.1193   -1.2248 H   0  0  0  0  0  0  0  0  0  0  0  0
    1.9665    1.9631   -0.3991 N   0  0  0  0  0  0  0  0  0  0  0  0
    1.8650    3.3821   -0.6546 C   0  0  2  0  0  0  0  0  0  0  0  0
    0.3875    3.7370   -0.7567 C   0  0  0  0  0  0  0  0  0  0  0  0
   -0.4826    2.9137   -1.0327 O   0  0  0  0  0  0  0  0  0  0  0  0
    2.6063    3.7700   -1.9245 C   0  0  0  0  0  0  0  0  0  0  0  0
    2.4479    1.6564    0.4409 H   0  0  0  0  0  0  0  0  0  0  0  0
    2.3046    3.8913    0.2099 H   0  0  0  0  0  0  0  0  0  0  0  0
    2.1800    3.2694   -2.8015 H   0  0  0  0  0  0  0  0  0  0  0  0
    2.5525    4.8493   -2.1013 H   0  0  0  0  0  0  0  0  0  0  0  0
    3.6626    3.4871   -1.8611 H   0  0  0  0  0  0  0  0  0  0  0  0
    0.1599    5.0897   -0.5460 N   0  0  0  0  0  0  0  0  0  0  0  0
   -1.1586    5.6766   -0.6024 C   0  0  0  0  0  0  0  0  0  0  0  0
    0.9384    5.6957   -0.3041 H   0  0  0  0  0  0  0  0  0  0  0  0
   -1.3530    6.0456   -1.6203 H   0  0  0  0  0  0  0  0  0  0  0  0
   -1.9093    4.9173   -0.3382 H   0  0  0  0  0  0  0  0  0  0  0  0
   -1.2178    6.5139    0.1085 H   0  0  0  0  0  0  0  0  0  0  0  0
 18 19  1  0  0  0  0
 19 31  1  0  0  0  0
 19 20  2  0  0  0  0
  8  9  1  0  0  0  0
  9 17  1  0  0  0  0
  9 10  2  0  0  0  0
  1  3  1  0  0  0  0
  1  7  1  0  0  0  0
  1  2  2  0  0  0  0
 32 33  1  0  0  0  0
 33 41  1  0  0  0  0
 33 34  2  0  0  0  0
 21 22  1  0  0  0  0
 22 23  1  0  0  0  0
 18 21  1  0  0  0  0
 17 23  1  0  0  0  0
 17 18  1  0  0  0  0
  8 11  1  0  0  0  0
 32 35  1  0  0  0  0
 41 42  1  0  0  0  0
  7  8  1  0  0  0  0
 31 32  1  0  0  0  0
 22 27  1  0  0  0  0
 22 28  1  0  0  0  0
 21 25  1  0  0  0  0
 21 26  1  0  0  0  0
 23 29  1  0  0  0  0
 23 30  1  0  0  0  0
 18 24  1  0  0  0  0
  3  4  1  0  0  0  0
  3  5  1  0  0  0  0
  3  6  1  0  0  0  0
 11 14  1  0  0  0  0
 11 15  1  0  0  0  0
 11 16  1  0  0  0  0
 35 38  1  0  0  0  0
 35 39  1  0  0  0  0
 35 40  1  0  0  0  0
 42 44  1  0  0  0  0
 42 45  1  0  0  0  0
 42 46  1  0  0  0  0
  8 13  1  0  0  0  0
 32 37  1  0  0  0  0
 31 36  1  0  0  0  0
 41 43  1  0  0  0  0
  7 12  1  0  0  0  0
M  END
$$$$

  -OEChem-05262214473D

 46 46  0     1  0  0  0  0  0999 V2000
   -0.6012   -3.2995    3.8205 C   0  0  0  0  0  0  0  0  0  0  0  0
   -0.6574   -4.4683    3.4568 O   0  0  0  0  0  0  0  0  0  0  0  0
   -0.4935   -2.9859    5.2760 C   0  0  0  0  0  0  0  0  0  0  0  0
   -1.4789   -2.8689    5.7550 H   0  0  0  0  0  0  0  0  0  0  0  0
    0.0123   -3.7847    5.8419 H   0  0  0  0  0  0  0  0  0  0  0  0
    0.0585   -2.0642    5.5199 H   0  0  0  0  0  0  0  0  0  0  0  0
   -0.6261   -2.1849    2.9917 N   0  0  0  0  0  0  0  0  0  0  0  0
   -0.7237   -2.2601    1.5650 C   0  0  2  0  0  0  0  0  0  0  0  0
    0.1695   -1.1513    1.0687 C   0  0  0  0  0  0  0  0  0  0  0  0
    0.3193   -0.1267    1.7365 O   0  0  0  0  0  0  0  0  0  0  0  0
   -2.1397   -2.0663    1.0750 C   0  0  0  0  0  0  0  0  0  0  0  0
   -0.5717   -1.2606    3.4238 H   0  0  0  0  0  0  0  0  0  0  0  0
   -0.3076   -3.2111    1.2363 H   0  0  0  0  0  0  0  0  0  0  0  0
   -2.5584   -1.1089    1.4061 H   0  0  0  0  0  0  0  0  0  0  0  0
   -2.1682   -2.0790   -0.0197 H   0  0  0  0  0  0  0  0  0  0  0  0
   -2.7965   -2.8601    1.4459 H   0  0  0  0  0  0  0  0  0  0  0  0
    0.7724   -1.3745   -0.1593 N   0  0  0  0  0  0  0  0  0  0  0  0
    1.6644   -0.4046   -0.7812 C   0  0  2  0  0  0  0  0  0  0  0  0
    1.7547    0.7703    0.1454 C   0  0  0  0  0  0  0  0  0  0  0  0
    1.9093    0.5822    1.3464 O   0  0  0  0  0  0  0  0  0  0  0  0
    0.9832   -0.0385   -2.0947 C   0  0  0  0  0  0  0  0  0  0  0  0
    0.4329   -1.4308   -1.7953 C   0  0  0  0  0  0  0  0  0  0  0  0
    0.7499   -2.6270   -0.9105 C   0  0  0  0  0  0  0  0  0  0  0  0
    2.6660   -0.8234   -0.9178 H   0  0  0  0  0  0  0  0  0  0  0  0
    1.7341    0.0889   -2.8835 H   0  0  0  0  0  0  0  0  0  0  0  0
    0.3808    0.8733   -2.0362 H   0  0  0  0  0  0  0  0  0  0  0  0
   -0.5797   -1.3599   -1.3815 H   0  0  0  0  0  0  0  0  0  0  0  0
    0.3950   -2.0608   -2.6885 H   0  0  0  0  0  0  0  0  0  0  0  0
   -0.0575   -3.3641   -0.8933 H   0  0  0  0  0  0  0  0  0  0  0  0
    1.6766   -3.1193   -1.2248 H   0  0  0  0  0  0  0  0  0  0  0  0
    1.6593    1.9812   -0.3920 N   0  0  0  0  0  0  0  0  0  0  0  0
    1.2844    3.3648   -0.5761 C   0  0  2  0  0  0  0  0  0  0  0  0
   -0.2201    3.4762   -0.3669 C   0  0  0  0  0  0  0  0  0  0  0  0
   -0.9866    2.5229   -0.4880 O   0  0  0  0  0  0  0  0  0  0  0  0
    1.6798    3.8663   -1.9563 C   0  0  0  0  0  0  0  0  0  0  0  0
    2.3444    1.7570    0.3234 H   0  0  0  0  0  0  0  0  0  0  0  0
    1.8049    3.9392    0.1979 H   0  0  0  0  0  0  0  0  0  0  0  0
    1.1682    3.3026   -2.7450 H   0  0  0  0  0  0  0  0  0  0  0  0
    1.4208    4.9226   -2.0839 H   0  0  0  0  0  0  0  0  0  0  0  0
    2.7580    3.7578   -2.1162 H   0  0  0  0  0  0  0  0  0  0  0  0
   -0.6111    4.7747   -0.0713 N   0  0  0  0  0  0  0  0  0  0  0  0
   -1.9893    5.1407    0.1581 C   0  0  0  0  0  0  0  0  0  0  0  0
    0.0944    5.4986    0.0281 H   0  0  0  0  0  0  0  0  0  0  0  0
   -2.4433    5.4725   -0.7873 H   0  0  0  0  0  0  0  0  0  0  0  0
   -2.5404    4.2703    0.5438 H   0  0  0  0  0  0  0  0  0  0  0  0
   -2.0340    5.9580    0.8929 H   0  0  0  0  0  0  0  0  0  0  0  0
 18 19  1  0  0  0  0
 19 31  1  0  0  0  0
 19 20  2  0  0  0  0
  8  9  1  0  0  0  0
  9 17  1  0  0  0  0
  9 10  2  0  0  0  0
  1  3  1  0  0  0  0
  1  7  1  0  0  0  0
  1  2  2  0  0  0  0
 32 33  1  0  0  0  0
 33 41  1  0  0  0  0
 33 34  2  0  0  0  0
 21 22  1  0  0  0  0
 22 23  1  0  0  0  0
 18 21  1  0  0  0  0
 17 23  1  0  0  0  0
 17 18  1  0  0  0  0
  8 11  1  0  0  0  0
 32 35  1  0  0  0  0
 41 42  1  0  0  0  0
  7  8  1  0  0  0  0
 31 32  1  0  0  0  0
 22 27  1  0  0  0  0
 22 28  1  0  0  0  0
 21 25  1  0  0  0  0
 21 26  1  0  0  0  0
 23 29  1  0  0  0  0
 23 30  1  0  0  0  0
 18 24  1  0  0  0  0
  3  4  1  0  0  0  0
  3  5  1  0  0  0  0
  3  6  1  0  0  0  0
 11 14  1  0  0  0  0
 11 15  1  0  0  0  0
 11 16  1  0  0  0  0
 35 38  1  0  0  0  0
 35 39  1  0  0  0  0
 35 40  1  0  0  0  0
 42 44  1  0  0  0  0
 42 45  1  0  0  0  0
 42 46  1  0  0  0  0
  8 13  1  0  0  0  0
 32 37  1  0  0  0  0
 31 36  1  0  0  0  0
 41 43  1  0  0  0  0
  7 12  1  0  0  0  0
M  END
$$$$

  -OEChem-05262214473D

 46 46  0     1  0  0  0  0  0999 V2000
   -0.6012   -3.2995    3.8205 C   0  0  0  0  0  0  0  0  0  0  0  0
   -0.6574   -4.4683    3.4568 O   0  0  0  0  0  0  0  0  0  0  0  0
   -0.4935   -2.9859    5.2760 C   0  0  0  0  0  0  0  0  0  0  0  0
   -1.4789   -2.8689    5.7550 H   0  0  0  0  0  0  0  0  0  0  0  0
    0.0123   -3.7847    5.8419 H   0  0  0  0  0  0  0  0  0  0  0  0
    0.0585   -2.0642    5.5199 H   0  0  0  0  0  0  0  0  0  0  0  0
   -0.6261   -2.1849    2.9917 N   0  0  0  0  0  0  0  0  0  0  0  0
   -0.7237   -2.2601    1.5650 C   0  0  2  0  0  0  0  0  0  0  0  0
    0.1695   -1.1513    1.0687 C   0  0  0  0  0  0  0  0  0  0  0  0
    0.3193   -0.1267    1.7365 O   0  0  0  0  0  0  0  0  0  0  0  0
   -2.1397   -2.0663    1.0750 C   0  0  0  0  0  0  0  0  0  0  0  0
   -0.5717   -1.2606    3.4238 H   0  0  0  0  0  0  0  0  0  0  0  0
   -0.3076   -3.2111    1.2363 H   0  0  0  0  0  0  0  0  0  0  0  0
   -2.5584   -1.1089    1.4061 H   0  0  0  0  0  0  0  0  0  0  0  0
   -2.1682   -2.0790   -0.0197 H   0  0  0  0  0  0  0  0  0  0  0  0
   -2.7965   -2.8601    1.4459 H   0  0  0  0  0  0  0  0  0  0  0  0
    0.7724   -1.3745   -0.1593 N   0  0  0  0  0  0  0  0  0  0  0  0
    1.6644   -0.4046   -0.7812 C   0  0  2  0  0  0  0  0  0  0  0  0
    1.7547    0.7703    0.1454 C   0  0  0  0  0  0  0  0  0  0  0  0
    2.1790    0.6107    1.2839 O   0  0  0  0  0  0  0  0  0  0  0  0
    0.9832   -0.0385   -2.0947 C   0  0  0  0  0  0  0  0  0  0  0  0
    0.4329   -1.4308   -1.7953 C   0  0  0  0  0  0  0  0  0  0  0  0
    0.7499   -2.6270   -0.9105 C   0  0  0  0  0  0  0  0  0  0  0  0
    2.6660   -0.8234   -0.9178 H   0  0  0  0  0  0  0  0  0  0  0  0
    1.7341    0.0889   -2.8835 H   0  0  0  0  0  0  0  0  0  0  0  0
    0.3808    0.8733   -2.0362 H   0  0  0  0  0  0  0  0  0  0  0  0
   -0.5797   -1.3599   -1.3815 H   0  0  0  0  0  0  0  0  0  0  0  0
    0.3950   -2.0608   -2.6885 H   0  0  0  0  0  0  0  0  0  0  0  0
   -0.0575   -3.3641   -0.8933 H   0  0  0  0  0  0  0  0  0  0  0  0
    1.6766   -3.1193   -1.2248 H   0  0  0  0  0  0  0  0  0  0  0  0
    1.3611    1.9494   -0.3226 N   0  0  0  0  0  0  0  0  0  0  0  0
    0.7422    3.2541   -0.3828 C   0  0  2  0  0  0  0  0  0  0  0  0
   -0.6861    3.1211    0.1289 C   0  0  0  0  0  0  0  0  0  0  0  0
   -1.3004    2.0563    0.1342 O   0  0  0  0  0  0  0  0  0  0  0  0
    0.7630    3.8116   -1.7975 C   0  0  0  0  0  0  0  0  0  0  0  0
    2.2045    1.8395    0.2325 H   0  0  0  0  0  0  0  0  0  0  0  0
    1.3120    3.9058    0.2884 H   0  0  0  0  0  0  0  0  0  0  0  0
    0.1971    3.1720   -2.4846 H   0  0  0  0  0  0  0  0  0  0  0  0
    0.3195    4.8120   -1.8363 H   0  0  0  0  0  0  0  0  0  0  0  0
    1.7891    3.8786   -2.1749 H   0  0  0  0  0  0  0  0  0  0  0  0
   -1.2092    4.3395    0.5388 N   0  0  0  0  0  0  0  0  0  0  0  0
   -2.5517    4.4783    1.0529 C   0  0  0  0  0  0  0  0  0  0  0  0
   -0.6220    5.1681    0.5170 H   0  0  0  0  0  0  0  0  0  0  0  0
   -3.2358    4.7315    0.2296 H   0  0  0  0  0  0  0  0  0  0  0  0
   -2.8675    3.5307    1.5136 H   0  0  0  0  0  0  0  0  0  0  0  0
   -2.5743    5.2783    1.8075 H   0  0  0  0  0  0  0  0  0  0  0  0
 18 19  1  0  0  0  0
 19 31  1  0  0  0  0
 19 20  2  0  0  0  0
  8  9  1  0  0  0  0
  9 17  1  0  0  0  0
  9 10  2  0  0  0  0
  1  3  1  0  0  0  0
  1  7  1  0  0  0  0
  1  2  2  0  0  0  0
 32 33  1  0  0  0  0
 33 41  1  0  0  0  0
 33 34  2  0  0  0  0
 21 22  1  0  0  0  0
 22 23  1  0  0  0  0
 18 21  1  0  0  0  0
 17 23  1  0  0  0  0
 17 18  1  0  0  0  0
  8 11  1  0  0  0  0
 32 35  1  0  0  0  0
 41 42  1  0  0  0  0
  7  8  1  0  0  0  0
 31 32  1  0  0  0  0
 22 27  1  0  0  0  0
 22 28  1  0  0  0  0
 21 25  1  0  0  0  0
 21 26  1  0  0  0  0
 23 29  1  0  0  0  0
 23 30  1  0  0  0  0
 18 24  1  0  0  0  0
  3  4  1  0  0  0  0
  3  5  1  0  0  0  0
  3  6  1  0  0  0  0
 11 14  1  0  0  0  0
 11 15  1  0  0  0  0
 11 16  1  0  0  0  0
 35 38  1  0  0  0  0
 35 39  1  0  0  0  0
 35 40  1  0  0  0  0
 42 44  1  0  0  0  0
 42 45  1  0  0  0  0
 42 46  1  0  0  0  0
  8 13  1  0  0  0  0
 32 37  1  0  0  0  0
 31 36  1  0  0  0  0
 41 43  1  0  0  0  0
  7 12  1  0  0  0  0
M  END
$$$$

  -OEChem-05262214473D

 46 46  0     1  0  0  0  0  0999 V2000
   -0.6012   -3.2995    3.8205 C   0  0  0  0  0  0  0  0  0  0  0  0
   -0.6574   -4.4683    3.4568 O   0  0  0  0  0  0  0  0  0  0  0  0
   -0.4935   -2.9859    5.2760 C   0  0  0  0  0  0  0  0  0  0  0  0
   -1.4789   -2.8689    5.7550 H   0  0  0  0  0  0  0  0  0  0  0  0
    0.0123   -3.7847    5.8419 H   0  0  0  0  0  0  0  0  0  0  0  0
    0.0585   -2.0642    5.5199 H   0  0  0  0  0  0  0  0  0  0  0  0
   -0.6261   -2.1849    2.9917 N   0  0  0  0  0  0  0  0  0  0  0  0
   -0.7237   -2.2601    1.5650 C   0  0  2  0  0  0  0  0  0  0  0  0
    0.1695   -1.1513    1.0687 C   0  0  0  0  0  0  0  0  0  0  0  0
    0.3193   -0.1267    1.7365 O   0  0  0  0  0  0  0  0  0  0  0  0
   -2.1397   -2.0663    1.0750 C   0  0  0  0  0  0  0  0  0  0  0  0
   -0.5717   -1.2606    3.4238 H   0  0  0  0  0  0  0  0  0  0  0  0
   -0.3076   -3.2111    1.2363 H   0  0  0  0  0  0  0  0  0  0  0  0
   -2.5584   -1.1089    1.4061 H   0  0  0  0  0  0  0  0  0  0  0  0
   -2.1682   -2.0790   -0.0197 H   0  0  0  0  0  0  0  0  0  0  0  0
   -2.7965   -2.8601    1.4459 H   0  0  0  0  0  0  0  0  0  0  0  0
    0.7724   -1.3745   -0.1593 N   0  0  0  0  0  0  0  0  0  0  0  0
    1.6644   -0.4046   -0.7812 C   0  0  2  0  0  0  0  0  0  0  0  0
    1.7547    0.7703    0.1454 C   0  0  0  0  0  0  0  0  0  0  0  0
    2.4222    0.6824    1.1693 O   0  0  0  0  0  0  0  0  0  0  0  0
    0.9832   -0.0385   -2.0947 C   0  0  0  0  0  0  0  0  0  0  0  0
    0.4329   -1.4308   -1.7953 C   0  0  0  0  0  0  0  0  0  0  0  0
    0.7499   -2.6270   -0.9105 C   0  0  0  0  0  0  0  0  0  0  0  0
    2.6660   -0.8234   -0.9178 H   0  0  0  0  0  0  0  0  0  0  0  0
    1.7341    0.0889   -2.8835 H   0  0  0  0  0  0  0  0  0  0  0  0
    0.3808    0.8733   -2.0362 H   0  0  0  0  0  0  0  0  0  0  0  0
   -0.5797   -1.3599   -1.3815 H   0  0  0  0  0  0  0  0  0  0  0  0
    0.3950   -2.0608   -2.6885 H   0  0  0  0  0  0  0  0  0  0  0  0
   -0.0575   -3.3641   -0.8933 H   0  0  0  0  0  0  0  0  0  0  0  0
    1.6766   -3.1193   -1.2248 H   0  0  0  0  0  0  0  0  0  0  0  0
    1.0922    1.8698   -0.1955 N   0  0  0  0  0  0  0  0  0  0  0  0
    0.2754    3.0573   -0.0878 C   0  0  2  0  0  0  0  0  0  0  0  0
   -0.9789    2.6958    0.6967 C   0  0  0  0  0  0  0  0  0  0  0  0
   -1.4026    1.5458    0.7916 O   0  0  0  0  0  0  0  0  0  0  0  0
   -0.0815    3.6096   -1.4591 C   0  0  0  0  0  0  0  0  0  0  0  0
    2.0376    1.8982    0.1743 H   0  0  0  0  0  0  0  0  0  0  0  0
    0.8597    3.7931    0.4753 H   0  0  0  0  0  0  0  0  0  0  0  0
   -0.6672    2.8863   -2.0381 H   0  0  0  0  0  0  0  0  0  0  0  0
   -0.6763    4.5252   -1.3755 H   0  0  0  0  0  0  0  0  0  0  0  0
    0.8221    3.8412   -2.0332 H   0  0  0  0  0  0  0  0  0  0  0  0
   -1.5935    3.8141    1.2426 N   0  0  0  0  0  0  0  0  0  0  0  0
   -2.8075    3.7345    2.0210 C   0  0  0  0  0  0  0  0  0  0  0  0
   -1.1619    4.7266    1.1295 H   0  0  0  0  0  0  0  0  0  0  0  0
   -3.6765    3.8731    1.3611 H   0  0  0  0  0  0  0  0  0  0  0  0
   -2.8685    2.7487    2.5052 H   0  0  0  0  0  0  0  0  0  0  0  0
   -2.8020    4.5211    2.7900 H   0  0  0  0  0  0  0  0  0  0  0  0
 18 19  1  0  0  0  0
 19 31  1  0  0  0  0
 19 20  2  0  0  0  0
  8  9  1  0  0  0  0
  9 17  1  0  0  0  0
  9 10  2  0  0  0  0
  1  3  1  0  0  0  0
  1  7  1  0  0  0  0
  1  2  2  0  0  0  0
 32 33  1  0  0  0  0
 33 41  1  0  0  0  0
 33 34  2  0  0  0  0
 21 22  1  0  0  0  0
 22 23  1  0  0  0  0
 18 21  1  0  0  0  0
 17 23  1  0  0  0  0
 17 18  1  0  0  0  0
  8 11  1  0  0  0  0
 32 35  1  0  0  0  0
 41 42  1  0  0  0  0
  7  8  1  0  0  0  0
 31 32  1  0  0  0  0
 22 27  1  0  0  0  0
 22 28  1  0  0  0  0
 21 25  1  0  0  0  0
 21 26  1  0  0  0  0
 23 29  1  0  0  0  0
 23 30  1  0  0  0  0
 18 24  1  0  0  0  0
  3  4  1  0  0  0  0
  3  5  1  0  0  0  0
  3  6  1  0  0  0  0
 11 14  1  0  0  0  0
 11 15  1  0  0  0  0
 11 16  1  0  0  0  0
 35 38  1  0  0  0  0
 35 39  1  0  0  0  0
 35 40  1  0  0  0  0
 42 44  1  0  0  0  0
 42 45  1  0  0  0  0
 42 46  1  0  0  0  0
  8 13  1  0  0  0  0
 32 37  1  0  0  0  0
 31 36  1  0  0  0  0
 41 43  1  0  0  0  0
  7 12  1  0  0  0  0
M  END
$$$$

  -OEChem-05262214473D

 46 46  0     1  0  0  0  0  0999 V2000
   -0.6012   -3.2995    3.8205 C   0  0  0  0  0  0  0  0  0  0  0  0
   -0.6574   -4.4683    3.4568 O   0  0  0  0  0  0  0  0  0  0  0  0
   -0.4935   -2.9859    5.2760 C   0  0  0  0  0  0  0  0  0  0  0  0
   -1.4789   -2.8689    5.7550 H   0  0  0  0  0  0  0  0  0  0  0  0
    0.0123   -3.7847    5.8419 H   0  0  0  0  0  0  0  0  0  0  0  0
    0.0585   -2.0642    5.5199 H   0  0  0  0  0  0  0  0  0  0  0  0
   -0.6261   -2.1849    2.9917 N   0  0  0  0  0  0  0  0  0  0  0  0
   -0.7237   -2.2601    1.5650 C   0  0  2  0  0  0  0  0  0  0  0  0
    0.1695   -1.1513    1.0687 C   0  0  0  0  0  0  0  0  0  0  0  0
    0.3193   -0.1267    1.7365 O   0  0  0  0  0  0  0  0  0  0  0  0
   -2.1397   -2.0663    1.0750 C   0  0  0  0  0  0  0  0  0  0  0  0
   -0.5717   -1.2606    3.4238 H   0  0  0  0  0  0  0  0  0  0  0  0
   -0.3076   -3.2111    1.2363 H   0  0  0  0  0  0  0  0  0  0  0  0
   -2.5584   -1.1089    1.4061 H   0  0  0  0  0  0  0  0  0  0  0  0
   -2.1682   -2.0790   -0.0197 H   0  0  0  0  0  0  0  0  0  0  0  0
   -2.7965   -2.8601    1.4459 H   0  0  0  0  0  0  0  0  0  0  0  0
    0.7724   -1.3745   -0.1593 N   0  0  0  0  0  0  0  0  0  0  0  0
    1.6644   -0.4046   -0.7812 C   0  0  2  0  0  0  0  0  0  0  0  0
    1.7547    0.7703    0.1454 C   0  0  0  0  0  0  0  0  0  0  0  0
    2.6225    0.7923    1.0103 O   0  0  0  0  0  0  0  0  0  0  0  0
    0.9832   -0.0385   -2.0947 C   0  0  0  0  0  0  0  0  0  0  0  0
    0.4329   -1.4308   -1.7953 C   0  0  0  0  0  0  0  0  0  0  0  0
    0.7499   -2.6270   -0.9105 C   0  0  0  0  0  0  0  0  0  0  0  0
    2.6660   -0.8234   -0.9178 H   0  0  0  0  0  0  0  0  0  0  0  0
    1.7341    0.0889   -2.8835 H   0  0  0  0  0  0  0  0  0  0  0  0
    0.3808    0.8733   -2.0362 H   0  0  0  0  0  0  0  0  0  0  0  0
   -0.5797   -1.3599   -1.3815 H   0  0  0  0  0  0  0  0  0  0  0  0
    0.3950   -2.0608   -2.6885 H   0  0  0  0  0  0  0  0  0  0  0  0
   -0.0575   -3.3641   -0.8933 H   0  0  0  0  0  0  0  0  0  0  0  0
    1.6766   -3.1193   -1.2248 H   0  0  0  0  0  0  0  0  0  0  0  0
    0.8710    1.7480   -0.0195 N   0  0  0  0  0  0  0  0  0  0  0  0
   -0.0842    2.7880    0.2887 C   0  0  2  0  0  0  0  0  0  0  0  0
   -1.0785    2.2293    1.2980 C   0  0  0  0  0  0  0  0  0  0  0  0
   -1.2863    1.0260    1.4394 O   0  0  0  0  0  0  0  0  0  0  0  0
   -0.7964    3.2741   -0.9640 C   0  0  0  0  0  0  0  0  0  0  0  0
    1.8553    1.9291    0.1529 H   0  0  0  0  0  0  0  0  0  0  0  0
    0.4787    3.6091    0.7459 H   0  0  0  0  0  0  0  0  0  0  0  0
   -1.3658    2.4652   -1.4359 H   0  0  0  0  0  0  0  0  0  0  0  0
   -1.4989    4.0816   -0.7329 H   0  0  0  0  0  0  0  0  0  0  0  0
   -0.0773    3.6482   -1.7007 H   0  0  0  0  0  0  0  0  0  0  0  0
   -1.7379    3.2340    1.9922 N   0  0  0  0  0  0  0  0  0  0  0  0
   -2.7392    2.9601    2.9963 C   0  0  0  0  0  0  0  0  0  0  0  0
   -1.4885    4.2042    1.8238 H   0  0  0  0  0  0  0  0  0  0  0  0
   -3.7354    2.9558    2.5300 H   0  0  0  0  0  0  0  0  0  0  0  0
   -2.5431    1.9778    3.4510 H   0  0  0  0  0  0  0  0  0  0  0  0
   -2.7015    3.7379    3.7733 H   0  0  0  0  0  0  0  0  0  0  0  0
 18 19  1  0  0  0  0
 19 31  1  0  0  0  0
 19 20  2  0  0  0  0
  8  9  1  0  0  0  0
  9 17  1  0  0  0  0
  9 10  2  0  0  0  0
  1  3  1  0  0  0  0
  1  7  1  0  0  0  0
  1  2  2  0  0  0  0
 32 33  1  0  0  0  0
 33 41  1  0  0  0  0
 33 34  2  0  0  0  0
 21 22  1  0  0  0  0
 22 23  1  0  0  0  0
 18 21  1  0  0  0  0
 17 23  1  0  0  0  0
 17 18  1  0  0  0  0
  8 11  1  0  0  0  0
 32 35  1  0  0  0  0
 41 42  1  0  0  0  0
  7  8  1  0  0  0  0
 31 32  1  0  0  0  0
 22 27  1  0  0  0  0
 22 28  1  0  0  0  0
 21 25  1  0  0  0  0
 21 26  1  0  0  0  0
 23 29  1  0  0  0  0
 23 30  1  0  0  0  0
 18 24  1  0  0  0  0
  3  4  1  0  0  0  0
  3  5  1  0  0  0  0
  3  6  1  0  0  0  0
 11 14  1  0  0  0  0
 11 15  1  0  0  0  0
 11 16  1  0  0  0  0
 35 38  1  0  0  0  0
 35 39  1  0  0  0  0
 35 40  1  0  0  0  0
 42 44  1  0  0  0  0
 42 45  1  0  0  0  0
 42 46  1  0  0  0  0
  8 13  1  0  0  0  0
 32 37  1  0  0  0  0
 31 36  1  0  0  0  0
 41 43  1  0  0  0  0
  7 12  1  0  0  0  0
M  END
$$$$

  -OEChem-05262214473D

 46 46  0     1  0  0  0  0  0999 V2000
   -0.6012   -3.2995    3.8205 C   0  0  0  0  0  0  0  0  0  0  0  0
   -0.6574   -4.4683    3.4568 O   0  0  0  0  0  0  0  0  0  0  0  0
   -0.4935   -2.9859    5.2760 C   0  0  0  0  0  0  0  0  0  0  0  0
   -1.4789   -2.8689    5.7550 H   0  0  0  0  0  0  0  0  0  0  0  0
    0.0123   -3.7847    5.8419 H   0  0  0  0  0  0  0  0  0  0  0  0
    0.0585   -2.0642    5.5199 H   0  0  0  0  0  0  0  0  0  0  0  0
   -0.6261   -2.1849    2.9917 N   0  0  0  0  0  0  0  0  0  0  0  0
   -0.7237   -2.2601    1.5650 C   0  0  2  0  0  0  0  0  0  0  0  0
    0.1695   -1.1513    1.0687 C   0  0  0  0  0  0  0  0  0  0  0  0
    0.3193   -0.1267    1.7365 O   0  0  0  0  0  0  0  0  0  0  0  0
   -2.1397   -2.0663    1.0750 C   0  0  0  0  0  0  0  0  0  0  0  0
   -0.5717   -1.2606    3.4238 H   0  0  0  0  0  0  0  0  0  0  0  0
   -0.3076   -3.2111    1.2363 H   0  0  0  0  0  0  0  0  0  0  0  0
   -2.5584   -1.1089    1.4061 H   0  0  0  0  0  0  0  0  0  0  0  0
   -2.1682   -2.0790   -0.0197 H   0  0  0  0  0  0  0  0  0  0  0  0
   -2.7965   -2.8601    1.4459 H   0  0  0  0  0  0  0  0  0  0  0  0
    0.7724   -1.3745   -0.1593 N   0  0  0  0  0  0  0  0  0  0  0  0
    1.6644   -0.4046   -0.7812 C   0  0  2  0  0  0  0  0  0  0  0  0
    1.7547    0.7703    0.1454 C   0  0  0  0  0  0  0  0  0  0  0  0
    2.7661    0.9331    0.8179 O   0  0  0  0  0  0  0  0  0  0  0  0
    0.9832   -0.0385   -2.0947 C   0  0  0  0  0  0  0  0  0  0  0  0
    0.4329   -1.4308   -1.7953 C   0  0  0  0  0  0  0  0  0  0  0  0
    0.7499   -2.6270   -0.9105 C   0  0  0  0  0  0  0  0  0  0  0  0
    2.6660   -0.8234   -0.9178 H   0  0  0  0  0  0  0  0  0  0  0  0
    1.7341    0.0889   -2.8835 H   0  0  0  0  0  0  0  0  0  0  0  0
    0.3808    0.8733   -2.0362 H   0  0  0  0  0  0  0  0  0  0  0  0
   -0.5797   -1.3599   -1.3815 H   0  0  0  0  0  0  0  0  0  0  0  0
    0.3950   -2.0608   -2.6885 H   0  0  0  0  0  0  0  0  0  0  0  0
   -0.0575   -3.3641   -0.8933 H   0  0  0  0  0  0  0  0  0  0  0  0
    1.6766   -3.1193   -1.2248 H   0  0  0  0  0  0  0  0  0  0  0  0
    0.7125    1.5922    0.1935 N   0  0  0  0  0  0  0  0  0  0  0  0
   -0.3120    2.4645    0.7212 C   0  0  2  0  0  0  0  0  0  0  0  0
   -0.9781    1.7533    1.8917 C   0  0  0  0  0  0  0  0  0  0  0  0
   -0.9594    0.5324    2.0334 O   0  0  0  0  0  0  0  0  0  0  0  0
   -1.3327    2.8280   -0.3459 C   0  0  0  0  0  0  0  0  0  0  0  0
    1.6699    1.9302    0.1696 H   0  0  0  0  0  0  0  0  0  0  0  0
    0.1951    3.3662    1.0816 H   0  0  0  0  0  0  0  0  0  0  0  0
   -1.8511    1.9372   -0.7192 H   0  0  0  0  0  0  0  0  0  0  0  0
   -2.0921    3.5116    0.0478 H   0  0  0  0  0  0  0  0  0  0  0  0
   -0.8477    3.3126   -1.2002 H   0  0  0  0  0  0  0  0  0  0  0  0
   -1.6325    2.6390    2.7364 N   0  0  0  0  0  0  0  0  0  0  0  0
   -2.3514    2.2078    3.9125 C   0  0  0  0  0  0  0  0  0  0  0  0
   -1.5796    3.6365    2.5525 H   0  0  0  0  0  0  0  0  0  0  0  0
   -3.4083    2.0422    3.6567 H   0  0  0  0  0  0  0  0  0  0  0  0
   -1.9136    1.2705    4.2866 H   0  0  0  0  0  0  0  0  0  0  0  0
   -2.2796    2.9821    4.6905 H   0  0  0  0  0  0  0  0  0  0  0  0
 18 19  1  0  0  0  0
 19 31  1  0  0  0  0
 19 20  2  0  0  0  0
  8  9  1  0  0  0  0
  9 17  1  0  0  0  0
  9 10  2  0  0  0  0
  1  3  1  0  0  0  0
  1  7  1  0  0  0  0
  1  2  2  0  0  0  0
 32 33  1  0  0  0  0
 33 41  1  0  0  0  0
 33 34  2  0  0  0  0
 21 22  1  0  0  0  0
 22 23  1  0  0  0  0
 18 21  1  0  0  0  0
 17 23  1  0  0  0  0
 17 18  1  0  0  0  0
  8 11  1  0  0  0  0
 32 35  1  0  0  0  0
 41 42  1  0  0  0  0
  7  8  1  0  0  0  0
 31 32  1  0  0  0  0
 22 27  1  0  0  0  0
 22 28  1  0  0  0  0
 21 25  1  0  0  0  0
 21 26  1  0  0  0  0
 23 29  1  0  0  0  0
 23 30  1  0  0  0  0
 18 24  1  0  0  0  0
  3  4  1  0  0  0  0
  3  5  1  0  0  0  0
  3  6  1  0  0  0  0
 11 14  1  0  0  0  0
 11 15  1  0  0  0  0
 11 16  1  0  0  0  0
 35 38  1  0  0  0  0
 35 39  1  0  0  0  0
 35 40  1  0  0  0  0
 42 44  1  0  0  0  0
 42 45  1  0  0  0  0
 42 46  1  0  0  0  0
  8 13  1  0  0  0  0
 32 37  1  0  0  0  0
 31 36  1  0  0  0  0
 41 43  1  0  0  0  0
  7 12  1  0  0  0  0
M  END
$$$$

  -OEChem-05262214473D

 46 46  0     1  0  0  0  0  0999 V2000
   -0.6012   -3.2995    3.8205 C   0  0  0  0  0  0  0  0  0  0  0  0
   -0.6574   -4.4683    3.4568 O   0  0  0  0  0  0  0  0  0  0  0  0
   -0.4935   -2.9859    5.2760 C   0  0  0  0  0  0  0  0  0  0  0  0
   -1.4789   -2.8689    5.7550 H   0  0  0  0  0  0  0  0  0  0  0  0
    0.0123   -3.7847    5.8419 H   0  0  0  0  0  0  0  0  0  0  0  0
    0.0585   -2.0642    5.5199 H   0  0  0  0  0  0  0  0  0  0  0  0
   -0.6261   -2.1849    2.9917 N   0  0  0  0  0  0  0  0  0  0  0  0
   -0.7237   -2.2601    1.5650 C   0  0  2  0  0  0  0  0  0  0  0  0
    0.1695   -1.1513    1.0687 C   0  0  0  0  0  0  0  0  0  0  0  0
    0.3193   -0.1267    1.7365 O   0  0  0  0  0  0  0  0  0  0  0  0
   -2.1397   -2.0663    1.0750 C   0  0  0  0  0  0  0  0  0  0  0  0
   -0.5717   -1.2606    3.4238 H   0  0  0  0  0  0  0  0  0  0  0  0
   -0.3076   -3.2111    1.2363 H   0  0  0  0  0  0  0  0  0  0  0  0
   -2.5584   -1.1089    1.4061 H   0  0  0  0  0  0  0  0  0  0  0  0
   -2.1682   -2.0790   -0.0197 H   0  0  0  0  0  0  0  0  0  0  0  0
   -2.7965   -2.8601    1.4459 H   0  0  0  0  0  0  0  0  0  0  0  0
    0.7724   -1.3745   -0.1593 N   0  0  0  0  0  0  0  0  0  0  0  0
    1.6644   -0.4046   -0.7812 C   0  0  2  0  0  0  0  0  0  0  0  0
    1.7547    0.7703    0.1454 C   0  0  0  0  0  0  0  0  0  0  0  0
    2.8433    1.0950    0.6051 O   0  0  0  0  0  0  0  0  0  0  0  0
    0.9832   -0.0385   -2.0947 C   0  0  0  0  0  0  0  0  0  0  0  0
    0.4329   -1.4308   -1.7953 C   0  0  0  0  0  0  0  0  0  0  0  0
    0.7499   -2.6270   -0.9105 C   0  0  0  0  0  0  0  0  0  0  0  0
    2.6660   -0.8234   -0.9178 H   0  0  0  0  0  0  0  0  0  0  0  0
    1.7341    0.0889   -2.8835 H   0  0  0  0  0  0  0  0  0  0  0  0
    0.3808    0.8733   -2.0362 H   0  0  0  0  0  0  0  0  0  0  0  0
   -0.5797   -1.3599   -1.3815 H   0  0  0  0  0  0  0  0  0  0  0  0
    0.3950   -2.0608   -2.6885 H   0  0  0  0  0  0  0  0  0  0  0  0
   -0.0575   -3.3641   -0.8933 H   0  0  0  0  0  0  0  0  0  0  0  0
    1.6766   -3.1193   -1.2248 H   0  0  0  0  0  0  0  0  0  0  0  0
    0.6276    1.4131    0.4290 N   0  0  0  0  0  0  0  0  0  0  0  0
   -0.3926    2.1088    1.1801 C   0  0  2  0  0  0  0  0  0  0  0  0
   -0.6845    1.3004    2.4374 C   0  0  0  0  0  0  0  0  0  0  0  0
   -0.4442    0.0987    2.5331 O   0  0  0  0  0  0  0  0  0  0  0  0
   -1.6541    2.3016    0.3529 C   0  0  0  0  0  0  0  0  0  0  0  0
    1.4941    1.9012    0.2235 H   0  0  0  0  0  0  0  0  0  0  0  0
    0.0280    3.0809    1.4596 H   0  0  0  0  0  0  0  0  0  0  0  0
   -2.0899    1.3384    0.0634 H   0  0  0  0  0  0  0  0  0  0  0  0
   -2.4156    2.8539    0.9134 H   0  0  0  0  0  0  0  0  0  0  0  0
   -1.4366    2.8575   -0.5656 H   0  0  0  0  0  0  0  0  0  0  0  0
   -1.2845    2.0694    3.4247 N   0  0  0  0  0  0  0  0  0  0  0  0
   -1.6707    1.5288    4.7071 C   0  0  0  0  0  0  0  0  0  0  0  0
   -1.4290    3.0623    3.2660 H   0  0  0  0  0  0  0  0  0  0  0  0
   -2.7177    1.1943    4.6644 H   0  0  0  0  0  0  0  0  0  0  0  0
   -1.0230    0.6749    4.9550 H   0  0  0  0  0  0  0  0  0  0  0  0
   -1.5651    2.3053    5.4791 H   0  0  0  0  0  0  0  0  0  0  0  0
 18 19  1  0  0  0  0
 19 31  1  0  0  0  0
 19 20  2  0  0  0  0
  8  9  1  0  0  0  0
  9 17  1  0  0  0  0
  9 10  2  0  0  0  0
  1  3  1  0  0  0  0
  1  7  1  0  0  0  0
  1  2  2  0  0  0  0
 32 33  1  0  0  0  0
 33 41  1  0  0  0  0
 33 34  2  0  0  0  0
 21 22  1  0  0  0  0
 22 23  1  0  0  0  0
 18 21  1  0  0  0  0
 17 23  1  0  0  0  0
 17 18  1  0  0  0  0
  8 11  1  0  0  0  0
 32 35  1  0  0  0  0
 41 42  1  0  0  0  0
  7  8  1  0  0  0  0
 31 32  1  0  0  0  0
 22 27  1  0  0  0  0
 22 28  1  0  0  0  0
 21 25  1  0  0  0  0
 21 26  1  0  0  0  0
 23 29  1  0  0  0  0
 23 30  1  0  0  0  0
 18 24  1  0  0  0  0
  3  4  1  0  0  0  0
  3  5  1  0  0  0  0
  3  6  1  0  0  0  0
 11 14  1  0  0  0  0
 11 15  1  0  0  0  0
 11 16  1  0  0  0  0
 35 38  1  0  0  0  0
 35 39  1  0  0  0  0
 35 40  1  0  0  0  0
 42 44  1  0  0  0  0
 42 45  1  0  0  0  0
 42 46  1  0  0  0  0
  8 13  1  0  0  0  0
 32 37  1  0  0  0  0
 31 36  1  0  0  0  0
 41 43  1  0  0  0  0
  7 12  1  0  0  0  0
M  END
$$$$

  -OEChem-05262214473D

 46 46  0     1  0  0  0  0  0999 V2000
   -0.6012   -3.2995    3.8205 C   0  0  0  0  0  0  0  0  0  0  0  0
   -0.6574   -4.4683    3.4568 O   0  0  0  0  0  0  0  0  0  0  0  0
   -0.4935   -2.9859    5.2760 C   0  0  0  0  0  0  0  0  0  0  0  0
   -1.4789   -2.8689    5.7550 H   0  0  0  0  0  0  0  0  0  0  0  0
    0.0123   -3.7847    5.8419 H   0  0  0  0  0  0  0  0  0  0  0  0
    0.0585   -2.0642    5.5199 H   0  0  0  0  0  0  0  0  0  0  0  0
   -0.6261   -2.1849    2.9917 N   0  0  0  0  0  0  0  0  0  0  0  0
   -0.7237   -2.2601    1.5650 C   0  0  2  0  0  0  0  0  0  0  0  0
    0.1695   -1.1513    1.0687 C   0  0  0  0  0  0  0  0  0  0  0  0
    0.3193   -0.1267    1.7365 O   0  0  0  0  0  0  0  0  0  0  0  0
   -2.1397   -2.0663    1.0750 C   0  0  0  0  0  0  0  0  0  0  0  0
   -0.5717   -1.2606    3.4238 H   0  0  0  0  0  0  0  0  0  0  0  0
   -0.3076   -3.2111    1.2363 H   0  0  0  0  0  0  0  0  0  0  0  0
   -2.5584   -1.1089    1.4061 H   0  0  0  0  0  0  0  0  0  0  0  0
   -2.1682   -2.0790   -0.0197 H   0  0  0  0  0  0  0  0  0  0  0  0
   -2.7965   -2.8601    1.4459 H   0  0  0  0  0  0  0  0  0  0  0  0
    0.7724   -1.3745   -0.1593 N   0  0  0  0  0  0  0  0  0  0  0  0
    1.6644   -0.4046   -0.7812 C   0  0  2  0  0  0  0  0  0  0  0  0
    1.7547    0.7703    0.1454 C   0  0  0  0  0  0  0  0  0  0  0  0
    2.8488    1.2670    0.3864 O   0  0  0  0  0  0  0  0  0  0  0  0
    0.9832   -0.0385   -2.0947 C   0  0  0  0  0  0  0  0  0  0  0  0
    0.4329   -1.4308   -1.7953 C   0  0  0  0  0  0  0  0  0  0  0  0
    0.7499   -2.6270   -0.9105 C   0  0  0  0  0  0  0  0  0  0  0  0
    2.6660   -0.8234   -0.9178 H   0  0  0  0  0  0  0  0  0  0  0  0
    1.7341    0.0889   -2.8835 H   0  0  0  0  0  0  0  0  0  0  0  0
    0.3808    0.8733   -2.0362 H   0  0  0  0  0  0  0  0  0  0  0  0
   -0.5797   -1.3599   -1.3815 H   0  0  0  0  0  0  0  0  0  0  0  0
    0.3950   -2.0608   -2.6885 H   0  0  0  0  0  0  0  0  0  0  0  0
   -0.0575   -3.3641   -0.8933 H   0  0  0  0  0  0  0  0  0  0  0  0
    1.6766   -3.1193   -1.2248 H   0  0  0  0  0  0  0  0  0  0  0  0
    0.6220    1.2227    0.6709 N   0  0  0  0  0  0  0  0  0  0  0  0
   -0.3205    1.7452    1.6342 C   0  0  2  0  0  0  0  0  0  0  0  0
   -0.2177    0.9014    2.8979 C   0  0  0  0  0  0  0  0  0  0  0  0
    0.2242   -0.2456    2.9045 O   0  0  0  0  0  0  0  0  0  0  0  0
   -1.7385    1.7309    1.0848 C   0  0  0  0  0  0  0  0  0  0  0  0
    1.3398    1.8443    0.3107 H   0  0  0  0  0  0  0  0  0  0  0  0
   -0.0110    2.7727    1.8542 H   0  0  0  0  0  0  0  0  0  0  0  0
   -2.0661    0.7097    0.8584 H   0  0  0  0  0  0  0  0  0  0  0  0
   -2.4472    2.1533    1.8048 H   0  0  0  0  0  0  0  0  0  0  0  0
   -1.8039    2.3137    0.1597 H   0  0  0  0  0  0  0  0  0  0  0  0
   -0.7177    1.5642    4.0100 N   0  0  0  0  0  0  0  0  0  0  0  0
   -0.7433    0.9695    5.3259 C   0  0  0  0  0  0  0  0  0  0  0  0
   -1.0468    2.5205    3.9157 H   0  0  0  0  0  0  0  0  0  0  0  0
   -1.7106    0.4702    5.4844 H   0  0  0  0  0  0  0  0  0  0  0  0
    0.0682    0.2317    5.4106 H   0  0  0  0  0  0  0  0  0  0  0  0
   -0.6067    1.7535    6.0853 H   0  0  0  0  0  0  0  0  0  0  0  0
 18 19  1  0  0  0  0
 19 31  1  0  0  0  0
 19 20  2  0  0  0  0
  8  9  1  0  0  0  0
  9 17  1  0  0  0  0
  9 10  2  0  0  0  0
  1  3  1  0  0  0  0
  1  7  1  0  0  0  0
  1  2  2  0  0  0  0
 32 33  1  0  0  0  0
 33 41  1  0  0  0  0
 33 34  2  0  0  0  0
 21 22  1  0  0  0  0
 22 23  1  0  0  0  0
 18 21  1  0  0  0  0
 17 23  1  0  0  0  0
 17 18  1  0  0  0  0
  8 11  1  0  0  0  0
 32 35  1  0  0  0  0
 41 42  1  0  0  0  0
  7  8  1  0  0  0  0
 31 32  1  0  0  0  0
 22 27  1  0  0  0  0
 22 28  1  0  0  0  0
 21 25  1  0  0  0  0
 21 26  1  0  0  0  0
 23 29  1  0  0  0  0
 23 30  1  0  0  0  0
 18 24  1  0  0  0  0
  3  4  1  0  0  0  0
  3  5  1  0  0  0  0
  3  6  1  0  0  0  0
 11 14  1  0  0  0  0
 11 15  1  0  0  0  0
 11 16  1  0  0  0  0
 35 38  1  0  0  0  0
 35 39  1  0  0  0  0
 35 40  1  0  0  0  0
 42 44  1  0  0  0  0
 42 45  1  0  0  0  0
 42 46  1  0  0  0  0
  8 13  1  0  0  0  0
 32 37  1  0  0  0  0
 31 36  1  0  0  0  0
 41 43  1  0  0  0  0
  7 12  1  0  0  0  0
M  END
$$$$

  -OEChem-05262214473D

 46 46  0     1  0  0  0  0  0999 V2000
   -0.6012   -3.2995    3.8205 C   0  0  0  0  0  0  0  0  0  0  0  0
   -0.6574   -4.4683    3.4568 O   0  0  0  0  0  0  0  0  0  0  0  0
   -0.4935   -2.9859    5.2760 C   0  0  0  0  0  0  0  0  0  0  0  0
   -1.4789   -2.8689    5.7550 H   0  0  0  0  0  0  0  0  0  0  0  0
    0.0123   -3.7847    5.8419 H   0  0  0  0  0  0  0  0  0  0  0  0
    0.0585   -2.0642    5.5199 H   0  0  0  0  0  0  0  0  0  0  0  0
   -0.6261   -2.1849    2.9917 N   0  0  0  0  0  0  0  0  0  0  0  0
   -0.7237   -2.2601    1.5650 C   0  0  2  0  0  0  0  0  0  0  0  0
    0.1695   -1.1513    1.0687 C   0  0  0  0  0  0  0  0  0  0  0  0
    0.3193   -0.1267    1.7365 O   0  0  0  0  0  0  0  0  0  0  0  0
   -2.1397   -2.0663    1.0750 C   0  0  0  0  0  0  0  0  0  0  0  0
   -0.5717   -1.2606    3.4238 H   0  0  0  0  0  0  0  0  0  0  0  0
   -0.3076   -3.2111    1.2363 H   0  0  0  0  0  0  0  0  0  0  0  0
   -2.5584   -1.1089    1.4061 H   0  0  0  0  0  0  0  0  0  0  0  0
   -2.1682   -2.0790   -0.0197 H   0  0  0  0  0  0  0  0  0  0  0  0
   -2.7965   -2.8601    1.4459 H   0  0  0  0  0  0  0  0  0  0  0  0
    0.7724   -1.3745   -0.1593 N   0  0  0  0  0  0  0  0  0  0  0  0
    1.6644   -0.4046   -0.7812 C   0  0  2  0  0  0  0  0  0  0  0  0
    1.7547    0.7703    0.1454 C   0  0  0  0  0  0  0  0  0  0  0  0
    2.7822    1.4375    0.1767 O   0  0  0  0  0  0  0  0  0  0  0  0
    0.9832   -0.0385   -2.0947 C   0  0  0  0  0  0  0  0  0  0  0  0
    0.4329   -1.4308   -1.7953 C   0  0  0  0  0  0  0  0  0  0  0  0
    0.7499   -2.6270   -0.9105 C   0  0  0  0  0  0  0  0  0  0  0  0
    2.6660   -0.8234   -0.9178 H   0  0  0  0  0  0  0  0  0  0  0  0
    1.7341    0.0889   -2.8835 H   0  0  0  0  0  0  0  0  0  0  0  0
    0.3808    0.8733   -2.0362 H   0  0  0  0  0  0  0  0  0  0  0  0
   -0.5797   -1.3599   -1.3815 H   0  0  0  0  0  0  0  0  0  0  0  0
    0.3950   -2.0608   -2.6885 H   0  0  0  0  0  0  0  0  0  0  0  0
   -0.0575   -3.3641   -0.8933 H   0  0  0  0  0  0  0  0  0  0  0  0
    1.6766   -3.1193   -1.2248 H   0  0  0  0  0  0  0  0  0  0  0  0
    0.6960    1.0342    0.9027 N   0  0  0  0  0  0  0  0  0  0  0  0
   -0.1005    1.3984    2.0524 C   0  0  2  0  0  0  0  0  0  0  0  0
    0.3903    0.5835    3.2418 C   0  0  0  0  0  0  0  0  0  0  0  0
    1.0003   -0.4771    3.1223 O   0  0  0  0  0  0  0  0  0  0  0  0
   -1.5802    1.1546    1.8001 C   0  0  0  0  0  0  0  0  0  0  0  0
    1.2175    1.7633    0.4253 H   0  0  0  0  0  0  0  0  0  0  0  0
    0.0807    2.4626    2.2385 H   0  0  0  0  0  0  0  0  0  0  0  0
   -1.7812    0.0937    1.6117 H   0  0  0  0  0  0  0  0  0  0  0  0
   -2.1848    1.4577    2.6613 H   0  0  0  0  0  0  0  0  0  0  0  0
   -1.9246    1.7184    0.9264 H   0  0  0  0  0  0  0  0  0  0  0  0
    0.0294    1.1578    4.4526 N   0  0  0  0  0  0  0  0  0  0  0  0
    0.3674    0.5679    5.7268 C   0  0  0  0  0  0  0  0  0  0  0  0
   -0.4593    2.0483    4.4572 H   0  0  0  0  0  0  0  0  0  0  0  0
   -0.4555   -0.0810    6.0609 H   0  0  0  0  0  0  0  0  0  0  0  0
    1.2855   -0.0289    5.6224 H   0  0  0  0  0  0  0  0  0  0  0  0
    0.5302    1.3644    6.4678 H   0  0  0  0  0  0  0  0  0  0  0  0
 18 19  1  0  0  0  0
 19 31  1  0  0  0  0
 19 20  2  0  0  0  0
  8  9  1  0  0  0  0
  9 17  1  0  0  0  0
  9 10  2  0  0  0  0
  1  3  1  0  0  0  0
  1  7  1  0  0  0  0
  1  2  2  0  0  0  0
 32 33  1  0  0  0  0
 33 41  1  0  0  0  0
 33 34  2  0  0  0  0
 21 22  1  0  0  0  0
 22 23  1  0  0  0  0
 18 21  1  0  0  0  0
 17 23  1  0  0  0  0
 17 18  1  0  0  0  0
  8 11  1  0  0  0  0
 32 35  1  0  0  0  0
 41 42  1  0  0  0  0
  7  8  1  0  0  0  0
 31 32  1  0  0  0  0
 22 27  1  0  0  0  0
 22 28  1  0  0  0  0
 21 25  1  0  0  0  0
 21 26  1  0  0  0  0
 23 29  1  0  0  0  0
 23 30  1  0  0  0  0
 18 24  1  0  0  0  0
  3  4  1  0  0  0  0
  3  5  1  0  0  0  0
  3  6  1  0  0  0  0
 11 14  1  0  0  0  0
 11 15  1  0  0  0  0
 11 16  1  0  0  0  0
 35 38  1  0  0  0  0
 35 39  1  0  0  0  0
 35 40  1  0  0  0  0
 42 44  1  0  0  0  0
 42 45  1  0  0  0  0
 42 46  1  0  0  0  0
  8 13  1  0  0  0  0
 32 37  1  0  0  0  0
 31 36  1  0  0  0  0
 41 43  1  0  0  0  0
  7 12  1  0  0  0  0
M  END
$$$$

  -OEChem-05262214473D

 46 46  0     1  0  0  0  0  0999 V2000
   -0.6012   -3.2995    3.8205 C   0  0  0  0  0  0  0  0  0  0  0  0
   -0.6574   -4.4683    3.4568 O   0  0  0  0  0  0  0  0  0  0  0  0
   -0.4935   -2.9859    5.2760 C   0  0  0  0  0  0  0  0  0  0  0  0
   -1.4789   -2.8689    5.7550 H   0  0  0  0  0  0  0  0  0  0  0  0
    0.0123   -3.7847    5.8419 H   0  0  0  0  0  0  0  0  0  0  0  0
    0.0585   -2.0642    5.5199 H   0  0  0  0  0  0  0  0  0  0  0  0
   -0.6261   -2.1849    2.9917 N   0  0  0  0  0  0  0  0  0  0  0  0
   -0.7237   -2.2601    1.5650 C   0  0  2  0  0  0  0  0  0  0  0  0
    0.1695   -1.1513    1.0687 C   0  0  0  0  0  0  0  0  0  0  0  0
    0.3193   -0.1267    1.7365 O   0  0  0  0  0  0  0  0  0  0  0  0
   -2.1397   -2.0663    1.0750 C   0  0  0  0  0  0  0  0  0  0  0  0
   -0.5717   -1.2606    3.4238 H   0  0  0  0  0  0  0  0  0  0  0  0
   -0.3076   -3.2111    1.2363 H   0  0  0  0  0  0  0  0  0  0  0  0
   -2.5584   -1.1089    1.4061 H   0  0  0  0  0  0  0  0  0  0  0  0
   -2.1682   -2.0790   -0.0197 H   0  0  0  0  0  0  0  0  0  0  0  0
   -2.7965   -2.8601    1.4459 H   0  0  0  0  0  0  0  0  0  0  0  0
    0.7724   -1.3745   -0.1593 N   0  0  0  0  0  0  0  0  0  0  0  0
    1.6644   -0.4046   -0.7812 C   0  0  2  0  0  0  0  0  0  0  0  0
    1.7547    0.7703    0.1454 C   0  0  0  0  0  0  0  0  0  0  0  0
    2.6480    1.5948   -0.0097 O   0  0  0  0  0  0  0  0  0  0  0  0
    0.9832   -0.0385   -2.0947 C   0  0  0  0  0  0  0  0  0  0  0  0
    0.4329   -1.4308   -1.7953 C   0  0  0  0  0  0  0  0  0  0  0  0
    0.7499   -2.6270   -0.9105 C   0  0  0  0  0  0  0  0  0  0  0  0
    2.6660   -0.8234   -0.9178 H   0  0  0  0  0  0  0  0  0  0  0  0
    1.7341    0.0889   -2.8835 H   0  0  0  0  0  0  0  0  0  0  0  0
    0.3808    0.8733   -2.0362 H   0  0  0  0  0  0  0  0  0  0  0  0
   -0.5797   -1.3599   -1.3815 H   0  0  0  0  0  0  0  0  0  0  0  0
    0.3950   -2.0608   -2.6885 H   0  0  0  0  0  0  0  0  0  0  0  0
   -0.0575   -3.3641   -0.8933 H   0  0  0  0  0  0  0  0  0  0  0  0
    1.6766   -3.1193   -1.2248 H   0  0  0  0  0  0  0  0  0  0  0  0
    0.8448    0.8604    1.1086 N   0  0  0  0  0  0  0  0  0  0  0  0
    0.2523    1.0921    2.4065 C   0  0  2  0  0  0  0  0  0  0  0  0
    1.0983    0.3683    3.4456 C   0  0  0  0  0  0  0  0  0  0  0  0
    1.8312   -0.5799    3.1717 O   0  0  0  0  0  0  0  0  0  0  0  0
   -1.1901    0.6122    2.4499 C   0  0  0  0  0  0  0  0  0  0  0  0
    1.1356    1.6637    0.5596 H   0  0  0  0  0  0  0  0  0  0  0  0
    0.2968    2.1718    2.5862 H   0  0  0  0  0  0  0  0  0  0  0  0
   -1.2547   -0.4674    2.2719 H   0  0  0  0  0  0  0  0  0  0  0  0
   -1.6463    0.8144    3.4246 H   0  0  0  0  0  0  0  0  0  0  0  0
   -1.7904    1.1121    1.6821 H   0  0  0  0  0  0  0  0  0  0  0  0
    0.9058    0.8778    4.7221 N   0  0  0  0  0  0  0  0  0  0  0  0
    1.5859    0.3515    5.8825 C   0  0  0  0  0  0  0  0  0  0  0  0
    0.2937    1.6776    4.8538 H   0  0  0  0  0  0  0  0  0  0  0  0
    0.9618   -0.4215    6.3546 H   0  0  0  0  0  0  0  0  0  0  0  0
    2.5460   -0.0893    5.5760 H   0  0  0  0  0  0  0  0  0  0  0  0
    1.7683    1.1645    6.6006 H   0  0  0  0  0  0  0  0  0  0  0  0
 18 19  1  0  0  0  0
 19 31  1  0  0  0  0
 19 20  2  0  0  0  0
  8  9  1  0  0  0  0
  9 17  1  0  0  0  0
  9 10  2  0  0  0  0
  1  3  1  0  0  0  0
  1  7  1  0  0  0  0
  1  2  2  0  0  0  0
 32 33  1  0  0  0  0
 33 41  1  0  0  0  0
 33 34  2  0  0  0  0
 21 22  1  0  0  0  0
 22 23  1  0  0  0  0
 18 21  1  0  0  0  0
 17 23  1  0  0  0  0
 17 18  1  0  0  0  0
  8 11  1  0  0  0  0
 32 35  1  0  0  0  0
 41 42  1  0  0  0  0
  7  8  1  0  0  0  0
 31 32  1  0  0  0  0
 22 27  1  0  0  0  0
 22 28  1  0  0  0  0
 21 25  1  0  0  0  0
 21 26  1  0  0  0  0
 23 29  1  0  0  0  0
 23 30  1  0  0  0  0
 18 24  1  0  0  0  0
  3  4  1  0  0  0  0
  3  5  1  0  0  0  0
  3  6  1  0  0  0  0
 11 14  1  0  0  0  0
 11 15  1  0  0  0  0
 11 16  1  0  0  0  0
 35 38  1  0  0  0  0
 35 39  1  0  0  0  0
 35 40  1  0  0  0  0
 42 44  1  0  0  0  0
 42 45  1  0  0  0  0
 42 46  1  0  0  0  0
  8 13  1  0  0  0  0
 32 37  1  0  0  0  0
 31 36  1  0  0  0  0
 41 43  1  0  0  0  0
  7 12  1  0  0  0  0
M  END
$$$$

  -OEChem-05262214473D

 46 46  0     1  0  0  0  0  0999 V2000
   -0.6012   -3.2995    3.8205 C   0  0  0  0  0  0  0  0  0  0  0  0
   -0.6574   -4.4683    3.4568 O   0  0  0  0  0  0  0  0  0  0  0  0
   -0.4935   -2.9859    5.2760 C   0  0  0  0  0  0  0  0  0  0  0  0
   -1.4789   -2.8689    5.7550 H   0  0  0  0  0  0  0  0  0  0  0  0
    0.0123   -3.7847    5.8419 H   0  0  0  0  0  0  0  0  0  0  0  0
    0.0585   -2.0642    5.5199 H   0  0  0  0  0  0  0  0  0  0  0  0
   -0.6261   -2.1849    2.9917 N   0  0  0  0  0  0  0  0  0  0  0  0
   -0.7237   -2.2601    1.5650 C   0  0  2  0  0  0  0  0  0  0  0  0
    0.1695   -1.1513    1.0687 C   0  0  0  0  0  0  0  0  0  0  0  0
    0.3193   -0.1267    1.7365 O   0  0  0  0  0  0  0  0  0  0  0  0
   -2.1397   -2.0663    1.0750 C   0  0  0  0  0  0  0  0  0  0  0  0
   -0.5717   -1.2606    3.4238 H   0  0  0  0  0  0  0  0  0  0  0  0
   -0.3076   -3.2111    1.2363 H   0  0  0  0  0  0  0  0  0  0  0  0
   -2.5584   -1.1089    1.4061 H   0  0  0  0  0  0  0  0  0  0  0  0
   -2.1682   -2.0790   -0.0197 H   0  0  0  0  0  0  0  0  0  0  0  0
   -2.7965   -2.8601    1.4459 H   0  0  0  0  0  0  0  0  0  0  0  0
    0.7724   -1.3745   -0.1593 N   0  0  0  0  0  0  0  0  0  0  0  0
    1.6644   -0.4046   -0.7812 C   0  0  2  0  0  0  0  0  0  0  0  0
    1.7547    0.7703    0.1454 C   0  0  0  0  0  0  0  0  0  0  0  0
    2.4555    1.7281   -0.1600 O   0  0  0  0  0  0  0  0  0  0  0  0
    0.9832   -0.0385   -2.0947 C   0  0  0  0  0  0  0  0  0  0  0  0
    0.4329   -1.4308   -1.7953 C   0  0  0  0  0  0  0  0  0  0  0  0
    0.7499   -2.6270   -0.9105 C   0  0  0  0  0  0  0  0  0  0  0  0
    2.6660   -0.8234   -0.9178 H   0  0  0  0  0  0  0  0  0  0  0  0
    1.7341    0.0889   -2.8835 H   0  0  0  0  0  0  0  0  0  0  0  0
    0.3808    0.8733   -2.0362 H   0  0  0  0  0  0  0  0  0  0  0  0
   -0.5797   -1.3599   -1.3815 H   0  0  0  0  0  0  0  0  0  0  0  0
    0.3950   -2.0608   -2.6885 H   0  0  0  0  0  0  0  0  0  0  0  0
   -0.0575   -3.3641   -0.8933 H   0  0  0  0  0  0  0  0  0  0  0  0
    1.6766   -3.1193   -1.2248 H   0  0  0  0  0  0  0  0  0  0  0  0
    1.0580    0.7130    1.2747 N   0  0  0  0  0  0  0  0  0  0  0  0
    0.7139    0.8471    2.6720 C   0  0  2  0  0  0  0  0  0  0  0  0
    1.8579    0.2705    3.4956 C   0  0  0  0  0  0  0  0  0  0  0  0
    2.6601   -0.5470    3.0492 O   0  0  0  0  0  0  0  0  0  0  0  0
   -0.5947    0.1405    2.9899 C   0  0  0  0  0  0  0  0  0  0  0  0
    1.0997    1.5523    0.7044 H   0  0  0  0  0  0  0  0  0  0  0  0
    0.6226    1.9200    2.8737 H   0  0  0  0  0  0  0  0  0  0  0  0
   -0.5224   -0.9355    2.7940 H   0  0  0  0  0  0  0  0  0  0  0  0
   -0.8685    0.2672    4.0425 H   0  0  0  0  0  0  0  0  0  0  0  0
   -1.4105    0.5362    2.3754 H   0  0  0  0  0  0  0  0  0  0  0  0
    1.8519    0.7434    4.8003 N   0  0  0  0  0  0  0  0  0  0  0  0
    2.8291    0.3349    5.7822 C   0  0  0  0  0  0  0  0  0  0  0  0
    1.1607    1.4339    5.0783 H   0  0  0  0  0  0  0  0  0  0  0  0
    2.4450   -0.5284    6.3455 H   0  0  0  0  0  0  0  0  0  0  0  0
    3.7639    0.0548    5.2745 H   0  0  0  0  0  0  0  0  0  0  0  0
    3.0231    1.1674    6.4746 H   0  0  0  0  0  0  0  0  0  0  0  0
 18 19  1  0  0  0  0
 19 31  1  0  0  0  0
 19 20  2  0  0  0  0
  8  9  1  0  0  0  0
  9 17  1  0  0  0  0
  9 10  2  0  0  0  0
  1  3  1  0  0  0  0
  1  7  1  0  0  0  0
  1  2  2  0  0  0  0
 32 33  1  0  0  0  0
 33 41  1  0  0  0  0
 33 34  2  0  0  0  0
 21 22  1  0  0  0  0
 22 23  1  0  0  0  0
 18 21  1  0  0  0  0
 17 23  1  0  0  0  0
 17 18  1  0  0  0  0
  8 11  1  0  0  0  0
 32 35  1  0  0  0  0
 41 42  1  0  0  0  0
  7  8  1  0  0  0  0
 31 32  1  0  0  0  0
 22 27  1  0  0  0  0
 22 28  1  0  0  0  0
 21 25  1  0  0  0  0
 21 26  1  0  0  0  0
 23 29  1  0  0  0  0
 23 30  1  0  0  0  0
 18 24  1  0  0  0  0
  3  4  1  0  0  0  0
  3  5  1  0  0  0  0
  3  6  1  0  0  0  0
 11 14  1  0  0  0  0
 11 15  1  0  0  0  0
 11 16  1  0  0  0  0
 35 38  1  0  0  0  0
 35 39  1  0  0  0  0
 35 40  1  0  0  0  0
 42 44  1  0  0  0  0
 42 45  1  0  0  0  0
 42 46  1  0  0  0  0
  8 13  1  0  0  0  0
 32 37  1  0  0  0  0
 31 36  1  0  0  0  0
 41 43  1  0  0  0  0
  7 12  1  0  0  0  0
M  END
$$$$

  -OEChem-05262214473D

 46 46  0     1  0  0  0  0  0999 V2000
   -0.6012   -3.2995    3.8205 C   0  0  0  0  0  0  0  0  0  0  0  0
   -0.6574   -4.4683    3.4568 O   0  0  0  0  0  0  0  0  0  0  0  0
   -0.4935   -2.9859    5.2760 C   0  0  0  0  0  0  0  0  0  0  0  0
   -1.4789   -2.8689    5.7550 H   0  0  0  0  0  0  0  0  0  0  0  0
    0.0123   -3.7847    5.8419 H   0  0  0  0  0  0  0  0  0  0  0  0
    0.0585   -2.0642    5.5199 H   0  0  0  0  0  0  0  0  0  0  0  0
   -0.6261   -2.1849    2.9917 N   0  0  0  0  0  0  0  0  0  0  0  0
   -0.7237   -2.2601    1.5650 C   0  0  2  0  0  0  0  0  0  0  0  0
    0.1695   -1.1513    1.0687 C   0  0  0  0  0  0  0  0  0  0  0  0
    0.3193   -0.1267    1.7365 O   0  0  0  0  0  0  0  0  0  0  0  0
   -2.1397   -2.0663    1.0750 C   0  0  0  0  0  0  0  0  0  0  0  0
   -0.5717   -1.2606    3.4238 H   0  0  0  0  0  0  0  0  0  0  0  0
   -0.3076   -3.2111    1.2363 H   0  0  0  0  0  0  0  0  0  0  0  0
   -2.5584   -1.1089    1.4061 H   0  0  0  0  0  0  0  0  0  0  0  0
   -2.1682   -2.0790   -0.0197 H   0  0  0  0  0  0  0  0  0  0  0  0
   -2.7965   -2.8601    1.4459 H   0  0  0  0  0  0  0  0  0  0  0  0
    0.7724   -1.3745   -0.1593 N   0  0  0  0  0  0  0  0  0  0  0  0
    1.6644   -0.4046   -0.7812 C   0  0  2  0  0  0  0  0  0  0  0  0
    1.7547    0.7703    0.1454 C   0  0  0  0  0  0  0  0  0  0  0  0
    2.2177    1.8285   -0.2641 O   0  0  0  0  0  0  0  0  0  0  0  0
    0.9832   -0.0385   -2.0947 C   0  0  0  0  0  0  0  0  0  0  0  0
    0.4329   -1.4308   -1.7953 C   0  0  0  0  0  0  0  0  0  0  0  0
    0.7499   -2.6270   -0.9105 C   0  0  0  0  0  0  0  0  0  0  0  0
    2.6660   -0.8234   -0.9178 H   0  0  0  0  0  0  0  0  0  0  0  0
    1.7341    0.0889   -2.8835 H   0  0  0  0  0  0  0  0  0  0  0  0
    0.3808    0.8733   -2.0362 H   0  0  0  0  0  0  0  0  0  0  0  0
   -0.5797   -1.3599   -1.3815 H   0  0  0  0  0  0  0  0  0  0  0  0
    0.3950   -2.0608   -2.6885 H   0  0  0  0  0  0  0  0  0  0  0  0
   -0.0575   -3.3641   -0.8933 H   0  0  0  0  0  0  0  0  0  0  0  0
    1.6766   -3.1193   -1.2248 H   0  0  0  0  0  0  0  0  0  0  0  0
    1.3213    0.6022    1.3895 N   0  0  0  0  0  0  0  0  0  0  0  0
    1.2528    0.6802    2.8311 C   0  0  2  0  0  0  0  0  0  0  0  0
    2.6175    0.2968    3.3882 C   0  0  0  0  0  0  0  0  0  0  0  0
    3.4308   -0.3808    2.7633 O   0  0  0  0  0  0  0  0  0  0  0  0
    0.1655   -0.2282    3.3834 C   0  0  0  0  0  0  0  0  0  0  0  0
    1.1122    1.4367    0.8497 H   0  0  0  0  0  0  0  0  0  0  0  0
    1.0359    1.7244    3.0814 H   0  0  0  0  0  0  0  0  0  0  0  0
    0.3657   -1.2786    3.1425 H   0  0  0  0  0  0  0  0  0  0  0  0
    0.0958   -0.1465    4.4731 H   0  0  0  0  0  0  0  0  0  0  0  0
   -0.8108    0.0298    2.9590 H   0  0  0  0  0  0  0  0  0  0  0  0
    2.8030    0.7637    4.6819 N   0  0  0  0  0  0  0  0  0  0  0  0
    4.0122    0.5194    5.4330 C   0  0  0  0  0  0  0  0  0  0  0  0
    2.0827    1.3337    5.1155 H   0  0  0  0  0  0  0  0  0  0  0  0
    3.8928   -0.3941    6.0341 H   0  0  0  0  0  0  0  0  0  0  0  0
    4.8560    0.3935    4.7385 H   0  0  0  0  0  0  0  0  0  0  0  0
    4.2091    1.3728    6.0984 H   0  0  0  0  0  0  0  0  0  0  0  0
 18 19  1  0  0  0  0
 19 31  1  0  0  0  0
 19 20  2  0  0  0  0
  8  9  1  0  0  0  0
  9 17  1  0  0  0  0
  9 10  2  0  0  0  0
  1  3  1  0  0  0  0
  1  7  1  0  0  0  0
  1  2  2  0  0  0  0
 32 33  1  0  0  0  0
 33 41  1  0  0  0  0
 33 34  2  0  0  0  0
 21 22  1  0  0  0  0
 22 23  1  0  0  0  0
 18 21  1  0  0  0  0
 17 23  1  0  0  0  0
 17 18  1  0  0  0  0
  8 11  1  0  0  0  0
 32 35  1  0  0  0  0
 41 42  1  0  0  0  0
  7  8  1  0  0  0  0
 31 32  1  0  0  0  0
 22 27  1  0  0  0  0
 22 28  1  0  0  0  0
 21 25  1  0  0  0  0
 21 26  1  0  0  0  0
 23 29  1  0  0  0  0
 23 30  1  0  0  0  0
 18 24  1  0  0  0  0
  3  4  1  0  0  0  0
  3  5  1  0  0  0  0
  3  6  1  0  0  0  0
 11 14  1  0  0  0  0
 11 15  1  0  0  0  0
 11 16  1  0  0  0  0
 35 38  1  0  0  0  0
 35 39  1  0  0  0  0
 35 40  1  0  0  0  0
 42 44  1  0  0  0  0
 42 45  1  0  0  0  0
 42 46  1  0  0  0  0
  8 13  1  0  0  0  0
 32 37  1  0  0  0  0
 31 36  1  0  0  0  0
 41 43  1  0  0  0  0
  7 12  1  0  0  0  0
M  END
$$$$

  -OEChem-05262214473D

 46 46  0     1  0  0  0  0  0999 V2000
   -0.6012   -3.2995    3.8205 C   0  0  0  0  0  0  0  0  0  0  0  0
   -0.6574   -4.4683    3.4568 O   0  0  0  0  0  0  0  0  0  0  0  0
   -0.4935   -2.9859    5.2760 C   0  0  0  0  0  0  0  0  0  0  0  0
   -1.4789   -2.8689    5.7550 H   0  0  0  0  0  0  0  0  0  0  0  0
    0.0123   -3.7847    5.8419 H   0  0  0  0  0  0  0  0  0  0  0  0
    0.0585   -2.0642    5.5199 H   0  0  0  0  0  0  0  0  0  0  0  0
   -0.6261   -2.1849    2.9917 N   0  0  0  0  0  0  0  0  0  0  0  0
   -0.7237   -2.2601    1.5650 C   0  0  2  0  0  0  0  0  0  0  0  0
    0.1695   -1.1513    1.0687 C   0  0  0  0  0  0  0  0  0  0  0  0
    0.3193   -0.1267    1.7365 O   0  0  0  0  0  0  0  0  0  0  0  0
   -2.1397   -2.0663    1.0750 C   0  0  0  0  0  0  0  0  0  0  0  0
   -0.5717   -1.2606    3.4238 H   0  0  0  0  0  0  0  0  0  0  0  0
   -0.3076   -3.2111    1.2363 H   0  0  0  0  0  0  0  0  0  0  0  0
   -2.5584   -1.1089    1.4061 H   0  0  0  0  0  0  0  0  0  0  0  0
   -2.1682   -2.0790   -0.0197 H   0  0  0  0  0  0  0  0  0  0  0  0
   -2.7965   -2.8601    1.4459 H   0  0  0  0  0  0  0  0  0  0  0  0
    0.7724   -1.3745   -0.1593 N   0  0  0  0  0  0  0  0  0  0  0  0
    1.6644   -0.4046   -0.7812 C   0  0  2  0  0  0  0  0  0  0  0  0
    1.7547    0.7703    0.1454 C   0  0  0  0  0  0  0  0  0  0  0  0
    1.9508    1.8890   -0.3148 O   0  0  0  0  0  0  0  0  0  0  0  0
    0.9832   -0.0385   -2.0947 C   0  0  0  0  0  0  0  0  0  0  0  0
    0.4329   -1.4308   -1.7953 C   0  0  0  0  0  0  0  0  0  0  0  0
    0.7499   -2.6270   -0.9105 C   0  0  0  0  0  0  0  0  0  0  0  0
    2.6660   -0.8234   -0.9178 H   0  0  0  0  0  0  0  0  0  0  0  0
    1.7341    0.0889   -2.8835 H   0  0  0  0  0  0  0  0  0  0  0  0
    0.3808    0.8733   -2.0362 H   0  0  0  0  0  0  0  0  0  0  0  0
   -0.5797   -1.3599   -1.3815 H   0  0  0  0  0  0  0  0  0  0  0  0
    0.3950   -2.0608   -2.6885 H   0  0  0  0  0  0  0  0  0  0  0  0
   -0.0575   -3.3641   -0.8933 H   0  0  0  0  0  0  0  0  0  0  0  0
    1.6766   -3.1193   -1.2248 H   0  0  0  0  0  0  0  0  0  0  0  0
    1.6166    0.5355    1.4453 N   0  0  0  0  0  0  0  0  0  0  0  0
    1.8324    0.6028    2.8729 C   0  0  2  0  0  0  0  0  0  0  0  0
    3.3251    0.4453    3.1308 C   0  0  0  0  0  0  0  0  0  0  0  0
    4.0906   -0.0924    2.3333 O   0  0  0  0  0  0  0  0  0  0  0  0
    1.0385   -0.4690    3.6035 C   0  0  0  0  0  0  0  0  0  0  0  0
    1.1723    1.3248    0.9858 H   0  0  0  0  0  0  0  0  0  0  0  0
    1.5085    1.5984    3.1951 H   0  0  0  0  0  0  0  0  0  0  0  0
    1.3491   -1.4734    3.2937 H   0  0  0  0  0  0  0  0  0  0  0  0
    1.1807   -0.3986    4.6870 H   0  0  0  0  0  0  0  0  0  0  0  0
   -0.0321   -0.3724    3.3931 H   0  0  0  0  0  0  0  0  0  0  0  0
    3.6945    0.9373    4.3748 N   0  0  0  0  0  0  0  0  0  0  0  0
    5.0547    0.8922    4.8585 C   0  0  0  0  0  0  0  0  0  0  0  0
    2.9969    1.3838    4.9628 H   0  0  0  0  0  0  0  0  0  0  0  0
    5.2067   -0.0280    5.4417 H   0  0  0  0  0  0  0  0  0  0  0  0
    5.7479    0.9038    4.0046 H   0  0  0  0  0  0  0  0  0  0  0  0
    5.2456    1.7669    5.4976 H   0  0  0  0  0  0  0  0  0  0  0  0
 18 19  1  0  0  0  0
 19 31  1  0  0  0  0
 19 20  2  0  0  0  0
  8  9  1  0  0  0  0
  9 17  1  0  0  0  0
  9 10  2  0  0  0  0
  1  3  1  0  0  0  0
  1  7  1  0  0  0  0
  1  2  2  0  0  0  0
 32 33  1  0  0  0  0
 33 41  1  0  0  0  0
 33 34  2  0  0  0  0
 21 22  1  0  0  0  0
 22 23  1  0  0  0  0
 18 21  1  0  0  0  0
 17 23  1  0  0  0  0
 17 18  1  0  0  0  0
  8 11  1  0  0  0  0
 32 35  1  0  0  0  0
 41 42  1  0  0  0  0
  7  8  1  0  0  0  0
 31 32  1  0  0  0  0
 22 27  1  0  0  0  0
 22 28  1  0  0  0  0
 21 25  1  0  0  0  0
 21 26  1  0  0  0  0
 23 29  1  0  0  0  0
 23 30  1  0  0  0  0
 18 24  1  0  0  0  0
  3  4  1  0  0  0  0
  3  5  1  0  0  0  0
  3  6  1  0  0  0  0
 11 14  1  0  0  0  0
 11 15  1  0  0  0  0
 11 16  1  0  0  0  0
 35 38  1  0  0  0  0
 35 39  1  0  0  0  0
 35 40  1  0  0  0  0
 42 44  1  0  0  0  0
 42 45  1  0  0  0  0
 42 46  1  0  0  0  0
  8 13  1  0  0  0  0
 32 37  1  0  0  0  0
 31 36  1  0  0  0  0
 41 43  1  0  0  0  0
  7 12  1  0  0  0  0
M  END
$$$$

  -OEChem-05262214473D

 46 46  0     1  0  0  0  0  0999 V2000
   -0.6012   -3.2995    3.8205 C   0  0  0  0  0  0  0  0  0  0  0  0
   -0.6574   -4.4683    3.4568 O   0  0  0  0  0  0  0  0  0  0  0  0
   -0.4935   -2.9859    5.2760 C   0  0  0  0  0  0  0  0  0  0  0  0
   -1.4789   -2.8689    5.7550 H   0  0  0  0  0  0  0  0  0  0  0  0
    0.0123   -3.7847    5.8419 H   0  0  0  0  0  0  0  0  0  0  0  0
    0.0585   -2.0642    5.5199 H   0  0  0  0  0  0  0  0  0  0  0  0
   -0.6261   -2.1849    2.9917 N   0  0  0  0  0  0  0  0  0  0  0  0
   -0.7237   -2.2601    1.5650 C   0  0  2  0  0  0  0  0  0  0  0  0
    0.1695   -1.1513    1.0687 C   0  0  0  0  0  0  0  0  0  0  0  0
    0.3193   -0.1267    1.7365 O   0  0  0  0  0  0  0  0  0  0  0  0
   -2.1397   -2.0663    1.0750 C   0  0  0  0  0  0  0  0  0  0  0  0
   -0.5717   -1.2606    3.4238 H   0  0  0  0  0  0  0  0  0  0  0  0
   -0.3076   -3.2111    1.2363 H   0  0  0  0  0  0  0  0  0  0  0  0
   -2.5584   -1.1089    1.4061 H   0  0  0  0  0  0  0  0  0  0  0  0
   -2.1682   -2.0790   -0.0197 H   0  0  0  0  0  0  0  0  0  0  0  0
   -2.7965   -2.8601    1.4459 H   0  0  0  0  0  0  0  0  0  0  0  0
    0.7724   -1.3745   -0.1593 N   0  0  0  0  0  0  0  0  0  0  0  0
    1.6644   -0.4046   -0.7812 C   0  0  2  0  0  0  0  0  0  0  0  0
    1.7547    0.7703    0.1454 C   0  0  0  0  0  0  0  0  0  0  0  0
    1.6730    1.9056   -0.3087 O   0  0  0  0  0  0  0  0  0  0  0  0
    0.9832   -0.0385   -2.0947 C   0  0  0  0  0  0  0  0  0  0  0  0
    0.4329   -1.4308   -1.7953 C   0  0  0  0  0  0  0  0  0  0  0  0
    0.7499   -2.6270   -0.9105 C   0  0  0  0  0  0  0  0  0  0  0  0
    2.6660   -0.8234   -0.9178 H   0  0  0  0  0  0  0  0  0  0  0  0
    1.7341    0.0889   -2.8835 H   0  0  0  0  0  0  0  0  0  0  0  0
    0.3808    0.8733   -2.0362 H   0  0  0  0  0  0  0  0  0  0  0  0
   -0.5797   -1.3599   -1.3815 H   0  0  0  0  0  0  0  0  0  0  0  0
    0.3950   -2.0608   -2.6885 H   0  0  0  0  0  0  0  0  0  0  0  0
   -0.0575   -3.3641   -0.8933 H   0  0  0  0  0  0  0  0  0  0  0  0
    1.6766   -3.1193   -1.2248 H   0  0  0  0  0  0  0  0  0  0  0  0
    1.9238    0.5175    1.4382 N   0  0  0  0  0  0  0  0  0  0  0  0
    2.4130    0.6200    2.7944 C   0  0  2  0  0  0  0  0  0  0  0  0
    3.9327    0.7061    2.7409 C   0  0  0  0  0  0  0  0  0  0  0  0
    4.5945    0.2983    1.7887 O   0  0  0  0  0  0  0  0  0  0  0  0
    1.9650   -0.5653    3.6353 C   0  0  0  0  0  0  0  0  0  0  0  0
    1.2758    1.2241    1.1033 H   0  0  0  0  0  0  0  0  0  0  0  0
    2.0083    1.5505    3.2071 H   0  0  0  0  0  0  0  0  0  0  0  0
    2.3609   -1.5066    3.2371 H   0  0  0  0  0  0  0  0  0  0  0  0
    2.3124   -0.4719    4.6695 H   0  0  0  0  0  0  0  0  0  0  0  0
    0.8725   -0.6432    3.6482 H   0  0  0  0  0  0  0  0  0  0  0  0
    4.4656    1.2524    3.9001 N   0  0  0  0  0  0  0  0  0  0  0  0
    5.8854    1.4281    4.0980 C   0  0  0  0  0  0  0  0  0  0  0  0
    3.8410    1.5808    4.6307 H   0  0  0  0  0  0  0  0  0  0  0  0
    6.2970    0.5451    4.6086 H   0  0  0  0  0  0  0  0  0  0  0  0
    6.3790    1.5508    3.1226 H   0  0  0  0  0  0  0  0  0  0  0  0
    6.0618    2.3228    4.7132 H   0  0  0  0  0  0  0  0  0  0  0  0
 18 19  1  0  0  0  0
 19 31  1  0  0  0  0
 19 20  2  0  0  0  0
  8  9  1  0  0  0  0
  9 17  1  0  0  0  0
  9 10  2  0  0  0  0
  1  3  1  0  0  0  0
  1  7  1  0  0  0  0
  1  2  2  0  0  0  0
 32 33  1  0  0  0  0
 33 41  1  0  0  0  0
 33 34  2  0  0  0  0
 21 22  1  0  0  0  0
 22 23  1  0  0  0  0
 18 21  1  0  0  0  0
 17 23  1  0  0  0  0
 17 18  1  0  0  0  0
  8 11  1  0  0  0  0
 32 35  1  0  0  0  0
 41 42  1  0  0  0  0
  7  8  1  0  0  0  0
 31 32  1  0  0  0  0
 22 27  1  0  0  0  0
 22 28  1  0  0  0  0
 21 25  1  0  0  0  0
 21 26  1  0  0  0  0
 23 29  1  0  0  0  0
 23 30  1  0  0  0  0
 18 24  1  0  0  0  0
  3  4  1  0  0  0  0
  3  5  1  0  0  0  0
  3  6  1  0  0  0  0
 11 14  1  0  0  0  0
 11 15  1  0  0  0  0
 11 16  1  0  0  0  0
 35 38  1  0  0  0  0
 35 39  1  0  0  0  0
 35 40  1  0  0  0  0
 42 44  1  0  0  0  0
 42 45  1  0  0  0  0
 42 46  1  0  0  0  0
  8 13  1  0  0  0  0
 32 37  1  0  0  0  0
 31 36  1  0  0  0  0
 41 43  1  0  0  0  0
  7 12  1  0  0  0  0
M  END
$$$$

  -OEChem-05262214473D

 46 46  0     1  0  0  0  0  0999 V2000
   -0.6012   -3.2995    3.8205 C   0  0  0  0  0  0  0  0  0  0  0  0
   -0.6574   -4.4683    3.4568 O   0  0  0  0  0  0  0  0  0  0  0  0
   -0.4935   -2.9859    5.2760 C   0  0  0  0  0  0  0  0  0  0  0  0
   -1.4789   -2.8689    5.7550 H   0  0  0  0  0  0  0  0  0  0  0  0
    0.0123   -3.7847    5.8419 H   0  0  0  0  0  0  0  0  0  0  0  0
    0.0585   -2.0642    5.5199 H   0  0  0  0  0  0  0  0  0  0  0  0
   -0.6261   -2.1849    2.9917 N   0  0  0  0  0  0  0  0  0  0  0  0
   -0.7237   -2.2601    1.5650 C   0  0  2  0  0  0  0  0  0  0  0  0
    0.1695   -1.1513    1.0687 C   0  0  0  0  0  0  0  0  0  0  0  0
    0.3193   -0.1267    1.7365 O   0  0  0  0  0  0  0  0  0  0  0  0
   -2.1397   -2.0663    1.0750 C   0  0  0  0  0  0  0  0  0  0  0  0
   -0.5717   -1.2606    3.4238 H   0  0  0  0  0  0  0  0  0  0  0  0
   -0.3076   -3.2111    1.2363 H   0  0  0  0  0  0  0  0  0  0  0  0
   -2.5584   -1.1089    1.4061 H   0  0  0  0  0  0  0  0  0  0  0  0
   -2.1682   -2.0790   -0.0197 H   0  0  0  0  0  0  0  0  0  0  0  0
   -2.7965   -2.8601    1.4459 H   0  0  0  0  0  0  0  0  0  0  0  0
    0.7724   -1.3745   -0.1593 N   0  0  0  0  0  0  0  0  0  0  0  0
    1.6644   -0.4046   -0.7812 C   0  0  2  0  0  0  0  0  0  0  0  0
    1.7547    0.7703    0.1454 C   0  0  0  0  0  0  0  0  0  0  0  0
    1.4033    1.8771   -0.2462 O   0  0  0  0  0  0  0  0  0  0  0  0
    0.9832   -0.0385   -2.0947 C   0  0  0  0  0  0  0  0  0  0  0  0
    0.4329   -1.4308   -1.7953 C   0  0  0  0  0  0  0  0  0  0  0  0
    0.7499   -2.6270   -0.9105 C   0  0  0  0  0  0  0  0  0  0  0  0
    2.6660   -0.8234   -0.9178 H   0  0  0  0  0  0  0  0  0  0  0  0
    1.7341    0.0889   -2.8835 H   0  0  0  0  0  0  0  0  0  0  0  0
    0.3808    0.8733   -2.0362 H   0  0  0  0  0  0  0  0  0  0  0  0
   -0.5797   -1.3599   -1.3815 H   0  0  0  0  0  0  0  0  0  0  0  0
    0.3950   -2.0608   -2.6885 H   0  0  0  0  0  0  0  0  0  0  0  0
   -0.0575   -3.3641   -0.8933 H   0  0  0  0  0  0  0  0  0  0  0  0
    1.6766   -3.1193   -1.2248 H   0  0  0  0  0  0  0  0  0  0  0  0
    2.2220    0.5493    1.3688 N   0  0  0  0  0  0  0  0  0  0  0  0
    2.9552    0.7307    2.6011 C   0  0  2  0  0  0  0  0  0  0  0  0
    4.3987    1.0612    2.2451 C   0  0  0  0  0  0  0  0  0  0  0  0
    4.9083    0.7649    1.1664 O   0  0  0  0  0  0  0  0  0  0  0  0
    2.8818   -0.5106    3.4766 C   0  0  0  0  0  0  0  0  0  0  0  0
    1.4158    1.1417    1.1943 H   0  0  0  0  0  0  0  0  0  0  0  0
    2.5011    1.5840    3.1166 H   0  0  0  0  0  0  0  0  0  0  0  0
    3.3320   -1.3759    2.9767 H   0  0  0  0  0  0  0  0  0  0  0  0
    3.4137   -0.3613    4.4220 H   0  0  0  0  0  0  0  0  0  0  0  0
    1.8414   -0.7640    3.7069 H   0  0  0  0  0  0  0  0  0  0  0  0
    5.0636    1.6875    3.2900 N   0  0  0  0  0  0  0  0  0  0  0  0
    6.4478    2.0906    3.2032 C   0  0  0  0  0  0  0  0  0  0  0  0
    4.5574    1.9114    4.1417 H   0  0  0  0  0  0  0  0  0  0  0  0
    7.0896    1.2861    3.5918 H   0  0  0  0  0  0  0  0  0  0  0  0
    6.7061    2.2904    2.1528 H   0  0  0  0  0  0  0  0  0  0  0  0
    6.6021    3.0025    3.7986 H   0  0  0  0  0  0  0  0  0  0  0  0
 18 19  1  0  0  0  0
 19 31  1  0  0  0  0
 19 20  2  0  0  0  0
  8  9  1  0  0  0  0
  9 17  1  0  0  0  0
  9 10  2  0  0  0  0
  1  3  1  0  0  0  0
  1  7  1  0  0  0  0
  1  2  2  0  0  0  0
 32 33  1  0  0  0  0
 33 41  1  0  0  0  0
 33 34  2  0  0  0  0
 21 22  1  0  0  0  0
 22 23  1  0  0  0  0
 18 21  1  0  0  0  0
 17 23  1  0  0  0  0
 17 18  1  0  0  0  0
  8 11  1  0  0  0  0
 32 35  1  0  0  0  0
 41 42  1  0  0  0  0
  7  8  1  0  0  0  0
 31 32  1  0  0  0  0
 22 27  1  0  0  0  0
 22 28  1  0  0  0  0
 21 25  1  0  0  0  0
 21 26  1  0  0  0  0
 23 29  1  0  0  0  0
 23 30  1  0  0  0  0
 18 24  1  0  0  0  0
  3  4  1  0  0  0  0
  3  5  1  0  0  0  0
  3  6  1  0  0  0  0
 11 14  1  0  0  0  0
 11 15  1  0  0  0  0
 11 16  1  0  0  0  0
 35 38  1  0  0  0  0
 35 39  1  0  0  0  0
 35 40  1  0  0  0  0
 42 44  1  0  0  0  0
 42 45  1  0  0  0  0
 42 46  1  0  0  0  0
  8 13  1  0  0  0  0
 32 37  1  0  0  0  0
 31 36  1  0  0  0  0
 41 43  1  0  0  0  0
  7 12  1  0  0  0  0
M  END
$$$$

  -OEChem-05262214473D

 46 46  0     1  0  0  0  0  0999 V2000
   -0.6012   -3.2995    3.8205 C   0  0  0  0  0  0  0  0  0  0  0  0
   -0.6574   -4.4683    3.4568 O   0  0  0  0  0  0  0  0  0  0  0  0
   -0.4935   -2.9859    5.2760 C   0  0  0  0  0  0  0  0  0  0  0  0
   -1.4789   -2.8689    5.7550 H   0  0  0  0  0  0  0  0  0  0  0  0
    0.0123   -3.7847    5.8419 H   0  0  0  0  0  0  0  0  0  0  0  0
    0.0585   -2.0642    5.5199 H   0  0  0  0  0  0  0  0  0  0  0  0
   -0.6261   -2.1849    2.9917 N   0  0  0  0  0  0  0  0  0  0  0  0
   -0.7237   -2.2601    1.5650 C   0  0  2  0  0  0  0  0  0  0  0  0
    0.1695   -1.1513    1.0687 C   0  0  0  0  0  0  0  0  0  0  0  0
    0.3193   -0.1267    1.7365 O   0  0  0  0  0  0  0  0  0  0  0  0
   -2.1397   -2.0663    1.0750 C   0  0  0  0  0  0  0  0  0  0  0  0
   -0.5717   -1.2606    3.4238 H   0  0  0  0  0  0  0  0  0  0  0  0
   -0.3076   -3.2111    1.2363 H   0  0  0  0  0  0  0  0  0  0  0  0
   -2.5584   -1.1089    1.4061 H   0  0  0  0  0  0  0  0  0  0  0  0
   -2.1682   -2.0790   -0.0197 H   0  0  0  0  0  0  0  0  0  0  0  0
   -2.7965   -2.8601    1.4459 H   0  0  0  0  0  0  0  0  0  0  0  0
    0.7724   -1.3745   -0.1593 N   0  0  0  0  0  0  0  0  0  0  0  0
    1.6644   -0.4046   -0.7812 C   0  0  2  0  0  0  0  0  0  0  0  0
    1.7547    0.7703    0.1454 C   0  0  0  0  0  0  0  0  0  0  0  0
    1.1600    1.8054   -0.1316 O   0  0  0  0  0  0  0  0  0  0  0  0
    0.9832   -0.0385   -2.0947 C   0  0  0  0  0  0  0  0  0  0  0  0
    0.4329   -1.4308   -1.7953 C   0  0  0  0  0  0  0  0  0  0  0  0
    0.7499   -2.6270   -0.9105 C   0  0  0  0  0  0  0  0  0  0  0  0
    2.6660   -0.8234   -0.9178 H   0  0  0  0  0  0  0  0  0  0  0  0
    1.7341    0.0889   -2.8835 H   0  0  0  0  0  0  0  0  0  0  0  0
    0.3808    0.8733   -2.0362 H   0  0  0  0  0  0  0  0  0  0  0  0
   -0.5797   -1.3599   -1.3815 H   0  0  0  0  0  0  0  0  0  0  0  0
    0.3950   -2.0608   -2.6885 H   0  0  0  0  0  0  0  0  0  0  0  0
   -0.0575   -3.3641   -0.8933 H   0  0  0  0  0  0  0  0  0  0  0  0
    1.6766   -3.1193   -1.2248 H   0  0  0  0  0  0  0  0  0  0  0  0
    2.4909    0.6288    1.2418 N   0  0  0  0  0  0  0  0  0  0  0  0
    3.4220    0.9275    2.3061 C   0  0  2  0  0  0  0  0  0  0  0  0
    4.6915    1.4865    1.6773 C   0  0  0  0  0  0  0  0  0  0  0  0
    5.0105    1.2755    0.5090 O   0  0  0  0  0  0  0  0  0  0  0  0
    3.7264   -0.3086    3.1381 C   0  0  0  0  0  0  0  0  0  0  0  0
    1.5826    1.0830    1.2524 H   0  0  0  0  0  0  0  0  0  0  0  0
    2.9534    1.6966    2.9297 H   0  0  0  0  0  0  0  0  0  0  0  0
    4.1963   -1.0903    2.5302 H   0  0  0  0  0  0  0  0  0  0  0  0
    4.4096   -0.0745    3.9612 H   0  0  0  0  0  0  0  0  0  0  0  0
    2.8084   -0.7266    3.5652 H   0  0  0  0  0  0  0  0  0  0  0  0
    5.4479    2.2130    2.5862 N   0  0  0  0  0  0  0  0  0  0  0  0
    6.7036    2.8343    2.2351 C   0  0  0  0  0  0  0  0  0  0  0  0
    5.0973    2.3529    3.5292 H   0  0  0  0  0  0  0  0  0  0  0  0
    7.5303    2.1445    2.4603 H   0  0  0  0  0  0  0  0  0  0  0  0
    6.7071    3.0724    1.1612 H   0  0  0  0  0  0  0  0  0  0  0  0
    6.8297    3.7597    2.8162 H   0  0  0  0  0  0  0  0  0  0  0  0
 18 19  1  0  0  0  0
 19 31  1  0  0  0  0
 19 20  2  0  0  0  0
  8  9  1  0  0  0  0
  9 17  1  0  0  0  0
  9 10  2  0  0  0  0
  1  3  1  0  0  0  0
  1  7  1  0  0  0  0
  1  2  2  0  0  0  0
 32 33  1  0  0  0  0
 33 41  1  0  0  0  0
 33 34  2  0  0  0  0
 21 22  1  0  0  0  0
 22 23  1  0  0  0  0
 18 21  1  0  0  0  0
 17 23  1  0  0  0  0
 17 18  1  0  0  0  0
  8 11  1  0  0  0  0
 32 35  1  0  0  0  0
 41 42  1  0  0  0  0
  7  8  1  0  0  0  0
 31 32  1  0  0  0  0
 22 27  1  0  0  0  0
 22 28  1  0  0  0  0
 21 25  1  0  0  0  0
 21 26  1  0  0  0  0
 23 29  1  0  0  0  0
 23 30  1  0  0  0  0
 18 24  1  0  0  0  0
  3  4  1  0  0  0  0
  3  5  1  0  0  0  0
  3  6  1  0  0  0  0
 11 14  1  0  0  0  0
 11 15  1  0  0  0  0
 11 16  1  0  0  0  0
 35 38  1  0  0  0  0
 35 39  1  0  0  0  0
 35 40  1  0  0  0  0
 42 44  1  0  0  0  0
 42 45  1  0  0  0  0
 42 46  1  0  0  0  0
  8 13  1  0  0  0  0
 32 37  1  0  0  0  0
 31 36  1  0  0  0  0
 41 43  1  0  0  0  0
  7 12  1  0  0  0  0
M  END
$$$$

  -OEChem-05262214473D

 46 46  0     1  0  0  0  0  0999 V2000
   -0.6012   -3.2995    3.8205 C   0  0  0  0  0  0  0  0  0  0  0  0
   -0.6574   -4.4683    3.4568 O   0  0  0  0  0  0  0  0  0  0  0  0
   -0.4935   -2.9859    5.2760 C   0  0  0  0  0  0  0  0  0  0  0  0
   -1.4789   -2.8689    5.7550 H   0  0  0  0  0  0  0  0  0  0  0  0
    0.0123   -3.7847    5.8419 H   0  0  0  0  0  0  0  0  0  0  0  0
    0.0585   -2.0642    5.5199 H   0  0  0  0  0  0  0  0  0  0  0  0
   -0.6261   -2.1849    2.9917 N   0  0  0  0  0  0  0  0  0  0  0  0
   -0.7237   -2.2601    1.5650 C   0  0  2  0  0  0  0  0  0  0  0  0
    0.1695   -1.1513    1.0687 C   0  0  0  0  0  0  0  0  0  0  0  0
    0.3193   -0.1267    1.7365 O   0  0  0  0  0  0  0  0  0  0  0  0
   -2.1397   -2.0663    1.0750 C   0  0  0  0  0  0  0  0  0  0  0  0
   -0.5717   -1.2606    3.4238 H   0  0  0  0  0  0  0  0  0  0  0  0
   -0.3076   -3.2111    1.2363 H   0  0  0  0  0  0  0  0  0  0  0  0
   -2.5584   -1.1089    1.4061 H   0  0  0  0  0  0  0  0  0  0  0  0
   -2.1682   -2.0790   -0.0197 H   0  0  0  0  0  0  0  0  0  0  0  0
   -2.7965   -2.8601    1.4459 H   0  0  0  0  0  0  0  0  0  0  0  0
    0.7724   -1.3745   -0.1593 N   0  0  0  0  0  0  0  0  0  0  0  0
    1.6644   -0.4046   -0.7812 C   0  0  2  0  0  0  0  0  0  0  0  0
    1.7547    0.7703    0.1454 C   0  0  0  0  0  0  0  0  0  0  0  0
    0.9598    1.6954    0.0273 O   0  0  0  0  0  0  0  0  0  0  0  0
    0.9832   -0.0385   -2.0947 C   0  0  0  0  0  0  0  0  0  0  0  0
    0.4329   -1.4308   -1.7953 C   0  0  0  0  0  0  0  0  0  0  0  0
    0.7499   -2.6270   -0.9105 C   0  0  0  0  0  0  0  0  0  0  0  0
    2.6660   -0.8234   -0.9178 H   0  0  0  0  0  0  0  0  0  0  0  0
    1.7341    0.0889   -2.8835 H   0  0  0  0  0  0  0  0  0  0  0  0
    0.3808    0.8733   -2.0362 H   0  0  0  0  0  0  0  0  0  0  0  0
   -0.5797   -1.3599   -1.3815 H   0  0  0  0  0  0  0  0  0  0  0  0
    0.3950   -2.0608   -2.6885 H   0  0  0  0  0  0  0  0  0  0  0  0
   -0.0575   -3.3641   -0.8933 H   0  0  0  0  0  0  0  0  0  0  0  0
    1.6766   -3.1193   -1.2248 H   0  0  0  0  0  0  0  0  0  0  0  0
    2.7121    0.7506    1.0657 N   0  0  0  0  0  0  0  0  0  0  0  0
    3.7816    1.1968    1.9295 C   0  0  2  0  0  0  0  0  0  0  0  0
    4.7911    1.9530    1.0760 C   0  0  0  0  0  0  0  0  0  0  0  0
    4.8942    1.7953   -0.1387 O   0  0  0  0  0  0  0  0  0  0  0  0
    4.4412    0.0269    2.6430 C   0  0  0  0  0  0  0  0  0  0  0  0
    1.7649    1.0520    1.2739 H   0  0  0  0  0  0  0  0  0  0  0  0
    3.3344    1.8806    2.6592 H   0  0  0  0  0  0  0  0  0  0  0  0
    4.8949   -0.6692    1.9280 H   0  0  0  0  0  0  0  0  0  0  0  0
    5.2321    0.3691    3.3185 H   0  0  0  0  0  0  0  0  0  0  0  0
    3.7078   -0.5335    3.2327 H   0  0  0  0  0  0  0  0  0  0  0  0
    5.5923    2.7930    1.8366 N   0  0  0  0  0  0  0  0  0  0  0  0
    6.6353    3.6088    1.2597 C   0  0  0  0  0  0  0  0  0  0  0  0
    5.4239    2.8753    2.8350 H   0  0  0  0  0  0  0  0  0  0  0  0
    7.5891    3.0618    1.2914 H   0  0  0  0  0  0  0  0  0  0  0  0
    6.3817    3.8433    0.2154 H   0  0  0  0  0  0  0  0  0  0  0  0
    6.7292    4.5429    1.8329 H   0  0  0  0  0  0  0  0  0  0  0  0
 18 19  1  0  0  0  0
 19 31  1  0  0  0  0
 19 20  2  0  0  0  0
  8  9  1  0  0  0  0
  9 17  1  0  0  0  0
  9 10  2  0  0  0  0
  1  3  1  0  0  0  0
  1  7  1  0  0  0  0
  1  2  2  0  0  0  0
 32 33  1  0  0  0  0
 33 41  1  0  0  0  0
 33 34  2  0  0  0  0
 21 22  1  0  0  0  0
 22 23  1  0  0  0  0
 18 21  1  0  0  0  0
 17 23  1  0  0  0  0
 17 18  1  0  0  0  0
  8 11  1  0  0  0  0
 32 35  1  0  0  0  0
 41 42  1  0  0  0  0
  7  8  1  0  0  0  0
 31 32  1  0  0  0  0
 22 27  1  0  0  0  0
 22 28  1  0  0  0  0
 21 25  1  0  0  0  0
 21 26  1  0  0  0  0
 23 29  1  0  0  0  0
 23 30  1  0  0  0  0
 18 24  1  0  0  0  0
  3  4  1  0  0  0  0
  3  5  1  0  0  0  0
  3  6  1  0  0  0  0
 11 14  1  0  0  0  0
 11 15  1  0  0  0  0
 11 16  1  0  0  0  0
 35 38  1  0  0  0  0
 35 39  1  0  0  0  0
 35 40  1  0  0  0  0
 42 44  1  0  0  0  0
 42 45  1  0  0  0  0
 42 46  1  0  0  0  0
  8 13  1  0  0  0  0
 32 37  1  0  0  0  0
 31 36  1  0  0  0  0
 41 43  1  0  0  0  0
  7 12  1  0  0  0  0
M  END
$$$$

  -OEChem-05262214473D

 46 46  0     1  0  0  0  0  0999 V2000
   -0.6012   -3.2995    3.8205 C   0  0  0  0  0  0  0  0  0  0  0  0
   -0.6574   -4.4683    3.4568 O   0  0  0  0  0  0  0  0  0  0  0  0
   -0.4935   -2.9859    5.2760 C   0  0  0  0  0  0  0  0  0  0  0  0
   -1.4789   -2.8689    5.7550 H   0  0  0  0  0  0  0  0  0  0  0  0
    0.0123   -3.7847    5.8419 H   0  0  0  0  0  0  0  0  0  0  0  0
    0.0585   -2.0642    5.5199 H   0  0  0  0  0  0  0  0  0  0  0  0
   -0.6261   -2.1849    2.9917 N   0  0  0  0  0  0  0  0  0  0  0  0
   -0.7237   -2.2601    1.5650 C   0  0  2  0  0  0  0  0  0  0  0  0
    0.1695   -1.1513    1.0687 C   0  0  0  0  0  0  0  0  0  0  0  0
    0.3193   -0.1267    1.7365 O   0  0  0  0  0  0  0  0  0  0  0  0
   -2.1397   -2.0663    1.0750 C   0  0  0  0  0  0  0  0  0  0  0  0
   -0.5717   -1.2606    3.4238 H   0  0  0  0  0  0  0  0  0  0  0  0
   -0.3076   -3.2111    1.2363 H   0  0  0  0  0  0  0  0  0  0  0  0
   -2.5584   -1.1089    1.4061 H   0  0  0  0  0  0  0  0  0  0  0  0
   -2.1682   -2.0790   -0.0197 H   0  0  0  0  0  0  0  0  0  0  0  0
   -2.7965   -2.8601    1.4459 H   0  0  0  0  0  0  0  0  0  0  0  0
    0.7724   -1.3745   -0.1593 N   0  0  0  0  0  0  0  0  0  0  0  0
    1.6644   -0.4046   -0.7812 C   0  0  2  0  0  0  0  0  0  0  0  0
    1.7547    0.7703    0.1454 C   0  0  0  0  0  0  0  0  0  0  0  0
    0.8162    1.5547    0.2198 O   0  0  0  0  0  0  0  0  0  0  0  0
    0.9832   -0.0385   -2.0947 C   0  0  0  0  0  0  0  0  0  0  0  0
    0.4329   -1.4308   -1.7953 C   0  0  0  0  0  0  0  0  0  0  0  0
    0.7499   -2.6270   -0.9105 C   0  0  0  0  0  0  0  0  0  0  0  0
    2.6660   -0.8234   -0.9178 H   0  0  0  0  0  0  0  0  0  0  0  0
    1.7341    0.0889   -2.8835 H   0  0  0  0  0  0  0  0  0  0  0  0
    0.3808    0.8733   -2.0362 H   0  0  0  0  0  0  0  0  0  0  0  0
   -0.5797   -1.3599   -1.3815 H   0  0  0  0  0  0  0  0  0  0  0  0
    0.3950   -2.0608   -2.6885 H   0  0  0  0  0  0  0  0  0  0  0  0
   -0.0575   -3.3641   -0.8933 H   0  0  0  0  0  0  0  0  0  0  0  0
    1.6766   -3.1193   -1.2248 H   0  0  0  0  0  0  0  0  0  0  0  0
    2.8706    0.9064    0.8527 N   0  0  0  0  0  0  0  0  0  0  0  0
    4.0094    1.5203    1.4971 C   0  0  2  0  0  0  0  0  0  0  0  0
    4.6906    2.4290    0.4823 C   0  0  0  0  0  0  0  0  0  0  0  0
    4.5673    2.2888   -0.7327 O   0  0  0  0  0  0  0  0  0  0  0  0
    4.9775    0.4730    2.0250 C   0  0  0  0  0  0  0  0  0  0  0  0
    1.9503    1.0510    1.2571 H   0  0  0  0  0  0  0  0  0  0  0  0
    3.6181    2.1236    2.3235 H   0  0  0  0  0  0  0  0  0  0  0  0
    5.3801   -0.1412    1.2113 H   0  0  0  0  0  0  0  0  0  0  0  0
    5.8254    0.9391    2.5378 H   0  0  0  0  0  0  0  0  0  0  0  0
    4.4782   -0.1980    2.7322 H   0  0  0  0  0  0  0  0  0  0  0  0
    5.4869    3.3881    1.0924 N   0  0  0  0  0  0  0  0  0  0  0  0
    6.2475    4.3611    0.3435 C   0  0  0  0  0  0  0  0  0  0  0  0
    5.5150    3.4429    2.1062 H   0  0  0  0  0  0  0  0  0  0  0  0
    7.2621    3.9755    0.1647 H   0  0  0  0  0  0  0  0  0  0  0  0
    5.7522    4.5506   -0.6202 H   0  0  0  0  0  0  0  0  0  0  0  0
    6.3073    5.2987    0.9157 H   0  0  0  0  0  0  0  0  0  0  0  0
 18 19  1  0  0  0  0
 19 31  1  0  0  0  0
 19 20  2  0  0  0  0
  8  9  1  0  0  0  0
  9 17  1  0  0  0  0
  9 10  2  0  0  0  0
  1  3  1  0  0  0  0
  1  7  1  0  0  0  0
  1  2  2  0  0  0  0
 32 33  1  0  0  0  0
 33 41  1  0  0  0  0
 33 34  2  0  0  0  0
 21 22  1  0  0  0  0
 22 23  1  0  0  0  0
 18 21  1  0  0  0  0
 17 23  1  0  0  0  0
 17 18  1  0  0  0  0
  8 11  1  0  0  0  0
 32 35  1  0  0  0  0
 41 42  1  0  0  0  0
  7  8  1  0  0  0  0
 31 32  1  0  0  0  0
 22 27  1  0  0  0  0
 22 28  1  0  0  0  0
 21 25  1  0  0  0  0
 21 26  1  0  0  0  0
 23 29  1  0  0  0  0
 23 30  1  0  0  0  0
 18 24  1  0  0  0  0
  3  4  1  0  0  0  0
  3  5  1  0  0  0  0
  3  6  1  0  0  0  0
 11 14  1  0  0  0  0
 11 15  1  0  0  0  0
 11 16  1  0  0  0  0
 35 38  1  0  0  0  0
 35 39  1  0  0  0  0
 35 40  1  0  0  0  0
 42 44  1  0  0  0  0
 42 45  1  0  0  0  0
 42 46  1  0  0  0  0
  8 13  1  0  0  0  0
 32 37  1  0  0  0  0
 31 36  1  0  0  0  0
 41 43  1  0  0  0  0
  7 12  1  0  0  0  0
M  END
$$$$

  -OEChem-05262214473D

 46 46  0     1  0  0  0  0  0999 V2000
   -0.6012   -3.2995    3.8205 C   0  0  0  0  0  0  0  0  0  0  0  0
   -0.6574   -4.4683    3.4568 O   0  0  0  0  0  0  0  0  0  0  0  0
   -0.4935   -2.9859    5.2760 C   0  0  0  0  0  0  0  0  0  0  0  0
   -1.4789   -2.8689    5.7550 H   0  0  0  0  0  0  0  0  0  0  0  0
    0.0123   -3.7847    5.8419 H   0  0  0  0  0  0  0  0  0  0  0  0
    0.0585   -2.0642    5.5199 H   0  0  0  0  0  0  0  0  0  0  0  0
   -0.6261   -2.1849    2.9917 N   0  0  0  0  0  0  0  0  0  0  0  0
   -0.7237   -2.2601    1.5650 C   0  0  2  0  0  0  0  0  0  0  0  0
    0.1695   -1.1513    1.0687 C   0  0  0  0  0  0  0  0  0  0  0  0
    0.3193   -0.1267    1.7365 O   0  0  0  0  0  0  0  0  0  0  0  0
   -2.1397   -2.0663    1.0750 C   0  0  0  0  0  0  0  0  0  0  0  0
   -0.5717   -1.2606    3.4238 H   0  0  0  0  0  0  0  0  0  0  0  0
   -0.3076   -3.2111    1.2363 H   0  0  0  0  0  0  0  0  0  0  0  0
   -2.5584   -1.1089    1.4061 H   0  0  0  0  0  0  0  0  0  0  0  0
   -2.1682   -2.0790   -0.0197 H   0  0  0  0  0  0  0  0  0  0  0  0
   -2.7965   -2.8601    1.4459 H   0  0  0  0  0  0  0  0  0  0  0  0
    0.7724   -1.3745   -0.1593 N   0  0  0  0  0  0  0  0  0  0  0  0
    1.6644   -0.4046   -0.7812 C   0  0  2  0  0  0  0  0  0  0  0  0
    1.7547    0.7703    0.1454 C   0  0  0  0  0  0  0  0  0  0  0  0
    0.7390    1.3928    0.4326 O   0  0  0  0  0  0  0  0  0  0  0  0
    0.9832   -0.0385   -2.0947 C   0  0  0  0  0  0  0  0  0  0  0  0
    0.4329   -1.4308   -1.7953 C   0  0  0  0  0  0  0  0  0  0  0  0
    0.7499   -2.6270   -0.9105 C   0  0  0  0  0  0  0  0  0  0  0  0
    2.6660   -0.8234   -0.9178 H   0  0  0  0  0  0  0  0  0  0  0  0
    1.7341    0.0889   -2.8835 H   0  0  0  0  0  0  0  0  0  0  0  0
    0.3808    0.8733   -2.0362 H   0  0  0  0  0  0  0  0  0  0  0  0
   -0.5797   -1.3599   -1.3815 H   0  0  0  0  0  0  0  0  0  0  0  0
    0.3950   -2.0608   -2.6885 H   0  0  0  0  0  0  0  0  0  0  0  0
   -0.0575   -3.3641   -0.8933 H   0  0  0  0  0  0  0  0  0  0  0  0
    1.6766   -3.1193   -1.2248 H   0  0  0  0  0  0  0  0  0  0  0  0
    2.9555    1.0856    0.6172 N   0  0  0  0  0  0  0  0  0  0  0  0
    4.0900    1.8760    1.0382 C   0  0  2  0  0  0  0  0  0  0  0  0
    4.3971    2.8819   -0.0634 C   0  0  0  0  0  0  0  0  0  0  0  0
    4.0521    2.7225   -1.2325 O   0  0  0  0  0  0  0  0  0  0  0  0
    5.2989    0.9994    1.3262 C   0  0  0  0  0  0  0  0  0  0  0  0
    2.1261    1.0799    1.2033 H   0  0  0  0  0  0  0  0  0  0  0  0
    3.7851    2.4089    1.9454 H   0  0  0  0  0  0  0  0  0  0  0  0
    5.6190    0.4576    0.4287 H   0  0  0  0  0  0  0  0  0  0  0  0
    6.1488    1.5968    1.6723 H   0  0  0  0  0  0  0  0  0  0  0  0
    5.0671    0.2571    2.0976 H   0  0  0  0  0  0  0  0  0  0  0  0
    5.1390    3.9576    0.4041 N   0  0  0  0  0  0  0  0  0  0  0  0
    5.5668    5.0401   -0.4510 C   0  0  0  0  0  0  0  0  0  0  0  0
    5.3643    4.0172    1.3927 H   0  0  0  0  0  0  0  0  0  0  0  0
    6.5714    4.8233   -0.8430 H   0  0  0  0  0  0  0  0  0  0  0  0
    4.8616    5.1462   -1.2886 H   0  0  0  0  0  0  0  0  0  0  0  0
    5.5929    5.9755    0.1271 H   0  0  0  0  0  0  0  0  0  0  0  0
 18 19  1  0  0  0  0
 19 31  1  0  0  0  0
 19 20  2  0  0  0  0
  8  9  1  0  0  0  0
  9 17  1  0  0  0  0
  9 10  2  0  0  0  0
  1  3  1  0  0  0  0
  1  7  1  0  0  0  0
  1  2  2  0  0  0  0
 32 33  1  0  0  0  0
 33 41  1  0  0  0  0
 33 34  2  0  0  0  0
 21 22  1  0  0  0  0
 22 23  1  0  0  0  0
 18 21  1  0  0  0  0
 17 23  1  0  0  0  0
 17 18  1  0  0  0  0
  8 11  1  0  0  0  0
 32 35  1  0  0  0  0
 41 42  1  0  0  0  0
  7  8  1  0  0  0  0
 31 32  1  0  0  0  0
 22 27  1  0  0  0  0
 22 28  1  0  0  0  0
 21 25  1  0  0  0  0
 21 26  1  0  0  0  0
 23 29  1  0  0  0  0
 23 30  1  0  0  0  0
 18 24  1  0  0  0  0
  3  4  1  0  0  0  0
  3  5  1  0  0  0  0
  3  6  1  0  0  0  0
 11 14  1  0  0  0  0
 11 15  1  0  0  0  0
 11 16  1  0  0  0  0
 35 38  1  0  0  0  0
 35 39  1  0  0  0  0
 35 40  1  0  0  0  0
 42 44  1  0  0  0  0
 42 45  1  0  0  0  0
 42 46  1  0  0  0  0
  8 13  1  0  0  0  0
 32 37  1  0  0  0  0
 31 36  1  0  0  0  0
 41 43  1  0  0  0  0
  7 12  1  0  0  0  0
M  END
$$$$

  -OEChem-05262214473D

 46 46  0     1  0  0  0  0  0999 V2000
   -0.6012   -3.2995    3.8205 C   0  0  0  0  0  0  0  0  0  0  0  0
   -0.6574   -4.4683    3.4568 O   0  0  0  0  0  0  0  0  0  0  0  0
   -0.4935   -2.9859    5.2760 C   0  0  0  0  0  0  0  0  0  0  0  0
   -1.4789   -2.8689    5.7550 H   0  0  0  0  0  0  0  0  0  0  0  0
    0.0123   -3.7847    5.8419 H   0  0  0  0  0  0  0  0  0  0  0  0
    0.0585   -2.0642    5.5199 H   0  0  0  0  0  0  0  0  0  0  0  0
   -0.6261   -2.1849    2.9917 N   0  0  0  0  0  0  0  0  0  0  0  0
   -0.7237   -2.2601    1.5650 C   0  0  2  0  0  0  0  0  0  0  0  0
    0.1695   -1.1513    1.0687 C   0  0  0  0  0  0  0  0  0  0  0  0
    0.3193   -0.1267    1.7365 O   0  0  0  0  0  0  0  0  0  0  0  0
   -2.1397   -2.0663    1.0750 C   0  0  0  0  0  0  0  0  0  0  0  0
   -0.5717   -1.2606    3.4238 H   0  0  0  0  0  0  0  0  0  0  0  0
   -0.3076   -3.2111    1.2363 H   0  0  0  0  0  0  0  0  0  0  0  0
   -2.5584   -1.1089    1.4061 H   0  0  0  0  0  0  0  0  0  0  0  0
   -2.1682   -2.0790   -0.0197 H   0  0  0  0  0  0  0  0  0  0  0  0
   -2.7965   -2.8601    1.4459 H   0  0  0  0  0  0  0  0  0  0  0  0
    0.7724   -1.3745   -0.1593 N   0  0  0  0  0  0  0  0  0  0  0  0
    1.6644   -0.4046   -0.7812 C   0  0  2  0  0  0  0  0  0  0  0  0
    1.7547    0.7703    0.1454 C   0  0  0  0  0  0  0  0  0  0  0  0
    0.7335    1.2208    0.6513 O   0  0  0  0  0  0  0  0  0  0  0  0
    0.9832   -0.0385   -2.0947 C   0  0  0  0  0  0  0  0  0  0  0  0
    0.4329   -1.4308   -1.7953 C   0  0  0  0  0  0  0  0  0  0  0  0
    0.7499   -2.6270   -0.9105 C   0  0  0  0  0  0  0  0  0  0  0  0
    2.6660   -0.8234   -0.9178 H   0  0  0  0  0  0  0  0  0  0  0  0
    1.7341    0.0889   -2.8835 H   0  0  0  0  0  0  0  0  0  0  0  0
    0.3808    0.8733   -2.0362 H   0  0  0  0  0  0  0  0  0  0  0  0
   -0.5797   -1.3599   -1.3815 H   0  0  0  0  0  0  0  0  0  0  0  0
    0.3950   -2.0608   -2.6885 H   0  0  0  0  0  0  0  0  0  0  0  0
   -0.0575   -3.3641   -0.8933 H   0  0  0  0  0  0  0  0  0  0  0  0
    1.6766   -3.1193   -1.2248 H   0  0  0  0  0  0  0  0  0  0  0  0
    2.9612    1.2759    0.3754 N   0  0  0  0  0  0  0  0  0  0  0  0
    4.0179    2.2397    0.5841 C   0  0  2  0  0  0  0  0  0  0  0  0
    3.9303    3.2809   -0.5239 C   0  0  0  0  0  0  0  0  0  0  0  0
    3.3837    3.0669   -1.6039 O   0  0  0  0  0  0  0  0  0  0  0  0
    5.3833    1.5702    0.5942 C   0  0  0  0  0  0  0  0  0  0  0  0
    2.2804    1.1368    1.1161 H   0  0  0  0  0  0  0  0  0  0  0  0
    3.8241    2.7170    1.5508 H   0  0  0  0  0  0  0  0  0  0  0  0
    5.5952    1.0863   -0.3663 H   0  0  0  0  0  0  0  0  0  0  0  0
    6.1804    2.2974    0.7809 H   0  0  0  0  0  0  0  0  0  0  0  0
    5.4344    0.8009    1.3723 H   0  0  0  0  0  0  0  0  0  0  0  0
    4.5721    4.4628   -0.1812 N   0  0  0  0  0  0  0  0  0  0  0  0
    4.6394    5.5994   -1.0699 C   0  0  0  0  0  0  0  0  0  0  0  0
    4.9822    4.5589    0.7431 H   0  0  0  0  0  0  0  0  0  0  0  0
    5.5643    5.5474   -1.6631 H   0  0  0  0  0  0  0  0  0  0  0  0
    3.7704    5.5894   -1.7442 H   0  0  0  0  0  0  0  0  0  0  0  0
    4.6345    6.5273   -0.4791 H   0  0  0  0  0  0  0  0  0  0  0  0
 18 19  1  0  0  0  0
 19 31  1  0  0  0  0
 19 20  2  0  0  0  0
  8  9  1  0  0  0  0
  9 17  1  0  0  0  0
  9 10  2  0  0  0  0
  1  3  1  0  0  0  0
  1  7  1  0  0  0  0
  1  2  2  0  0  0  0
 32 33  1  0  0  0  0
 33 41  1  0  0  0  0
 33 34  2  0  0  0  0
 21 22  1  0  0  0  0
 22 23  1  0  0  0  0
 18 21  1  0  0  0  0
 17 23  1  0  0  0  0
 17 18  1  0  0  0  0
  8 11  1  0  0  0  0
 32 35  1  0  0  0  0
 41 42  1  0  0  0  0
  7  8  1  0  0  0  0
 31 32  1  0  0  0  0
 22 27  1  0  0  0  0
 22 28  1  0  0  0  0
 21 25  1  0  0  0  0
 21 26  1  0  0  0  0
 23 29  1  0  0  0  0
 23 30  1  0  0  0  0
 18 24  1  0  0  0  0
  3  4  1  0  0  0  0
  3  5  1  0  0  0  0
  3  6  1  0  0  0  0
 11 14  1  0  0  0  0
 11 15  1  0  0  0  0
 11 16  1  0  0  0  0
 35 38  1  0  0  0  0
 35 39  1  0  0  0  0
 35 40  1  0  0  0  0
 42 44  1  0  0  0  0
 42 45  1  0  0  0  0
 42 46  1  0  0  0  0
  8 13  1  0  0  0  0
 32 37  1  0  0  0  0
 31 36  1  0  0  0  0
 41 43  1  0  0  0  0
  7 12  1  0  0  0  0
M  END
$$$$

  -OEChem-05262214473D

 46 46  0     1  0  0  0  0  0999 V2000
   -0.6012   -3.2995    3.8205 C   0  0  0  0  0  0  0  0  0  0  0  0
   -0.6574   -4.4683    3.4568 O   0  0  0  0  0  0  0  0  0  0  0  0
   -0.4935   -2.9859    5.2760 C   0  0  0  0  0  0  0  0  0  0  0  0
   -1.4789   -2.8689    5.7550 H   0  0  0  0  0  0  0  0  0  0  0  0
    0.0123   -3.7847    5.8419 H   0  0  0  0  0  0  0  0  0  0  0  0
    0.0585   -2.0642    5.5199 H   0  0  0  0  0  0  0  0  0  0  0  0
   -0.6261   -2.1849    2.9917 N   0  0  0  0  0  0  0  0  0  0  0  0
   -0.7237   -2.2601    1.5650 C   0  0  2  0  0  0  0  0  0  0  0  0
    0.1695   -1.1513    1.0687 C   0  0  0  0  0  0  0  0  0  0  0  0
    0.3193   -0.1267    1.7365 O   0  0  0  0  0  0  0  0  0  0  0  0
   -2.1397   -2.0663    1.0750 C   0  0  0  0  0  0  0  0  0  0  0  0
   -0.5717   -1.2606    3.4238 H   0  0  0  0  0  0  0  0  0  0  0  0
   -0.3076   -3.2111    1.2363 H   0  0  0  0  0  0  0  0  0  0  0  0
   -2.5584   -1.1089    1.4061 H   0  0  0  0  0  0  0  0  0  0  0  0
   -2.1682   -2.0790   -0.0197 H   0  0  0  0  0  0  0  0  0  0  0  0
   -2.7965   -2.8601    1.4459 H   0  0  0  0  0  0  0  0  0  0  0  0
    0.7724   -1.3745   -0.1593 N   0  0  0  0  0  0  0  0  0  0  0  0
    1.6644   -0.4046   -0.7812 C   0  0  2  0  0  0  0  0  0  0  0  0
    1.7547    0.7703    0.1454 C   0  0  0  0  0  0  0  0  0  0  0  0
    0.8001    1.0503    0.8610 O   0  0  0  0  0  0  0  0  0  0  0  0
    0.9832   -0.0385   -2.0947 C   0  0  0  0  0  0  0  0  0  0  0  0
    0.4329   -1.4308   -1.7953 C   0  0  0  0  0  0  0  0  0  0  0  0
    0.7499   -2.6270   -0.9105 C   0  0  0  0  0  0  0  0  0  0  0  0
    2.6660   -0.8234   -0.9178 H   0  0  0  0  0  0  0  0  0  0  0  0
    1.7341    0.0889   -2.8835 H   0  0  0  0  0  0  0  0  0  0  0  0
    0.3808    0.8733   -2.0362 H   0  0  0  0  0  0  0  0  0  0  0  0
   -0.5797   -1.3599   -1.3815 H   0  0  0  0  0  0  0  0  0  0  0  0
    0.3950   -2.0608   -2.6885 H   0  0  0  0  0  0  0  0  0  0  0  0
   -0.0575   -3.3641   -0.8933 H   0  0  0  0  0  0  0  0  0  0  0  0
    1.6766   -3.1193   -1.2248 H   0  0  0  0  0  0  0  0  0  0  0  0
    2.8871    1.4644    0.1435 N   0  0  0  0  0  0  0  0  0  0  0  0
    3.7979    2.5864    0.1658 C   0  0  2  0  0  0  0  0  0  0  0  0
    3.3223    3.5989   -0.8678 C   0  0  0  0  0  0  0  0  0  0  0  0
    2.6076    3.2983   -1.8217 O   0  0  0  0  0  0  0  0  0  0  0  0
    5.2251    2.1464   -0.1211 C   0  0  0  0  0  0  0  0  0  0  0  0
    2.4027    1.2178    1.0014 H   0  0  0  0  0  0  0  0  0  0  0  0
    3.7324    3.0271    1.1666 H   0  0  0  0  0  0  0  0  0  0  0  0
    5.3103    1.7023   -1.1195 H   0  0  0  0  0  0  0  0  0  0  0  0
    5.9180    2.9930   -0.0757 H   0  0  0  0  0  0  0  0  0  0  0  0
    5.5551    1.3962    0.6056 H   0  0  0  0  0  0  0  0  0  0  0  0
    3.8250    4.8692   -0.6238 N   0  0  0  0  0  0  0  0  0  0  0  0
    3.5287    6.0009   -1.4707 C   0  0  0  0  0  0  0  0  0  0  0  0
    4.3947    5.0312    0.2015 H   0  0  0  0  0  0  0  0  0  0  0  0
    4.3093    6.0986   -2.2396 H   0  0  0  0  0  0  0  0  0  0  0  0
    2.5531    5.8501   -1.9560 H   0  0  0  0  0  0  0  0  0  0  0  0
    3.4975    6.9164   -0.8617 H   0  0  0  0  0  0  0  0  0  0  0  0
 18 19  1  0  0  0  0
 19 31  1  0  0  0  0
 19 20  2  0  0  0  0
  8  9  1  0  0  0  0
  9 17  1  0  0  0  0
  9 10  2  0  0  0  0
  1  3  1  0  0  0  0
  1  7  1  0  0  0  0
  1  2  2  0  0  0  0
 32 33  1  0  0  0  0
 33 41  1  0  0  0  0
 33 34  2  0  0  0  0
 21 22  1  0  0  0  0
 22 23  1  0  0  0  0
 18 21  1  0  0  0  0
 17 23  1  0  0  0  0
 17 18  1  0  0  0  0
  8 11  1  0  0  0  0
 32 35  1  0  0  0  0
 41 42  1  0  0  0  0
  7  8  1  0  0  0  0
 31 32  1  0  0  0  0
 22 27  1  0  0  0  0
 22 28  1  0  0  0  0
 21 25  1  0  0  0  0
 21 26  1  0  0  0  0
 23 29  1  0  0  0  0
 23 30  1  0  0  0  0
 18 24  1  0  0  0  0
  3  4  1  0  0  0  0
  3  5  1  0  0  0  0
  3  6  1  0  0  0  0
 11 14  1  0  0  0  0
 11 15  1  0  0  0  0
 11 16  1  0  0  0  0
 35 38  1  0  0  0  0
 35 39  1  0  0  0  0
 35 40  1  0  0  0  0
 42 44  1  0  0  0  0
 42 45  1  0  0  0  0
 42 46  1  0  0  0  0
  8 13  1  0  0  0  0
 32 37  1  0  0  0  0
 31 36  1  0  0  0  0
 41 43  1  0  0  0  0
  7 12  1  0  0  0  0
M  END
$$$$

  -OEChem-05262214473D

 46 46  0     1  0  0  0  0  0999 V2000
   -0.6012   -3.2995    3.8205 C   0  0  0  0  0  0  0  0  0  0  0  0
   -0.6574   -4.4683    3.4568 O   0  0  0  0  0  0  0  0  0  0  0  0
   -0.4935   -2.9859    5.2760 C   0  0  0  0  0  0  0  0  0  0  0  0
   -1.4789   -2.8689    5.7550 H   0  0  0  0  0  0  0  0  0  0  0  0
    0.0123   -3.7847    5.8419 H   0  0  0  0  0  0  0  0  0  0  0  0
    0.0585   -2.0642    5.5199 H   0  0  0  0  0  0  0  0  0  0  0  0
   -0.6261   -2.1849    2.9917 N   0  0  0  0  0  0  0  0  0  0  0  0
   -0.7237   -2.2601    1.5650 C   0  0  2  0  0  0  0  0  0  0  0  0
    0.1695   -1.1513    1.0687 C   0  0  0  0  0  0  0  0  0  0  0  0
    0.3193   -0.1267    1.7365 O   0  0  0  0  0  0  0  0  0  0  0  0
   -2.1397   -2.0663    1.0750 C   0  0  0  0  0  0  0  0  0  0  0  0
   -0.5717   -1.2606    3.4238 H   0  0  0  0  0  0  0  0  0  0  0  0
   -0.3076   -3.2111    1.2363 H   0  0  0  0  0  0  0  0  0  0  0  0
   -2.5584   -1.1089    1.4061 H   0  0  0  0  0  0  0  0  0  0  0  0
   -2.1682   -2.0790   -0.0197 H   0  0  0  0  0  0  0  0  0  0  0  0
   -2.7965   -2.8601    1.4459 H   0  0  0  0  0  0  0  0  0  0  0  0
    0.7724   -1.3745   -0.1593 N   0  0  0  0  0  0  0  0  0  0  0  0
    1.6644   -0.4046   -0.7812 C   0  0  2  0  0  0  0  0  0  0  0  0
    1.7547    0.7703    0.1454 C   0  0  0  0  0  0  0  0  0  0  0  0
    0.9343    0.8930    1.0473 O   0  0  0  0  0  0  0  0  0  0  0  0
    0.9832   -0.0385   -2.0947 C   0  0  0  0  0  0  0  0  0  0  0  0
    0.4329   -1.4308   -1.7953 C   0  0  0  0  0  0  0  0  0  0  0  0
    0.7499   -2.6270   -0.9105 C   0  0  0  0  0  0  0  0  0  0  0  0
    2.6660   -0.8234   -0.9178 H   0  0  0  0  0  0  0  0  0  0  0  0
    1.7341    0.0889   -2.8835 H   0  0  0  0  0  0  0  0  0  0  0  0
    0.3808    0.8733   -2.0362 H   0  0  0  0  0  0  0  0  0  0  0  0
   -0.5797   -1.3599   -1.3815 H   0  0  0  0  0  0  0  0  0  0  0  0
    0.3950   -2.0608   -2.6885 H   0  0  0  0  0  0  0  0  0  0  0  0
   -0.0575   -3.3641   -0.8933 H   0  0  0  0  0  0  0  0  0  0  0  0
    1.6766   -3.1193   -1.2248 H   0  0  0  0  0  0  0  0  0  0  0  0
    2.7383    1.6383   -0.0624 N   0  0  0  0  0  0  0  0  0  0  0  0
    3.4451    2.8927   -0.1882 C   0  0  2  0  0  0  0  0  0  0  0  0
    2.6143    3.8141   -1.0716 C   0  0  0  0  0  0  0  0  0  0  0  0
    1.7768    3.4011   -1.8711 O   0  0  0  0  0  0  0  0  0  0  0  0
    4.8349    2.6888   -0.7708 C   0  0  0  0  0  0  0  0  0  0  0  0
    2.4846    1.3174    0.8671 H   0  0  0  0  0  0  0  0  0  0  0  0
    3.5164    3.3180    0.8188 H   0  0  0  0  0  0  0  0  0  0  0  0
    4.7838    2.2634   -1.7798 H   0  0  0  0  0  0  0  0  0  0  0  0
    5.3796    3.6363   -0.8389 H   0  0  0  0  0  0  0  0  0  0  0  0
    5.4209    2.0025   -0.1501 H   0  0  0  0  0  0  0  0  0  0  0  0
    2.9486    5.1492   -0.8933 N   0  0  0  0  0  0  0  0  0  0  0  0
    2.3102    6.2174   -1.6264 C   0  0  0  0  0  0  0  0  0  0  0  0
    3.6417    5.4018   -0.1951 H   0  0  0  0  0  0  0  0  0  0  0  0
    2.8919    6.4392   -2.5333 H   0  0  0  0  0  0  0  0  0  0  0  0
    1.2926    5.9104   -1.9096 H   0  0  0  0  0  0  0  0  0  0  0  0
    2.2595    7.1163   -0.9945 H   0  0  0  0  0  0  0  0  0  0  0  0
 18 19  1  0  0  0  0
 19 31  1  0  0  0  0
 19 20  2  0  0  0  0
  8  9  1  0  0  0  0
  9 17  1  0  0  0  0
  9 10  2  0  0  0  0
  1  3  1  0  0  0  0
  1  7  1  0  0  0  0
  1  2  2  0  0  0  0
 32 33  1  0  0  0  0
 33 41  1  0  0  0  0
 33 34  2  0  0  0  0
 21 22  1  0  0  0  0
 22 23  1  0  0  0  0
 18 21  1  0  0  0  0
 17 23  1  0  0  0  0
 17 18  1  0  0  0  0
  8 11  1  0  0  0  0
 32 35  1  0  0  0  0
 41 42  1  0  0  0  0
  7  8  1  0  0  0  0
 31 32  1  0  0  0  0
 22 27  1  0  0  0  0
 22 28  1  0  0  0  0
 21 25  1  0  0  0  0
 21 26  1  0  0  0  0
 23 29  1  0  0  0  0
 23 30  1  0  0  0  0
 18 24  1  0  0  0  0
  3  4  1  0  0  0  0
  3  5  1  0  0  0  0
  3  6  1  0  0  0  0
 11 14  1  0  0  0  0
 11 15  1  0  0  0  0
 11 16  1  0  0  0  0
 35 38  1  0  0  0  0
 35 39  1  0  0  0  0
 35 40  1  0  0  0  0
 42 44  1  0  0  0  0
 42 45  1  0  0  0  0
 42 46  1  0  0  0  0
  8 13  1  0  0  0  0
 32 37  1  0  0  0  0
 31 36  1  0  0  0  0
 41 43  1  0  0  0  0
  7 12  1  0  0  0  0
M  END
$$$$

  -OEChem-05262214473D

 46 46  0     1  0  0  0  0  0999 V2000
   -0.6012   -3.2995    3.8205 C   0  0  0  0  0  0  0  0  0  0  0  0
   -0.6574   -4.4683    3.4568 O   0  0  0  0  0  0  0  0  0  0  0  0
   -0.4935   -2.9859    5.2760 C   0  0  0  0  0  0  0  0  0  0  0  0
   -1.4789   -2.8689    5.7550 H   0  0  0  0  0  0  0  0  0  0  0  0
    0.0123   -3.7847    5.8419 H   0  0  0  0  0  0  0  0  0  0  0  0
    0.0585   -2.0642    5.5199 H   0  0  0  0  0  0  0  0  0  0  0  0
   -0.6261   -2.1849    2.9917 N   0  0  0  0  0  0  0  0  0  0  0  0
   -0.7237   -2.2601    1.5650 C   0  0  2  0  0  0  0  0  0  0  0  0
    0.1695   -1.1513    1.0687 C   0  0  0  0  0  0  0  0  0  0  0  0
    0.3193   -0.1267    1.7365 O   0  0  0  0  0  0  0  0  0  0  0  0
   -2.1397   -2.0663    1.0750 C   0  0  0  0  0  0  0  0  0  0  0  0
   -0.5717   -1.2606    3.4238 H   0  0  0  0  0  0  0  0  0  0  0  0
   -0.3076   -3.2111    1.2363 H   0  0  0  0  0  0  0  0  0  0  0  0
   -2.5584   -1.1089    1.4061 H   0  0  0  0  0  0  0  0  0  0  0  0
   -2.1682   -2.0790   -0.0197 H   0  0  0  0  0  0  0  0  0  0  0  0
   -2.7965   -2.8601    1.4459 H   0  0  0  0  0  0  0  0  0  0  0  0
    0.7724   -1.3745   -0.1593 N   0  0  0  0  0  0  0  0  0  0  0  0
    1.6644   -0.4046   -0.7812 C   0  0  2  0  0  0  0  0  0  0  0  0
    1.7547    0.7703    0.1454 C   0  0  0  0  0  0  0  0  0  0  0  0
    1.1268    0.7596    1.1977 O   0  0  0  0  0  0  0  0  0  0  0  0
    0.9832   -0.0385   -2.0947 C   0  0  0  0  0  0  0  0  0  0  0  0
    0.4329   -1.4308   -1.7953 C   0  0  0  0  0  0  0  0  0  0  0  0
    0.7499   -2.6270   -0.9105 C   0  0  0  0  0  0  0  0  0  0  0  0
    2.6660   -0.8234   -0.9178 H   0  0  0  0  0  0  0  0  0  0  0  0
    1.7341    0.0889   -2.8835 H   0  0  0  0  0  0  0  0  0  0  0  0
    0.3808    0.8733   -2.0362 H   0  0  0  0  0  0  0  0  0  0  0  0
   -0.5797   -1.3599   -1.3815 H   0  0  0  0  0  0  0  0  0  0  0  0
    0.3950   -2.0608   -2.6885 H   0  0  0  0  0  0  0  0  0  0  0  0
   -0.0575   -3.3641   -0.8933 H   0  0  0  0  0  0  0  0  0  0  0  0
    1.6766   -3.1193   -1.2248 H   0  0  0  0  0  0  0  0  0  0  0  0
    2.5251    1.7856   -0.2284 N   0  0  0  0  0  0  0  0  0  0  0  0
    2.9835    3.1377   -0.4538 C   0  0  2  0  0  0  0  0  0  0  0  0
    1.8547    3.9118   -1.1215 C   0  0  0  0  0  0  0  0  0  0  0  0
    0.9478    3.3683   -1.7486 O   0  0  0  0  0  0  0  0  0  0  0  0
    4.2395    3.1605   -1.3109 C   0  0  0  0  0  0  0  0  0  0  0  0
    2.5205    1.4288    0.7224 H   0  0  0  0  0  0  0  0  0  0  0  0
    3.1906    3.5697    0.5313 H   0  0  0  0  0  0  0  0  0  0  0  0
    4.0515    2.7315   -2.3019 H   0  0  0  0  0  0  0  0  0  0  0  0
    4.6017    4.1835   -1.4569 H   0  0  0  0  0  0  0  0  0  0  0  0
    5.0410    2.5784   -0.8434 H   0  0  0  0  0  0  0  0  0  0  0  0
    2.0026    5.2836   -0.9715 N   0  0  0  0  0  0  0  0  0  0  0  0
    1.0670    6.2339   -1.5262 C   0  0  0  0  0  0  0  0  0  0  0  0
    2.7747    5.6456   -0.4196 H   0  0  0  0  0  0  0  0  0  0  0  0
    1.4087    6.5460   -2.5241 H   0  0  0  0  0  0  0  0  0  0  0  0
    0.0748    5.7663   -1.6081 H   0  0  0  0  0  0  0  0  0  0  0  0
    1.0046    7.1135   -0.8685 H   0  0  0  0  0  0  0  0  0  0  0  0
 18 19  1  0  0  0  0
 19 31  1  0  0  0  0
 19 20  2  0  0  0  0
  8  9  1  0  0  0  0
  9 17  1  0  0  0  0
  9 10  2  0  0  0  0
  1  3  1  0  0  0  0
  1  7  1  0  0  0  0
  1  2  2  0  0  0  0
 32 33  1  0  0  0  0
 33 41  1  0  0  0  0
 33 34  2  0  0  0  0
 21 22  1  0  0  0  0
 22 23  1  0  0  0  0
 18 21  1  0  0  0  0
 17 23  1  0  0  0  0
 17 18  1  0  0  0  0
  8 11  1  0  0  0  0
 32 35  1  0  0  0  0
 41 42  1  0  0  0  0
  7  8  1  0  0  0  0
 31 32  1  0  0  0  0
 22 27  1  0  0  0  0
 22 28  1  0  0  0  0
 21 25  1  0  0  0  0
 21 26  1  0  0  0  0
 23 29  1  0  0  0  0
 23 30  1  0  0  0  0
 18 24  1  0  0  0  0
  3  4  1  0  0  0  0
  3  5  1  0  0  0  0
  3  6  1  0  0  0  0
 11 14  1  0  0  0  0
 11 15  1  0  0  0  0
 11 16  1  0  0  0  0
 35 38  1  0  0  0  0
 35 39  1  0  0  0  0
 35 40  1  0  0  0  0
 42 44  1  0  0  0  0
 42 45  1  0  0  0  0
 42 46  1  0  0  0  0
  8 13  1  0  0  0  0
 32 37  1  0  0  0  0
 31 36  1  0  0  0  0
 41 43  1  0  0  0  0
  7 12  1  0  0  0  0
M  END
$$$$

  -OEChem-05262214473D

 46 46  0     1  0  0  0  0  0999 V2000
   -0.6012   -3.2995    3.8205 C   0  0  0  0  0  0  0  0  0  0  0  0
   -0.6574   -4.4683    3.4568 O   0  0  0  0  0  0  0  0  0  0  0  0
   -0.4935   -2.9859    5.2760 C   0  0  0  0  0  0  0  0  0  0  0  0
   -1.4789   -2.8689    5.7550 H   0  0  0  0  0  0  0  0  0  0  0  0
    0.0123   -3.7847    5.8419 H   0  0  0  0  0  0  0  0  0  0  0  0
    0.0585   -2.0642    5.5199 H   0  0  0  0  0  0  0  0  0  0  0  0
   -0.6261   -2.1849    2.9917 N   0  0  0  0  0  0  0  0  0  0  0  0
   -0.7237   -2.2601    1.5650 C   0  0  2  0  0  0  0  0  0  0  0  0
    0.1695   -1.1513    1.0687 C   0  0  0  0  0  0  0  0  0  0  0  0
    0.3193   -0.1267    1.7365 O   0  0  0  0  0  0  0  0  0  0  0  0
   -2.1397   -2.0663    1.0750 C   0  0  0  0  0  0  0  0  0  0  0  0
   -0.5717   -1.2606    3.4238 H   0  0  0  0  0  0  0  0  0  0  0  0
   -0.3076   -3.2111    1.2363 H   0  0  0  0  0  0  0  0  0  0  0  0
   -2.5584   -1.1089    1.4061 H   0  0  0  0  0  0  0  0  0  0  0  0
   -2.1682   -2.0790   -0.0197 H   0  0  0  0  0  0  0  0  0  0  0  0
   -2.7965   -2.8601    1.4459 H   0  0  0  0  0  0  0  0  0  0  0  0
    0.7724   -1.3745   -0.1593 N   0  0  0  0  0  0  0  0  0  0  0  0
    1.6644   -0.4046   -0.7812 C   0  0  2  0  0  0  0  0  0  0  0  0
    1.7547    0.7703    0.1454 C   0  0  0  0  0  0  0  0  0  0  0  0
    1.3646    0.6593    1.3017 O   0  0  0  0  0  0  0  0  0  0  0  0
    0.9832   -0.0385   -2.0947 C   0  0  0  0  0  0  0  0  0  0  0  0
    0.4329   -1.4308   -1.7953 C   0  0  0  0  0  0  0  0  0  0  0  0
    0.7499   -2.6270   -0.9105 C   0  0  0  0  0  0  0  0  0  0  0  0
    2.6660   -0.8234   -0.9178 H   0  0  0  0  0  0  0  0  0  0  0  0
    1.7341    0.0889   -2.8835 H   0  0  0  0  0  0  0  0  0  0  0  0
    0.3808    0.8733   -2.0362 H   0  0  0  0  0  0  0  0  0  0  0  0
   -0.5797   -1.3599   -1.3815 H   0  0  0  0  0  0  0  0  0  0  0  0
    0.3950   -2.0608   -2.6885 H   0  0  0  0  0  0  0  0  0  0  0  0
   -0.0575   -3.3641   -0.8933 H   0  0  0  0  0  0  0  0  0  0  0  0
    1.6766   -3.1193   -1.2248 H   0  0  0  0  0  0  0  0  0  0  0  0
    2.2618    1.8964   -0.3433 N   0  0  0  0  0  0  0  0  0  0  0  0
    2.4446    3.3046   -0.6129 C   0  0  2  0  0  0  0  0  0  0  0  0
    1.0951    3.8856   -1.0141 C   0  0  0  0  0  0  0  0  0  0  0  0
    0.1771    3.2020   -1.4626 O   0  0  0  0  0  0  0  0  0  0  0  0
    3.4793    3.5293   -1.7044 C   0  0  0  0  0  0  0  0  0  0  0  0
    2.5080    1.5445    0.5770 H   0  0  0  0  0  0  0  0  0  0  0  0
    2.7773    3.7653    0.3236 H   0  0  0  0  0  0  0  0  0  0  0  0
    3.1634    3.0746   -2.6504 H   0  0  0  0  0  0  0  0  0  0  0  0
    3.6374    4.5972   -1.8875 H   0  0  0  0  0  0  0  0  0  0  0  0
    4.4413    3.0848   -1.4270 H   0  0  0  0  0  0  0  0  0  0  0  0
    1.0514    5.2634   -0.8531 N   0  0  0  0  0  0  0  0  0  0  0  0
   -0.1161    6.0495   -1.1769 C   0  0  0  0  0  0  0  0  0  0  0  0
    1.8526    5.7458   -0.4568 H   0  0  0  0  0  0  0  0  0  0  0  0
   -0.0391    6.4118   -2.2127 H   0  0  0  0  0  0  0  0  0  0  0  0
   -1.0174    5.4276   -1.0722 H   0  0  0  0  0  0  0  0  0  0  0  0
   -0.1814    6.9080   -0.4923 H   0  0  0  0  0  0  0  0  0  0  0  0
 18 19  1  0  0  0  0
 19 31  1  0  0  0  0
 19 20  2  0  0  0  0
  8  9  1  0  0  0  0
  9 17  1  0  0  0  0
  9 10  2  0  0  0  0
  1  3  1  0  0  0  0
  1  7  1  0  0  0  0
  1  2  2  0  0  0  0
 32 33  1  0  0  0  0
 33 41  1  0  0  0  0
 33 34  2  0  0  0  0
 21 22  1  0  0  0  0
 22 23  1  0  0  0  0
 18 21  1  0  0  0  0
 17 23  1  0  0  0  0
 17 18  1  0  0  0  0
  8 11  1  0  0  0  0
 32 35  1  0  0  0  0
 41 42  1  0  0  0  0
  7  8  1  0  0  0  0
 31 32  1  0  0  0  0
 22 27  1  0  0  0  0
 22 28  1  0  0  0  0
 21 25  1  0  0  0  0
 21 26  1  0  0  0  0
 23 29  1  0  0  0  0
 23 30  1  0  0  0  0
 18 24  1  0  0  0  0
  3  4  1  0  0  0  0
  3  5  1  0  0  0  0
  3  6  1  0  0  0  0
 11 14  1  0  0  0  0
 11 15  1  0  0  0  0
 11 16  1  0  0  0  0
 35 38  1  0  0  0  0
 35 39  1  0  0  0  0
 35 40  1  0  0  0  0
 42 44  1  0  0  0  0
 42 45  1  0  0  0  0
 42 46  1  0  0  0  0
  8 13  1  0  0  0  0
 32 37  1  0  0  0  0
 31 36  1  0  0  0  0
 41 43  1  0  0  0  0
  7 12  1  0  0  0  0
M  END
$$$$

  -OEChem-05262214473D

 46 46  0     1  0  0  0  0  0999 V2000
   -0.6012   -3.2995    3.8205 C   0  0  0  0  0  0  0  0  0  0  0  0
   -0.6574   -4.4683    3.4568 O   0  0  0  0  0  0  0  0  0  0  0  0
   -0.4935   -2.9859    5.2760 C   0  0  0  0  0  0  0  0  0  0  0  0
   -1.4789   -2.8689    5.7550 H   0  0  0  0  0  0  0  0  0  0  0  0
    0.0123   -3.7847    5.8419 H   0  0  0  0  0  0  0  0  0  0  0  0
    0.0585   -2.0642    5.5199 H   0  0  0  0  0  0  0  0  0  0  0  0
   -0.6261   -2.1849    2.9917 N   0  0  0  0  0  0  0  0  0  0  0  0
   -0.7237   -2.2601    1.5650 C   0  0  2  0  0  0  0  0  0  0  0  0
    0.1695   -1.1513    1.0687 C   0  0  0  0  0  0  0  0  0  0  0  0
    0.3193   -0.1267    1.7365 O   0  0  0  0  0  0  0  0  0  0  0  0
   -2.1397   -2.0663    1.0750 C   0  0  0  0  0  0  0  0  0  0  0  0
   -0.5717   -1.2606    3.4238 H   0  0  0  0  0  0  0  0  0  0  0  0
   -0.3076   -3.2111    1.2363 H   0  0  0  0  0  0  0  0  0  0  0  0
   -2.5584   -1.1089    1.4061 H   0  0  0  0  0  0  0  0  0  0  0  0
   -2.1682   -2.0790   -0.0197 H   0  0  0  0  0  0  0  0  0  0  0  0
   -2.7965   -2.8601    1.4459 H   0  0  0  0  0  0  0  0  0  0  0  0
    0.7724   -1.3745   -0.1593 N   0  0  0  0  0  0  0  0  0  0  0  0
    1.6644   -0.4046   -0.7812 C   0  0  2  0  0  0  0  0  0  0  0  0
    1.7547    0.7703    0.1454 C   0  0  0  0  0  0  0  0  0  0  0  0
    1.6315    0.5987    1.3525 O   0  0  0  0  0  0  0  0  0  0  0  0
    0.9832   -0.0385   -2.0947 C   0  0  0  0  0  0  0  0  0  0  0  0
    0.4329   -1.4308   -1.7953 C   0  0  0  0  0  0  0  0  0  0  0  0
    0.7499   -2.6270   -0.9105 C   0  0  0  0  0  0  0  0  0  0  0  0
    2.6660   -0.8234   -0.9178 H   0  0  0  0  0  0  0  0  0  0  0  0
    1.7341    0.0889   -2.8835 H   0  0  0  0  0  0  0  0  0  0  0  0
    0.3808    0.8733   -2.0362 H   0  0  0  0  0  0  0  0  0  0  0  0
   -0.5797   -1.3599   -1.3815 H   0  0  0  0  0  0  0  0  0  0  0  0
    0.3950   -2.0608   -2.6885 H   0  0  0  0  0  0  0  0  0  0  0  0
   -0.0575   -3.3641   -0.8933 H   0  0  0  0  0  0  0  0  0  0  0  0
    1.6766   -3.1193   -1.2248 H   0  0  0  0  0  0  0  0  0  0  0  0
    1.9665    1.9631   -0.3991 N   0  0  0  0  0  0  0  0  0  0  0  0
    1.8650    3.3821   -0.6546 C   0  0  2  0  0  0  0  0  0  0  0  0
    0.3875    3.7370   -0.7567 C   0  0  0  0  0  0  0  0  0  0  0  0
   -0.4826    2.9137   -1.0327 O   0  0  0  0  0  0  0  0  0  0  0  0
    2.6063    3.7700   -1.9245 C   0  0  0  0  0  0  0  0  0  0  0  0
    2.4479    1.6564    0.4409 H   0  0  0  0  0  0  0  0  0  0  0  0
    2.3046    3.8913    0.2099 H   0  0  0  0  0  0  0  0  0  0  0  0
    2.1800    3.2694   -2.8015 H   0  0  0  0  0  0  0  0  0  0  0  0
    2.5525    4.8493   -2.1013 H   0  0  0  0  0  0  0  0  0  0  0  0
    3.6626    3.4871   -1.8611 H   0  0  0  0  0  0  0  0  0  0  0  0
    0.1599    5.0898   -0.5460 N   0  0  0  0  0  0  0  0  0  0  0  0
   -1.1585    5.6766   -0.6024 C   0  0  0  0  0  0  0  0  0  0  0  0
    0.9384    5.6957   -0.3041 H   0  0  0  0  0  0  0  0  0  0  0  0
   -1.3530    6.0456   -1.6203 H   0  0  0  0  0  0  0  0  0  0  0  0
   -1.9093    4.9173   -0.3382 H   0  0  0  0  0  0  0  0  0  0  0  0
   -1.2178    6.5139    0.1085 H   0  0  0  0  0  0  0  0  0  0  0  0
 18 19  1  0  0  0  0
 19 31  1  0  0  0  0
 19 20  2  0  0  0  0
  8  9  1  0  0  0  0
  9 17  1  0  0  0  0
  9 10  2  0  0  0  0
  1  3  1  0  0  0  0
  1  7  1  0  0  0  0
  1  2  2  0  0  0  0
 32 33  1  0  0  0  0
 33 41  1  0  0  0  0
 33 34  2  0  0  0  0
 21 22  1  0  0  0  0
 22 23  1  0  0  0  0
 18 21  1  0  0  0  0
 17 23  1  0  0  0  0
 17 18  1  0  0  0  0
  8 11  1  0  0  0  0
 32 35  1  0  0  0  0
 41 42  1  0  0  0  0
  7  8  1  0  0  0  0
 31 32  1  0  0  0  0
 22 27  1  0  0  0  0
 22 28  1  0  0  0  0
 21 25  1  0  0  0  0
 21 26  1  0  0  0  0
 23 29  1  0  0  0  0
 23 30  1  0  0  0  0
 18 24  1  0  0  0  0
  3  4  1  0  0  0  0
  3  5  1  0  0  0  0
  3  6  1  0  0  0  0
 11 14  1  0  0  0  0
 11 15  1  0  0  0  0
 11 16  1  0  0  0  0
 35 38  1  0  0  0  0
 35 39  1  0  0  0  0
 35 40  1  0  0  0  0
 42 44  1  0  0  0  0
 42 45  1  0  0  0  0
 42 46  1  0  0  0  0
  8 13  1  0  0  0  0
 32 37  1  0  0  0  0
 31 36  1  0  0  0  0
 41 43  1  0  0  0  0
  7 12  1  0  0  0  0
M  END
$$$$

  -OEChem-05262214473D

 46 46  0     1  0  0  0  0  0999 V2000
   -0.6012   -3.2995    3.8205 C   0  0  0  0  0  0  0  0  0  0  0  0
   -0.6574   -4.4683    3.4568 O   0  0  0  0  0  0  0  0  0  0  0  0
   -0.4935   -2.9859    5.2760 C   0  0  0  0  0  0  0  0  0  0  0  0
   -1.4789   -2.8689    5.7550 H   0  0  0  0  0  0  0  0  0  0  0  0
    0.0123   -3.7847    5.8419 H   0  0  0  0  0  0  0  0  0  0  0  0
    0.0585   -2.0642    5.5199 H   0  0  0  0  0  0  0  0  0  0  0  0
   -0.6261   -2.1849    2.9917 N   0  0  0  0  0  0  0  0  0  0  0  0
   -0.7237   -2.2601    1.5650 C   0  0  2  0  0  0  0  0  0  0  0  0
    0.1695   -1.1513    1.0687 C   0  0  0  0  0  0  0  0  0  0  0  0
    0.3193   -0.1267    1.7365 O   0  0  0  0  0  0  0  0  0  0  0  0
   -2.1397   -2.0663    1.0750 C   0  0  0  0  0  0  0  0  0  0  0  0
   -0.5717   -1.2606    3.4238 H   0  0  0  0  0  0  0  0  0  0  0  0
   -0.3076   -3.2111    1.2363 H   0  0  0  0  0  0  0  0  0  0  0  0
   -2.5584   -1.1089    1.4061 H   0  0  0  0  0  0  0  0  0  0  0  0
   -2.1682   -2.0790   -0.0197 H   0  0  0  0  0  0  0  0  0  0  0  0
   -2.7965   -2.8601    1.4459 H   0  0  0  0  0  0  0  0  0  0  0  0
    0.7724   -1.3745   -0.1593 N   0  0  0  0  0  0  0  0  0  0  0  0
    1.6644   -0.4046   -0.7812 C   0  0  2  0  0  0  0  0  0  0  0  0
    1.7547    0.7703    0.1454 C   0  0  0  0  0  0  0  0  0  0  0  0
    1.9093    0.5822    1.3464 O   0  0  0  0  0  0  0  0  0  0  0  0
    0.9832   -0.0385   -2.0947 C   0  0  0  0  0  0  0  0  0  0  0  0
    0.4329   -1.4308   -1.7953 C   0  0  0  0  0  0  0  0  0  0  0  0
    0.7499   -2.6270   -0.9105 C   0  0  0  0  0  0  0  0  0  0  0  0
    2.6660   -0.8234   -0.9178 H   0  0  0  0  0  0  0  0  0  0  0  0
    1.7341    0.0889   -2.8835 H   0  0  0  0  0  0  0  0  0  0  0  0
    0.3808    0.8733   -2.0362 H   0  0  0  0  0  0  0  0  0  0  0  0
   -0.5797   -1.3599   -1.3815 H   0  0  0  0  0  0  0  0  0  0  0  0
    0.3950   -2.0608   -2.6885 H   0  0  0  0  0  0  0  0  0  0  0  0
   -0.0575   -3.3641   -0.8933 H   0  0  0  0  0  0  0  0  0  0  0  0
    1.6766   -3.1193   -1.2248 H   0  0  0  0  0  0  0  0  0  0  0  0
    1.6593    1.9812   -0.3920 N   0  0  0  0  0  0  0  0  0  0  0  0
    1.2844    3.3648   -0.5761 C   0  0  2  0  0  0  0  0  0  0  0  0
   -0.2201    3.4762   -0.3669 C   0  0  0  0  0  0  0  0  0  0  0  0
   -0.9866    2.5229   -0.4880 O   0  0  0  0  0  0  0  0  0  0  0  0
    1.6798    3.8663   -1.9563 C   0  0  0  0  0  0  0  0  0  0  0  0
    2.3444    1.7570    0.3234 H   0  0  0  0  0  0  0  0  0  0  0  0
    1.8049    3.9392    0.1979 H   0  0  0  0  0  0  0  0  0  0  0  0
    1.1682    3.3026   -2.7450 H   0  0  0  0  0  0  0  0  0  0  0  0
    1.4208    4.9226   -2.0839 H   0  0  0  0  0  0  0  0  0  0  0  0
    2.7580    3.7578   -2.1162 H   0  0  0  0  0  0  0  0  0  0  0  0
   -0.6111    4.7747   -0.0713 N   0  0  0  0  0  0  0  0  0  0  0  0
   -1.9893    5.1407    0.1581 C   0  0  0  0  0  0  0  0  0  0  0  0
    0.0944    5.4986    0.0281 H   0  0  0  0  0  0  0  0  0  0  0  0
   -2.4433    5.4725   -0.7873 H   0  0  0  0  0  0  0  0  0  0  0  0
   -2.5404    4.2703    0.5438 H   0  0  0  0  0  0  0  0  0  0  0  0
   -2.0340    5.9580    0.8929 H   0  0  0  0  0  0  0  0  0  0  0  0
 18 19  1  0  0  0  0
 19 31  1  0  0  0  0
 19 20  2  0  0  0  0
  8  9  1  0  0  0  0
  9 17  1  0  0  0  0
  9 10  2  0  0  0  0
  1  3  1  0  0  0  0
  1  7  1  0  0  0  0
  1  2  2  0  0  0  0
 32 33  1  0  0  0  0
 33 41  1  0  0  0  0
 33 34  2  0  0  0  0
 21 22  1  0  0  0  0
 22 23  1  0  0  0  0
 18 21  1  0  0  0  0
 17 23  1  0  0  0  0
 17 18  1  0  0  0  0
  8 11  1  0  0  0  0
 32 35  1  0  0  0  0
 41 42  1  0  0  0  0
  7  8  1  0  0  0  0
 31 32  1  0  0  0  0
 22 27  1  0  0  0  0
 22 28  1  0  0  0  0
 21 25  1  0  0  0  0
 21 26  1  0  0  0  0
 23 29  1  0  0  0  0
 23 30  1  0  0  0  0
 18 24  1  0  0  0  0
  3  4  1  0  0  0  0
  3  5  1  0  0  0  0
  3  6  1  0  0  0  0
 11 14  1  0  0  0  0
 11 15  1  0  0  0  0
 11 16  1  0  0  0  0
 35 38  1  0  0  0  0
 35 39  1  0  0  0  0
 35 40  1  0  0  0  0
 42 44  1  0  0  0  0
 42 45  1  0  0  0  0
 42 46  1  0  0  0  0
  8 13  1  0  0  0  0
 32 37  1  0  0  0  0
 31 36  1  0  0  0  0
 41 43  1  0  0  0  0
  7 12  1  0  0  0  0
M  END
$$$$

  -OEChem-05262214473D

 46 46  0     1  0  0  0  0  0999 V2000
   -0.6012   -3.2995    3.8205 C   0  0  0  0  0  0  0  0  0  0  0  0
   -0.6574   -4.4683    3.4568 O   0  0  0  0  0  0  0  0  0  0  0  0
   -0.4935   -2.9859    5.2760 C   0  0  0  0  0  0  0  0  0  0  0  0
   -1.4789   -2.8689    5.7550 H   0  0  0  0  0  0  0  0  0  0  0  0
    0.0123   -3.7847    5.8419 H   0  0  0  0  0  0  0  0  0  0  0  0
    0.0585   -2.0642    5.5199 H   0  0  0  0  0  0  0  0  0  0  0  0
   -0.6261   -2.1849    2.9917 N   0  0  0  0  0  0  0  0  0  0  0  0
   -0.7237   -2.2601    1.5650 C   0  0  2  0  0  0  0  0  0  0  0  0
    0.1695   -1.1513    1.0687 C   0  0  0  0  0  0  0  0  0  0  0  0
    0.3193   -0.1267    1.7365 O   0  0  0  0  0  0  0  0  0  0  0  0
   -2.1397   -2.0663    1.0750 C   0  0  0  0  0  0  0  0  0  0  0  0
   -0.5717   -1.2606    3.4238 H   0  0  0  0  0  0  0  0  0  0  0  0
   -0.3076   -3.2111    1.2363 H   0  0  0  0  0  0  0  0  0  0  0  0
   -2.5584   -1.1089    1.4061 H   0  0  0  0  0  0  0  0  0  0  0  0
   -2.1682   -2.0790   -0.0197 H   0  0  0  0  0  0  0  0  0  0  0  0
   -2.7965   -2.8601    1.4459 H   0  0  0  0  0  0  0  0  0  0  0  0
    0.7724   -1.3745   -0.1593 N   0  0  0  0  0  0  0  0  0  0  0  0
    1.6644   -0.4046   -0.7812 C   0  0  2  0  0  0  0  0  0  0  0  0
    1.7547    0.7703    0.1454 C   0  0  0  0  0  0  0  0  0  0  0  0
    2.1790    0.6107    1.2839 O   0  0  0  0  0  0  0  0  0  0  0  0
    0.9832   -0.0385   -2.0947 C   0  0  0  0  0  0  0  0  0  0  0  0
    0.4329   -1.4308   -1.7953 C   0  0  0  0  0  0  0  0  0  0  0  0
    0.7499   -2.6270   -0.9105 C   0  0  0  0  0  0  0  0  0  0  0  0
    2.6660   -0.8234   -0.9178 H   0  0  0  0  0  0  0  0  0  0  0  0
    1.7341    0.0889   -2.8835 H   0  0  0  0  0  0  0  0  0  0  0  0
    0.3808    0.8733   -2.0362 H   0  0  0  0  0  0  0  0  0  0  0  0
   -0.5797   -1.3599   -1.3815 H   0  0  0  0  0  0  0  0  0  0  0  0
    0.3950   -2.0608   -2.6885 H   0  0  0  0  0  0  0  0  0  0  0  0
   -0.0575   -3.3641   -0.8933 H   0  0  0  0  0  0  0  0  0  0  0  0
    1.6766   -3.1193   -1.2248 H   0  0  0  0  0  0  0  0  0  0  0  0
    1.3611    1.9494   -0.3226 N   0  0  0  0  0  0  0  0  0  0  0  0
    0.7422    3.2541   -0.3828 C   0  0  2  0  0  0  0  0  0  0  0  0
   -0.6861    3.1211    0.1289 C   0  0  0  0  0  0  0  0  0  0  0  0
   -1.3004    2.0563    0.1342 O   0  0  0  0  0  0  0  0  0  0  0  0
    0.7630    3.8116   -1.7975 C   0  0  0  0  0  0  0  0  0  0  0  0
    2.2045    1.8395    0.2325 H   0  0  0  0  0  0  0  0  0  0  0  0
    1.3120    3.9058    0.2884 H   0  0  0  0  0  0  0  0  0  0  0  0
    0.1971    3.1720   -2.4846 H   0  0  0  0  0  0  0  0  0  0  0  0
    0.3195    4.8120   -1.8363 H   0  0  0  0  0  0  0  0  0  0  0  0
    1.7891    3.8786   -2.1749 H   0  0  0  0  0  0  0  0  0  0  0  0
   -1.2092    4.3395    0.5388 N   0  0  0  0  0  0  0  0  0  0  0  0
   -2.5517    4.4783    1.0529 C   0  0  0  0  0  0  0  0  0  0  0  0
   -0.6220    5.1681    0.5170 H   0  0  0  0  0  0  0  0  0  0  0  0
   -3.2358    4.7315    0.2296 H   0  0  0  0  0  0  0  0  0  0  0  0
   -2.8675    3.5307    1.5136 H   0  0  0  0  0  0  0  0  0  0  0  0
   -2.5743    5.2783    1.8075 H   0  0  0  0  0  0  0  0  0  0  0  0
 18 19  1  0  0  0  0
 19 31  1  0  0  0  0
 19 20  2  0  0  0  0
  8  9  1  0  0  0  0
  9 17  1  0  0  0  0
  9 10  2  0  0  0  0
  1  3  1  0  0  0  0
  1  7  1  0  0  0  0
  1  2  2  0  0  0  0
 32 33  1  0  0  0  0
 33 41  1  0  0  0  0
 33 34  2  0  0  0  0
 21 22  1  0  0  0  0
 22 23  1  0  0  0  0
 18 21  1  0  0  0  0
 17 23  1  0  0  0  0
 17 18  1  0  0  0  0
  8 11  1  0  0  0  0
 32 35  1  0  0  0  0
 41 42  1  0  0  0  0
  7  8  1  0  0  0  0
 31 32  1  0  0  0  0
 22 27  1  0  0  0  0
 22 28  1  0  0  0  0
 21 25  1  0  0  0  0
 21 26  1  0  0  0  0
 23 29  1  0  0  0  0
 23 30  1  0  0  0  0
 18 24  1  0  0  0  0
  3  4  1  0  0  0  0
  3  5  1  0  0  0  0
  3  6  1  0  0  0  0
 11 14  1  0  0  0  0
 11 15  1  0  0  0  0
 11 16  1  0  0  0  0
 35 38  1  0  0  0  0
 35 39  1  0  0  0  0
 35 40  1  0  0  0  0
 42 44  1  0  0  0  0
 42 45  1  0  0  0  0
 42 46  1  0  0  0  0
  8 13  1  0  0  0  0
 32 37  1  0  0  0  0
 31 36  1  0  0  0  0
 41 43  1  0  0  0  0
  7 12  1  0  0  0  0
M  END
$$$$

  -OEChem-05262214473D

 46 46  0     1  0  0  0  0  0999 V2000
   -0.6012   -3.2995    3.8205 C   0  0  0  0  0  0  0  0  0  0  0  0
   -0.6574   -4.4683    3.4568 O   0  0  0  0  0  0  0  0  0  0  0  0
   -0.4935   -2.9859    5.2760 C   0  0  0  0  0  0  0  0  0  0  0  0
   -1.4789   -2.8689    5.7550 H   0  0  0  0  0  0  0  0  0  0  0  0
    0.0123   -3.7847    5.8419 H   0  0  0  0  0  0  0  0  0  0  0  0
    0.0585   -2.0642    5.5199 H   0  0  0  0  0  0  0  0  0  0  0  0
   -0.6261   -2.1849    2.9917 N   0  0  0  0  0  0  0  0  0  0  0  0
   -0.7237   -2.2601    1.5650 C   0  0  2  0  0  0  0  0  0  0  0  0
    0.1695   -1.1513    1.0687 C   0  0  0  0  0  0  0  0  0  0  0  0
    0.3193   -0.1267    1.7365 O   0  0  0  0  0  0  0  0  0  0  0  0
   -2.1397   -2.0663    1.0750 C   0  0  0  0  0  0  0  0  0  0  0  0
   -0.5717   -1.2606    3.4238 H   0  0  0  0  0  0  0  0  0  0  0  0
   -0.3076   -3.2111    1.2363 H   0  0  0  0  0  0  0  0  0  0  0  0
   -2.5584   -1.1089    1.4061 H   0  0  0  0  0  0  0  0  0  0  0  0
   -2.1682   -2.0790   -0.0197 H   0  0  0  0  0  0  0  0  0  0  0  0
   -2.7965   -2.8601    1.4459 H   0  0  0  0  0  0  0  0  0  0  0  0
    0.7724   -1.3745   -0.1593 N   0  0  0  0  0  0  0  0  0  0  0  0
    1.6644   -0.4046   -0.7812 C   0  0  2  0  0  0  0  0  0  0  0  0
    1.7547    0.7703    0.1454 C   0  0  0  0  0  0  0  0  0  0  0  0
    2.4222    0.6824    1.1693 O   0  0  0  0  0  0  0  0  0  0  0  0
    0.9832   -0.0385   -2.0947 C   0  0  0  0  0  0  0  0  0  0  0  0
    0.4329   -1.4308   -1.7953 C   0  0  0  0  0  0  0  0  0  0  0  0
    0.7499   -2.6270   -0.9105 C   0  0  0  0  0  0  0  0  0  0  0  0
    2.6660   -0.8234   -0.9178 H   0  0  0  0  0  0  0  0  0  0  0  0
    1.7341    0.0889   -2.8835 H   0  0  0  0  0  0  0  0  0  0  0  0
    0.3808    0.8733   -2.0362 H   0  0  0  0  0  0  0  0  0  0  0  0
   -0.5797   -1.3599   -1.3815 H   0  0  0  0  0  0  0  0  0  0  0  0
    0.3950   -2.0608   -2.6885 H   0  0  0  0  0  0  0  0  0  0  0  0
   -0.0575   -3.3641   -0.8933 H   0  0  0  0  0  0  0  0  0  0  0  0
    1.6766   -3.1193   -1.2248 H   0  0  0  0  0  0  0  0  0  0  0  0
    1.0922    1.8698   -0.1955 N   0  0  0  0  0  0  0  0  0  0  0  0
    0.2754    3.0573   -0.0878 C   0  0  2  0  0  0  0  0  0  0  0  0
   -0.9789    2.6958    0.6967 C   0  0  0  0  0  0  0  0  0  0  0  0
   -1.4026    1.5458    0.7916 O   0  0  0  0  0  0  0  0  0  0  0  0
   -0.0815    3.6096   -1.4591 C   0  0  0  0  0  0  0  0  0  0  0  0
    2.0376    1.8982    0.1743 H   0  0  0  0  0  0  0  0  0  0  0  0
    0.8597    3.7931    0.4753 H   0  0  0  0  0  0  0  0  0  0  0  0
   -0.6672    2.8863   -2.0381 H   0  0  0  0  0  0  0  0  0  0  0  0
   -0.6763    4.5252   -1.3755 H   0  0  0  0  0  0  0  0  0  0  0  0
    0.8221    3.8412   -2.0332 H   0  0  0  0  0  0  0  0  0  0  0  0
   -1.5935    3.8141    1.2426 N   0  0  0  0  0  0  0  0  0  0  0  0
   -2.8075    3.7345    2.0210 C   0  0  0  0  0  0  0  0  0  0  0  0
   -1.1619    4.7266    1.1295 H   0  0  0  0  0  0  0  0  0  0  0  0
   -3.6765    3.8731    1.3611 H   0  0  0  0  0  0  0  0  0  0  0  0
   -2.8685    2.7487    2.5052 H   0  0  0  0  0  0  0  0  0  0  0  0
   -2.8020    4.5211    2.7900 H   0  0  0  0  0  0  0  0  0  0  0  0
 18 19  1  0  0  0  0
 19 31  1  0  0  0  0
 19 20  2  0  0  0  0
  8  9  1  0  0  0  0
  9 17  1  0  0  0  0
  9 10  2  0  0  0  0
  1  3  1  0  0  0  0
  1  7  1  0  0  0  0
  1  2  2  0  0  0  0
 32 33  1  0  0  0  0
 33 41  1  0  0  0  0
 33 34  2  0  0  0  0
 21 22  1  0  0  0  0
 22 23  1  0  0  0  0
 18 21  1  0  0  0  0
 17 23  1  0  0  0  0
 17 18  1  0  0  0  0
  8 11  1  0  0  0  0
 32 35  1  0  0  0  0
 41 42  1  0  0  0  0
  7  8  1  0  0  0  0
 31 32  1  0  0  0  0
 22 27  1  0  0  0  0
 22 28  1  0  0  0  0
 21 25  1  0  0  0  0
 21 26  1  0  0  0  0
 23 29  1  0  0  0  0
 23 30  1  0  0  0  0
 18 24  1  0  0  0  0
  3  4  1  0  0  0  0
  3  5  1  0  0  0  0
  3  6  1  0  0  0  0
 11 14  1  0  0  0  0
 11 15  1  0  0  0  0
 11 16  1  0  0  0  0
 35 38  1  0  0  0  0
 35 39  1  0  0  0  0
 35 40  1  0  0  0  0
 42 44  1  0  0  0  0
 42 45  1  0  0  0  0
 42 46  1  0  0  0  0
  8 13  1  0  0  0  0
 32 37  1  0  0  0  0
 31 36  1  0  0  0  0
 41 43  1  0  0  0  0
  7 12  1  0  0  0  0
M  END
$$$$

  -OEChem-05262214473D

 46 46  0     1  0  0  0  0  0999 V2000
   -0.6012   -3.2995    3.8205 C   0  0  0  0  0  0  0  0  0  0  0  0
   -0.6574   -4.4683    3.4568 O   0  0  0  0  0  0  0  0  0  0  0  0
   -0.4935   -2.9859    5.2760 C   0  0  0  0  0  0  0  0  0  0  0  0
   -1.4789   -2.8689    5.7550 H   0  0  0  0  0  0  0  0  0  0  0  0
    0.0123   -3.7847    5.8419 H   0  0  0  0  0  0  0  0  0  0  0  0
    0.0585   -2.0642    5.5199 H   0  0  0  0  0  0  0  0  0  0  0  0
   -0.6261   -2.1849    2.9917 N   0  0  0  0  0  0  0  0  0  0  0  0
   -0.7237   -2.2601    1.5650 C   0  0  2  0  0  0  0  0  0  0  0  0
    0.1695   -1.1513    1.0687 C   0  0  0  0  0  0  0  0  0  0  0  0
    0.3193   -0.1267    1.7365 O   0  0  0  0  0  0  0  0  0  0  0  0
   -2.1397   -2.0663    1.0750 C   0  0  0  0  0  0  0  0  0  0  0  0
   -0.5717   -1.2606    3.4238 H   0  0  0  0  0  0  0  0  0  0  0  0
   -0.3076   -3.2111    1.2363 H   0  0  0  0  0  0  0  0  0  0  0  0
   -2.5584   -1.1089    1.4061 H   0  0  0  0  0  0  0  0  0  0  0  0
   -2.1682   -2.0790   -0.0197 H   0  0  0  0  0  0  0  0  0  0  0  0
   -2.7965   -2.8601    1.4459 H   0  0  0  0  0  0  0  0  0  0  0  0
    0.7724   -1.3745   -0.1593 N   0  0  0  0  0  0  0  0  0  0  0  0
    1.6644   -0.4046   -0.7812 C   0  0  2  0  0  0  0  0  0  0  0  0
    1.7547    0.7703    0.1454 C   0  0  0  0  0  0  0  0  0  0  0  0
    2.6225    0.7923    1.0103 O   0  0  0  0  0  0  0  0  0  0  0  0
    0.9832   -0.0385   -2.0947 C   0  0  0  0  0  0  0  0  0  0  0  0
    0.4329   -1.4308   -1.7953 C   0  0  0  0  0  0  0  0  0  0  0  0
    0.7499   -2.6270   -0.9105 C   0  0  0  0  0  0  0  0  0  0  0  0
    2.6660   -0.8234   -0.9178 H   0  0  0  0  0  0  0  0  0  0  0  0
    1.7341    0.0889   -2.8835 H   0  0  0  0  0  0  0  0  0  0  0  0
    0.3808    0.8733   -2.0362 H   0  0  0  0  0  0  0  0  0  0  0  0
   -0.5797   -1.3599   -1.3815 H   0  0  0  0  0  0  0  0  0  0  0  0
    0.3950   -2.0608   -2.6885 H   0  0  0  0  0  0  0  0  0  0  0  0
   -0.0575   -3.3641   -0.8933 H   0  0  0  0  0  0  0  0  0  0  0  0
    1.6766   -3.1193   -1.2248 H   0  0  0  0  0  0  0  0  0  0  0  0
    0.8710    1.7480   -0.0195 N   0  0  0  0  0  0  0  0  0  0  0  0
   -0.0842    2.7880    0.2887 C   0  0  2  0  0  0  0  0  0  0  0  0
   -1.0785    2.2293    1.2980 C   0  0  0  0  0  0  0  0  0  0  0  0
   -1.2863    1.0260    1.4394 O   0  0  0  0  0  0  0  0  0  0  0  0
   -0.7964    3.2741   -0.9640 C   0  0  0  0  0  0  0  0  0  0  0  0
    1.8553    1.9291    0.1529 H   0  0  0  0  0  0  0  0  0  0  0  0
    0.4787    3.6091    0.7459 H   0  0  0  0  0  0  0  0  0  0  0  0
   -1.3658    2.4652   -1.4359 H   0  0  0  0  0  0  0  0  0  0  0  0
   -1.4989    4.0816   -0.7329 H   0  0  0  0  0  0  0  0  0  0  0  0
   -0.0773    3.6482   -1.7007 H   0  0  0  0  0  0  0  0  0  0  0  0
   -1.7379    3.2340    1.9922 N   0  0  0  0  0  0  0  0  0  0  0  0
   -2.7392    2.9601    2.9963 C   0  0  0  0  0  0  0  0  0  0  0  0
   -1.4885    4.2042    1.8238 H   0  0  0  0  0  0  0  0  0  0  0  0
   -3.7354    2.9558    2.5300 H   0  0  0  0  0  0  0  0  0  0  0  0
   -2.5431    1.9778    3.4510 H   0  0  0  0  0  0  0  0  0  0  0  0
   -2.7015    3.7379    3.7733 H   0  0  0  0  0  0  0  0  0  0  0  0
 18 19  1  0  0  0  0
 19 31  1  0  0  0  0
 19 20  2  0  0  0  0
  8  9  1  0  0  0  0
  9 17  1  0  0  0  0
  9 10  2  0  0  0  0
  1  3  1  0  0  0  0
  1  7  1  0  0  0  0
  1  2  2  0  0  0  0
 32 33  1  0  0  0  0
 33 41  1  0  0  0  0
 33 34  2  0  0  0  0
 21 22  1  0  0  0  0
 22 23  1  0  0  0  0
 18 21  1  0  0  0  0
 17 23  1  0  0  0  0
 17 18  1  0  0  0  0
  8 11  1  0  0  0  0
 32 35  1  0  0  0  0
 41 42  1  0  0  0  0
  7  8  1  0  0  0  0
 31 32  1  0  0  0  0
 22 27  1  0  0  0  0
 22 28  1  0  0  0  0
 21 25  1  0  0  0  0
 21 26  1  0  0  0  0
 23 29  1  0  0  0  0
 23 30  1  0  0  0  0
 18 24  1  0  0  0  0
  3  4  1  0  0  0  0
  3  5  1  0  0  0  0
  3  6  1  0  0  0  0
 11 14  1  0  0  0  0
 11 15  1  0  0  0  0
 11 16  1  0  0  0  0
 35 38  1  0  0  0  0
 35 39  1  0  0  0  0
 35 40  1  0  0  0  0
 42 44  1  0  0  0  0
 42 45  1  0  0  0  0
 42 46  1  0  0  0  0
  8 13  1  0  0  0  0
 32 37  1  0  0  0  0
 31 36  1  0  0  0  0
 41 43  1  0  0  0  0
  7 12  1  0  0  0  0
M  END
$$$$

  -OEChem-05262214473D

 46 46  0     1  0  0  0  0  0999 V2000
   -0.6012   -3.2995    3.8205 C   0  0  0  0  0  0  0  0  0  0  0  0
   -0.6574   -4.4683    3.4568 O   0  0  0  0  0  0  0  0  0  0  0  0
   -0.4935   -2.9859    5.2760 C   0  0  0  0  0  0  0  0  0  0  0  0
   -1.4789   -2.8689    5.7550 H   0  0  0  0  0  0  0  0  0  0  0  0
    0.0123   -3.7847    5.8419 H   0  0  0  0  0  0  0  0  0  0  0  0
    0.0585   -2.0642    5.5199 H   0  0  0  0  0  0  0  0  0  0  0  0
   -0.6261   -2.1849    2.9917 N   0  0  0  0  0  0  0  0  0  0  0  0
   -0.7237   -2.2601    1.5650 C   0  0  2  0  0  0  0  0  0  0  0  0
    0.1695   -1.1513    1.0687 C   0  0  0  0  0  0  0  0  0  0  0  0
    0.3193   -0.1267    1.7365 O   0  0  0  0  0  0  0  0  0  0  0  0
   -2.1397   -2.0663    1.0750 C   0  0  0  0  0  0  0  0  0  0  0  0
   -0.5717   -1.2606    3.4238 H   0  0  0  0  0  0  0  0  0  0  0  0
   -0.3076   -3.2111    1.2363 H   0  0  0  0  0  0  0  0  0  0  0  0
   -2.5584   -1.1089    1.4061 H   0  0  0  0  0  0  0  0  0  0  0  0
   -2.1682   -2.0790   -0.0197 H   0  0  0  0  0  0  0  0  0  0  0  0
   -2.7965   -2.8601    1.4459 H   0  0  0  0  0  0  0  0  0  0  0  0
    0.7724   -1.3745   -0.1593 N   0  0  0  0  0  0  0  0  0  0  0  0
    1.6644   -0.4046   -0.7812 C   0  0  2  0  0  0  0  0  0  0  0  0
    1.7547    0.7703    0.1454 C   0  0  0  0  0  0  0  0  0  0  0  0
    2.7661    0.9331    0.8179 O   0  0  0  0  0  0  0  0  0  0  0  0
    0.9832   -0.0385   -2.0947 C   0  0  0  0  0  0  0  0  0  0  0  0
    0.4329   -1.4308   -1.7953 C   0  0  0  0  0  0  0  0  0  0  0  0
    0.7499   -2.6270   -0.9105 C   0  0  0  0  0  0  0  0  0  0  0  0
    2.6660   -0.8234   -0.9178 H   0  0  0  0  0  0  0  0  0  0  0  0
    1.7341    0.0889   -2.8835 H   0  0  0  0  0  0  0  0  0  0  0  0
    0.3808    0.8733   -2.0362 H   0  0  0  0  0  0  0  0  0  0  0  0
   -0.5797   -1.3599   -1.3815 H   0  0  0  0  0  0  0  0  0  0  0  0
    0.3950   -2.0608   -2.6885 H   0  0  0  0  0  0  0  0  0  0  0  0
   -0.0575   -3.3641   -0.8933 H   0  0  0  0  0  0  0  0  0  0  0  0
    1.6766   -3.1193   -1.2248 H   0  0  0  0  0  0  0  0  0  0  0  0
    0.7125    1.5922    0.1935 N   0  0  0  0  0  0  0  0  0  0  0  0
   -0.3120    2.4645    0.7212 C   0  0  2  0  0  0  0  0  0  0  0  0
   -0.9781    1.7533    1.8917 C   0  0  0  0  0  0  0  0  0  0  0  0
   -0.9594    0.5324    2.0334 O   0  0  0  0  0  0  0  0  0  0  0  0
   -1.3327    2.8280   -0.3459 C   0  0  0  0  0  0  0  0  0  0  0  0
    1.6699    1.9302    0.1696 H   0  0  0  0  0  0  0  0  0  0  0  0
    0.1951    3.3662    1.0816 H   0  0  0  0  0  0  0  0  0  0  0  0
   -1.8511    1.9372   -0.7192 H   0  0  0  0  0  0  0  0  0  0  0  0
   -2.0921    3.5116    0.0478 H   0  0  0  0  0  0  0  0  0  0  0  0
   -0.8477    3.3126   -1.2002 H   0  0  0  0  0  0  0  0  0  0  0  0
   -1.6325    2.6390    2.7364 N   0  0  0  0  0  0  0  0  0  0  0  0
   -2.3514    2.2078    3.9125 C   0  0  0  0  0  0  0  0  0  0  0  0
   -1.5796    3.6365    2.5525 H   0  0  0  0  0  0  0  0  0  0  0  0
   -3.4083    2.0422    3.6567 H   0  0  0  0  0  0  0  0  0  0  0  0
   -1.9136    1.2705    4.2866 H   0  0  0  0  0  0  0  0  0  0  0  0
   -2.2796    2.9821    4.6905 H   0  0  0  0  0  0  0  0  0  0  0  0
 18 19  1  0  0  0  0
 19 31  1  0  0  0  0
 19 20  2  0  0  0  0
  8  9  1  0  0  0  0
  9 17  1  0  0  0  0
  9 10  2  0  0  0  0
  1  3  1  0  0  0  0
  1  7  1  0  0  0  0
  1  2  2  0  0  0  0
 32 33  1  0  0  0  0
 33 41  1  0  0  0  0
 33 34  2  0  0  0  0
 21 22  1  0  0  0  0
 22 23  1  0  0  0  0
 18 21  1  0  0  0  0
 17 23  1  0  0  0  0
 17 18  1  0  0  0  0
  8 11  1  0  0  0  0
 32 35  1  0  0  0  0
 41 42  1  0  0  0  0
  7  8  1  0  0  0  0
 31 32  1  0  0  0  0
 22 27  1  0  0  0  0
 22 28  1  0  0  0  0
 21 25  1  0  0  0  0
 21 26  1  0  0  0  0
 23 29  1  0  0  0  0
 23 30  1  0  0  0  0
 18 24  1  0  0  0  0
  3  4  1  0  0  0  0
  3  5  1  0  0  0  0
  3  6  1  0  0  0  0
 11 14  1  0  0  0  0
 11 15  1  0  0  0  0
 11 16  1  0  0  0  0
 35 38  1  0  0  0  0
 35 39  1  0  0  0  0
 35 40  1  0  0  0  0
 42 44  1  0  0  0  0
 42 45  1  0  0  0  0
 42 46  1  0  0  0  0
  8 13  1  0  0  0  0
 32 37  1  0  0  0  0
 31 36  1  0  0  0  0
 41 43  1  0  0  0  0
  7 12  1  0  0  0  0
M  END
$$$$

  -OEChem-05262214473D

 46 46  0     1  0  0  0  0  0999 V2000
   -0.6012   -3.2995    3.8205 C   0  0  0  0  0  0  0  0  0  0  0  0
   -0.6574   -4.4683    3.4568 O   0  0  0  0  0  0  0  0  0  0  0  0
   -0.4935   -2.9859    5.2760 C   0  0  0  0  0  0  0  0  0  0  0  0
   -1.4789   -2.8689    5.7550 H   0  0  0  0  0  0  0  0  0  0  0  0
    0.0123   -3.7847    5.8419 H   0  0  0  0  0  0  0  0  0  0  0  0
    0.0585   -2.0642    5.5199 H   0  0  0  0  0  0  0  0  0  0  0  0
   -0.6261   -2.1849    2.9917 N   0  0  0  0  0  0  0  0  0  0  0  0
   -0.7237   -2.2601    1.5650 C   0  0  2  0  0  0  0  0  0  0  0  0
    0.1695   -1.1513    1.0687 C   0  0  0  0  0  0  0  0  0  0  0  0
    0.3193   -0.1267    1.7365 O   0  0  0  0  0  0  0  0  0  0  0  0
   -2.1397   -2.0663    1.0750 C   0  0  0  0  0  0  0  0  0  0  0  0
   -0.5717   -1.2606    3.4238 H   0  0  0  0  0  0  0  0  0  0  0  0
   -0.3076   -3.2111    1.2363 H   0  0  0  0  0  0  0  0  0  0  0  0
   -2.5584   -1.1089    1.4061 H   0  0  0  0  0  0  0  0  0  0  0  0
   -2.1682   -2.0790   -0.0197 H   0  0  0  0  0  0  0  0  0  0  0  0
   -2.7965   -2.8601    1.4459 H   0  0  0  0  0  0  0  0  0  0  0  0
    0.7724   -1.3745   -0.1593 N   0  0  0  0  0  0  0  0  0  0  0  0
    1.6644   -0.4046   -0.7812 C   0  0  2  0  0  0  0  0  0  0  0  0
    1.7547    0.7703    0.1454 C   0  0  0  0  0  0  0  0  0  0  0  0
    2.8433    1.0950    0.6051 O   0  0  0  0  0  0  0  0  0  0  0  0
    0.9832   -0.0385   -2.0947 C   0  0  0  0  0  0  0  0  0  0  0  0
    0.4329   -1.4308   -1.7953 C   0  0  0  0  0  0  0  0  0  0  0  0
    0.7499   -2.6270   -0.9105 C   0  0  0  0  0  0  0  0  0  0  0  0
    2.6660   -0.8234   -0.9178 H   0  0  0  0  0  0  0  0  0  0  0  0
    1.7341    0.0889   -2.8835 H   0  0  0  0  0  0  0  0  0  0  0  0
    0.3808    0.8733   -2.0362 H   0  0  0  0  0  0  0  0  0  0  0  0
   -0.5797   -1.3599   -1.3815 H   0  0  0  0  0  0  0  0  0  0  0  0
    0.3950   -2.0608   -2.6885 H   0  0  0  0  0  0  0  0  0  0  0  0
   -0.0575   -3.3641   -0.8933 H   0  0  0  0  0  0  0  0  0  0  0  0
    1.6766   -3.1193   -1.2248 H   0  0  0  0  0  0  0  0  0  0  0  0
    0.6276    1.4131    0.4290 N   0  0  0  0  0  0  0  0  0  0  0  0
   -0.3926    2.1088    1.1801 C   0  0  2  0  0  0  0  0  0  0  0  0
   -0.6845    1.3004    2.4374 C   0  0  0  0  0  0  0  0  0  0  0  0
   -0.4442    0.0987    2.5331 O   0  0  0  0  0  0  0  0  0  0  0  0
   -1.6541    2.3016    0.3529 C   0  0  0  0  0  0  0  0  0  0  0  0
    1.4941    1.9012    0.2235 H   0  0  0  0  0  0  0  0  0  0  0  0
    0.0280    3.0809    1.4596 H   0  0  0  0  0  0  0  0  0  0  0  0
   -2.0899    1.3384    0.0634 H   0  0  0  0  0  0  0  0  0  0  0  0
   -2.4156    2.8539    0.9134 H   0  0  0  0  0  0  0  0  0  0  0  0
   -1.4366    2.8575   -0.5656 H   0  0  0  0  0  0  0  0  0  0  0  0
   -1.2845    2.0694    3.4247 N   0  0  0  0  0  0  0  0  0  0  0  0
   -1.6707    1.5288    4.7071 C   0  0  0  0  0  0  0  0  0  0  0  0
   -1.4290    3.0623    3.2660 H   0  0  0  0  0  0  0  0  0  0  0  0
   -2.7177    1.1944    4.6644 H   0  0  0  0  0  0  0  0  0  0  0  0
   -1.0230    0.6749    4.9550 H   0  0  0  0  0  0  0  0  0  0  0  0
   -1.5651    2.3053    5.4791 H   0  0  0  0  0  0  0  0  0  0  0  0
 18 19  1  0  0  0  0
 19 31  1  0  0  0  0
 19 20  2  0  0  0  0
  8  9  1  0  0  0  0
  9 17  1  0  0  0  0
  9 10  2  0  0  0  0
  1  3  1  0  0  0  0
  1  7  1  0  0  0  0
  1  2  2  0  0  0  0
 32 33  1  0  0  0  0
 33 41  1  0  0  0  0
 33 34  2  0  0  0  0
 21 22  1  0  0  0  0
 22 23  1  0  0  0  0
 18 21  1  0  0  0  0
 17 23  1  0  0  0  0
 17 18  1  0  0  0  0
  8 11  1  0  0  0  0
 32 35  1  0  0  0  0
 41 42  1  0  0  0  0
  7  8  1  0  0  0  0
 31 32  1  0  0  0  0
 22 27  1  0  0  0  0
 22 28  1  0  0  0  0
 21 25  1  0  0  0  0
 21 26  1  0  0  0  0
 23 29  1  0  0  0  0
 23 30  1  0  0  0  0
 18 24  1  0  0  0  0
  3  4  1  0  0  0  0
  3  5  1  0  0  0  0
  3  6  1  0  0  0  0
 11 14  1  0  0  0  0
 11 15  1  0  0  0  0
 11 16  1  0  0  0  0
 35 38  1  0  0  0  0
 35 39  1  0  0  0  0
 35 40  1  0  0  0  0
 42 44  1  0  0  0  0
 42 45  1  0  0  0  0
 42 46  1  0  0  0  0
  8 13  1  0  0  0  0
 32 37  1  0  0  0  0
 31 36  1  0  0  0  0
 41 43  1  0  0  0  0
  7 12  1  0  0  0  0
M  END
$$$$

  -OEChem-05262214473D

 46 46  0     1  0  0  0  0  0999 V2000
   -0.6012   -3.2995    3.8205 C   0  0  0  0  0  0  0  0  0  0  0  0
   -0.6574   -4.4683    3.4568 O   0  0  0  0  0  0  0  0  0  0  0  0
   -0.4935   -2.9859    5.2760 C   0  0  0  0  0  0  0  0  0  0  0  0
   -1.4789   -2.8689    5.7550 H   0  0  0  0  0  0  0  0  0  0  0  0
    0.0123   -3.7847    5.8419 H   0  0  0  0  0  0  0  0  0  0  0  0
    0.0585   -2.0642    5.5199 H   0  0  0  0  0  0  0  0  0  0  0  0
   -0.6261   -2.1849    2.9917 N   0  0  0  0  0  0  0  0  0  0  0  0
   -0.7237   -2.2601    1.5650 C   0  0  2  0  0  0  0  0  0  0  0  0
    0.1695   -1.1513    1.0687 C   0  0  0  0  0  0  0  0  0  0  0  0
    0.3193   -0.1267    1.7365 O   0  0  0  0  0  0  0  0  0  0  0  0
   -2.1397   -2.0663    1.0750 C   0  0  0  0  0  0  0  0  0  0  0  0
   -0.5717   -1.2606    3.4238 H   0  0  0  0  0  0  0  0  0  0  0  0
   -0.3076   -3.2111    1.2363 H   0  0  0  0  0  0  0  0  0  0  0  0
   -2.5584   -1.1089    1.4061 H   0  0  0  0  0  0  0  0  0  0  0  0
   -2.1682   -2.0790   -0.0197 H   0  0  0  0  0  0  0  0  0  0  0  0
   -2.7965   -2.8601    1.4459 H   0  0  0  0  0  0  0  0  0  0  0  0
    0.7724   -1.3745   -0.1593 N   0  0  0  0  0  0  0  0  0  0  0  0
    1.6644   -0.4046   -0.7812 C   0  0  2  0  0  0  0  0  0  0  0  0
    1.7547    0.7703    0.1454 C   0  0  0  0  0  0  0  0  0  0  0  0
    2.8488    1.2670    0.3864 O   0  0  0  0  0  0  0  0  0  0  0  0
    0.9832   -0.0385   -2.0947 C   0  0  0  0  0  0  0  0  0  0  0  0
    0.4329   -1.4308   -1.7953 C   0  0  0  0  0  0  0  0  0  0  0  0
    0.7499   -2.6270   -0.9105 C   0  0  0  0  0  0  0  0  0  0  0  0
    2.6660   -0.8234   -0.9178 H   0  0  0  0  0  0  0  0  0  0  0  0
    1.7341    0.0889   -2.8835 H   0  0  0  0  0  0  0  0  0  0  0  0
    0.3808    0.8733   -2.0362 H   0  0  0  0  0  0  0  0  0  0  0  0
   -0.5797   -1.3599   -1.3815 H   0  0  0  0  0  0  0  0  0  0  0  0
    0.3950   -2.0608   -2.6885 H   0  0  0  0  0  0  0  0  0  0  0  0
   -0.0575   -3.3641   -0.8933 H   0  0  0  0  0  0  0  0  0  0  0  0
    1.6766   -3.1193   -1.2248 H   0  0  0  0  0  0  0  0  0  0  0  0
    0.6220    1.2227    0.6709 N   0  0  0  0  0  0  0  0  0  0  0  0
   -0.3205    1.7452    1.6342 C   0  0  2  0  0  0  0  0  0  0  0  0
   -0.2177    0.9014    2.8979 C   0  0  0  0  0  0  0  0  0  0  0  0
    0.2242   -0.2456    2.9045 O   0  0  0  0  0  0  0  0  0  0  0  0
   -1.7385    1.7309    1.0848 C   0  0  0  0  0  0  0  0  0  0  0  0
    1.3398    1.8443    0.3107 H   0  0  0  0  0  0  0  0  0  0  0  0
   -0.0110    2.7727    1.8542 H   0  0  0  0  0  0  0  0  0  0  0  0
   -2.0661    0.7097    0.8584 H   0  0  0  0  0  0  0  0  0  0  0  0
   -2.4472    2.1533    1.8048 H   0  0  0  0  0  0  0  0  0  0  0  0
   -1.8039    2.3137    0.1597 H   0  0  0  0  0  0  0  0  0  0  0  0
   -0.7177    1.5642    4.0100 N   0  0  0  0  0  0  0  0  0  0  0  0
   -0.7433    0.9695    5.3259 C   0  0  0  0  0  0  0  0  0  0  0  0
   -1.0468    2.5205    3.9157 H   0  0  0  0  0  0  0  0  0  0  0  0
   -1.7106    0.4702    5.4844 H   0  0  0  0  0  0  0  0  0  0  0  0
    0.0682    0.2317    5.4106 H   0  0  0  0  0  0  0  0  0  0  0  0
   -0.6067    1.7535    6.0853 H   0  0  0  0  0  0  0  0  0  0  0  0
 18 19  1  0  0  0  0
 19 31  1  0  0  0  0
 19 20  2  0  0  0  0
  8  9  1  0  0  0  0
  9 17  1  0  0  0  0
  9 10  2  0  0  0  0
  1  3  1  0  0  0  0
  1  7  1  0  0  0  0
  1  2  2  0  0  0  0
 32 33  1  0  0  0  0
 33 41  1  0  0  0  0
 33 34  2  0  0  0  0
 21 22  1  0  0  0  0
 22 23  1  0  0  0  0
 18 21  1  0  0  0  0
 17 23  1  0  0  0  0
 17 18  1  0  0  0  0
  8 11  1  0  0  0  0
 32 35  1  0  0  0  0
 41 42  1  0  0  0  0
  7  8  1  0  0  0  0
 31 32  1  0  0  0  0
 22 27  1  0  0  0  0
 22 28  1  0  0  0  0
 21 25  1  0  0  0  0
 21 26  1  0  0  0  0
 23 29  1  0  0  0  0
 23 30  1  0  0  0  0
 18 24  1  0  0  0  0
  3  4  1  0  0  0  0
  3  5  1  0  0  0  0
  3  6  1  0  0  0  0
 11 14  1  0  0  0  0
 11 15  1  0  0  0  0
 11 16  1  0  0  0  0
 35 38  1  0  0  0  0
 35 39  1  0  0  0  0
 35 40  1  0  0  0  0
 42 44  1  0  0  0  0
 42 45  1  0  0  0  0
 42 46  1  0  0  0  0
  8 13  1  0  0  0  0
 32 37  1  0  0  0  0
 31 36  1  0  0  0  0
 41 43  1  0  0  0  0
  7 12  1  0  0  0  0
M  END
$$$$

  -OEChem-05262214473D

 46 46  0     1  0  0  0  0  0999 V2000
   -0.6012   -3.2995    3.8205 C   0  0  0  0  0  0  0  0  0  0  0  0
   -0.6574   -4.4683    3.4568 O   0  0  0  0  0  0  0  0  0  0  0  0
   -0.4935   -2.9859    5.2760 C   0  0  0  0  0  0  0  0  0  0  0  0
   -1.4789   -2.8689    5.7550 H   0  0  0  0  0  0  0  0  0  0  0  0
    0.0123   -3.7847    5.8419 H   0  0  0  0  0  0  0  0  0  0  0  0
    0.0585   -2.0642    5.5199 H   0  0  0  0  0  0  0  0  0  0  0  0
   -0.6261   -2.1849    2.9917 N   0  0  0  0  0  0  0  0  0  0  0  0
   -0.7237   -2.2601    1.5650 C   0  0  2  0  0  0  0  0  0  0  0  0
    0.1695   -1.1513    1.0687 C   0  0  0  0  0  0  0  0  0  0  0  0
    0.3193   -0.1267    1.7365 O   0  0  0  0  0  0  0  0  0  0  0  0
   -2.1397   -2.0663    1.0750 C   0  0  0  0  0  0  0  0  0  0  0  0
   -0.5717   -1.2606    3.4238 H   0  0  0  0  0  0  0  0  0  0  0  0
   -0.3076   -3.2111    1.2363 H   0  0  0  0  0  0  0  0  0  0  0  0
   -2.5584   -1.1089    1.4061 H   0  0  0  0  0  0  0  0  0  0  0  0
   -2.1682   -2.0790   -0.0197 H   0  0  0  0  0  0  0  0  0  0  0  0
   -2.7965   -2.8601    1.4459 H   0  0  0  0  0  0  0  0  0  0  0  0
    0.7724   -1.3745   -0.1593 N   0  0  0  0  0  0  0  0  0  0  0  0
    1.6644   -0.4046   -0.7812 C   0  0  2  0  0  0  0  0  0  0  0  0
    1.7547    0.7703    0.1454 C   0  0  0  0  0  0  0  0  0  0  0  0
    2.7822    1.4375    0.1767 O   0  0  0  0  0  0  0  0  0  0  0  0
    0.9832   -0.0385   -2.0947 C   0  0  0  0  0  0  0  0  0  0  0  0
    0.4329   -1.4308   -1.7953 C   0  0  0  0  0  0  0  0  0  0  0  0
    0.7499   -2.6270   -0.9105 C   0  0  0  0  0  0  0  0  0  0  0  0
    2.6660   -0.8234   -0.9178 H   0  0  0  0  0  0  0  0  0  0  0  0
    1.7341    0.0889   -2.8835 H   0  0  0  0  0  0  0  0  0  0  0  0
    0.3808    0.8733   -2.0362 H   0  0  0  0  0  0  0  0  0  0  0  0
   -0.5797   -1.3599   -1.3815 H   0  0  0  0  0  0  0  0  0  0  0  0
    0.3950   -2.0608   -2.6885 H   0  0  0  0  0  0  0  0  0  0  0  0
   -0.0575   -3.3641   -0.8933 H   0  0  0  0  0  0  0  0  0  0  0  0
    1.6766   -3.1193   -1.2248 H   0  0  0  0  0  0  0  0  0  0  0  0
    0.6960    1.0342    0.9027 N   0  0  0  0  0  0  0  0  0  0  0  0
   -0.1005    1.3984    2.0524 C   0  0  2  0  0  0  0  0  0  0  0  0
    0.3903    0.5835    3.2418 C   0  0  0  0  0  0  0  0  0  0  0  0
    1.0003   -0.4771    3.1223 O   0  0  0  0  0  0  0  0  0  0  0  0
   -1.5802    1.1546    1.8001 C   0  0  0  0  0  0  0  0  0  0  0  0
    1.2175    1.7633    0.4253 H   0  0  0  0  0  0  0  0  0  0  0  0
    0.0807    2.4626    2.2385 H   0  0  0  0  0  0  0  0  0  0  0  0
   -1.7812    0.0937    1.6117 H   0  0  0  0  0  0  0  0  0  0  0  0
   -2.1848    1.4577    2.6613 H   0  0  0  0  0  0  0  0  0  0  0  0
   -1.9246    1.7184    0.9264 H   0  0  0  0  0  0  0  0  0  0  0  0
    0.0294    1.1578    4.4526 N   0  0  0  0  0  0  0  0  0  0  0  0
    0.3674    0.5679    5.7268 C   0  0  0  0  0  0  0  0  0  0  0  0
   -0.4593    2.0483    4.4572 H   0  0  0  0  0  0  0  0  0  0  0  0
   -0.4556   -0.0810    6.0610 H   0  0  0  0  0  0  0  0  0  0  0  0
    1.2855   -0.0289    5.6224 H   0  0  0  0  0  0  0  0  0  0  0  0
    0.5302    1.3644    6.4678 H   0  0  0  0  0  0  0  0  0  0  0  0
 18 19  1  0  0  0  0
 19 31  1  0  0  0  0
 19 20  2  0  0  0  0
  8  9  1  0  0  0  0
  9 17  1  0  0  0  0
  9 10  2  0  0  0  0
  1  3  1  0  0  0  0
  1  7  1  0  0  0  0
  1  2  2  0  0  0  0
 32 33  1  0  0  0  0
 33 41  1  0  0  0  0
 33 34  2  0  0  0  0
 21 22  1  0  0  0  0
 22 23  1  0  0  0  0
 18 21  1  0  0  0  0
 17 23  1  0  0  0  0
 17 18  1  0  0  0  0
  8 11  1  0  0  0  0
 32 35  1  0  0  0  0
 41 42  1  0  0  0  0
  7  8  1  0  0  0  0
 31 32  1  0  0  0  0
 22 27  1  0  0  0  0
 22 28  1  0  0  0  0
 21 25  1  0  0  0  0
 21 26  1  0  0  0  0
 23 29  1  0  0  0  0
 23 30  1  0  0  0  0
 18 24  1  0  0  0  0
  3  4  1  0  0  0  0
  3  5  1  0  0  0  0
  3  6  1  0  0  0  0
 11 14  1  0  0  0  0
 11 15  1  0  0  0  0
 11 16  1  0  0  0  0
 35 38  1  0  0  0  0
 35 39  1  0  0  0  0
 35 40  1  0  0  0  0
 42 44  1  0  0  0  0
 42 45  1  0  0  0  0
 42 46  1  0  0  0  0
  8 13  1  0  0  0  0
 32 37  1  0  0  0  0
 31 36  1  0  0  0  0
 41 43  1  0  0  0  0
  7 12  1  0  0  0  0
M  END
$$$$

  -OEChem-05262214473D

 46 46  0     1  0  0  0  0  0999 V2000
   -0.6012   -3.2995    3.8205 C   0  0  0  0  0  0  0  0  0  0  0  0
   -0.6574   -4.4683    3.4568 O   0  0  0  0  0  0  0  0  0  0  0  0
   -0.4935   -2.9859    5.2760 C   0  0  0  0  0  0  0  0  0  0  0  0
   -1.4789   -2.8689    5.7550 H   0  0  0  0  0  0  0  0  0  0  0  0
    0.0123   -3.7847    5.8419 H   0  0  0  0  0  0  0  0  0  0  0  0
    0.0585   -2.0642    5.5199 H   0  0  0  0  0  0  0  0  0  0  0  0
   -0.6261   -2.1849    2.9917 N   0  0  0  0  0  0  0  0  0  0  0  0
   -0.7237   -2.2601    1.5650 C   0  0  2  0  0  0  0  0  0  0  0  0
    0.1695   -1.1513    1.0687 C   0  0  0  0  0  0  0  0  0  0  0  0
    0.3193   -0.1267    1.7365 O   0  0  0  0  0  0  0  0  0  0  0  0
   -2.1397   -2.0663    1.0750 C   0  0  0  0  0  0  0  0  0  0  0  0
   -0.5717   -1.2606    3.4238 H   0  0  0  0  0  0  0  0  0  0  0  0
   -0.3076   -3.2111    1.2363 H   0  0  0  0  0  0  0  0  0  0  0  0
   -2.5584   -1.1089    1.4061 H   0  0  0  0  0  0  0  0  0  0  0  0
   -2.1682   -2.0790   -0.0197 H   0  0  0  0  0  0  0  0  0  0  0  0
   -2.7965   -2.8601    1.4459 H   0  0  0  0  0  0  0  0  0  0  0  0
    0.7724   -1.3745   -0.1593 N   0  0  0  0  0  0  0  0  0  0  0  0
    1.6644   -0.4046   -0.7812 C   0  0  2  0  0  0  0  0  0  0  0  0
    1.7547    0.7703    0.1454 C   0  0  0  0  0  0  0  0  0  0  0  0
    2.6480    1.5948   -0.0097 O   0  0  0  0  0  0  0  0  0  0  0  0
    0.9832   -0.0385   -2.0947 C   0  0  0  0  0  0  0  0  0  0  0  0
    0.4329   -1.4308   -1.7953 C   0  0  0  0  0  0  0  0  0  0  0  0
    0.7499   -2.6270   -0.9105 C   0  0  0  0  0  0  0  0  0  0  0  0
    2.6660   -0.8234   -0.9178 H   0  0  0  0  0  0  0  0  0  0  0  0
    1.7341    0.0889   -2.8835 H   0  0  0  0  0  0  0  0  0  0  0  0
    0.3808    0.8733   -2.0362 H   0  0  0  0  0  0  0  0  0  0  0  0
   -0.5797   -1.3599   -1.3815 H   0  0  0  0  0  0  0  0  0  0  0  0
    0.3950   -2.0608   -2.6885 H   0  0  0  0  0  0  0  0  0  0  0  0
   -0.0575   -3.3641   -0.8933 H   0  0  0  0  0  0  0  0  0  0  0  0
    1.6766   -3.1193   -1.2248 H   0  0  0  0  0  0  0  0  0  0  0  0
    0.8448    0.8604    1.1086 N   0  0  0  0  0  0  0  0  0  0  0  0
    0.2523    1.0921    2.4065 C   0  0  2  0  0  0  0  0  0  0  0  0
    1.0983    0.3683    3.4456 C   0  0  0  0  0  0  0  0  0  0  0  0
    1.8312   -0.5799    3.1717 O   0  0  0  0  0  0  0  0  0  0  0  0
   -1.1901    0.6122    2.4499 C   0  0  0  0  0  0  0  0  0  0  0  0
    1.1356    1.6637    0.5596 H   0  0  0  0  0  0  0  0  0  0  0  0
    0.2968    2.1718    2.5862 H   0  0  0  0  0  0  0  0  0  0  0  0
   -1.2547   -0.4674    2.2719 H   0  0  0  0  0  0  0  0  0  0  0  0
   -1.6463    0.8144    3.4246 H   0  0  0  0  0  0  0  0  0  0  0  0
   -1.7904    1.1121    1.6821 H   0  0  0  0  0  0  0  0  0  0  0  0
    0.9058    0.8778    4.7221 N   0  0  0  0  0  0  0  0  0  0  0  0
    1.5859    0.3515    5.8825 C   0  0  0  0  0  0  0  0  0  0  0  0
    0.2937    1.6776    4.8538 H   0  0  0  0  0  0  0  0  0  0  0  0
    0.9618   -0.4215    6.3546 H   0  0  0  0  0  0  0  0  0  0  0  0
    2.5460   -0.0893    5.5760 H   0  0  0  0  0  0  0  0  0  0  0  0
    1.7683    1.1645    6.6006 H   0  0  0  0  0  0  0  0  0  0  0  0
 18 19  1  0  0  0  0
 19 31  1  0  0  0  0
 19 20  2  0  0  0  0
  8  9  1  0  0  0  0
  9 17  1  0  0  0  0
  9 10  2  0  0  0  0
  1  3  1  0  0  0  0
  1  7  1  0  0  0  0
  1  2  2  0  0  0  0
 32 33  1  0  0  0  0
 33 41  1  0  0  0  0
 33 34  2  0  0  0  0
 21 22  1  0  0  0  0
 22 23  1  0  0  0  0
 18 21  1  0  0  0  0
 17 23  1  0  0  0  0
 17 18  1  0  0  0  0
  8 11  1  0  0  0  0
 32 35  1  0  0  0  0
 41 42  1  0  0  0  0
  7  8  1  0  0  0  0
 31 32  1  0  0  0  0
 22 27  1  0  0  0  0
 22 28  1  0  0  0  0
 21 25  1  0  0  0  0
 21 26  1  0  0  0  0
 23 29  1  0  0  0  0
 23 30  1  0  0  0  0
 18 24  1  0  0  0  0
  3  4  1  0  0  0  0
  3  5  1  0  0  0  0
  3  6  1  0  0  0  0
 11 14  1  0  0  0  0
 11 15  1  0  0  0  0
 11 16  1  0  0  0  0
 35 38  1  0  0  0  0
 35 39  1  0  0  0  0
 35 40  1  0  0  0  0
 42 44  1  0  0  0  0
 42 45  1  0  0  0  0
 42 46  1  0  0  0  0
  8 13  1  0  0  0  0
 32 37  1  0  0  0  0
 31 36  1  0  0  0  0
 41 43  1  0  0  0  0
  7 12  1  0  0  0  0
M  END
$$$$

  -OEChem-05262214473D

 46 46  0     1  0  0  0  0  0999 V2000
   -0.6012   -3.2995    3.8205 C   0  0  0  0  0  0  0  0  0  0  0  0
   -0.6574   -4.4683    3.4568 O   0  0  0  0  0  0  0  0  0  0  0  0
   -0.4935   -2.9859    5.2760 C   0  0  0  0  0  0  0  0  0  0  0  0
   -1.4789   -2.8689    5.7550 H   0  0  0  0  0  0  0  0  0  0  0  0
    0.0123   -3.7847    5.8419 H   0  0  0  0  0  0  0  0  0  0  0  0
    0.0585   -2.0642    5.5199 H   0  0  0  0  0  0  0  0  0  0  0  0
   -0.6261   -2.1849    2.9917 N   0  0  0  0  0  0  0  0  0  0  0  0
   -0.7237   -2.2601    1.5650 C   0  0  2  0  0  0  0  0  0  0  0  0
    0.1695   -1.1513    1.0687 C   0  0  0  0  0  0  0  0  0  0  0  0
    0.3193   -0.1267    1.7365 O   0  0  0  0  0  0  0  0  0  0  0  0
   -2.1397   -2.0663    1.0750 C   0  0  0  0  0  0  0  0  0  0  0  0
   -0.5717   -1.2606    3.4238 H   0  0  0  0  0  0  0  0  0  0  0  0
   -0.3076   -3.2111    1.2363 H   0  0  0  0  0  0  0  0  0  0  0  0
   -2.5584   -1.1089    1.4061 H   0  0  0  0  0  0  0  0  0  0  0  0
   -2.1682   -2.0790   -0.0197 H   0  0  0  0  0  0  0  0  0  0  0  0
   -2.7965   -2.8601    1.4459 H   0  0  0  0  0  0  0  0  0  0  0  0
    0.7724   -1.3745   -0.1593 N   0  0  0  0  0  0  0  0  0  0  0  0
    1.6644   -0.4046   -0.7812 C   0  0  2  0  0  0  0  0  0  0  0  0
    1.7547    0.7703    0.1454 C   0  0  0  0  0  0  0  0  0  0  0  0
    2.4555    1.7281   -0.1600 O   0  0  0  0  0  0  0  0  0  0  0  0
    0.9832   -0.0385   -2.0947 C   0  0  0  0  0  0  0  0  0  0  0  0
    0.4329   -1.4308   -1.7953 C   0  0  0  0  0  0  0  0  0  0  0  0
    0.7499   -2.6270   -0.9105 C   0  0  0  0  0  0  0  0  0  0  0  0
    2.6660   -0.8234   -0.9178 H   0  0  0  0  0  0  0  0  0  0  0  0
    1.7341    0.0889   -2.8835 H   0  0  0  0  0  0  0  0  0  0  0  0
    0.3808    0.8733   -2.0362 H   0  0  0  0  0  0  0  0  0  0  0  0
   -0.5797   -1.3599   -1.3815 H   0  0  0  0  0  0  0  0  0  0  0  0
    0.3950   -2.0608   -2.6885 H   0  0  0  0  0  0  0  0  0  0  0  0
   -0.0575   -3.3641   -0.8933 H   0  0  0  0  0  0  0  0  0  0  0  0
    1.6766   -3.1193   -1.2248 H   0  0  0  0  0  0  0  0  0  0  0  0
    1.0580    0.7130    1.2747 N   0  0  0  0  0  0  0  0  0  0  0  0
    0.7139    0.8471    2.6720 C   0  0  2  0  0  0  0  0  0  0  0  0
    1.8579    0.2705    3.4956 C   0  0  0  0  0  0  0  0  0  0  0  0
    2.6601   -0.5470    3.0492 O   0  0  0  0  0  0  0  0  0  0  0  0
   -0.5947    0.1405    2.9899 C   0  0  0  0  0  0  0  0  0  0  0  0
    1.0997    1.5523    0.7044 H   0  0  0  0  0  0  0  0  0  0  0  0
    0.6226    1.9200    2.8737 H   0  0  0  0  0  0  0  0  0  0  0  0
   -0.5224   -0.9355    2.7940 H   0  0  0  0  0  0  0  0  0  0  0  0
   -0.8685    0.2672    4.0425 H   0  0  0  0  0  0  0  0  0  0  0  0
   -1.4105    0.5362    2.3754 H   0  0  0  0  0  0  0  0  0  0  0  0
    1.8519    0.7434    4.8003 N   0  0  0  0  0  0  0  0  0  0  0  0
    2.8291    0.3349    5.7822 C   0  0  0  0  0  0  0  0  0  0  0  0
    1.1607    1.4339    5.0783 H   0  0  0  0  0  0  0  0  0  0  0  0
    2.4450   -0.5284    6.3455 H   0  0  0  0  0  0  0  0  0  0  0  0
    3.7639    0.0548    5.2745 H   0  0  0  0  0  0  0  0  0  0  0  0
    3.0231    1.1674    6.4746 H   0  0  0  0  0  0  0  0  0  0  0  0
 18 19  1  0  0  0  0
 19 31  1  0  0  0  0
 19 20  2  0  0  0  0
  8  9  1  0  0  0  0
  9 17  1  0  0  0  0
  9 10  2  0  0  0  0
  1  3  1  0  0  0  0
  1  7  1  0  0  0  0
  1  2  2  0  0  0  0
 32 33  1  0  0  0  0
 33 41  1  0  0  0  0
 33 34  2  0  0  0  0
 21 22  1  0  0  0  0
 22 23  1  0  0  0  0
 18 21  1  0  0  0  0
 17 23  1  0  0  0  0
 17 18  1  0  0  0  0
  8 11  1  0  0  0  0
 32 35  1  0  0  0  0
 41 42  1  0  0  0  0
  7  8  1  0  0  0  0
 31 32  1  0  0  0  0
 22 27  1  0  0  0  0
 22 28  1  0  0  0  0
 21 25  1  0  0  0  0
 21 26  1  0  0  0  0
 23 29  1  0  0  0  0
 23 30  1  0  0  0  0
 18 24  1  0  0  0  0
  3  4  1  0  0  0  0
  3  5  1  0  0  0  0
  3  6  1  0  0  0  0
 11 14  1  0  0  0  0
 11 15  1  0  0  0  0
 11 16  1  0  0  0  0
 35 38  1  0  0  0  0
 35 39  1  0  0  0  0
 35 40  1  0  0  0  0
 42 44  1  0  0  0  0
 42 45  1  0  0  0  0
 42 46  1  0  0  0  0
  8 13  1  0  0  0  0
 32 37  1  0  0  0  0
 31 36  1  0  0  0  0
 41 43  1  0  0  0  0
  7 12  1  0  0  0  0
M  END
$$$$

  -OEChem-05262214473D

 46 46  0     1  0  0  0  0  0999 V2000
   -0.6012   -3.2995    3.8205 C   0  0  0  0  0  0  0  0  0  0  0  0
   -0.6574   -4.4683    3.4568 O   0  0  0  0  0  0  0  0  0  0  0  0
   -0.4935   -2.9859    5.2760 C   0  0  0  0  0  0  0  0  0  0  0  0
   -1.4789   -2.8689    5.7550 H   0  0  0  0  0  0  0  0  0  0  0  0
    0.0123   -3.7847    5.8419 H   0  0  0  0  0  0  0  0  0  0  0  0
    0.0585   -2.0642    5.5199 H   0  0  0  0  0  0  0  0  0  0  0  0
   -0.6261   -2.1849    2.9917 N   0  0  0  0  0  0  0  0  0  0  0  0
   -0.7237   -2.2601    1.5650 C   0  0  2  0  0  0  0  0  0  0  0  0
    0.1695   -1.1513    1.0687 C   0  0  0  0  0  0  0  0  0  0  0  0
    0.3193   -0.1267    1.7365 O   0  0  0  0  0  0  0  0  0  0  0  0
   -2.1397   -2.0663    1.0750 C   0  0  0  0  0  0  0  0  0  0  0  0
   -0.5717   -1.2606    3.4238 H   0  0  0  0  0  0  0  0  0  0  0  0
   -0.3076   -3.2111    1.2363 H   0  0  0  0  0  0  0  0  0  0  0  0
   -2.5584   -1.1089    1.4061 H   0  0  0  0  0  0  0  0  0  0  0  0
   -2.1682   -2.0790   -0.0197 H   0  0  0  0  0  0  0  0  0  0  0  0
   -2.7965   -2.8601    1.4459 H   0  0  0  0  0  0  0  0  0  0  0  0
    0.7724   -1.3745   -0.1593 N   0  0  0  0  0  0  0  0  0  0  0  0
    1.6644   -0.4046   -0.7812 C   0  0  2  0  0  0  0  0  0  0  0  0
    1.7547    0.7703    0.1454 C   0  0  0  0  0  0  0  0  0  0  0  0
    2.2177    1.8285   -0.2641 O   0  0  0  0  0  0  0  0  0  0  0  0
    0.9832   -0.0385   -2.0947 C   0  0  0  0  0  0  0  0  0  0  0  0
    0.4329   -1.4308   -1.7953 C   0  0  0  0  0  0  0  0  0  0  0  0
    0.7499   -2.6270   -0.9105 C   0  0  0  0  0  0  0  0  0  0  0  0
    2.6660   -0.8234   -0.9178 H   0  0  0  0  0  0  0  0  0  0  0  0
    1.7341    0.0889   -2.8835 H   0  0  0  0  0  0  0  0  0  0  0  0
    0.3808    0.8733   -2.0362 H   0  0  0  0  0  0  0  0  0  0  0  0
   -0.5797   -1.3599   -1.3815 H   0  0  0  0  0  0  0  0  0  0  0  0
    0.3950   -2.0608   -2.6885 H   0  0  0  0  0  0  0  0  0  0  0  0
   -0.0575   -3.3641   -0.8933 H   0  0  0  0  0  0  0  0  0  0  0  0
    1.6766   -3.1193   -1.2248 H   0  0  0  0  0  0  0  0  0  0  0  0
    1.3213    0.6022    1.3895 N   0  0  0  0  0  0  0  0  0  0  0  0
    1.2528    0.6802    2.8311 C   0  0  2  0  0  0  0  0  0  0  0  0
    2.6175    0.2968    3.3882 C   0  0  0  0  0  0  0  0  0  0  0  0
    3.4308   -0.3808    2.7633 O   0  0  0  0  0  0  0  0  0  0  0  0
    0.1655   -0.2282    3.3834 C   0  0  0  0  0  0  0  0  0  0  0  0
    1.1122    1.4367    0.8497 H   0  0  0  0  0  0  0  0  0  0  0  0
    1.0359    1.7244    3.0814 H   0  0  0  0  0  0  0  0  0  0  0  0
    0.3657   -1.2786    3.1425 H   0  0  0  0  0  0  0  0  0  0  0  0
    0.0958   -0.1465    4.4731 H   0  0  0  0  0  0  0  0  0  0  0  0
   -0.8108    0.0298    2.9590 H   0  0  0  0  0  0  0  0  0  0  0  0
    2.8030    0.7637    4.6819 N   0  0  0  0  0  0  0  0  0  0  0  0
    4.0122    0.5194    5.4330 C   0  0  0  0  0  0  0  0  0  0  0  0
    2.0827    1.3337    5.1155 H   0  0  0  0  0  0  0  0  0  0  0  0
    3.8928   -0.3941    6.0341 H   0  0  0  0  0  0  0  0  0  0  0  0
    4.8560    0.3935    4.7385 H   0  0  0  0  0  0  0  0  0  0  0  0
    4.2091    1.3728    6.0984 H   0  0  0  0  0  0  0  0  0  0  0  0
 18 19  1  0  0  0  0
 19 31  1  0  0  0  0
 19 20  2  0  0  0  0
  8  9  1  0  0  0  0
  9 17  1  0  0  0  0
  9 10  2  0  0  0  0
  1  3  1  0  0  0  0
  1  7  1  0  0  0  0
  1  2  2  0  0  0  0
 32 33  1  0  0  0  0
 33 41  1  0  0  0  0
 33 34  2  0  0  0  0
 21 22  1  0  0  0  0
 22 23  1  0  0  0  0
 18 21  1  0  0  0  0
 17 23  1  0  0  0  0
 17 18  1  0  0  0  0
  8 11  1  0  0  0  0
 32 35  1  0  0  0  0
 41 42  1  0  0  0  0
  7  8  1  0  0  0  0
 31 32  1  0  0  0  0
 22 27  1  0  0  0  0
 22 28  1  0  0  0  0
 21 25  1  0  0  0  0
 21 26  1  0  0  0  0
 23 29  1  0  0  0  0
 23 30  1  0  0  0  0
 18 24  1  0  0  0  0
  3  4  1  0  0  0  0
  3  5  1  0  0  0  0
  3  6  1  0  0  0  0
 11 14  1  0  0  0  0
 11 15  1  0  0  0  0
 11 16  1  0  0  0  0
 35 38  1  0  0  0  0
 35 39  1  0  0  0  0
 35 40  1  0  0  0  0
 42 44  1  0  0  0  0
 42 45  1  0  0  0  0
 42 46  1  0  0  0  0
  8 13  1  0  0  0  0
 32 37  1  0  0  0  0
 31 36  1  0  0  0  0
 41 43  1  0  0  0  0
  7 12  1  0  0  0  0
M  END
$$$$

  -OEChem-05262214473D

 46 46  0     1  0  0  0  0  0999 V2000
   -0.6012   -3.2995    3.8205 C   0  0  0  0  0  0  0  0  0  0  0  0
   -0.6574   -4.4683    3.4568 O   0  0  0  0  0  0  0  0  0  0  0  0
   -0.4935   -2.9859    5.2760 C   0  0  0  0  0  0  0  0  0  0  0  0
   -1.4789   -2.8689    5.7550 H   0  0  0  0  0  0  0  0  0  0  0  0
    0.0123   -3.7847    5.8419 H   0  0  0  0  0  0  0  0  0  0  0  0
    0.0585   -2.0642    5.5199 H   0  0  0  0  0  0  0  0  0  0  0  0
   -0.6261   -2.1849    2.9917 N   0  0  0  0  0  0  0  0  0  0  0  0
   -0.7237   -2.2601    1.5650 C   0  0  2  0  0  0  0  0  0  0  0  0
    0.1695   -1.1513    1.0687 C   0  0  0  0  0  0  0  0  0  0  0  0
    0.3193   -0.1267    1.7365 O   0  0  0  0  0  0  0  0  0  0  0  0
   -2.1397   -2.0663    1.0750 C   0  0  0  0  0  0  0  0  0  0  0  0
   -0.5717   -1.2606    3.4238 H   0  0  0  0  0  0  0  0  0  0  0  0
   -0.3076   -3.2111    1.2363 H   0  0  0  0  0  0  0  0  0  0  0  0
   -2.5584   -1.1089    1.4061 H   0  0  0  0  0  0  0  0  0  0  0  0
   -2.1682   -2.0790   -0.0197 H   0  0  0  0  0  0  0  0  0  0  0  0
   -2.7965   -2.8601    1.4459 H   0  0  0  0  0  0  0  0  0  0  0  0
    0.7724   -1.3745   -0.1593 N   0  0  0  0  0  0  0  0  0  0  0  0
    1.6644   -0.4046   -0.7812 C   0  0  2  0  0  0  0  0  0  0  0  0
    1.7547    0.7703    0.1454 C   0  0  0  0  0  0  0  0  0  0  0  0
    1.9508    1.8890   -0.3148 O   0  0  0  0  0  0  0  0  0  0  0  0
    0.9832   -0.0385   -2.0947 C   0  0  0  0  0  0  0  0  0  0  0  0
    0.4329   -1.4308   -1.7953 C   0  0  0  0  0  0  0  0  0  0  0  0
    0.7499   -2.6270   -0.9105 C   0  0  0  0  0  0  0  0  0  0  0  0
    2.6660   -0.8234   -0.9178 H   0  0  0  0  0  0  0  0  0  0  0  0
    1.7341    0.0889   -2.8835 H   0  0  0  0  0  0  0  0  0  0  0  0
    0.3808    0.8733   -2.0362 H   0  0  0  0  0  0  0  0  0  0  0  0
   -0.5797   -1.3599   -1.3815 H   0  0  0  0  0  0  0  0  0  0  0  0
    0.3950   -2.0608   -2.6885 H   0  0  0  0  0  0  0  0  0  0  0  0
   -0.0575   -3.3641   -0.8933 H   0  0  0  0  0  0  0  0  0  0  0  0
    1.6766   -3.1193   -1.2248 H   0  0  0  0  0  0  0  0  0  0  0  0
    1.6166    0.5355    1.4453 N   0  0  0  0  0  0  0  0  0  0  0  0
    1.8324    0.6028    2.8729 C   0  0  2  0  0  0  0  0  0  0  0  0
    3.3251    0.4453    3.1308 C   0  0  0  0  0  0  0  0  0  0  0  0
    4.0906   -0.0924    2.3333 O   0  0  0  0  0  0  0  0  0  0  0  0
    1.0385   -0.4690    3.6035 C   0  0  0  0  0  0  0  0  0  0  0  0
    1.1723    1.3248    0.9858 H   0  0  0  0  0  0  0  0  0  0  0  0
    1.5085    1.5984    3.1951 H   0  0  0  0  0  0  0  0  0  0  0  0
    1.3491   -1.4734    3.2937 H   0  0  0  0  0  0  0  0  0  0  0  0
    1.1807   -0.3986    4.6870 H   0  0  0  0  0  0  0  0  0  0  0  0
   -0.0321   -0.3724    3.3931 H   0  0  0  0  0  0  0  0  0  0  0  0
    3.6945    0.9373    4.3748 N   0  0  0  0  0  0  0  0  0  0  0  0
    5.0547    0.8922    4.8585 C   0  0  0  0  0  0  0  0  0  0  0  0
    2.9969    1.3838    4.9628 H   0  0  0  0  0  0  0  0  0  0  0  0
    5.2067   -0.0280    5.4417 H   0  0  0  0  0  0  0  0  0  0  0  0
    5.7479    0.9038    4.0046 H   0  0  0  0  0  0  0  0  0  0  0  0
    5.2456    1.7669    5.4976 H   0  0  0  0  0  0  0  0  0  0  0  0
 18 19  1  0  0  0  0
 19 31  1  0  0  0  0
 19 20  2  0  0  0  0
  8  9  1  0  0  0  0
  9 17  1  0  0  0  0
  9 10  2  0  0  0  0
  1  3  1  0  0  0  0
  1  7  1  0  0  0  0
  1  2  2  0  0  0  0
 32 33  1  0  0  0  0
 33 41  1  0  0  0  0
 33 34  2  0  0  0  0
 21 22  1  0  0  0  0
 22 23  1  0  0  0  0
 18 21  1  0  0  0  0
 17 23  1  0  0  0  0
 17 18  1  0  0  0  0
  8 11  1  0  0  0  0
 32 35  1  0  0  0  0
 41 42  1  0  0  0  0
  7  8  1  0  0  0  0
 31 32  1  0  0  0  0
 22 27  1  0  0  0  0
 22 28  1  0  0  0  0
 21 25  1  0  0  0  0
 21 26  1  0  0  0  0
 23 29  1  0  0  0  0
 23 30  1  0  0  0  0
 18 24  1  0  0  0  0
  3  4  1  0  0  0  0
  3  5  1  0  0  0  0
  3  6  1  0  0  0  0
 11 14  1  0  0  0  0
 11 15  1  0  0  0  0
 11 16  1  0  0  0  0
 35 38  1  0  0  0  0
 35 39  1  0  0  0  0
 35 40  1  0  0  0  0
 42 44  1  0  0  0  0
 42 45  1  0  0  0  0
 42 46  1  0  0  0  0
  8 13  1  0  0  0  0
 32 37  1  0  0  0  0
 31 36  1  0  0  0  0
 41 43  1  0  0  0  0
  7 12  1  0  0  0  0
M  END
$$$$

  -OEChem-05262214473D

 46 46  0     1  0  0  0  0  0999 V2000
   -0.6012   -3.2995    3.8205 C   0  0  0  0  0  0  0  0  0  0  0  0
   -0.6574   -4.4683    3.4568 O   0  0  0  0  0  0  0  0  0  0  0  0
   -0.4935   -2.9859    5.2760 C   0  0  0  0  0  0  0  0  0  0  0  0
   -1.4789   -2.8689    5.7550 H   0  0  0  0  0  0  0  0  0  0  0  0
    0.0123   -3.7847    5.8419 H   0  0  0  0  0  0  0  0  0  0  0  0
    0.0585   -2.0642    5.5199 H   0  0  0  0  0  0  0  0  0  0  0  0
   -0.6261   -2.1849    2.9917 N   0  0  0  0  0  0  0  0  0  0  0  0
   -0.7237   -2.2601    1.5650 C   0  0  2  0  0  0  0  0  0  0  0  0
    0.1695   -1.1513    1.0687 C   0  0  0  0  0  0  0  0  0  0  0  0
    0.3193   -0.1267    1.7365 O   0  0  0  0  0  0  0  0  0  0  0  0
   -2.1397   -2.0663    1.0750 C   0  0  0  0  0  0  0  0  0  0  0  0
   -0.5717   -1.2606    3.4238 H   0  0  0  0  0  0  0  0  0  0  0  0
   -0.3076   -3.2111    1.2363 H   0  0  0  0  0  0  0  0  0  0  0  0
   -2.5584   -1.1089    1.4061 H   0  0  0  0  0  0  0  0  0  0  0  0
   -2.1682   -2.0790   -0.0197 H   0  0  0  0  0  0  0  0  0  0  0  0
   -2.7965   -2.8601    1.4459 H   0  0  0  0  0  0  0  0  0  0  0  0
    0.7724   -1.3745   -0.1593 N   0  0  0  0  0  0  0  0  0  0  0  0
    1.6644   -0.4046   -0.7812 C   0  0  2  0  0  0  0  0  0  0  0  0
    1.7547    0.7703    0.1454 C   0  0  0  0  0  0  0  0  0  0  0  0
    1.6730    1.9056   -0.3087 O   0  0  0  0  0  0  0  0  0  0  0  0
    0.9832   -0.0385   -2.0947 C   0  0  0  0  0  0  0  0  0  0  0  0
    0.4329   -1.4308   -1.7953 C   0  0  0  0  0  0  0  0  0  0  0  0
    0.7499   -2.6270   -0.9105 C   0  0  0  0  0  0  0  0  0  0  0  0
    2.6660   -0.8234   -0.9178 H   0  0  0  0  0  0  0  0  0  0  0  0
    1.7341    0.0889   -2.8835 H   0  0  0  0  0  0  0  0  0  0  0  0
    0.3808    0.8733   -2.0362 H   0  0  0  0  0  0  0  0  0  0  0  0
   -0.5797   -1.3599   -1.3815 H   0  0  0  0  0  0  0  0  0  0  0  0
    0.3950   -2.0608   -2.6885 H   0  0  0  0  0  0  0  0  0  0  0  0
   -0.0575   -3.3641   -0.8933 H   0  0  0  0  0  0  0  0  0  0  0  0
    1.6766   -3.1193   -1.2248 H   0  0  0  0  0  0  0  0  0  0  0  0
    1.9238    0.5175    1.4382 N   0  0  0  0  0  0  0  0  0  0  0  0
    2.4130    0.6200    2.7944 C   0  0  2  0  0  0  0  0  0  0  0  0
    3.9327    0.7061    2.7409 C   0  0  0  0  0  0  0  0  0  0  0  0
    4.5945    0.2983    1.7887 O   0  0  0  0  0  0  0  0  0  0  0  0
    1.9650   -0.5653    3.6353 C   0  0  0  0  0  0  0  0  0  0  0  0
    1.2758    1.2241    1.1033 H   0  0  0  0  0  0  0  0  0  0  0  0
    2.0083    1.5505    3.2071 H   0  0  0  0  0  0  0  0  0  0  0  0
    2.3609   -1.5066    3.2371 H   0  0  0  0  0  0  0  0  0  0  0  0
    2.3124   -0.4719    4.6695 H   0  0  0  0  0  0  0  0  0  0  0  0
    0.8725   -0.6432    3.6482 H   0  0  0  0  0  0  0  0  0  0  0  0
    4.4656    1.2524    3.9001 N   0  0  0  0  0  0  0  0  0  0  0  0
    5.8854    1.4281    4.0980 C   0  0  0  0  0  0  0  0  0  0  0  0
    3.8410    1.5808    4.6307 H   0  0  0  0  0  0  0  0  0  0  0  0
    6.2970    0.5451    4.6086 H   0  0  0  0  0  0  0  0  0  0  0  0
    6.3790    1.5508    3.1226 H   0  0  0  0  0  0  0  0  0  0  0  0
    6.0618    2.3228    4.7132 H   0  0  0  0  0  0  0  0  0  0  0  0
 18 19  1  0  0  0  0
 19 31  1  0  0  0  0
 19 20  2  0  0  0  0
  8  9  1  0  0  0  0
  9 17  1  0  0  0  0
  9 10  2  0  0  0  0
  1  3  1  0  0  0  0
  1  7  1  0  0  0  0
  1  2  2  0  0  0  0
 32 33  1  0  0  0  0
 33 41  1  0  0  0  0
 33 34  2  0  0  0  0
 21 22  1  0  0  0  0
 22 23  1  0  0  0  0
 18 21  1  0  0  0  0
 17 23  1  0  0  0  0
 17 18  1  0  0  0  0
  8 11  1  0  0  0  0
 32 35  1  0  0  0  0
 41 42  1  0  0  0  0
  7  8  1  0  0  0  0
 31 32  1  0  0  0  0
 22 27  1  0  0  0  0
 22 28  1  0  0  0  0
 21 25  1  0  0  0  0
 21 26  1  0  0  0  0
 23 29  1  0  0  0  0
 23 30  1  0  0  0  0
 18 24  1  0  0  0  0
  3  4  1  0  0  0  0
  3  5  1  0  0  0  0
  3  6  1  0  0  0  0
 11 14  1  0  0  0  0
 11 15  1  0  0  0  0
 11 16  1  0  0  0  0
 35 38  1  0  0  0  0
 35 39  1  0  0  0  0
 35 40  1  0  0  0  0
 42 44  1  0  0  0  0
 42 45  1  0  0  0  0
 42 46  1  0  0  0  0
  8 13  1  0  0  0  0
 32 37  1  0  0  0  0
 31 36  1  0  0  0  0
 41 43  1  0  0  0  0
  7 12  1  0  0  0  0
M  END
$$$$

  -OEChem-05262214473D

 46 46  0     1  0  0  0  0  0999 V2000
   -0.6012   -3.2995    3.8205 C   0  0  0  0  0  0  0  0  0  0  0  0
   -0.6574   -4.4683    3.4568 O   0  0  0  0  0  0  0  0  0  0  0  0
   -0.4935   -2.9859    5.2760 C   0  0  0  0  0  0  0  0  0  0  0  0
   -1.4789   -2.8689    5.7550 H   0  0  0  0  0  0  0  0  0  0  0  0
    0.0123   -3.7847    5.8419 H   0  0  0  0  0  0  0  0  0  0  0  0
    0.0585   -2.0642    5.5199 H   0  0  0  0  0  0  0  0  0  0  0  0
   -0.6261   -2.1849    2.9917 N   0  0  0  0  0  0  0  0  0  0  0  0
   -0.7237   -2.2601    1.5650 C   0  0  2  0  0  0  0  0  0  0  0  0
    0.1695   -1.1513    1.0687 C   0  0  0  0  0  0  0  0  0  0  0  0
    0.3193   -0.1267    1.7365 O   0  0  0  0  0  0  0  0  0  0  0  0
   -2.1397   -2.0663    1.0750 C   0  0  0  0  0  0  0  0  0  0  0  0
   -0.5717   -1.2606    3.4238 H   0  0  0  0  0  0  0  0  0  0  0  0
   -0.3076   -3.2111    1.2363 H   0  0  0  0  0  0  0  0  0  0  0  0
   -2.5584   -1.1089    1.4061 H   0  0  0  0  0  0  0  0  0  0  0  0
   -2.1682   -2.0790   -0.0197 H   0  0  0  0  0  0  0  0  0  0  0  0
   -2.7965   -2.8601    1.4459 H   0  0  0  0  0  0  0  0  0  0  0  0
    0.7724   -1.3745   -0.1593 N   0  0  0  0  0  0  0  0  0  0  0  0
    1.6644   -0.4046   -0.7812 C   0  0  2  0  0  0  0  0  0  0  0  0
    1.7547    0.7703    0.1454 C   0  0  0  0  0  0  0  0  0  0  0  0
    1.4033    1.8771   -0.2462 O   0  0  0  0  0  0  0  0  0  0  0  0
    0.9832   -0.0385   -2.0947 C   0  0  0  0  0  0  0  0  0  0  0  0
    0.4329   -1.4308   -1.7953 C   0  0  0  0  0  0  0  0  0  0  0  0
    0.7499   -2.6270   -0.9105 C   0  0  0  0  0  0  0  0  0  0  0  0
    2.6660   -0.8234   -0.9178 H   0  0  0  0  0  0  0  0  0  0  0  0
    1.7341    0.0889   -2.8835 H   0  0  0  0  0  0  0  0  0  0  0  0
    0.3808    0.8733   -2.0362 H   0  0  0  0  0  0  0  0  0  0  0  0
   -0.5797   -1.3599   -1.3815 H   0  0  0  0  0  0  0  0  0  0  0  0
    0.3950   -2.0608   -2.6885 H   0  0  0  0  0  0  0  0  0  0  0  0
   -0.0575   -3.3641   -0.8933 H   0  0  0  0  0  0  0  0  0  0  0  0
    1.6766   -3.1193   -1.2248 H   0  0  0  0  0  0  0  0  0  0  0  0
    2.2220    0.5493    1.3688 N   0  0  0  0  0  0  0  0  0  0  0  0
    2.9552    0.7307    2.6011 C   0  0  2  0  0  0  0  0  0  0  0  0
    4.3987    1.0612    2.2451 C   0  0  0  0  0  0  0  0  0  0  0  0
    4.9083    0.7649    1.1664 O   0  0  0  0  0  0  0  0  0  0  0  0
    2.8818   -0.5106    3.4766 C   0  0  0  0  0  0  0  0  0  0  0  0
    1.4158    1.1417    1.1943 H   0  0  0  0  0  0  0  0  0  0  0  0
    2.5011    1.5840    3.1166 H   0  0  0  0  0  0  0  0  0  0  0  0
    3.3320   -1.3759    2.9767 H   0  0  0  0  0  0  0  0  0  0  0  0
    3.4137   -0.3613    4.4220 H   0  0  0  0  0  0  0  0  0  0  0  0
    1.8414   -0.7640    3.7069 H   0  0  0  0  0  0  0  0  0  0  0  0
    5.0636    1.6875    3.2900 N   0  0  0  0  0  0  0  0  0  0  0  0
    6.4478    2.0906    3.2032 C   0  0  0  0  0  0  0  0  0  0  0  0
    4.5574    1.9114    4.1417 H   0  0  0  0  0  0  0  0  0  0  0  0
    7.0896    1.2861    3.5918 H   0  0  0  0  0  0  0  0  0  0  0  0
    6.7061    2.2904    2.1528 H   0  0  0  0  0  0  0  0  0  0  0  0
    6.6021    3.0025    3.7986 H   0  0  0  0  0  0  0  0  0  0  0  0
 18 19  1  0  0  0  0
 19 31  1  0  0  0  0
 19 20  2  0  0  0  0
  8  9  1  0  0  0  0
  9 17  1  0  0  0  0
  9 10  2  0  0  0  0
  1  3  1  0  0  0  0
  1  7  1  0  0  0  0
  1  2  2  0  0  0  0
 32 33  1  0  0  0  0
 33 41  1  0  0  0  0
 33 34  2  0  0  0  0
 21 22  1  0  0  0  0
 22 23  1  0  0  0  0
 18 21  1  0  0  0  0
 17 23  1  0  0  0  0
 17 18  1  0  0  0  0
  8 11  1  0  0  0  0
 32 35  1  0  0  0  0
 41 42  1  0  0  0  0
  7  8  1  0  0  0  0
 31 32  1  0  0  0  0
 22 27  1  0  0  0  0
 22 28  1  0  0  0  0
 21 25  1  0  0  0  0
 21 26  1  0  0  0  0
 23 29  1  0  0  0  0
 23 30  1  0  0  0  0
 18 24  1  0  0  0  0
  3  4  1  0  0  0  0
  3  5  1  0  0  0  0
  3  6  1  0  0  0  0
 11 14  1  0  0  0  0
 11 15  1  0  0  0  0
 11 16  1  0  0  0  0
 35 38  1  0  0  0  0
 35 39  1  0  0  0  0
 35 40  1  0  0  0  0
 42 44  1  0  0  0  0
 42 45  1  0  0  0  0
 42 46  1  0  0  0  0
  8 13  1  0  0  0  0
 32 37  1  0  0  0  0
 31 36  1  0  0  0  0
 41 43  1  0  0  0  0
  7 12  1  0  0  0  0
M  END
$$$$

  -OEChem-05262214473D

 46 46  0     1  0  0  0  0  0999 V2000
   -0.6012   -3.2995    3.8205 C   0  0  0  0  0  0  0  0  0  0  0  0
   -0.6574   -4.4683    3.4568 O   0  0  0  0  0  0  0  0  0  0  0  0
   -0.4935   -2.9859    5.2760 C   0  0  0  0  0  0  0  0  0  0  0  0
   -1.4789   -2.8689    5.7550 H   0  0  0  0  0  0  0  0  0  0  0  0
    0.0123   -3.7847    5.8419 H   0  0  0  0  0  0  0  0  0  0  0  0
    0.0585   -2.0642    5.5199 H   0  0  0  0  0  0  0  0  0  0  0  0
   -0.6261   -2.1849    2.9917 N   0  0  0  0  0  0  0  0  0  0  0  0
   -0.7237   -2.2601    1.5650 C   0  0  2  0  0  0  0  0  0  0  0  0
    0.1695   -1.1513    1.0687 C   0  0  0  0  0  0  0  0  0  0  0  0
    0.3193   -0.1267    1.7365 O   0  0  0  0  0  0  0  0  0  0  0  0
   -2.1397   -2.0663    1.0750 C   0  0  0  0  0  0  0  0  0  0  0  0
   -0.5717   -1.2606    3.4238 H   0  0  0  0  0  0  0  0  0  0  0  0
   -0.3076   -3.2111    1.2363 H   0  0  0  0  0  0  0  0  0  0  0  0
   -2.5584   -1.1089    1.4061 H   0  0  0  0  0  0  0  0  0  0  0  0
   -2.1682   -2.0790   -0.0197 H   0  0  0  0  0  0  0  0  0  0  0  0
   -2.7965   -2.8601    1.4459 H   0  0  0  0  0  0  0  0  0  0  0  0
    0.7724   -1.3745   -0.1593 N   0  0  0  0  0  0  0  0  0  0  0  0
    1.6644   -0.4046   -0.7812 C   0  0  2  0  0  0  0  0  0  0  0  0
    1.7547    0.7703    0.1454 C   0  0  0  0  0  0  0  0  0  0  0  0
    1.1600    1.8054   -0.1316 O   0  0  0  0  0  0  0  0  0  0  0  0
    0.9832   -0.0385   -2.0947 C   0  0  0  0  0  0  0  0  0  0  0  0
    0.4329   -1.4308   -1.7953 C   0  0  0  0  0  0  0  0  0  0  0  0
    0.7499   -2.6270   -0.9105 C   0  0  0  0  0  0  0  0  0  0  0  0
    2.6660   -0.8234   -0.9178 H   0  0  0  0  0  0  0  0  0  0  0  0
    1.7341    0.0889   -2.8835 H   0  0  0  0  0  0  0  0  0  0  0  0
    0.3808    0.8733   -2.0362 H   0  0  0  0  0  0  0  0  0  0  0  0
   -0.5797   -1.3599   -1.3815 H   0  0  0  0  0  0  0  0  0  0  0  0
    0.3950   -2.0608   -2.6885 H   0  0  0  0  0  0  0  0  0  0  0  0
   -0.0575   -3.3641   -0.8933 H   0  0  0  0  0  0  0  0  0  0  0  0
    1.6766   -3.1193   -1.2248 H   0  0  0  0  0  0  0  0  0  0  0  0
    2.4909    0.6288    1.2418 N   0  0  0  0  0  0  0  0  0  0  0  0
    3.4220    0.9275    2.3061 C   0  0  2  0  0  0  0  0  0  0  0  0
    4.6915    1.4865    1.6773 C   0  0  0  0  0  0  0  0  0  0  0  0
    5.0105    1.2755    0.5090 O   0  0  0  0  0  0  0  0  0  0  0  0
    3.7264   -0.3086    3.1381 C   0  0  0  0  0  0  0  0  0  0  0  0
    1.5826    1.0830    1.2524 H   0  0  0  0  0  0  0  0  0  0  0  0
    2.9534    1.6966    2.9297 H   0  0  0  0  0  0  0  0  0  0  0  0
    4.1963   -1.0903    2.5302 H   0  0  0  0  0  0  0  0  0  0  0  0
    4.4096   -0.0745    3.9612 H   0  0  0  0  0  0  0  0  0  0  0  0
    2.8084   -0.7266    3.5652 H   0  0  0  0  0  0  0  0  0  0  0  0
    5.4479    2.2130    2.5862 N   0  0  0  0  0  0  0  0  0  0  0  0
    6.7036    2.8343    2.2351 C   0  0  0  0  0  0  0  0  0  0  0  0
    5.0973    2.3529    3.5292 H   0  0  0  0  0  0  0  0  0  0  0  0
    7.5303    2.1445    2.4603 H   0  0  0  0  0  0  0  0  0  0  0  0
    6.7071    3.0724    1.1612 H   0  0  0  0  0  0  0  0  0  0  0  0
    6.8297    3.7597    2.8162 H   0  0  0  0  0  0  0  0  0  0  0  0
 18 19  1  0  0  0  0
 19 31  1  0  0  0  0
 19 20  2  0  0  0  0
  8  9  1  0  0  0  0
  9 17  1  0  0  0  0
  9 10  2  0  0  0  0
  1  3  1  0  0  0  0
  1  7  1  0  0  0  0
  1  2  2  0  0  0  0
 32 33  1  0  0  0  0
 33 41  1  0  0  0  0
 33 34  2  0  0  0  0
 21 22  1  0  0  0  0
 22 23  1  0  0  0  0
 18 21  1  0  0  0  0
 17 23  1  0  0  0  0
 17 18  1  0  0  0  0
  8 11  1  0  0  0  0
 32 35  1  0  0  0  0
 41 42  1  0  0  0  0
  7  8  1  0  0  0  0
 31 32  1  0  0  0  0
 22 27  1  0  0  0  0
 22 28  1  0  0  0  0
 21 25  1  0  0  0  0
 21 26  1  0  0  0  0
 23 29  1  0  0  0  0
 23 30  1  0  0  0  0
 18 24  1  0  0  0  0
  3  4  1  0  0  0  0
  3  5  1  0  0  0  0
  3  6  1  0  0  0  0
 11 14  1  0  0  0  0
 11 15  1  0  0  0  0
 11 16  1  0  0  0  0
 35 38  1  0  0  0  0
 35 39  1  0  0  0  0
 35 40  1  0  0  0  0
 42 44  1  0  0  0  0
 42 45  1  0  0  0  0
 42 46  1  0  0  0  0
  8 13  1  0  0  0  0
 32 37  1  0  0  0  0
 31 36  1  0  0  0  0
 41 43  1  0  0  0  0
  7 12  1  0  0  0  0
M  END
$$$$

  -OEChem-05262214473D

 46 46  0     1  0  0  0  0  0999 V2000
   -0.6012   -3.2995    3.8205 C   0  0  0  0  0  0  0  0  0  0  0  0
   -0.6574   -4.4683    3.4568 O   0  0  0  0  0  0  0  0  0  0  0  0
   -0.4935   -2.9859    5.2760 C   0  0  0  0  0  0  0  0  0  0  0  0
   -1.4789   -2.8689    5.7550 H   0  0  0  0  0  0  0  0  0  0  0  0
    0.0123   -3.7847    5.8419 H   0  0  0  0  0  0  0  0  0  0  0  0
    0.0585   -2.0642    5.5199 H   0  0  0  0  0  0  0  0  0  0  0  0
   -0.6261   -2.1849    2.9917 N   0  0  0  0  0  0  0  0  0  0  0  0
   -0.7237   -2.2601    1.5650 C   0  0  2  0  0  0  0  0  0  0  0  0
    0.1695   -1.1513    1.0687 C   0  0  0  0  0  0  0  0  0  0  0  0
    0.3193   -0.1267    1.7365 O   0  0  0  0  0  0  0  0  0  0  0  0
   -2.1397   -2.0663    1.0750 C   0  0  0  0  0  0  0  0  0  0  0  0
   -0.5717   -1.2606    3.4238 H   0  0  0  0  0  0  0  0  0  0  0  0
   -0.3076   -3.2111    1.2363 H   0  0  0  0  0  0  0  0  0  0  0  0
   -2.5584   -1.1089    1.4061 H   0  0  0  0  0  0  0  0  0  0  0  0
   -2.1682   -2.0790   -0.0197 H   0  0  0  0  0  0  0  0  0  0  0  0
   -2.7965   -2.8601    1.4459 H   0  0  0  0  0  0  0  0  0  0  0  0
    0.7724   -1.3745   -0.1593 N   0  0  0  0  0  0  0  0  0  0  0  0
    1.6644   -0.4046   -0.7812 C   0  0  2  0  0  0  0  0  0  0  0  0
    1.7547    0.7703    0.1454 C   0  0  0  0  0  0  0  0  0  0  0  0
    0.9598    1.6954    0.0273 O   0  0  0  0  0  0  0  0  0  0  0  0
    0.9832   -0.0385   -2.0947 C   0  0  0  0  0  0  0  0  0  0  0  0
    0.4329   -1.4308   -1.7953 C   0  0  0  0  0  0  0  0  0  0  0  0
    0.7499   -2.6270   -0.9105 C   0  0  0  0  0  0  0  0  0  0  0  0
    2.6660   -0.8234   -0.9178 H   0  0  0  0  0  0  0  0  0  0  0  0
    1.7341    0.0889   -2.8835 H   0  0  0  0  0  0  0  0  0  0  0  0
    0.3808    0.8733   -2.0362 H   0  0  0  0  0  0  0  0  0  0  0  0
   -0.5797   -1.3599   -1.3815 H   0  0  0  0  0  0  0  0  0  0  0  0
    0.3950   -2.0608   -2.6885 H   0  0  0  0  0  0  0  0  0  0  0  0
   -0.0575   -3.3641   -0.8933 H   0  0  0  0  0  0  0  0  0  0  0  0
    1.6766   -3.1193   -1.2248 H   0  0  0  0  0  0  0  0  0  0  0  0
    2.7121    0.7506    1.0657 N   0  0  0  0  0  0  0  0  0  0  0  0
    3.7816    1.1968    1.9295 C   0  0  2  0  0  0  0  0  0  0  0  0
    4.7911    1.9530    1.0760 C   0  0  0  0  0  0  0  0  0  0  0  0
    4.8942    1.7953   -0.1387 O   0  0  0  0  0  0  0  0  0  0  0  0
    4.4412    0.0269    2.6430 C   0  0  0  0  0  0  0  0  0  0  0  0
    1.7649    1.0520    1.2739 H   0  0  0  0  0  0  0  0  0  0  0  0
    3.3344    1.8806    2.6592 H   0  0  0  0  0  0  0  0  0  0  0  0
    4.8949   -0.6692    1.9280 H   0  0  0  0  0  0  0  0  0  0  0  0
    5.2321    0.3691    3.3185 H   0  0  0  0  0  0  0  0  0  0  0  0
    3.7078   -0.5335    3.2327 H   0  0  0  0  0  0  0  0  0  0  0  0
    5.5923    2.7930    1.8366 N   0  0  0  0  0  0  0  0  0  0  0  0
    6.6353    3.6088    1.2597 C   0  0  0  0  0  0  0  0  0  0  0  0
    5.4239    2.8753    2.8350 H   0  0  0  0  0  0  0  0  0  0  0  0
    7.5891    3.0618    1.2914 H   0  0  0  0  0  0  0  0  0  0  0  0
    6.3817    3.8433    0.2154 H   0  0  0  0  0  0  0  0  0  0  0  0
    6.7292    4.5429    1.8329 H   0  0  0  0  0  0  0  0  0  0  0  0
 18 19  1  0  0  0  0
 19 31  1  0  0  0  0
 19 20  2  0  0  0  0
  8  9  1  0  0  0  0
  9 17  1  0  0  0  0
  9 10  2  0  0  0  0
  1  3  1  0  0  0  0
  1  7  1  0  0  0  0
  1  2  2  0  0  0  0
 32 33  1  0  0  0  0
 33 41  1  0  0  0  0
 33 34  2  0  0  0  0
 21 22  1  0  0  0  0
 22 23  1  0  0  0  0
 18 21  1  0  0  0  0
 17 23  1  0  0  0  0
 17 18  1  0  0  0  0
  8 11  1  0  0  0  0
 32 35  1  0  0  0  0
 41 42  1  0  0  0  0
  7  8  1  0  0  0  0
 31 32  1  0  0  0  0
 22 27  1  0  0  0  0
 22 28  1  0  0  0  0
 21 25  1  0  0  0  0
 21 26  1  0  0  0  0
 23 29  1  0  0  0  0
 23 30  1  0  0  0  0
 18 24  1  0  0  0  0
  3  4  1  0  0  0  0
  3  5  1  0  0  0  0
  3  6  1  0  0  0  0
 11 14  1  0  0  0  0
 11 15  1  0  0  0  0
 11 16  1  0  0  0  0
 35 38  1  0  0  0  0
 35 39  1  0  0  0  0
 35 40  1  0  0  0  0
 42 44  1  0  0  0  0
 42 45  1  0  0  0  0
 42 46  1  0  0  0  0
  8 13  1  0  0  0  0
 32 37  1  0  0  0  0
 31 36  1  0  0  0  0
 41 43  1  0  0  0  0
  7 12  1  0  0  0  0
M  END
$$$$

  -OEChem-05262214473D

 46 46  0     1  0  0  0  0  0999 V2000
   -0.6012   -3.2995    3.8205 C   0  0  0  0  0  0  0  0  0  0  0  0
   -0.6574   -4.4683    3.4568 O   0  0  0  0  0  0  0  0  0  0  0  0
   -0.4935   -2.9859    5.2760 C   0  0  0  0  0  0  0  0  0  0  0  0
   -1.4789   -2.8689    5.7550 H   0  0  0  0  0  0  0  0  0  0  0  0
    0.0123   -3.7847    5.8419 H   0  0  0  0  0  0  0  0  0  0  0  0
    0.0585   -2.0642    5.5199 H   0  0  0  0  0  0  0  0  0  0  0  0
   -0.6261   -2.1849    2.9917 N   0  0  0  0  0  0  0  0  0  0  0  0
   -0.7237   -2.2601    1.5650 C   0  0  2  0  0  0  0  0  0  0  0  0
    0.1695   -1.1513    1.0687 C   0  0  0  0  0  0  0  0  0  0  0  0
    0.3193   -0.1267    1.7365 O   0  0  0  0  0  0  0  0  0  0  0  0
   -2.1397   -2.0663    1.0750 C   0  0  0  0  0  0  0  0  0  0  0  0
   -0.5717   -1.2606    3.4238 H   0  0  0  0  0  0  0  0  0  0  0  0
   -0.3076   -3.2111    1.2363 H   0  0  0  0  0  0  0  0  0  0  0  0
   -2.5584   -1.1089    1.4061 H   0  0  0  0  0  0  0  0  0  0  0  0
   -2.1682   -2.0790   -0.0197 H   0  0  0  0  0  0  0  0  0  0  0  0
   -2.7965   -2.8601    1.4459 H   0  0  0  0  0  0  0  0  0  0  0  0
    0.7724   -1.3745   -0.1593 N   0  0  0  0  0  0  0  0  0  0  0  0
    1.6644   -0.4046   -0.7812 C   0  0  2  0  0  0  0  0  0  0  0  0
    1.7547    0.7703    0.1454 C   0  0  0  0  0  0  0  0  0  0  0  0
    0.8162    1.5547    0.2198 O   0  0  0  0  0  0  0  0  0  0  0  0
    0.9832   -0.0385   -2.0947 C   0  0  0  0  0  0  0  0  0  0  0  0
    0.4329   -1.4308   -1.7953 C   0  0  0  0  0  0  0  0  0  0  0  0
    0.7499   -2.6270   -0.9105 C   0  0  0  0  0  0  0  0  0  0  0  0
    2.6660   -0.8234   -0.9178 H   0  0  0  0  0  0  0  0  0  0  0  0
    1.7341    0.0889   -2.8835 H   0  0  0  0  0  0  0  0  0  0  0  0
    0.3808    0.8733   -2.0362 H   0  0  0  0  0  0  0  0  0  0  0  0
   -0.5797   -1.3599   -1.3815 H   0  0  0  0  0  0  0  0  0  0  0  0
    0.3950   -2.0608   -2.6885 H   0  0  0  0  0  0  0  0  0  0  0  0
   -0.0575   -3.3641   -0.8933 H   0  0  0  0  0  0  0  0  0  0  0  0
    1.6766   -3.1193   -1.2248 H   0  0  0  0  0  0  0  0  0  0  0  0
    2.8706    0.9064    0.8527 N   0  0  0  0  0  0  0  0  0  0  0  0
    4.0094    1.5203    1.4971 C   0  0  2  0  0  0  0  0  0  0  0  0
    4.6906    2.4290    0.4823 C   0  0  0  0  0  0  0  0  0  0  0  0
    4.5673    2.2888   -0.7327 O   0  0  0  0  0  0  0  0  0  0  0  0
    4.9775    0.4730    2.0250 C   0  0  0  0  0  0  0  0  0  0  0  0
    1.9503    1.0510    1.2571 H   0  0  0  0  0  0  0  0  0  0  0  0
    3.6181    2.1236    2.3235 H   0  0  0  0  0  0  0  0  0  0  0  0
    5.3801   -0.1412    1.2113 H   0  0  0  0  0  0  0  0  0  0  0  0
    5.8254    0.9391    2.5378 H   0  0  0  0  0  0  0  0  0  0  0  0
    4.4782   -0.1980    2.7322 H   0  0  0  0  0  0  0  0  0  0  0  0
    5.4869    3.3881    1.0924 N   0  0  0  0  0  0  0  0  0  0  0  0
    6.2475    4.3611    0.3435 C   0  0  0  0  0  0  0  0  0  0  0  0
    5.5150    3.4429    2.1062 H   0  0  0  0  0  0  0  0  0  0  0  0
    7.2621    3.9755    0.1647 H   0  0  0  0  0  0  0  0  0  0  0  0
    5.7522    4.5506   -0.6202 H   0  0  0  0  0  0  0  0  0  0  0  0
    6.3073    5.2987    0.9157 H   0  0  0  0  0  0  0  0  0  0  0  0
 18 19  1  0  0  0  0
 19 31  1  0  0  0  0
 19 20  2  0  0  0  0
  8  9  1  0  0  0  0
  9 17  1  0  0  0  0
  9 10  2  0  0  0  0
  1  3  1  0  0  0  0
  1  7  1  0  0  0  0
  1  2  2  0  0  0  0
 32 33  1  0  0  0  0
 33 41  1  0  0  0  0
 33 34  2  0  0  0  0
 21 22  1  0  0  0  0
 22 23  1  0  0  0  0
 18 21  1  0  0  0  0
 17 23  1  0  0  0  0
 17 18  1  0  0  0  0
  8 11  1  0  0  0  0
 32 35  1  0  0  0  0
 41 42  1  0  0  0  0
  7  8  1  0  0  0  0
 31 32  1  0  0  0  0
 22 27  1  0  0  0  0
 22 28  1  0  0  0  0
 21 25  1  0  0  0  0
 21 26  1  0  0  0  0
 23 29  1  0  0  0  0
 23 30  1  0  0  0  0
 18 24  1  0  0  0  0
  3  4  1  0  0  0  0
  3  5  1  0  0  0  0
  3  6  1  0  0  0  0
 11 14  1  0  0  0  0
 11 15  1  0  0  0  0
 11 16  1  0  0  0  0
 35 38  1  0  0  0  0
 35 39  1  0  0  0  0
 35 40  1  0  0  0  0
 42 44  1  0  0  0  0
 42 45  1  0  0  0  0
 42 46  1  0  0  0  0
  8 13  1  0  0  0  0
 32 37  1  0  0  0  0
 31 36  1  0  0  0  0
 41 43  1  0  0  0  0
  7 12  1  0  0  0  0
M  END
$$$$

  -OEChem-05262214473D

 46 46  0     1  0  0  0  0  0999 V2000
   -0.6012   -3.2995    3.8205 C   0  0  0  0  0  0  0  0  0  0  0  0
   -0.6574   -4.4683    3.4568 O   0  0  0  0  0  0  0  0  0  0  0  0
   -0.4935   -2.9859    5.2760 C   0  0  0  0  0  0  0  0  0  0  0  0
   -1.4789   -2.8689    5.7550 H   0  0  0  0  0  0  0  0  0  0  0  0
    0.0123   -3.7847    5.8419 H   0  0  0  0  0  0  0  0  0  0  0  0
    0.0585   -2.0642    5.5199 H   0  0  0  0  0  0  0  0  0  0  0  0
   -0.6261   -2.1849    2.9917 N   0  0  0  0  0  0  0  0  0  0  0  0
   -0.7237   -2.2601    1.5650 C   0  0  2  0  0  0  0  0  0  0  0  0
    0.1695   -1.1513    1.0687 C   0  0  0  0  0  0  0  0  0  0  0  0
    0.3193   -0.1267    1.7365 O   0  0  0  0  0  0  0  0  0  0  0  0
   -2.1397   -2.0663    1.0750 C   0  0  0  0  0  0  0  0  0  0  0  0
   -0.5717   -1.2606    3.4238 H   0  0  0  0  0  0  0  0  0  0  0  0
   -0.3076   -3.2111    1.2363 H   0  0  0  0  0  0  0  0  0  0  0  0
   -2.5584   -1.1089    1.4061 H   0  0  0  0  0  0  0  0  0  0  0  0
   -2.1682   -2.0790   -0.0197 H   0  0  0  0  0  0  0  0  0  0  0  0
   -2.7965   -2.8601    1.4459 H   0  0  0  0  0  0  0  0  0  0  0  0
    0.7724   -1.3745   -0.1593 N   0  0  0  0  0  0  0  0  0  0  0  0
    1.6644   -0.4046   -0.7812 C   0  0  2  0  0  0  0  0  0  0  0  0
    1.7547    0.7703    0.1454 C   0  0  0  0  0  0  0  0  0  0  0  0
    0.7390    1.3928    0.4326 O   0  0  0  0  0  0  0  0  0  0  0  0
    0.9832   -0.0385   -2.0947 C   0  0  0  0  0  0  0  0  0  0  0  0
    0.4329   -1.4308   -1.7953 C   0  0  0  0  0  0  0  0  0  0  0  0
    0.7499   -2.6270   -0.9105 C   0  0  0  0  0  0  0  0  0  0  0  0
    2.6660   -0.8234   -0.9178 H   0  0  0  0  0  0  0  0  0  0  0  0
    1.7341    0.0889   -2.8835 H   0  0  0  0  0  0  0  0  0  0  0  0
    0.3808    0.8733   -2.0362 H   0  0  0  0  0  0  0  0  0  0  0  0
   -0.5797   -1.3599   -1.3815 H   0  0  0  0  0  0  0  0  0  0  0  0
    0.3950   -2.0608   -2.6885 H   0  0  0  0  0  0  0  0  0  0  0  0
   -0.0575   -3.3641   -0.8933 H   0  0  0  0  0  0  0  0  0  0  0  0
    1.6766   -3.1193   -1.2248 H   0  0  0  0  0  0  0  0  0  0  0  0
    2.9555    1.0856    0.6172 N   0  0  0  0  0  0  0  0  0  0  0  0
    4.0900    1.8760    1.0382 C   0  0  2  0  0  0  0  0  0  0  0  0
    4.3971    2.8819   -0.0634 C   0  0  0  0  0  0  0  0  0  0  0  0
    4.0521    2.7225   -1.2325 O   0  0  0  0  0  0  0  0  0  0  0  0
    5.2989    0.9994    1.3262 C   0  0  0  0  0  0  0  0  0  0  0  0
    2.1261    1.0799    1.2033 H   0  0  0  0  0  0  0  0  0  0  0  0
    3.7851    2.4089    1.9454 H   0  0  0  0  0  0  0  0  0  0  0  0
    5.6190    0.4576    0.4287 H   0  0  0  0  0  0  0  0  0  0  0  0
    6.1488    1.5968    1.6723 H   0  0  0  0  0  0  0  0  0  0  0  0
    5.0671    0.2571    2.0976 H   0  0  0  0  0  0  0  0  0  0  0  0
    5.1390    3.9576    0.4041 N   0  0  0  0  0  0  0  0  0  0  0  0
    5.5668    5.0401   -0.4510 C   0  0  0  0  0  0  0  0  0  0  0  0
    5.3643    4.0172    1.3927 H   0  0  0  0  0  0  0  0  0  0  0  0
    6.5714    4.8233   -0.8430 H   0  0  0  0  0  0  0  0  0  0  0  0
    4.8616    5.1462   -1.2886 H   0  0  0  0  0  0  0  0  0  0  0  0
    5.5929    5.9755    0.1271 H   0  0  0  0  0  0  0  0  0  0  0  0
 18 19  1  0  0  0  0
 19 31  1  0  0  0  0
 19 20  2  0  0  0  0
  8  9  1  0  0  0  0
  9 17  1  0  0  0  0
  9 10  2  0  0  0  0
  1  3  1  0  0  0  0
  1  7  1  0  0  0  0
  1  2  2  0  0  0  0
 32 33  1  0  0  0  0
 33 41  1  0  0  0  0
 33 34  2  0  0  0  0
 21 22  1  0  0  0  0
 22 23  1  0  0  0  0
 18 21  1  0  0  0  0
 17 23  1  0  0  0  0
 17 18  1  0  0  0  0
  8 11  1  0  0  0  0
 32 35  1  0  0  0  0
 41 42  1  0  0  0  0
  7  8  1  0  0  0  0
 31 32  1  0  0  0  0
 22 27  1  0  0  0  0
 22 28  1  0  0  0  0
 21 25  1  0  0  0  0
 21 26  1  0  0  0  0
 23 29  1  0  0  0  0
 23 30  1  0  0  0  0
 18 24  1  0  0  0  0
  3  4  1  0  0  0  0
  3  5  1  0  0  0  0
  3  6  1  0  0  0  0
 11 14  1  0  0  0  0
 11 15  1  0  0  0  0
 11 16  1  0  0  0  0
 35 38  1  0  0  0  0
 35 39  1  0  0  0  0
 35 40  1  0  0  0  0
 42 44  1  0  0  0  0
 42 45  1  0  0  0  0
 42 46  1  0  0  0  0
  8 13  1  0  0  0  0
 32 37  1  0  0  0  0
 31 36  1  0  0  0  0
 41 43  1  0  0  0  0
  7 12  1  0  0  0  0
M  END
$$$$

  -OEChem-05262214473D

 46 46  0     1  0  0  0  0  0999 V2000
   -0.6012   -3.2995    3.8205 C   0  0  0  0  0  0  0  0  0  0  0  0
   -0.6574   -4.4683    3.4568 O   0  0  0  0  0  0  0  0  0  0  0  0
   -0.4935   -2.9859    5.2760 C   0  0  0  0  0  0  0  0  0  0  0  0
   -1.4789   -2.8689    5.7550 H   0  0  0  0  0  0  0  0  0  0  0  0
    0.0123   -3.7847    5.8419 H   0  0  0  0  0  0  0  0  0  0  0  0
    0.0585   -2.0642    5.5199 H   0  0  0  0  0  0  0  0  0  0  0  0
   -0.6261   -2.1849    2.9917 N   0  0  0  0  0  0  0  0  0  0  0  0
   -0.7237   -2.2601    1.5650 C   0  0  2  0  0  0  0  0  0  0  0  0
    0.1695   -1.1513    1.0687 C   0  0  0  0  0  0  0  0  0  0  0  0
    0.3193   -0.1267    1.7365 O   0  0  0  0  0  0  0  0  0  0  0  0
   -2.1397   -2.0663    1.0750 C   0  0  0  0  0  0  0  0  0  0  0  0
   -0.5717   -1.2606    3.4238 H   0  0  0  0  0  0  0  0  0  0  0  0
   -0.3076   -3.2111    1.2363 H   0  0  0  0  0  0  0  0  0  0  0  0
   -2.5584   -1.1089    1.4061 H   0  0  0  0  0  0  0  0  0  0  0  0
   -2.1682   -2.0790   -0.0197 H   0  0  0  0  0  0  0  0  0  0  0  0
   -2.7965   -2.8601    1.4459 H   0  0  0  0  0  0  0  0  0  0  0  0
    0.7724   -1.3745   -0.1593 N   0  0  0  0  0  0  0  0  0  0  0  0
    1.6644   -0.4046   -0.7812 C   0  0  2  0  0  0  0  0  0  0  0  0
    1.7547    0.7703    0.1454 C   0  0  0  0  0  0  0  0  0  0  0  0
    0.7335    1.2208    0.6513 O   0  0  0  0  0  0  0  0  0  0  0  0
    0.9832   -0.0385   -2.0947 C   0  0  0  0  0  0  0  0  0  0  0  0
    0.4329   -1.4308   -1.7953 C   0  0  0  0  0  0  0  0  0  0  0  0
    0.7499   -2.6270   -0.9105 C   0  0  0  0  0  0  0  0  0  0  0  0
    2.6660   -0.8234   -0.9178 H   0  0  0  0  0  0  0  0  0  0  0  0
    1.7341    0.0889   -2.8835 H   0  0  0  0  0  0  0  0  0  0  0  0
    0.3808    0.8733   -2.0362 H   0  0  0  0  0  0  0  0  0  0  0  0
   -0.5797   -1.3599   -1.3815 H   0  0  0  0  0  0  0  0  0  0  0  0
    0.3950   -2.0608   -2.6885 H   0  0  0  0  0  0  0  0  0  0  0  0
   -0.0575   -3.3641   -0.8933 H   0  0  0  0  0  0  0  0  0  0  0  0
    1.6766   -3.1193   -1.2248 H   0  0  0  0  0  0  0  0  0  0  0  0
    2.9612    1.2759    0.3754 N   0  0  0  0  0  0  0  0  0  0  0  0
    4.0179    2.2397    0.5841 C   0  0  2  0  0  0  0  0  0  0  0  0
    3.9303    3.2809   -0.5239 C   0  0  0  0  0  0  0  0  0  0  0  0
    3.3837    3.0669   -1.6039 O   0  0  0  0  0  0  0  0  0  0  0  0
    5.3833    1.5702    0.5942 C   0  0  0  0  0  0  0  0  0  0  0  0
    2.2804    1.1368    1.1161 H   0  0  0  0  0  0  0  0  0  0  0  0
    3.8241    2.7170    1.5508 H   0  0  0  0  0  0  0  0  0  0  0  0
    5.5952    1.0863   -0.3663 H   0  0  0  0  0  0  0  0  0  0  0  0
    6.1804    2.2974    0.7809 H   0  0  0  0  0  0  0  0  0  0  0  0
    5.4344    0.8009    1.3723 H   0  0  0  0  0  0  0  0  0  0  0  0
    4.5721    4.4628   -0.1812 N   0  0  0  0  0  0  0  0  0  0  0  0
    4.6394    5.5994   -1.0699 C   0  0  0  0  0  0  0  0  0  0  0  0
    4.9822    4.5589    0.7431 H   0  0  0  0  0  0  0  0  0  0  0  0
    5.5643    5.5474   -1.6631 H   0  0  0  0  0  0  0  0  0  0  0  0
    3.7704    5.5894   -1.7442 H   0  0  0  0  0  0  0  0  0  0  0  0
    4.6345    6.5273   -0.4791 H   0  0  0  0  0  0  0  0  0  0  0  0
 18 19  1  0  0  0  0
 19 31  1  0  0  0  0
 19 20  2  0  0  0  0
  8  9  1  0  0  0  0
  9 17  1  0  0  0  0
  9 10  2  0  0  0  0
  1  3  1  0  0  0  0
  1  7  1  0  0  0  0
  1  2  2  0  0  0  0
 32 33  1  0  0  0  0
 33 41  1  0  0  0  0
 33 34  2  0  0  0  0
 21 22  1  0  0  0  0
 22 23  1  0  0  0  0
 18 21  1  0  0  0  0
 17 23  1  0  0  0  0
 17 18  1  0  0  0  0
  8 11  1  0  0  0  0
 32 35  1  0  0  0  0
 41 42  1  0  0  0  0
  7  8  1  0  0  0  0
 31 32  1  0  0  0  0
 22 27  1  0  0  0  0
 22 28  1  0  0  0  0
 21 25  1  0  0  0  0
 21 26  1  0  0  0  0
 23 29  1  0  0  0  0
 23 30  1  0  0  0  0
 18 24  1  0  0  0  0
  3  4  1  0  0  0  0
  3  5  1  0  0  0  0
  3  6  1  0  0  0  0
 11 14  1  0  0  0  0
 11 15  1  0  0  0  0
 11 16  1  0  0  0  0
 35 38  1  0  0  0  0
 35 39  1  0  0  0  0
 35 40  1  0  0  0  0
 42 44  1  0  0  0  0
 42 45  1  0  0  0  0
 42 46  1  0  0  0  0
  8 13  1  0  0  0  0
 32 37  1  0  0  0  0
 31 36  1  0  0  0  0
 41 43  1  0  0  0  0
  7 12  1  0  0  0  0
M  END
$$$$

  -OEChem-05262214473D

 46 46  0     1  0  0  0  0  0999 V2000
   -0.6012   -3.2995    3.8205 C   0  0  0  0  0  0  0  0  0  0  0  0
   -0.6574   -4.4683    3.4568 O   0  0  0  0  0  0  0  0  0  0  0  0
   -0.4935   -2.9859    5.2760 C   0  0  0  0  0  0  0  0  0  0  0  0
   -1.4789   -2.8689    5.7550 H   0  0  0  0  0  0  0  0  0  0  0  0
    0.0123   -3.7847    5.8419 H   0  0  0  0  0  0  0  0  0  0  0  0
    0.0585   -2.0642    5.5199 H   0  0  0  0  0  0  0  0  0  0  0  0
   -0.6261   -2.1849    2.9917 N   0  0  0  0  0  0  0  0  0  0  0  0
   -0.7237   -2.2601    1.5650 C   0  0  2  0  0  0  0  0  0  0  0  0
    0.1695   -1.1513    1.0687 C   0  0  0  0  0  0  0  0  0  0  0  0
    0.3193   -0.1267    1.7365 O   0  0  0  0  0  0  0  0  0  0  0  0
   -2.1397   -2.0663    1.0750 C   0  0  0  0  0  0  0  0  0  0  0  0
   -0.5717   -1.2606    3.4238 H   0  0  0  0  0  0  0  0  0  0  0  0
   -0.3076   -3.2111    1.2363 H   0  0  0  0  0  0  0  0  0  0  0  0
   -2.5584   -1.1089    1.4061 H   0  0  0  0  0  0  0  0  0  0  0  0
   -2.1682   -2.0790   -0.0197 H   0  0  0  0  0  0  0  0  0  0  0  0
   -2.7965   -2.8601    1.4459 H   0  0  0  0  0  0  0  0  0  0  0  0
    0.7724   -1.3745   -0.1593 N   0  0  0  0  0  0  0  0  0  0  0  0
    1.6644   -0.4046   -0.7812 C   0  0  2  0  0  0  0  0  0  0  0  0
    1.7547    0.7703    0.1454 C   0  0  0  0  0  0  0  0  0  0  0  0
    0.8001    1.0503    0.8610 O   0  0  0  0  0  0  0  0  0  0  0  0
    0.9832   -0.0385   -2.0947 C   0  0  0  0  0  0  0  0  0  0  0  0
    0.4329   -1.4308   -1.7953 C   0  0  0  0  0  0  0  0  0  0  0  0
    0.7499   -2.6270   -0.9105 C   0  0  0  0  0  0  0  0  0  0  0  0
    2.6660   -0.8234   -0.9178 H   0  0  0  0  0  0  0  0  0  0  0  0
    1.7341    0.0889   -2.8835 H   0  0  0  0  0  0  0  0  0  0  0  0
    0.3808    0.8733   -2.0362 H   0  0  0  0  0  0  0  0  0  0  0  0
   -0.5797   -1.3599   -1.3815 H   0  0  0  0  0  0  0  0  0  0  0  0
    0.3950   -2.0608   -2.6885 H   0  0  0  0  0  0  0  0  0  0  0  0
   -0.0575   -3.3641   -0.8933 H   0  0  0  0  0  0  0  0  0  0  0  0
    1.6766   -3.1193   -1.2248 H   0  0  0  0  0  0  0  0  0  0  0  0
    2.8871    1.4644    0.1435 N   0  0  0  0  0  0  0  0  0  0  0  0
    3.7979    2.5864    0.1658 C   0  0  2  0  0  0  0  0  0  0  0  0
    3.3223    3.5989   -0.8678 C   0  0  0  0  0  0  0  0  0  0  0  0
    2.6076    3.2983   -1.8217 O   0  0  0  0  0  0  0  0  0  0  0  0
    5.2251    2.1464   -0.1211 C   0  0  0  0  0  0  0  0  0  0  0  0
    2.4027    1.2178    1.0014 H   0  0  0  0  0  0  0  0  0  0  0  0
    3.7324    3.0271    1.1666 H   0  0  0  0  0  0  0  0  0  0  0  0
    5.3103    1.7023   -1.1195 H   0  0  0  0  0  0  0  0  0  0  0  0
    5.9180    2.9930   -0.0757 H   0  0  0  0  0  0  0  0  0  0  0  0
    5.5551    1.3962    0.6056 H   0  0  0  0  0  0  0  0  0  0  0  0
    3.8250    4.8692   -0.6238 N   0  0  0  0  0  0  0  0  0  0  0  0
    3.5287    6.0009   -1.4707 C   0  0  0  0  0  0  0  0  0  0  0  0
    4.3947    5.0312    0.2015 H   0  0  0  0  0  0  0  0  0  0  0  0
    4.3093    6.0986   -2.2396 H   0  0  0  0  0  0  0  0  0  0  0  0
    2.5531    5.8501   -1.9560 H   0  0  0  0  0  0  0  0  0  0  0  0
    3.4975    6.9164   -0.8617 H   0  0  0  0  0  0  0  0  0  0  0  0
 18 19  1  0  0  0  0
 19 31  1  0  0  0  0
 19 20  2  0  0  0  0
  8  9  1  0  0  0  0
  9 17  1  0  0  0  0
  9 10  2  0  0  0  0
  1  3  1  0  0  0  0
  1  7  1  0  0  0  0
  1  2  2  0  0  0  0
 32 33  1  0  0  0  0
 33 41  1  0  0  0  0
 33 34  2  0  0  0  0
 21 22  1  0  0  0  0
 22 23  1  0  0  0  0
 18 21  1  0  0  0  0
 17 23  1  0  0  0  0
 17 18  1  0  0  0  0
  8 11  1  0  0  0  0
 32 35  1  0  0  0  0
 41 42  1  0  0  0  0
  7  8  1  0  0  0  0
 31 32  1  0  0  0  0
 22 27  1  0  0  0  0
 22 28  1  0  0  0  0
 21 25  1  0  0  0  0
 21 26  1  0  0  0  0
 23 29  1  0  0  0  0
 23 30  1  0  0  0  0
 18 24  1  0  0  0  0
  3  4  1  0  0  0  0
  3  5  1  0  0  0  0
  3  6  1  0  0  0  0
 11 14  1  0  0  0  0
 11 15  1  0  0  0  0
 11 16  1  0  0  0  0
 35 38  1  0  0  0  0
 35 39  1  0  0  0  0
 35 40  1  0  0  0  0
 42 44  1  0  0  0  0
 42 45  1  0  0  0  0
 42 46  1  0  0  0  0
  8 13  1  0  0  0  0
 32 37  1  0  0  0  0
 31 36  1  0  0  0  0
 41 43  1  0  0  0  0
  7 12  1  0  0  0  0
M  END
$$$$

  -OEChem-05262214473D

 46 46  0     1  0  0  0  0  0999 V2000
   -0.6012   -3.2995    3.8205 C   0  0  0  0  0  0  0  0  0  0  0  0
   -0.6574   -4.4683    3.4568 O   0  0  0  0  0  0  0  0  0  0  0  0
   -0.4935   -2.9859    5.2760 C   0  0  0  0  0  0  0  0  0  0  0  0
   -1.4789   -2.8689    5.7550 H   0  0  0  0  0  0  0  0  0  0  0  0
    0.0123   -3.7847    5.8419 H   0  0  0  0  0  0  0  0  0  0  0  0
    0.0585   -2.0642    5.5199 H   0  0  0  0  0  0  0  0  0  0  0  0
   -0.6261   -2.1849    2.9917 N   0  0  0  0  0  0  0  0  0  0  0  0
   -0.7237   -2.2601    1.5650 C   0  0  2  0  0  0  0  0  0  0  0  0
    0.1695   -1.1513    1.0687 C   0  0  0  0  0  0  0  0  0  0  0  0
    0.3193   -0.1267    1.7365 O   0  0  0  0  0  0  0  0  0  0  0  0
   -2.1397   -2.0663    1.0750 C   0  0  0  0  0  0  0  0  0  0  0  0
   -0.5717   -1.2606    3.4238 H   0  0  0  0  0  0  0  0  0  0  0  0
   -0.3076   -3.2111    1.2363 H   0  0  0  0  0  0  0  0  0  0  0  0
   -2.5584   -1.1089    1.4061 H   0  0  0  0  0  0  0  0  0  0  0  0
   -2.1682   -2.0790   -0.0197 H   0  0  0  0  0  0  0  0  0  0  0  0
   -2.7965   -2.8601    1.4459 H   0  0  0  0  0  0  0  0  0  0  0  0
    0.7724   -1.3745   -0.1593 N   0  0  0  0  0  0  0  0  0  0  0  0
    1.6644   -0.4046   -0.7812 C   0  0  2  0  0  0  0  0  0  0  0  0
    1.7547    0.7703    0.1454 C   0  0  0  0  0  0  0  0  0  0  0  0
    0.9343    0.8930    1.0473 O   0  0  0  0  0  0  0  0  0  0  0  0
    0.9832   -0.0385   -2.0947 C   0  0  0  0  0  0  0  0  0  0  0  0
    0.4329   -1.4308   -1.7953 C   0  0  0  0  0  0  0  0  0  0  0  0
    0.7499   -2.6270   -0.9105 C   0  0  0  0  0  0  0  0  0  0  0  0
    2.6660   -0.8234   -0.9178 H   0  0  0  0  0  0  0  0  0  0  0  0
    1.7341    0.0889   -2.8835 H   0  0  0  0  0  0  0  0  0  0  0  0
    0.3808    0.8733   -2.0362 H   0  0  0  0  0  0  0  0  0  0  0  0
   -0.5797   -1.3599   -1.3815 H   0  0  0  0  0  0  0  0  0  0  0  0
    0.3950   -2.0608   -2.6885 H   0  0  0  0  0  0  0  0  0  0  0  0
   -0.0575   -3.3641   -0.8933 H   0  0  0  0  0  0  0  0  0  0  0  0
    1.6766   -3.1193   -1.2248 H   0  0  0  0  0  0  0  0  0  0  0  0
    2.7383    1.6383   -0.0624 N   0  0  0  0  0  0  0  0  0  0  0  0
    3.4451    2.8927   -0.1882 C   0  0  2  0  0  0  0  0  0  0  0  0
    2.6143    3.8141   -1.0716 C   0  0  0  0  0  0  0  0  0  0  0  0
    1.7768    3.4011   -1.8711 O   0  0  0  0  0  0  0  0  0  0  0  0
    4.8349    2.6888   -0.7708 C   0  0  0  0  0  0  0  0  0  0  0  0
    2.4846    1.3174    0.8671 H   0  0  0  0  0  0  0  0  0  0  0  0
    3.5164    3.3180    0.8188 H   0  0  0  0  0  0  0  0  0  0  0  0
    4.7838    2.2634   -1.7798 H   0  0  0  0  0  0  0  0  0  0  0  0
    5.3796    3.6363   -0.8389 H   0  0  0  0  0  0  0  0  0  0  0  0
    5.4209    2.0025   -0.1501 H   0  0  0  0  0  0  0  0  0  0  0  0
    2.9486    5.1492   -0.8933 N   0  0  0  0  0  0  0  0  0  0  0  0
    2.3102    6.2174   -1.6264 C   0  0  0  0  0  0  0  0  0  0  0  0
    3.6417    5.4018   -0.1951 H   0  0  0  0  0  0  0  0  0  0  0  0
    2.8919    6.4392   -2.5333 H   0  0  0  0  0  0  0  0  0  0  0  0
    1.2926    5.9104   -1.9096 H   0  0  0  0  0  0  0  0  0  0  0  0
    2.2595    7.1163   -0.9945 H   0  0  0  0  0  0  0  0  0  0  0  0
 18 19  1  0  0  0  0
 19 31  1  0  0  0  0
 19 20  2  0  0  0  0
  8  9  1  0  0  0  0
  9 17  1  0  0  0  0
  9 10  2  0  0  0  0
  1  3  1  0  0  0  0
  1  7  1  0  0  0  0
  1  2  2  0  0  0  0
 32 33  1  0  0  0  0
 33 41  1  0  0  0  0
 33 34  2  0  0  0  0
 21 22  1  0  0  0  0
 22 23  1  0  0  0  0
 18 21  1  0  0  0  0
 17 23  1  0  0  0  0
 17 18  1  0  0  0  0
  8 11  1  0  0  0  0
 32 35  1  0  0  0  0
 41 42  1  0  0  0  0
  7  8  1  0  0  0  0
 31 32  1  0  0  0  0
 22 27  1  0  0  0  0
 22 28  1  0  0  0  0
 21 25  1  0  0  0  0
 21 26  1  0  0  0  0
 23 29  1  0  0  0  0
 23 30  1  0  0  0  0
 18 24  1  0  0  0  0
  3  4  1  0  0  0  0
  3  5  1  0  0  0  0
  3  6  1  0  0  0  0
 11 14  1  0  0  0  0
 11 15  1  0  0  0  0
 11 16  1  0  0  0  0
 35 38  1  0  0  0  0
 35 39  1  0  0  0  0
 35 40  1  0  0  0  0
 42 44  1  0  0  0  0
 42 45  1  0  0  0  0
 42 46  1  0  0  0  0
  8 13  1  0  0  0  0
 32 37  1  0  0  0  0
 31 36  1  0  0  0  0
 41 43  1  0  0  0  0
  7 12  1  0  0  0  0
M  END
$$$$

  -OEChem-05262214473D

 46 46  0     1  0  0  0  0  0999 V2000
   -0.6012   -3.2995    3.8205 C   0  0  0  0  0  0  0  0  0  0  0  0
   -0.6574   -4.4683    3.4568 O   0  0  0  0  0  0  0  0  0  0  0  0
   -0.4935   -2.9859    5.2760 C   0  0  0  0  0  0  0  0  0  0  0  0
   -1.4789   -2.8689    5.7550 H   0  0  0  0  0  0  0  0  0  0  0  0
    0.0123   -3.7847    5.8419 H   0  0  0  0  0  0  0  0  0  0  0  0
    0.0585   -2.0642    5.5199 H   0  0  0  0  0  0  0  0  0  0  0  0
   -0.6261   -2.1849    2.9917 N   0  0  0  0  0  0  0  0  0  0  0  0
   -0.7237   -2.2601    1.5650 C   0  0  2  0  0  0  0  0  0  0  0  0
    0.1695   -1.1513    1.0687 C   0  0  0  0  0  0  0  0  0  0  0  0
    0.3193   -0.1267    1.7365 O   0  0  0  0  0  0  0  0  0  0  0  0
   -2.1397   -2.0663    1.0750 C   0  0  0  0  0  0  0  0  0  0  0  0
   -0.5717   -1.2606    3.4238 H   0  0  0  0  0  0  0  0  0  0  0  0
   -0.3076   -3.2111    1.2363 H   0  0  0  0  0  0  0  0  0  0  0  0
   -2.5584   -1.1089    1.4061 H   0  0  0  0  0  0  0  0  0  0  0  0
   -2.1682   -2.0790   -0.0197 H   0  0  0  0  0  0  0  0  0  0  0  0
   -2.7965   -2.8601    1.4459 H   0  0  0  0  0  0  0  0  0  0  0  0
    0.7724   -1.3745   -0.1593 N   0  0  0  0  0  0  0  0  0  0  0  0
    1.6644   -0.4046   -0.7812 C   0  0  2  0  0  0  0  0  0  0  0  0
    1.7547    0.7703    0.1454 C   0  0  0  0  0  0  0  0  0  0  0  0
    1.1268    0.7596    1.1977 O   0  0  0  0  0  0  0  0  0  0  0  0
    0.9832   -0.0385   -2.0947 C   0  0  0  0  0  0  0  0  0  0  0  0
    0.4329   -1.4308   -1.7953 C   0  0  0  0  0  0  0  0  0  0  0  0
    0.7499   -2.6270   -0.9105 C   0  0  0  0  0  0  0  0  0  0  0  0
    2.6660   -0.8234   -0.9178 H   0  0  0  0  0  0  0  0  0  0  0  0
    1.7341    0.0889   -2.8835 H   0  0  0  0  0  0  0  0  0  0  0  0
    0.3808    0.8733   -2.0362 H   0  0  0  0  0  0  0  0  0  0  0  0
   -0.5797   -1.3599   -1.3815 H   0  0  0  0  0  0  0  0  0  0  0  0
    0.3950   -2.0608   -2.6885 H   0  0  0  0  0  0  0  0  0  0  0  0
   -0.0575   -3.3641   -0.8933 H   0  0  0  0  0  0  0  0  0  0  0  0
    1.6766   -3.1193   -1.2248 H   0  0  0  0  0  0  0  0  0  0  0  0
    2.5251    1.7856   -0.2284 N   0  0  0  0  0  0  0  0  0  0  0  0
    2.9835    3.1377   -0.4538 C   0  0  2  0  0  0  0  0  0  0  0  0
    1.8547    3.9118   -1.1215 C   0  0  0  0  0  0  0  0  0  0  0  0
    0.9478    3.3683   -1.7486 O   0  0  0  0  0  0  0  0  0  0  0  0
    4.2395    3.1605   -1.3109 C   0  0  0  0  0  0  0  0  0  0  0  0
    2.5205    1.4288    0.7224 H   0  0  0  0  0  0  0  0  0  0  0  0
    3.1906    3.5697    0.5313 H   0  0  0  0  0  0  0  0  0  0  0  0
    4.0515    2.7315   -2.3019 H   0  0  0  0  0  0  0  0  0  0  0  0
    4.6017    4.1835   -1.4569 H   0  0  0  0  0  0  0  0  0  0  0  0
    5.0410    2.5784   -0.8434 H   0  0  0  0  0  0  0  0  0  0  0  0
    2.0026    5.2836   -0.9715 N   0  0  0  0  0  0  0  0  0  0  0  0
    1.0670    6.2339   -1.5262 C   0  0  0  0  0  0  0  0  0  0  0  0
    2.7747    5.6456   -0.4196 H   0  0  0  0  0  0  0  0  0  0  0  0
    1.4087    6.5460   -2.5241 H   0  0  0  0  0  0  0  0  0  0  0  0
    0.0748    5.7663   -1.6081 H   0  0  0  0  0  0  0  0  0  0  0  0
    1.0046    7.1135   -0.8685 H   0  0  0  0  0  0  0  0  0  0  0  0
 18 19  1  0  0  0  0
 19 31  1  0  0  0  0
 19 20  2  0  0  0  0
  8  9  1  0  0  0  0
  9 17  1  0  0  0  0
  9 10  2  0  0  0  0
  1  3  1  0  0  0  0
  1  7  1  0  0  0  0
  1  2  2  0  0  0  0
 32 33  1  0  0  0  0
 33 41  1  0  0  0  0
 33 34  2  0  0  0  0
 21 22  1  0  0  0  0
 22 23  1  0  0  0  0
 18 21  1  0  0  0  0
 17 23  1  0  0  0  0
 17 18  1  0  0  0  0
  8 11  1  0  0  0  0
 32 35  1  0  0  0  0
 41 42  1  0  0  0  0
  7  8  1  0  0  0  0
 31 32  1  0  0  0  0
 22 27  1  0  0  0  0
 22 28  1  0  0  0  0
 21 25  1  0  0  0  0
 21 26  1  0  0  0  0
 23 29  1  0  0  0  0
 23 30  1  0  0  0  0
 18 24  1  0  0  0  0
  3  4  1  0  0  0  0
  3  5  1  0  0  0  0
  3  6  1  0  0  0  0
 11 14  1  0  0  0  0
 11 15  1  0  0  0  0
 11 16  1  0  0  0  0
 35 38  1  0  0  0  0
 35 39  1  0  0  0  0
 35 40  1  0  0  0  0
 42 44  1  0  0  0  0
 42 45  1  0  0  0  0
 42 46  1  0  0  0  0
  8 13  1  0  0  0  0
 32 37  1  0  0  0  0
 31 36  1  0  0  0  0
 41 43  1  0  0  0  0
  7 12  1  0  0  0  0
M  END
$$$$

  -OEChem-05262214473D

 46 46  0     1  0  0  0  0  0999 V2000
   -0.6012   -3.2995    3.8205 C   0  0  0  0  0  0  0  0  0  0  0  0
   -0.6574   -4.4683    3.4568 O   0  0  0  0  0  0  0  0  0  0  0  0
   -0.4935   -2.9859    5.2760 C   0  0  0  0  0  0  0  0  0  0  0  0
   -1.4789   -2.8689    5.7550 H   0  0  0  0  0  0  0  0  0  0  0  0
    0.0123   -3.7847    5.8419 H   0  0  0  0  0  0  0  0  0  0  0  0
    0.0585   -2.0642    5.5199 H   0  0  0  0  0  0  0  0  0  0  0  0
   -0.6261   -2.1849    2.9917 N   0  0  0  0  0  0  0  0  0  0  0  0
   -0.7237   -2.2601    1.5650 C   0  0  2  0  0  0  0  0  0  0  0  0
    0.1695   -1.1513    1.0687 C   0  0  0  0  0  0  0  0  0  0  0  0
    0.3193   -0.1267    1.7365 O   0  0  0  0  0  0  0  0  0  0  0  0
   -2.1397   -2.0663    1.0750 C   0  0  0  0  0  0  0  0  0  0  0  0
   -0.5717   -1.2606    3.4238 H   0  0  0  0  0  0  0  0  0  0  0  0
   -0.3076   -3.2111    1.2363 H   0  0  0  0  0  0  0  0  0  0  0  0
   -2.5584   -1.1089    1.4061 H   0  0  0  0  0  0  0  0  0  0  0  0
   -2.1682   -2.0790   -0.0197 H   0  0  0  0  0  0  0  0  0  0  0  0
   -2.7965   -2.8601    1.4459 H   0  0  0  0  0  0  0  0  0  0  0  0
    0.7724   -1.3745   -0.1593 N   0  0  0  0  0  0  0  0  0  0  0  0
    1.6644   -0.4046   -0.7812 C   0  0  2  0  0  0  0  0  0  0  0  0
    1.7547    0.7703    0.1454 C   0  0  0  0  0  0  0  0  0  0  0  0
    1.3646    0.6593    1.3017 O   0  0  0  0  0  0  0  0  0  0  0  0
    0.9832   -0.0385   -2.0947 C   0  0  0  0  0  0  0  0  0  0  0  0
    0.4329   -1.4308   -1.7953 C   0  0  0  0  0  0  0  0  0  0  0  0
    0.7499   -2.6270   -0.9105 C   0  0  0  0  0  0  0  0  0  0  0  0
    2.6660   -0.8234   -0.9178 H   0  0  0  0  0  0  0  0  0  0  0  0
    1.7341    0.0889   -2.8835 H   0  0  0  0  0  0  0  0  0  0  0  0
    0.3808    0.8733   -2.0362 H   0  0  0  0  0  0  0  0  0  0  0  0
   -0.5797   -1.3599   -1.3815 H   0  0  0  0  0  0  0  0  0  0  0  0
    0.3950   -2.0608   -2.6885 H   0  0  0  0  0  0  0  0  0  0  0  0
   -0.0575   -3.3641   -0.8933 H   0  0  0  0  0  0  0  0  0  0  0  0
    1.6766   -3.1193   -1.2248 H   0  0  0  0  0  0  0  0  0  0  0  0
    2.2618    1.8964   -0.3433 N   0  0  0  0  0  0  0  0  0  0  0  0
    2.4446    3.3046   -0.6129 C   0  0  2  0  0  0  0  0  0  0  0  0
    1.0951    3.8856   -1.0141 C   0  0  0  0  0  0  0  0  0  0  0  0
    0.1771    3.2020   -1.4626 O   0  0  0  0  0  0  0  0  0  0  0  0
    3.4793    3.5293   -1.7044 C   0  0  0  0  0  0  0  0  0  0  0  0
    2.5080    1.5445    0.5770 H   0  0  0  0  0  0  0  0  0  0  0  0
    2.7773    3.7653    0.3236 H   0  0  0  0  0  0  0  0  0  0  0  0
    3.1634    3.0746   -2.6504 H   0  0  0  0  0  0  0  0  0  0  0  0
    3.6374    4.5972   -1.8875 H   0  0  0  0  0  0  0  0  0  0  0  0
    4.4413    3.0848   -1.4270 H   0  0  0  0  0  0  0  0  0  0  0  0
    1.0514    5.2634   -0.8531 N   0  0  0  0  0  0  0  0  0  0  0  0
   -0.1161    6.0495   -1.1769 C   0  0  0  0  0  0  0  0  0  0  0  0
    1.8526    5.7458   -0.4568 H   0  0  0  0  0  0  0  0  0  0  0  0
   -0.0391    6.4118   -2.2127 H   0  0  0  0  0  0  0  0  0  0  0  0
   -1.0174    5.4276   -1.0722 H   0  0  0  0  0  0  0  0  0  0  0  0
   -0.1814    6.9080   -0.4923 H   0  0  0  0  0  0  0  0  0  0  0  0
 18 19  1  0  0  0  0
 19 31  1  0  0  0  0
 19 20  2  0  0  0  0
  8  9  1  0  0  0  0
  9 17  1  0  0  0  0
  9 10  2  0  0  0  0
  1  3  1  0  0  0  0
  1  7  1  0  0  0  0
  1  2  2  0  0  0  0
 32 33  1  0  0  0  0
 33 41  1  0  0  0  0
 33 34  2  0  0  0  0
 21 22  1  0  0  0  0
 22 23  1  0  0  0  0
 18 21  1  0  0  0  0
 17 23  1  0  0  0  0
 17 18  1  0  0  0  0
  8 11  1  0  0  0  0
 32 35  1  0  0  0  0
 41 42  1  0  0  0  0
  7  8  1  0  0  0  0
 31 32  1  0  0  0  0
 22 27  1  0  0  0  0
 22 28  1  0  0  0  0
 21 25  1  0  0  0  0
 21 26  1  0  0  0  0
 23 29  1  0  0  0  0
 23 30  1  0  0  0  0
 18 24  1  0  0  0  0
  3  4  1  0  0  0  0
  3  5  1  0  0  0  0
  3  6  1  0  0  0  0
 11 14  1  0  0  0  0
 11 15  1  0  0  0  0
 11 16  1  0  0  0  0
 35 38  1  0  0  0  0
 35 39  1  0  0  0  0
 35 40  1  0  0  0  0
 42 44  1  0  0  0  0
 42 45  1  0  0  0  0
 42 46  1  0  0  0  0
  8 13  1  0  0  0  0
 32 37  1  0  0  0  0
 31 36  1  0  0  0  0
 41 43  1  0  0  0  0
  7 12  1  0  0  0  0
M  END
$$$$

  -OEChem-05262214473D

 46 46  0     1  0  0  0  0  0999 V2000
   -0.6012   -3.2995    3.8205 C   0  0  0  0  0  0  0  0  0  0  0  0
   -0.6574   -4.4683    3.4568 O   0  0  0  0  0  0  0  0  0  0  0  0
   -0.4935   -2.9859    5.2760 C   0  0  0  0  0  0  0  0  0  0  0  0
   -1.4789   -2.8689    5.7550 H   0  0  0  0  0  0  0  0  0  0  0  0
    0.0123   -3.7847    5.8419 H   0  0  0  0  0  0  0  0  0  0  0  0
    0.0585   -2.0642    5.5199 H   0  0  0  0  0  0  0  0  0  0  0  0
   -0.6261   -2.1849    2.9917 N   0  0  0  0  0  0  0  0  0  0  0  0
   -0.7237   -2.2601    1.5650 C   0  0  2  0  0  0  0  0  0  0  0  0
    0.1695   -1.1513    1.0687 C   0  0  0  0  0  0  0  0  0  0  0  0
    0.3193   -0.1267    1.7365 O   0  0  0  0  0  0  0  0  0  0  0  0
   -2.1397   -2.0663    1.0750 C   0  0  0  0  0  0  0  0  0  0  0  0
   -0.5717   -1.2606    3.4238 H   0  0  0  0  0  0  0  0  0  0  0  0
   -0.3076   -3.2111    1.2363 H   0  0  0  0  0  0  0  0  0  0  0  0
   -2.5584   -1.1089    1.4061 H   0  0  0  0  0  0  0  0  0  0  0  0
   -2.1682   -2.0790   -0.0197 H   0  0  0  0  0  0  0  0  0  0  0  0
   -2.7965   -2.8601    1.4459 H   0  0  0  0  0  0  0  0  0  0  0  0
    0.7724   -1.3745   -0.1593 N   0  0  0  0  0  0  0  0  0  0  0  0
    1.6644   -0.4046   -0.7812 C   0  0  2  0  0  0  0  0  0  0  0  0
    1.7547    0.7703    0.1454 C   0  0  0  0  0  0  0  0  0  0  0  0
    1.6315    0.5987    1.3525 O   0  0  0  0  0  0  0  0  0  0  0  0
    0.9832   -0.0385   -2.0947 C   0  0  0  0  0  0  0  0  0  0  0  0
    0.4329   -1.4308   -1.7953 C   0  0  0  0  0  0  0  0  0  0  0  0
    0.7499   -2.6270   -0.9105 C   0  0  0  0  0  0  0  0  0  0  0  0
    2.6660   -0.8234   -0.9178 H   0  0  0  0  0  0  0  0  0  0  0  0
    1.7341    0.0889   -2.8835 H   0  0  0  0  0  0  0  0  0  0  0  0
    0.3808    0.8733   -2.0362 H   0  0  0  0  0  0  0  0  0  0  0  0
   -0.5797   -1.3599   -1.3815 H   0  0  0  0  0  0  0  0  0  0  0  0
    0.3950   -2.0608   -2.6885 H   0  0  0  0  0  0  0  0  0  0  0  0
   -0.0575   -3.3641   -0.8933 H   0  0  0  0  0  0  0  0  0  0  0  0
    1.6766   -3.1193   -1.2248 H   0  0  0  0  0  0  0  0  0  0  0  0
    1.9665    1.9631   -0.3991 N   0  0  0  0  0  0  0  0  0  0  0  0
    1.8650    3.3821   -0.6546 C   0  0  2  0  0  0  0  0  0  0  0  0
    0.3875    3.7370   -0.7567 C   0  0  0  0  0  0  0  0  0  0  0  0
   -0.4826    2.9137   -1.0327 O   0  0  0  0  0  0  0  0  0  0  0  0
    2.6063    3.7700   -1.9245 C   0  0  0  0  0  0  0  0  0  0  0  0
    2.4479    1.6564    0.4409 H   0  0  0  0  0  0  0  0  0  0  0  0
    2.3046    3.8913    0.2099 H   0  0  0  0  0  0  0  0  0  0  0  0
    2.1800    3.2694   -2.8015 H   0  0  0  0  0  0  0  0  0  0  0  0
    2.5525    4.8493   -2.1013 H   0  0  0  0  0  0  0  0  0  0  0  0
    3.6626    3.4871   -1.8611 H   0  0  0  0  0  0  0  0  0  0  0  0
    0.1599    5.0898   -0.5460 N   0  0  0  0  0  0  0  0  0  0  0  0
   -1.1585    5.6766   -0.6024 C   0  0  0  0  0  0  0  0  0  0  0  0
    0.9384    5.6957   -0.3041 H   0  0  0  0  0  0  0  0  0  0  0  0
   -1.3530    6.0456   -1.6203 H   0  0  0  0  0  0  0  0  0  0  0  0
   -1.9093    4.9173   -0.3382 H   0  0  0  0  0  0  0  0  0  0  0  0
   -1.2178    6.5139    0.1085 H   0  0  0  0  0  0  0  0  0  0  0  0
 18 19  1  0  0  0  0
 19 31  1  0  0  0  0
 19 20  2  0  0  0  0
  8  9  1  0  0  0  0
  9 17  1  0  0  0  0
  9 10  2  0  0  0  0
  1  3  1  0  0  0  0
  1  7  1  0  0  0  0
  1  2  2  0  0  0  0
 32 33  1  0  0  0  0
 33 41  1  0  0  0  0
 33 34  2  0  0  0  0
 21 22  1  0  0  0  0
 22 23  1  0  0  0  0
 18 21  1  0  0  0  0
 17 23  1  0  0  0  0
 17 18  1  0  0  0  0
  8 11  1  0  0  0  0
 32 35  1  0  0  0  0
 41 42  1  0  0  0  0
  7  8  1  0  0  0  0
 31 32  1  0  0  0  0
 22 27  1  0  0  0  0
 22 28  1  0  0  0  0
 21 25  1  0  0  0  0
 21 26  1  0  0  0  0
 23 29  1  0  0  0  0
 23 30  1  0  0  0  0
 18 24  1  0  0  0  0
  3  4  1  0  0  0  0
  3  5  1  0  0  0  0
  3  6  1  0  0  0  0
 11 14  1  0  0  0  0
 11 15  1  0  0  0  0
 11 16  1  0  0  0  0
 35 38  1  0  0  0  0
 35 39  1  0  0  0  0
 35 40  1  0  0  0  0
 42 44  1  0  0  0  0
 42 45  1  0  0  0  0
 42 46  1  0  0  0  0
  8 13  1  0  0  0  0
 32 37  1  0  0  0  0
 31 36  1  0  0  0  0
 41 43  1  0  0  0  0
  7 12  1  0  0  0  0
M  END
$$$$

  -OEChem-05262214473D

 46 46  0     1  0  0  0  0  0999 V2000
   -0.6012   -3.2995    3.8205 C   0  0  0  0  0  0  0  0  0  0  0  0
   -0.6574   -4.4683    3.4568 O   0  0  0  0  0  0  0  0  0  0  0  0
   -0.4935   -2.9859    5.2760 C   0  0  0  0  0  0  0  0  0  0  0  0
   -1.4789   -2.8689    5.7550 H   0  0  0  0  0  0  0  0  0  0  0  0
    0.0123   -3.7847    5.8419 H   0  0  0  0  0  0  0  0  0  0  0  0
    0.0585   -2.0642    5.5199 H   0  0  0  0  0  0  0  0  0  0  0  0
   -0.6261   -2.1849    2.9917 N   0  0  0  0  0  0  0  0  0  0  0  0
   -0.7237   -2.2601    1.5650 C   0  0  2  0  0  0  0  0  0  0  0  0
    0.1695   -1.1513    1.0687 C   0  0  0  0  0  0  0  0  0  0  0  0
    0.3193   -0.1267    1.7365 O   0  0  0  0  0  0  0  0  0  0  0  0
   -2.1397   -2.0663    1.0750 C   0  0  0  0  0  0  0  0  0  0  0  0
   -0.5717   -1.2606    3.4238 H   0  0  0  0  0  0  0  0  0  0  0  0
   -0.3076   -3.2111    1.2363 H   0  0  0  0  0  0  0  0  0  0  0  0
   -2.5584   -1.1089    1.4061 H   0  0  0  0  0  0  0  0  0  0  0  0
   -2.1682   -2.0790   -0.0197 H   0  0  0  0  0  0  0  0  0  0  0  0
   -2.7965   -2.8601    1.4459 H   0  0  0  0  0  0  0  0  0  0  0  0
    0.7724   -1.3745   -0.1593 N   0  0  0  0  0  0  0  0  0  0  0  0
    1.6644   -0.4046   -0.7812 C   0  0  2  0  0  0  0  0  0  0  0  0
    1.7547    0.7703    0.1454 C   0  0  0  0  0  0  0  0  0  0  0  0
    1.9093    0.5822    1.3464 O   0  0  0  0  0  0  0  0  0  0  0  0
    0.9832   -0.0385   -2.0947 C   0  0  0  0  0  0  0  0  0  0  0  0
    0.4329   -1.4308   -1.7953 C   0  0  0  0  0  0  0  0  0  0  0  0
    0.7499   -2.6270   -0.9105 C   0  0  0  0  0  0  0  0  0  0  0  0
    2.6660   -0.8234   -0.9178 H   0  0  0  0  0  0  0  0  0  0  0  0
    1.7341    0.0889   -2.8835 H   0  0  0  0  0  0  0  0  0  0  0  0
    0.3808    0.8733   -2.0362 H   0  0  0  0  0  0  0  0  0  0  0  0
   -0.5797   -1.3599   -1.3815 H   0  0  0  0  0  0  0  0  0  0  0  0
    0.3950   -2.0608   -2.6885 H   0  0  0  0  0  0  0  0  0  0  0  0
   -0.0575   -3.3641   -0.8933 H   0  0  0  0  0  0  0  0  0  0  0  0
    1.6766   -3.1193   -1.2248 H   0  0  0  0  0  0  0  0  0  0  0  0
    1.6593    1.9812   -0.3920 N   0  0  0  0  0  0  0  0  0  0  0  0
    1.2844    3.3648   -0.5761 C   0  0  2  0  0  0  0  0  0  0  0  0
   -0.2201    3.4762   -0.3669 C   0  0  0  0  0  0  0  0  0  0  0  0
   -0.9866    2.5229   -0.4880 O   0  0  0  0  0  0  0  0  0  0  0  0
    1.6798    3.8663   -1.9563 C   0  0  0  0  0  0  0  0  0  0  0  0
    2.3444    1.7570    0.3234 H   0  0  0  0  0  0  0  0  0  0  0  0
    1.8049    3.9392    0.1979 H   0  0  0  0  0  0  0  0  0  0  0  0
    1.1682    3.3026   -2.7450 H   0  0  0  0  0  0  0  0  0  0  0  0
    1.4208    4.9226   -2.0839 H   0  0  0  0  0  0  0  0  0  0  0  0
    2.7580    3.7578   -2.1162 H   0  0  0  0  0  0  0  0  0  0  0  0
   -0.6111    4.7747   -0.0713 N   0  0  0  0  0  0  0  0  0  0  0  0
   -1.9893    5.1407    0.1581 C   0  0  0  0  0  0  0  0  0  0  0  0
    0.0944    5.4986    0.0281 H   0  0  0  0  0  0  0  0  0  0  0  0
   -2.4433    5.4725   -0.7873 H   0  0  0  0  0  0  0  0  0  0  0  0
   -2.5404    4.2703    0.5438 H   0  0  0  0  0  0  0  0  0  0  0  0
   -2.0340    5.9580    0.8929 H   0  0  0  0  0  0  0  0  0  0  0  0
 18 19  1  0  0  0  0
 19 31  1  0  0  0  0
 19 20  2  0  0  0  0
  8  9  1  0  0  0  0
  9 17  1  0  0  0  0
  9 10  2  0  0  0  0
  1  3  1  0  0  0  0
  1  7  1  0  0  0  0
  1  2  2  0  0  0  0
 32 33  1  0  0  0  0
 33 41  1  0  0  0  0
 33 34  2  0  0  0  0
 21 22  1  0  0  0  0
 22 23  1  0  0  0  0
 18 21  1  0  0  0  0
 17 23  1  0  0  0  0
 17 18  1  0  0  0  0
  8 11  1  0  0  0  0
 32 35  1  0  0  0  0
 41 42  1  0  0  0  0
  7  8  1  0  0  0  0
 31 32  1  0  0  0  0
 22 27  1  0  0  0  0
 22 28  1  0  0  0  0
 21 25  1  0  0  0  0
 21 26  1  0  0  0  0
 23 29  1  0  0  0  0
 23 30  1  0  0  0  0
 18 24  1  0  0  0  0
  3  4  1  0  0  0  0
  3  5  1  0  0  0  0
  3  6  1  0  0  0  0
 11 14  1  0  0  0  0
 11 15  1  0  0  0  0
 11 16  1  0  0  0  0
 35 38  1  0  0  0  0
 35 39  1  0  0  0  0
 35 40  1  0  0  0  0
 42 44  1  0  0  0  0
 42 45  1  0  0  0  0
 42 46  1  0  0  0  0
  8 13  1  0  0  0  0
 32 37  1  0  0  0  0
 31 36  1  0  0  0  0
 41 43  1  0  0  0  0
  7 12  1  0  0  0  0
M  END
$$$$

  -OEChem-05262214473D

 46 46  0     1  0  0  0  0  0999 V2000
   -0.6012   -3.2995    3.8205 C   0  0  0  0  0  0  0  0  0  0  0  0
   -0.6574   -4.4683    3.4568 O   0  0  0  0  0  0  0  0  0  0  0  0
   -0.4935   -2.9859    5.2760 C   0  0  0  0  0  0  0  0  0  0  0  0
   -1.4789   -2.8689    5.7550 H   0  0  0  0  0  0  0  0  0  0  0  0
    0.0123   -3.7847    5.8419 H   0  0  0  0  0  0  0  0  0  0  0  0
    0.0585   -2.0642    5.5199 H   0  0  0  0  0  0  0  0  0  0  0  0
   -0.6261   -2.1849    2.9917 N   0  0  0  0  0  0  0  0  0  0  0  0
   -0.7237   -2.2601    1.5650 C   0  0  2  0  0  0  0  0  0  0  0  0
    0.1695   -1.1513    1.0687 C   0  0  0  0  0  0  0  0  0  0  0  0
    0.3193   -0.1267    1.7365 O   0  0  0  0  0  0  0  0  0  0  0  0
   -2.1397   -2.0663    1.0750 C   0  0  0  0  0  0  0  0  0  0  0  0
   -0.5717   -1.2606    3.4238 H   0  0  0  0  0  0  0  0  0  0  0  0
   -0.3076   -3.2111    1.2363 H   0  0  0  0  0  0  0  0  0  0  0  0
   -2.5584   -1.1089    1.4061 H   0  0  0  0  0  0  0  0  0  0  0  0
   -2.1682   -2.0790   -0.0197 H   0  0  0  0  0  0  0  0  0  0  0  0
   -2.7965   -2.8601    1.4459 H   0  0  0  0  0  0  0  0  0  0  0  0
    0.7724   -1.3745   -0.1593 N   0  0  0  0  0  0  0  0  0  0  0  0
    1.6644   -0.4046   -0.7812 C   0  0  2  0  0  0  0  0  0  0  0  0
    1.7547    0.7703    0.1454 C   0  0  0  0  0  0  0  0  0  0  0  0
    2.1790    0.6107    1.2839 O   0  0  0  0  0  0  0  0  0  0  0  0
    0.9832   -0.0385   -2.0947 C   0  0  0  0  0  0  0  0  0  0  0  0
    0.4329   -1.4308   -1.7953 C   0  0  0  0  0  0  0  0  0  0  0  0
    0.7499   -2.6270   -0.9105 C   0  0  0  0  0  0  0  0  0  0  0  0
    2.6660   -0.8234   -0.9178 H   0  0  0  0  0  0  0  0  0  0  0  0
    1.7341    0.0889   -2.8835 H   0  0  0  0  0  0  0  0  0  0  0  0
    0.3808    0.8733   -2.0362 H   0  0  0  0  0  0  0  0  0  0  0  0
   -0.5797   -1.3599   -1.3815 H   0  0  0  0  0  0  0  0  0  0  0  0
    0.3950   -2.0608   -2.6885 H   0  0  0  0  0  0  0  0  0  0  0  0
   -0.0575   -3.3641   -0.8933 H   0  0  0  0  0  0  0  0  0  0  0  0
    1.6766   -3.1193   -1.2248 H   0  0  0  0  0  0  0  0  0  0  0  0
    1.3611    1.9494   -0.3226 N   0  0  0  0  0  0  0  0  0  0  0  0
    0.7422    3.2541   -0.3828 C   0  0  2  0  0  0  0  0  0  0  0  0
   -0.6861    3.1211    0.1289 C   0  0  0  0  0  0  0  0  0  0  0  0
   -1.3004    2.0563    0.1342 O   0  0  0  0  0  0  0  0  0  0  0  0
    0.7630    3.8116   -1.7975 C   0  0  0  0  0  0  0  0  0  0  0  0
    2.2045    1.8395    0.2325 H   0  0  0  0  0  0  0  0  0  0  0  0
    1.3120    3.9058    0.2884 H   0  0  0  0  0  0  0  0  0  0  0  0
    0.1971    3.1720   -2.4846 H   0  0  0  0  0  0  0  0  0  0  0  0
    0.3195    4.8120   -1.8363 H   0  0  0  0  0  0  0  0  0  0  0  0
    1.7891    3.8786   -2.1749 H   0  0  0  0  0  0  0  0  0  0  0  0
   -1.2092    4.3395    0.5388 N   0  0  0  0  0  0  0  0  0  0  0  0
   -2.5517    4.4783    1.0529 C   0  0  0  0  0  0  0  0  0  0  0  0
   -0.6220    5.1681    0.5170 H   0  0  0  0  0  0  0  0  0  0  0  0
   -3.2358    4.7315    0.2296 H   0  0  0  0  0  0  0  0  0  0  0  0
   -2.8675    3.5307    1.5136 H   0  0  0  0  0  0  0  0  0  0  0  0
   -2.5743    5.2783    1.8075 H   0  0  0  0  0  0  0  0  0  0  0  0
 18 19  1  0  0  0  0
 19 31  1  0  0  0  0
 19 20  2  0  0  0  0
  8  9  1  0  0  0  0
  9 17  1  0  0  0  0
  9 10  2  0  0  0  0
  1  3  1  0  0  0  0
  1  7  1  0  0  0  0
  1  2  2  0  0  0  0
 32 33  1  0  0  0  0
 33 41  1  0  0  0  0
 33 34  2  0  0  0  0
 21 22  1  0  0  0  0
 22 23  1  0  0  0  0
 18 21  1  0  0  0  0
 17 23  1  0  0  0  0
 17 18  1  0  0  0  0
  8 11  1  0  0  0  0
 32 35  1  0  0  0  0
 41 42  1  0  0  0  0
  7  8  1  0  0  0  0
 31 32  1  0  0  0  0
 22 27  1  0  0  0  0
 22 28  1  0  0  0  0
 21 25  1  0  0  0  0
 21 26  1  0  0  0  0
 23 29  1  0  0  0  0
 23 30  1  0  0  0  0
 18 24  1  0  0  0  0
  3  4  1  0  0  0  0
  3  5  1  0  0  0  0
  3  6  1  0  0  0  0
 11 14  1  0  0  0  0
 11 15  1  0  0  0  0
 11 16  1  0  0  0  0
 35 38  1  0  0  0  0
 35 39  1  0  0  0  0
 35 40  1  0  0  0  0
 42 44  1  0  0  0  0
 42 45  1  0  0  0  0
 42 46  1  0  0  0  0
  8 13  1  0  0  0  0
 32 37  1  0  0  0  0
 31 36  1  0  0  0  0
 41 43  1  0  0  0  0
  7 12  1  0  0  0  0
M  END
$$$$

  -OEChem-05262214473D

 46 46  0     1  0  0  0  0  0999 V2000
   -0.6012   -3.2995    3.8205 C   0  0  0  0  0  0  0  0  0  0  0  0
   -0.6574   -4.4683    3.4568 O   0  0  0  0  0  0  0  0  0  0  0  0
   -0.4935   -2.9859    5.2760 C   0  0  0  0  0  0  0  0  0  0  0  0
   -1.4789   -2.8689    5.7550 H   0  0  0  0  0  0  0  0  0  0  0  0
    0.0123   -3.7847    5.8419 H   0  0  0  0  0  0  0  0  0  0  0  0
    0.0585   -2.0642    5.5199 H   0  0  0  0  0  0  0  0  0  0  0  0
   -0.6261   -2.1849    2.9917 N   0  0  0  0  0  0  0  0  0  0  0  0
   -0.7237   -2.2601    1.5650 C   0  0  2  0  0  0  0  0  0  0  0  0
    0.1695   -1.1513    1.0687 C   0  0  0  0  0  0  0  0  0  0  0  0
    0.3193   -0.1267    1.7365 O   0  0  0  0  0  0  0  0  0  0  0  0
   -2.1397   -2.0663    1.0750 C   0  0  0  0  0  0  0  0  0  0  0  0
   -0.5717   -1.2606    3.4238 H   0  0  0  0  0  0  0  0  0  0  0  0
   -0.3076   -3.2111    1.2363 H   0  0  0  0  0  0  0  0  0  0  0  0
   -2.5584   -1.1089    1.4061 H   0  0  0  0  0  0  0  0  0  0  0  0
   -2.1682   -2.0790   -0.0197 H   0  0  0  0  0  0  0  0  0  0  0  0
   -2.7965   -2.8601    1.4459 H   0  0  0  0  0  0  0  0  0  0  0  0
    0.7724   -1.3745   -0.1593 N   0  0  0  0  0  0  0  0  0  0  0  0
    1.6644   -0.4046   -0.7812 C   0  0  2  0  0  0  0  0  0  0  0  0
    1.7547    0.7703    0.1454 C   0  0  0  0  0  0  0  0  0  0  0  0
    2.4222    0.6824    1.1693 O   0  0  0  0  0  0  0  0  0  0  0  0
    0.9832   -0.0385   -2.0947 C   0  0  0  0  0  0  0  0  0  0  0  0
    0.4329   -1.4308   -1.7953 C   0  0  0  0  0  0  0  0  0  0  0  0
    0.7499   -2.6270   -0.9105 C   0  0  0  0  0  0  0  0  0  0  0  0
    2.6660   -0.8234   -0.9178 H   0  0  0  0  0  0  0  0  0  0  0  0
    1.7341    0.0889   -2.8835 H   0  0  0  0  0  0  0  0  0  0  0  0
    0.3808    0.8733   -2.0362 H   0  0  0  0  0  0  0  0  0  0  0  0
   -0.5797   -1.3599   -1.3815 H   0  0  0  0  0  0  0  0  0  0  0  0
    0.3950   -2.0608   -2.6885 H   0  0  0  0  0  0  0  0  0  0  0  0
   -0.0575   -3.3641   -0.8933 H   0  0  0  0  0  0  0  0  0  0  0  0
    1.6766   -3.1193   -1.2248 H   0  0  0  0  0  0  0  0  0  0  0  0
    1.0922    1.8698   -0.1955 N   0  0  0  0  0  0  0  0  0  0  0  0
    0.2754    3.0573   -0.0878 C   0  0  2  0  0  0  0  0  0  0  0  0
   -0.9789    2.6958    0.6967 C   0  0  0  0  0  0  0  0  0  0  0  0
   -1.4026    1.5458    0.7916 O   0  0  0  0  0  0  0  0  0  0  0  0
   -0.0815    3.6096   -1.4591 C   0  0  0  0  0  0  0  0  0  0  0  0
    2.0376    1.8982    0.1743 H   0  0  0  0  0  0  0  0  0  0  0  0
    0.8597    3.7931    0.4753 H   0  0  0  0  0  0  0  0  0  0  0  0
   -0.6672    2.8863   -2.0381 H   0  0  0  0  0  0  0  0  0  0  0  0
   -0.6763    4.5252   -1.3755 H   0  0  0  0  0  0  0  0  0  0  0  0
    0.8221    3.8412   -2.0332 H   0  0  0  0  0  0  0  0  0  0  0  0
   -1.5935    3.8141    1.2426 N   0  0  0  0  0  0  0  0  0  0  0  0
   -2.8075    3.7345    2.0210 C   0  0  0  0  0  0  0  0  0  0  0  0
   -1.1619    4.7266    1.1295 H   0  0  0  0  0  0  0  0  0  0  0  0
   -3.6765    3.8731    1.3611 H   0  0  0  0  0  0  0  0  0  0  0  0
   -2.8685    2.7487    2.5052 H   0  0  0  0  0  0  0  0  0  0  0  0
   -2.8020    4.5211    2.7900 H   0  0  0  0  0  0  0  0  0  0  0  0
 18 19  1  0  0  0  0
 19 31  1  0  0  0  0
 19 20  2  0  0  0  0
  8  9  1  0  0  0  0
  9 17  1  0  0  0  0
  9 10  2  0  0  0  0
  1  3  1  0  0  0  0
  1  7  1  0  0  0  0
  1  2  2  0  0  0  0
 32 33  1  0  0  0  0
 33 41  1  0  0  0  0
 33 34  2  0  0  0  0
 21 22  1  0  0  0  0
 22 23  1  0  0  0  0
 18 21  1  0  0  0  0
 17 23  1  0  0  0  0
 17 18  1  0  0  0  0
  8 11  1  0  0  0  0
 32 35  1  0  0  0  0
 41 42  1  0  0  0  0
  7  8  1  0  0  0  0
 31 32  1  0  0  0  0
 22 27  1  0  0  0  0
 22 28  1  0  0  0  0
 21 25  1  0  0  0  0
 21 26  1  0  0  0  0
 23 29  1  0  0  0  0
 23 30  1  0  0  0  0
 18 24  1  0  0  0  0
  3  4  1  0  0  0  0
  3  5  1  0  0  0  0
  3  6  1  0  0  0  0
 11 14  1  0  0  0  0
 11 15  1  0  0  0  0
 11 16  1  0  0  0  0
 35 38  1  0  0  0  0
 35 39  1  0  0  0  0
 35 40  1  0  0  0  0
 42 44  1  0  0  0  0
 42 45  1  0  0  0  0
 42 46  1  0  0  0  0
  8 13  1  0  0  0  0
 32 37  1  0  0  0  0
 31 36  1  0  0  0  0
 41 43  1  0  0  0  0
  7 12  1  0  0  0  0
M  END
$$$$

  -OEChem-05262214473D

 46 46  0     1  0  0  0  0  0999 V2000
   -0.6012   -3.2995    3.8205 C   0  0  0  0  0  0  0  0  0  0  0  0
   -0.6574   -4.4683    3.4568 O   0  0  0  0  0  0  0  0  0  0  0  0
   -0.4935   -2.9859    5.2760 C   0  0  0  0  0  0  0  0  0  0  0  0
   -1.4789   -2.8689    5.7550 H   0  0  0  0  0  0  0  0  0  0  0  0
    0.0123   -3.7847    5.8419 H   0  0  0  0  0  0  0  0  0  0  0  0
    0.0585   -2.0642    5.5199 H   0  0  0  0  0  0  0  0  0  0  0  0
   -0.6261   -2.1849    2.9917 N   0  0  0  0  0  0  0  0  0  0  0  0
   -0.7237   -2.2601    1.5650 C   0  0  2  0  0  0  0  0  0  0  0  0
    0.1695   -1.1513    1.0687 C   0  0  0  0  0  0  0  0  0  0  0  0
    0.3193   -0.1267    1.7365 O   0  0  0  0  0  0  0  0  0  0  0  0
   -2.1397   -2.0663    1.0750 C   0  0  0  0  0  0  0  0  0  0  0  0
   -0.5717   -1.2606    3.4238 H   0  0  0  0  0  0  0  0  0  0  0  0
   -0.3076   -3.2111    1.2363 H   0  0  0  0  0  0  0  0  0  0  0  0
   -2.5584   -1.1089    1.4061 H   0  0  0  0  0  0  0  0  0  0  0  0
   -2.1682   -2.0790   -0.0197 H   0  0  0  0  0  0  0  0  0  0  0  0
   -2.7965   -2.8601    1.4459 H   0  0  0  0  0  0  0  0  0  0  0  0
    0.7724   -1.3745   -0.1593 N   0  0  0  0  0  0  0  0  0  0  0  0
    1.6644   -0.4046   -0.7812 C   0  0  2  0  0  0  0  0  0  0  0  0
    1.7547    0.7703    0.1454 C   0  0  0  0  0  0  0  0  0  0  0  0
    2.6225    0.7923    1.0103 O   0  0  0  0  0  0  0  0  0  0  0  0
    0.9832   -0.0385   -2.0947 C   0  0  0  0  0  0  0  0  0  0  0  0
    0.4329   -1.4308   -1.7953 C   0  0  0  0  0  0  0  0  0  0  0  0
    0.7499   -2.6270   -0.9105 C   0  0  0  0  0  0  0  0  0  0  0  0
    2.6660   -0.8234   -0.9178 H   0  0  0  0  0  0  0  0  0  0  0  0
    1.7341    0.0889   -2.8835 H   0  0  0  0  0  0  0  0  0  0  0  0
    0.3808    0.8733   -2.0362 H   0  0  0  0  0  0  0  0  0  0  0  0
   -0.5797   -1.3599   -1.3815 H   0  0  0  0  0  0  0  0  0  0  0  0
    0.3950   -2.0608   -2.6885 H   0  0  0  0  0  0  0  0  0  0  0  0
   -0.0575   -3.3641   -0.8933 H   0  0  0  0  0  0  0  0  0  0  0  0
    1.6766   -3.1193   -1.2248 H   0  0  0  0  0  0  0  0  0  0  0  0
    0.8710    1.7480   -0.0195 N   0  0  0  0  0  0  0  0  0  0  0  0
   -0.0842    2.7880    0.2887 C   0  0  2  0  0  0  0  0  0  0  0  0
   -1.0785    2.2293    1.2980 C   0  0  0  0  0  0  0  0  0  0  0  0
   -1.2863    1.0260    1.4394 O   0  0  0  0  0  0  0  0  0  0  0  0
   -0.7964    3.2741   -0.9640 C   0  0  0  0  0  0  0  0  0  0  0  0
    1.8553    1.9291    0.1529 H   0  0  0  0  0  0  0  0  0  0  0  0
    0.4787    3.6091    0.7459 H   0  0  0  0  0  0  0  0  0  0  0  0
   -1.3658    2.4652   -1.4359 H   0  0  0  0  0  0  0  0  0  0  0  0
   -1.4989    4.0816   -0.7329 H   0  0  0  0  0  0  0  0  0  0  0  0
   -0.0773    3.6482   -1.7007 H   0  0  0  0  0  0  0  0  0  0  0  0
   -1.7379    3.2340    1.9922 N   0  0  0  0  0  0  0  0  0  0  0  0
   -2.7392    2.9601    2.9963 C   0  0  0  0  0  0  0  0  0  0  0  0
   -1.4885    4.2042    1.8238 H   0  0  0  0  0  0  0  0  0  0  0  0
   -3.7354    2.9558    2.5300 H   0  0  0  0  0  0  0  0  0  0  0  0
   -2.5431    1.9778    3.4510 H   0  0  0  0  0  0  0  0  0  0  0  0
   -2.7015    3.7379    3.7733 H   0  0  0  0  0  0  0  0  0  0  0  0
 18 19  1  0  0  0  0
 19 31  1  0  0  0  0
 19 20  2  0  0  0  0
  8  9  1  0  0  0  0
  9 17  1  0  0  0  0
  9 10  2  0  0  0  0
  1  3  1  0  0  0  0
  1  7  1  0  0  0  0
  1  2  2  0  0  0  0
 32 33  1  0  0  0  0
 33 41  1  0  0  0  0
 33 34  2  0  0  0  0
 21 22  1  0  0  0  0
 22 23  1  0  0  0  0
 18 21  1  0  0  0  0
 17 23  1  0  0  0  0
 17 18  1  0  0  0  0
  8 11  1  0  0  0  0
 32 35  1  0  0  0  0
 41 42  1  0  0  0  0
  7  8  1  0  0  0  0
 31 32  1  0  0  0  0
 22 27  1  0  0  0  0
 22 28  1  0  0  0  0
 21 25  1  0  0  0  0
 21 26  1  0  0  0  0
 23 29  1  0  0  0  0
 23 30  1  0  0  0  0
 18 24  1  0  0  0  0
  3  4  1  0  0  0  0
  3  5  1  0  0  0  0
  3  6  1  0  0  0  0
 11 14  1  0  0  0  0
 11 15  1  0  0  0  0
 11 16  1  0  0  0  0
 35 38  1  0  0  0  0
 35 39  1  0  0  0  0
 35 40  1  0  0  0  0
 42 44  1  0  0  0  0
 42 45  1  0  0  0  0
 42 46  1  0  0  0  0
  8 13  1  0  0  0  0
 32 37  1  0  0  0  0
 31 36  1  0  0  0  0
 41 43  1  0  0  0  0
  7 12  1  0  0  0  0
M  END
$$$$

  -OEChem-05262214473D

 46 46  0     1  0  0  0  0  0999 V2000
   -0.6012   -3.2995    3.8205 C   0  0  0  0  0  0  0  0  0  0  0  0
   -0.6574   -4.4683    3.4568 O   0  0  0  0  0  0  0  0  0  0  0  0
   -0.4935   -2.9859    5.2760 C   0  0  0  0  0  0  0  0  0  0  0  0
   -1.4789   -2.8689    5.7550 H   0  0  0  0  0  0  0  0  0  0  0  0
    0.0123   -3.7847    5.8419 H   0  0  0  0  0  0  0  0  0  0  0  0
    0.0585   -2.0642    5.5199 H   0  0  0  0  0  0  0  0  0  0  0  0
   -0.6261   -2.1849    2.9917 N   0  0  0  0  0  0  0  0  0  0  0  0
   -0.7237   -2.2601    1.5650 C   0  0  2  0  0  0  0  0  0  0  0  0
    0.1695   -1.1513    1.0687 C   0  0  0  0  0  0  0  0  0  0  0  0
    0.3193   -0.1267    1.7365 O   0  0  0  0  0  0  0  0  0  0  0  0
   -2.1397   -2.0663    1.0750 C   0  0  0  0  0  0  0  0  0  0  0  0
   -0.5717   -1.2606    3.4238 H   0  0  0  0  0  0  0  0  0  0  0  0
   -0.3076   -3.2111    1.2363 H   0  0  0  0  0  0  0  0  0  0  0  0
   -2.5584   -1.1089    1.4061 H   0  0  0  0  0  0  0  0  0  0  0  0
   -2.1682   -2.0790   -0.0197 H   0  0  0  0  0  0  0  0  0  0  0  0
   -2.7965   -2.8601    1.4459 H   0  0  0  0  0  0  0  0  0  0  0  0
    0.7724   -1.3745   -0.1593 N   0  0  0  0  0  0  0  0  0  0  0  0
    1.6644   -0.4046   -0.7812 C   0  0  2  0  0  0  0  0  0  0  0  0
    1.7547    0.7703    0.1454 C   0  0  0  0  0  0  0  0  0  0  0  0
    2.7661    0.9331    0.8179 O   0  0  0  0  0  0  0  0  0  0  0  0
    0.9832   -0.0385   -2.0947 C   0  0  0  0  0  0  0  0  0  0  0  0
    0.4329   -1.4308   -1.7953 C   0  0  0  0  0  0  0  0  0  0  0  0
    0.7499   -2.6270   -0.9105 C   0  0  0  0  0  0  0  0  0  0  0  0
    2.6660   -0.8234   -0.9178 H   0  0  0  0  0  0  0  0  0  0  0  0
    1.7341    0.0889   -2.8835 H   0  0  0  0  0  0  0  0  0  0  0  0
    0.3808    0.8733   -2.0362 H   0  0  0  0  0  0  0  0  0  0  0  0
   -0.5797   -1.3599   -1.3815 H   0  0  0  0  0  0  0  0  0  0  0  0
    0.3950   -2.0608   -2.6885 H   0  0  0  0  0  0  0  0  0  0  0  0
   -0.0575   -3.3641   -0.8933 H   0  0  0  0  0  0  0  0  0  0  0  0
    1.6766   -3.1193   -1.2248 H   0  0  0  0  0  0  0  0  0  0  0  0
    0.7125    1.5922    0.1935 N   0  0  0  0  0  0  0  0  0  0  0  0
   -0.3120    2.4645    0.7212 C   0  0  2  0  0  0  0  0  0  0  0  0
   -0.9781    1.7533    1.8917 C   0  0  0  0  0  0  0  0  0  0  0  0
   -0.9594    0.5324    2.0334 O   0  0  0  0  0  0  0  0  0  0  0  0
   -1.3327    2.8280   -0.3459 C   0  0  0  0  0  0  0  0  0  0  0  0
    1.6699    1.9302    0.1696 H   0  0  0  0  0  0  0  0  0  0  0  0
    0.1951    3.3662    1.0816 H   0  0  0  0  0  0  0  0  0  0  0  0
   -1.8511    1.9372   -0.7192 H   0  0  0  0  0  0  0  0  0  0  0  0
   -2.0921    3.5116    0.0478 H   0  0  0  0  0  0  0  0  0  0  0  0
   -0.8477    3.3126   -1.2002 H   0  0  0  0  0  0  0  0  0  0  0  0
   -1.6325    2.6390    2.7364 N   0  0  0  0  0  0  0  0  0  0  0  0
   -2.3514    2.2078    3.9125 C   0  0  0  0  0  0  0  0  0  0  0  0
   -1.5796    3.6365    2.5525 H   0  0  0  0  0  0  0  0  0  0  0  0
   -3.4083    2.0422    3.6567 H   0  0  0  0  0  0  0  0  0  0  0  0
   -1.9136    1.2705    4.2866 H   0  0  0  0  0  0  0  0  0  0  0  0
   -2.2796    2.9821    4.6905 H   0  0  0  0  0  0  0  0  0  0  0  0
 18 19  1  0  0  0  0
 19 31  1  0  0  0  0
 19 20  2  0  0  0  0
  8  9  1  0  0  0  0
  9 17  1  0  0  0  0
  9 10  2  0  0  0  0
  1  3  1  0  0  0  0
  1  7  1  0  0  0  0
  1  2  2  0  0  0  0
 32 33  1  0  0  0  0
 33 41  1  0  0  0  0
 33 34  2  0  0  0  0
 21 22  1  0  0  0  0
 22 23  1  0  0  0  0
 18 21  1  0  0  0  0
 17 23  1  0  0  0  0
 17 18  1  0  0  0  0
  8 11  1  0  0  0  0
 32 35  1  0  0  0  0
 41 42  1  0  0  0  0
  7  8  1  0  0  0  0
 31 32  1  0  0  0  0
 22 27  1  0  0  0  0
 22 28  1  0  0  0  0
 21 25  1  0  0  0  0
 21 26  1  0  0  0  0
 23 29  1  0  0  0  0
 23 30  1  0  0  0  0
 18 24  1  0  0  0  0
  3  4  1  0  0  0  0
  3  5  1  0  0  0  0
  3  6  1  0  0  0  0
 11 14  1  0  0  0  0
 11 15  1  0  0  0  0
 11 16  1  0  0  0  0
 35 38  1  0  0  0  0
 35 39  1  0  0  0  0
 35 40  1  0  0  0  0
 42 44  1  0  0  0  0
 42 45  1  0  0  0  0
 42 46  1  0  0  0  0
  8 13  1  0  0  0  0
 32 37  1  0  0  0  0
 31 36  1  0  0  0  0
 41 43  1  0  0  0  0
  7 12  1  0  0  0  0
M  END
$$$$

  -OEChem-05262214473D

 46 46  0     1  0  0  0  0  0999 V2000
   -0.6012   -3.2995    3.8205 C   0  0  0  0  0  0  0  0  0  0  0  0
   -0.6574   -4.4683    3.4568 O   0  0  0  0  0  0  0  0  0  0  0  0
   -0.4935   -2.9859    5.2760 C   0  0  0  0  0  0  0  0  0  0  0  0
   -1.4789   -2.8689    5.7550 H   0  0  0  0  0  0  0  0  0  0  0  0
    0.0123   -3.7847    5.8419 H   0  0  0  0  0  0  0  0  0  0  0  0
    0.0585   -2.0642    5.5199 H   0  0  0  0  0  0  0  0  0  0  0  0
   -0.6261   -2.1849    2.9917 N   0  0  0  0  0  0  0  0  0  0  0  0
   -0.7237   -2.2601    1.5650 C   0  0  2  0  0  0  0  0  0  0  0  0
    0.1695   -1.1513    1.0687 C   0  0  0  0  0  0  0  0  0  0  0  0
    0.3193   -0.1267    1.7365 O   0  0  0  0  0  0  0  0  0  0  0  0
   -2.1397   -2.0663    1.0750 C   0  0  0  0  0  0  0  0  0  0  0  0
   -0.5717   -1.2606    3.4238 H   0  0  0  0  0  0  0  0  0  0  0  0
   -0.3076   -3.2111    1.2363 H   0  0  0  0  0  0  0  0  0  0  0  0
   -2.5584   -1.1089    1.4061 H   0  0  0  0  0  0  0  0  0  0  0  0
   -2.1682   -2.0790   -0.0197 H   0  0  0  0  0  0  0  0  0  0  0  0
   -2.7965   -2.8601    1.4459 H   0  0  0  0  0  0  0  0  0  0  0  0
    0.7724   -1.3745   -0.1593 N   0  0  0  0  0  0  0  0  0  0  0  0
    1.6644   -0.4046   -0.7812 C   0  0  2  0  0  0  0  0  0  0  0  0
    1.7547    0.7703    0.1454 C   0  0  0  0  0  0  0  0  0  0  0  0
    2.8433    1.0950    0.6051 O   0  0  0  0  0  0  0  0  0  0  0  0
    0.9832   -0.0385   -2.0947 C   0  0  0  0  0  0  0  0  0  0  0  0
    0.4329   -1.4308   -1.7953 C   0  0  0  0  0  0  0  0  0  0  0  0
    0.7499   -2.6270   -0.9105 C   0  0  0  0  0  0  0  0  0  0  0  0
    2.6660   -0.8234   -0.9178 H   0  0  0  0  0  0  0  0  0  0  0  0
    1.7341    0.0889   -2.8835 H   0  0  0  0  0  0  0  0  0  0  0  0
    0.3808    0.8733   -2.0362 H   0  0  0  0  0  0  0  0  0  0  0  0
   -0.5797   -1.3599   -1.3815 H   0  0  0  0  0  0  0  0  0  0  0  0
    0.3950   -2.0608   -2.6885 H   0  0  0  0  0  0  0  0  0  0  0  0
   -0.0575   -3.3641   -0.8933 H   0  0  0  0  0  0  0  0  0  0  0  0
    1.6766   -3.1193   -1.2248 H   0  0  0  0  0  0  0  0  0  0  0  0
    0.6276    1.4131    0.4290 N   0  0  0  0  0  0  0  0  0  0  0  0
   -0.3926    2.1088    1.1801 C   0  0  2  0  0  0  0  0  0  0  0  0
   -0.6845    1.3004    2.4374 C   0  0  0  0  0  0  0  0  0  0  0  0
   -0.4442    0.0987    2.5331 O   0  0  0  0  0  0  0  0  0  0  0  0
   -1.6541    2.3016    0.3529 C   0  0  0  0  0  0  0  0  0  0  0  0
    1.4941    1.9012    0.2235 H   0  0  0  0  0  0  0  0  0  0  0  0
    0.0280    3.0809    1.4596 H   0  0  0  0  0  0  0  0  0  0  0  0
   -2.0899    1.3384    0.0634 H   0  0  0  0  0  0  0  0  0  0  0  0
   -2.4156    2.8539    0.9134 H   0  0  0  0  0  0  0  0  0  0  0  0
   -1.4366    2.8575   -0.5656 H   0  0  0  0  0  0  0  0  0  0  0  0
   -1.2845    2.0694    3.4247 N   0  0  0  0  0  0  0  0  0  0  0  0
   -1.6707    1.5288    4.7071 C   0  0  0  0  0  0  0  0  0  0  0  0
   -1.4290    3.0623    3.2660 H   0  0  0  0  0  0  0  0  0  0  0  0
   -2.7177    1.1944    4.6644 H   0  0  0  0  0  0  0  0  0  0  0  0
   -1.0230    0.6749    4.9550 H   0  0  0  0  0  0  0  0  0  0  0  0
   -1.5651    2.3053    5.4791 H   0  0  0  0  0  0  0  0  0  0  0  0
 18 19  1  0  0  0  0
 19 31  1  0  0  0  0
 19 20  2  0  0  0  0
  8  9  1  0  0  0  0
  9 17  1  0  0  0  0
  9 10  2  0  0  0  0
  1  3  1  0  0  0  0
  1  7  1  0  0  0  0
  1  2  2  0  0  0  0
 32 33  1  0  0  0  0
 33 41  1  0  0  0  0
 33 34  2  0  0  0  0
 21 22  1  0  0  0  0
 22 23  1  0  0  0  0
 18 21  1  0  0  0  0
 17 23  1  0  0  0  0
 17 18  1  0  0  0  0
  8 11  1  0  0  0  0
 32 35  1  0  0  0  0
 41 42  1  0  0  0  0
  7  8  1  0  0  0  0
 31 32  1  0  0  0  0
 22 27  1  0  0  0  0
 22 28  1  0  0  0  0
 21 25  1  0  0  0  0
 21 26  1  0  0  0  0
 23 29  1  0  0  0  0
 23 30  1  0  0  0  0
 18 24  1  0  0  0  0
  3  4  1  0  0  0  0
  3  5  1  0  0  0  0
  3  6  1  0  0  0  0
 11 14  1  0  0  0  0
 11 15  1  0  0  0  0
 11 16  1  0  0  0  0
 35 38  1  0  0  0  0
 35 39  1  0  0  0  0
 35 40  1  0  0  0  0
 42 44  1  0  0  0  0
 42 45  1  0  0  0  0
 42 46  1  0  0  0  0
  8 13  1  0  0  0  0
 32 37  1  0  0  0  0
 31 36  1  0  0  0  0
 41 43  1  0  0  0  0
  7 12  1  0  0  0  0
M  END
$$$$

  -OEChem-05262214473D

 46 46  0     1  0  0  0  0  0999 V2000
   -0.6012   -3.2995    3.8205 C   0  0  0  0  0  0  0  0  0  0  0  0
   -0.6574   -4.4683    3.4568 O   0  0  0  0  0  0  0  0  0  0  0  0
   -0.4935   -2.9859    5.2760 C   0  0  0  0  0  0  0  0  0  0  0  0
   -1.4789   -2.8689    5.7550 H   0  0  0  0  0  0  0  0  0  0  0  0
    0.0123   -3.7847    5.8419 H   0  0  0  0  0  0  0  0  0  0  0  0
    0.0585   -2.0642    5.5199 H   0  0  0  0  0  0  0  0  0  0  0  0
   -0.6261   -2.1849    2.9917 N   0  0  0  0  0  0  0  0  0  0  0  0
   -0.7237   -2.2601    1.5650 C   0  0  2  0  0  0  0  0  0  0  0  0
    0.1695   -1.1513    1.0687 C   0  0  0  0  0  0  0  0  0  0  0  0
    0.3193   -0.1267    1.7365 O   0  0  0  0  0  0  0  0  0  0  0  0
   -2.1397   -2.0663    1.0750 C   0  0  0  0  0  0  0  0  0  0  0  0
   -0.5717   -1.2606    3.4238 H   0  0  0  0  0  0  0  0  0  0  0  0
   -0.3076   -3.2111    1.2363 H   0  0  0  0  0  0  0  0  0  0  0  0
   -2.5584   -1.1089    1.4061 H   0  0  0  0  0  0  0  0  0  0  0  0
   -2.1682   -2.0790   -0.0197 H   0  0  0  0  0  0  0  0  0  0  0  0
   -2.7965   -2.8601    1.4459 H   0  0  0  0  0  0  0  0  0  0  0  0
    0.7724   -1.3745   -0.1593 N   0  0  0  0  0  0  0  0  0  0  0  0
    1.6644   -0.4046   -0.7812 C   0  0  2  0  0  0  0  0  0  0  0  0
    1.7547    0.7703    0.1454 C   0  0  0  0  0  0  0  0  0  0  0  0
    2.8488    1.2670    0.3864 O   0  0  0  0  0  0  0  0  0  0  0  0
    0.9832   -0.0385   -2.0947 C   0  0  0  0  0  0  0  0  0  0  0  0
    0.4329   -1.4308   -1.7953 C   0  0  0  0  0  0  0  0  0  0  0  0
    0.7499   -2.6270   -0.9105 C   0  0  0  0  0  0  0  0  0  0  0  0
    2.6660   -0.8234   -0.9178 H   0  0  0  0  0  0  0  0  0  0  0  0
    1.7341    0.0889   -2.8835 H   0  0  0  0  0  0  0  0  0  0  0  0
    0.3808    0.8733   -2.0362 H   0  0  0  0  0  0  0  0  0  0  0  0
   -0.5797   -1.3599   -1.3815 H   0  0  0  0  0  0  0  0  0  0  0  0
    0.3950   -2.0608   -2.6885 H   0  0  0  0  0  0  0  0  0  0  0  0
   -0.0575   -3.3641   -0.8933 H   0  0  0  0  0  0  0  0  0  0  0  0
    1.6766   -3.1193   -1.2248 H   0  0  0  0  0  0  0  0  0  0  0  0
    0.6220    1.2227    0.6709 N   0  0  0  0  0  0  0  0  0  0  0  0
   -0.3205    1.7452    1.6342 C   0  0  2  0  0  0  0  0  0  0  0  0
   -0.2177    0.9014    2.8979 C   0  0  0  0  0  0  0  0  0  0  0  0
    0.2242   -0.2456    2.9045 O   0  0  0  0  0  0  0  0  0  0  0  0
   -1.7385    1.7309    1.0848 C   0  0  0  0  0  0  0  0  0  0  0  0
    1.3398    1.8443    0.3107 H   0  0  0  0  0  0  0  0  0  0  0  0
   -0.0110    2.7727    1.8542 H   0  0  0  0  0  0  0  0  0  0  0  0
   -2.0661    0.7097    0.8584 H   0  0  0  0  0  0  0  0  0  0  0  0
   -2.4472    2.1533    1.8048 H   0  0  0  0  0  0  0  0  0  0  0  0
   -1.8039    2.3137    0.1597 H   0  0  0  0  0  0  0  0  0  0  0  0
   -0.7177    1.5642    4.0100 N   0  0  0  0  0  0  0  0  0  0  0  0
   -0.7433    0.9695    5.3259 C   0  0  0  0  0  0  0  0  0  0  0  0
   -1.0468    2.5205    3.9157 H   0  0  0  0  0  0  0  0  0  0  0  0
   -1.7106    0.4702    5.4844 H   0  0  0  0  0  0  0  0  0  0  0  0
    0.0682    0.2317    5.4106 H   0  0  0  0  0  0  0  0  0  0  0  0
   -0.6067    1.7535    6.0853 H   0  0  0  0  0  0  0  0  0  0  0  0
 18 19  1  0  0  0  0
 19 31  1  0  0  0  0
 19 20  2  0  0  0  0
  8  9  1  0  0  0  0
  9 17  1  0  0  0  0
  9 10  2  0  0  0  0
  1  3  1  0  0  0  0
  1  7  1  0  0  0  0
  1  2  2  0  0  0  0
 32 33  1  0  0  0  0
 33 41  1  0  0  0  0
 33 34  2  0  0  0  0
 21 22  1  0  0  0  0
 22 23  1  0  0  0  0
 18 21  1  0  0  0  0
 17 23  1  0  0  0  0
 17 18  1  0  0  0  0
  8 11  1  0  0  0  0
 32 35  1  0  0  0  0
 41 42  1  0  0  0  0
  7  8  1  0  0  0  0
 31 32  1  0  0  0  0
 22 27  1  0  0  0  0
 22 28  1  0  0  0  0
 21 25  1  0  0  0  0
 21 26  1  0  0  0  0
 23 29  1  0  0  0  0
 23 30  1  0  0  0  0
 18 24  1  0  0  0  0
  3  4  1  0  0  0  0
  3  5  1  0  0  0  0
  3  6  1  0  0  0  0
 11 14  1  0  0  0  0
 11 15  1  0  0  0  0
 11 16  1  0  0  0  0
 35 38  1  0  0  0  0
 35 39  1  0  0  0  0
 35 40  1  0  0  0  0
 42 44  1  0  0  0  0
 42 45  1  0  0  0  0
 42 46  1  0  0  0  0
  8 13  1  0  0  0  0
 32 37  1  0  0  0  0
 31 36  1  0  0  0  0
 41 43  1  0  0  0  0
  7 12  1  0  0  0  0
M  END
$$$$

  -OEChem-05262214473D

 46 46  0     1  0  0  0  0  0999 V2000
   -0.6012   -3.2995    3.8205 C   0  0  0  0  0  0  0  0  0  0  0  0
   -0.6574   -4.4683    3.4568 O   0  0  0  0  0  0  0  0  0  0  0  0
   -0.4935   -2.9859    5.2760 C   0  0  0  0  0  0  0  0  0  0  0  0
   -1.4789   -2.8689    5.7550 H   0  0  0  0  0  0  0  0  0  0  0  0
    0.0123   -3.7847    5.8419 H   0  0  0  0  0  0  0  0  0  0  0  0
    0.0585   -2.0642    5.5199 H   0  0  0  0  0  0  0  0  0  0  0  0
   -0.6261   -2.1849    2.9917 N   0  0  0  0  0  0  0  0  0  0  0  0
   -0.7237   -2.2601    1.5650 C   0  0  2  0  0  0  0  0  0  0  0  0
    0.1695   -1.1513    1.0687 C   0  0  0  0  0  0  0  0  0  0  0  0
    0.3193   -0.1267    1.7365 O   0  0  0  0  0  0  0  0  0  0  0  0
   -2.1397   -2.0663    1.0750 C   0  0  0  0  0  0  0  0  0  0  0  0
   -0.5717   -1.2606    3.4238 H   0  0  0  0  0  0  0  0  0  0  0  0
   -0.3076   -3.2111    1.2363 H   0  0  0  0  0  0  0  0  0  0  0  0
   -2.5584   -1.1089    1.4061 H   0  0  0  0  0  0  0  0  0  0  0  0
   -2.1682   -2.0790   -0.0197 H   0  0  0  0  0  0  0  0  0  0  0  0
   -2.7965   -2.8601    1.4459 H   0  0  0  0  0  0  0  0  0  0  0  0
    0.7724   -1.3745   -0.1593 N   0  0  0  0  0  0  0  0  0  0  0  0
    1.6644   -0.4046   -0.7812 C   0  0  2  0  0  0  0  0  0  0  0  0
    1.7547    0.7703    0.1454 C   0  0  0  0  0  0  0  0  0  0  0  0
    2.7822    1.4375    0.1767 O   0  0  0  0  0  0  0  0  0  0  0  0
    0.9832   -0.0385   -2.0947 C   0  0  0  0  0  0  0  0  0  0  0  0
    0.4329   -1.4308   -1.7953 C   0  0  0  0  0  0  0  0  0  0  0  0
    0.7499   -2.6270   -0.9105 C   0  0  0  0  0  0  0  0  0  0  0  0
    2.6660   -0.8234   -0.9178 H   0  0  0  0  0  0  0  0  0  0  0  0
    1.7341    0.0889   -2.8835 H   0  0  0  0  0  0  0  0  0  0  0  0
    0.3808    0.8733   -2.0362 H   0  0  0  0  0  0  0  0  0  0  0  0
   -0.5797   -1.3599   -1.3815 H   0  0  0  0  0  0  0  0  0  0  0  0
    0.3950   -2.0608   -2.6885 H   0  0  0  0  0  0  0  0  0  0  0  0
   -0.0575   -3.3641   -0.8933 H   0  0  0  0  0  0  0  0  0  0  0  0
    1.6766   -3.1193   -1.2248 H   0  0  0  0  0  0  0  0  0  0  0  0
    0.6960    1.0342    0.9027 N   0  0  0  0  0  0  0  0  0  0  0  0
   -0.1005    1.3984    2.0525 C   0  0  2  0  0  0  0  0  0  0  0  0
    0.3903    0.5835    3.2418 C   0  0  0  0  0  0  0  0  0  0  0  0
    1.0003   -0.4771    3.1223 O   0  0  0  0  0  0  0  0  0  0  0  0
   -1.5802    1.1546    1.8001 C   0  0  0  0  0  0  0  0  0  0  0  0
    1.2175    1.7633    0.4253 H   0  0  0  0  0  0  0  0  0  0  0  0
    0.0807    2.4626    2.2385 H   0  0  0  0  0  0  0  0  0  0  0  0
   -1.7812    0.0937    1.6117 H   0  0  0  0  0  0  0  0  0  0  0  0
   -2.1848    1.4577    2.6613 H   0  0  0  0  0  0  0  0  0  0  0  0
   -1.9246    1.7184    0.9264 H   0  0  0  0  0  0  0  0  0  0  0  0
    0.0294    1.1578    4.4526 N   0  0  0  0  0  0  0  0  0  0  0  0
    0.3674    0.5679    5.7268 C   0  0  0  0  0  0  0  0  0  0  0  0
   -0.4593    2.0483    4.4572 H   0  0  0  0  0  0  0  0  0  0  0  0
   -0.4556   -0.0810    6.0610 H   0  0  0  0  0  0  0  0  0  0  0  0
    1.2855   -0.0289    5.6224 H   0  0  0  0  0  0  0  0  0  0  0  0
    0.5302    1.3644    6.4678 H   0  0  0  0  0  0  0  0  0  0  0  0
 18 19  1  0  0  0  0
 19 31  1  0  0  0  0
 19 20  2  0  0  0  0
  8  9  1  0  0  0  0
  9 17  1  0  0  0  0
  9 10  2  0  0  0  0
  1  3  1  0  0  0  0
  1  7  1  0  0  0  0
  1  2  2  0  0  0  0
 32 33  1  0  0  0  0
 33 41  1  0  0  0  0
 33 34  2  0  0  0  0
 21 22  1  0  0  0  0
 22 23  1  0  0  0  0
 18 21  1  0  0  0  0
 17 23  1  0  0  0  0
 17 18  1  0  0  0  0
  8 11  1  0  0  0  0
 32 35  1  0  0  0  0
 41 42  1  0  0  0  0
  7  8  1  0  0  0  0
 31 32  1  0  0  0  0
 22 27  1  0  0  0  0
 22 28  1  0  0  0  0
 21 25  1  0  0  0  0
 21 26  1  0  0  0  0
 23 29  1  0  0  0  0
 23 30  1  0  0  0  0
 18 24  1  0  0  0  0
  3  4  1  0  0  0  0
  3  5  1  0  0  0  0
  3  6  1  0  0  0  0
 11 14  1  0  0  0  0
 11 15  1  0  0  0  0
 11 16  1  0  0  0  0
 35 38  1  0  0  0  0
 35 39  1  0  0  0  0
 35 40  1  0  0  0  0
 42 44  1  0  0  0  0
 42 45  1  0  0  0  0
 42 46  1  0  0  0  0
  8 13  1  0  0  0  0
 32 37  1  0  0  0  0
 31 36  1  0  0  0  0
 41 43  1  0  0  0  0
  7 12  1  0  0  0  0
M  END
$$$$

  -OEChem-05262214473D

 46 46  0     1  0  0  0  0  0999 V2000
   -0.6012   -3.2995    3.8205 C   0  0  0  0  0  0  0  0  0  0  0  0
   -0.6574   -4.4683    3.4568 O   0  0  0  0  0  0  0  0  0  0  0  0
   -0.4935   -2.9859    5.2760 C   0  0  0  0  0  0  0  0  0  0  0  0
   -1.4789   -2.8689    5.7550 H   0  0  0  0  0  0  0  0  0  0  0  0
    0.0123   -3.7847    5.8419 H   0  0  0  0  0  0  0  0  0  0  0  0
    0.0585   -2.0642    5.5199 H   0  0  0  0  0  0  0  0  0  0  0  0
   -0.6261   -2.1849    2.9917 N   0  0  0  0  0  0  0  0  0  0  0  0
   -0.7237   -2.2601    1.5650 C   0  0  2  0  0  0  0  0  0  0  0  0
    0.1695   -1.1513    1.0687 C   0  0  0  0  0  0  0  0  0  0  0  0
    0.3193   -0.1267    1.7365 O   0  0  0  0  0  0  0  0  0  0  0  0
   -2.1397   -2.0663    1.0750 C   0  0  0  0  0  0  0  0  0  0  0  0
   -0.5717   -1.2606    3.4238 H   0  0  0  0  0  0  0  0  0  0  0  0
   -0.3076   -3.2111    1.2363 H   0  0  0  0  0  0  0  0  0  0  0  0
   -2.5584   -1.1089    1.4061 H   0  0  0  0  0  0  0  0  0  0  0  0
   -2.1682   -2.0790   -0.0197 H   0  0  0  0  0  0  0  0  0  0  0  0
   -2.7965   -2.8601    1.4459 H   0  0  0  0  0  0  0  0  0  0  0  0
    0.7724   -1.3745   -0.1593 N   0  0  0  0  0  0  0  0  0  0  0  0
    1.6644   -0.4046   -0.7812 C   0  0  2  0  0  0  0  0  0  0  0  0
    1.7547    0.7703    0.1454 C   0  0  0  0  0  0  0  0  0  0  0  0
    2.6480    1.5948   -0.0097 O   0  0  0  0  0  0  0  0  0  0  0  0
    0.9832   -0.0385   -2.0947 C   0  0  0  0  0  0  0  0  0  0  0  0
    0.4329   -1.4308   -1.7953 C   0  0  0  0  0  0  0  0  0  0  0  0
    0.7499   -2.6270   -0.9105 C   0  0  0  0  0  0  0  0  0  0  0  0
    2.6660   -0.8234   -0.9178 H   0  0  0  0  0  0  0  0  0  0  0  0
    1.7341    0.0889   -2.8835 H   0  0  0  0  0  0  0  0  0  0  0  0
    0.3808    0.8733   -2.0362 H   0  0  0  0  0  0  0  0  0  0  0  0
   -0.5797   -1.3599   -1.3815 H   0  0  0  0  0  0  0  0  0  0  0  0
    0.3950   -2.0608   -2.6885 H   0  0  0  0  0  0  0  0  0  0  0  0
   -0.0575   -3.3641   -0.8933 H   0  0  0  0  0  0  0  0  0  0  0  0
    1.6766   -3.1193   -1.2248 H   0  0  0  0  0  0  0  0  0  0  0  0
    0.8448    0.8604    1.1086 N   0  0  0  0  0  0  0  0  0  0  0  0
    0.2523    1.0921    2.4065 C   0  0  2  0  0  0  0  0  0  0  0  0
    1.0983    0.3683    3.4456 C   0  0  0  0  0  0  0  0  0  0  0  0
    1.8312   -0.5799    3.1717 O   0  0  0  0  0  0  0  0  0  0  0  0
   -1.1901    0.6122    2.4499 C   0  0  0  0  0  0  0  0  0  0  0  0
    1.1356    1.6637    0.5596 H   0  0  0  0  0  0  0  0  0  0  0  0
    0.2968    2.1718    2.5862 H   0  0  0  0  0  0  0  0  0  0  0  0
   -1.2547   -0.4674    2.2719 H   0  0  0  0  0  0  0  0  0  0  0  0
   -1.6463    0.8144    3.4246 H   0  0  0  0  0  0  0  0  0  0  0  0
   -1.7904    1.1121    1.6821 H   0  0  0  0  0  0  0  0  0  0  0  0
    0.9058    0.8778    4.7221 N   0  0  0  0  0  0  0  0  0  0  0  0
    1.5859    0.3515    5.8825 C   0  0  0  0  0  0  0  0  0  0  0  0
    0.2937    1.6776    4.8538 H   0  0  0  0  0  0  0  0  0  0  0  0
    0.9618   -0.4215    6.3546 H   0  0  0  0  0  0  0  0  0  0  0  0
    2.5460   -0.0893    5.5760 H   0  0  0  0  0  0  0  0  0  0  0  0
    1.7683    1.1645    6.6006 H   0  0  0  0  0  0  0  0  0  0  0  0
 18 19  1  0  0  0  0
 19 31  1  0  0  0  0
 19 20  2  0  0  0  0
  8  9  1  0  0  0  0
  9 17  1  0  0  0  0
  9 10  2  0  0  0  0
  1  3  1  0  0  0  0
  1  7  1  0  0  0  0
  1  2  2  0  0  0  0
 32 33  1  0  0  0  0
 33 41  1  0  0  0  0
 33 34  2  0  0  0  0
 21 22  1  0  0  0  0
 22 23  1  0  0  0  0
 18 21  1  0  0  0  0
 17 23  1  0  0  0  0
 17 18  1  0  0  0  0
  8 11  1  0  0  0  0
 32 35  1  0  0  0  0
 41 42  1  0  0  0  0
  7  8  1  0  0  0  0
 31 32  1  0  0  0  0
 22 27  1  0  0  0  0
 22 28  1  0  0  0  0
 21 25  1  0  0  0  0
 21 26  1  0  0  0  0
 23 29  1  0  0  0  0
 23 30  1  0  0  0  0
 18 24  1  0  0  0  0
  3  4  1  0  0  0  0
  3  5  1  0  0  0  0
  3  6  1  0  0  0  0
 11 14  1  0  0  0  0
 11 15  1  0  0  0  0
 11 16  1  0  0  0  0
 35 38  1  0  0  0  0
 35 39  1  0  0  0  0
 35 40  1  0  0  0  0
 42 44  1  0  0  0  0
 42 45  1  0  0  0  0
 42 46  1  0  0  0  0
  8 13  1  0  0  0  0
 32 37  1  0  0  0  0
 31 36  1  0  0  0  0
 41 43  1  0  0  0  0
  7 12  1  0  0  0  0
M  END
$$$$

  -OEChem-05262214473D

 46 46  0     1  0  0  0  0  0999 V2000
   -0.6012   -3.2995    3.8205 C   0  0  0  0  0  0  0  0  0  0  0  0
   -0.6574   -4.4683    3.4568 O   0  0  0  0  0  0  0  0  0  0  0  0
   -0.4935   -2.9859    5.2760 C   0  0  0  0  0  0  0  0  0  0  0  0
   -1.4789   -2.8689    5.7550 H   0  0  0  0  0  0  0  0  0  0  0  0
    0.0123   -3.7847    5.8419 H   0  0  0  0  0  0  0  0  0  0  0  0
    0.0585   -2.0642    5.5199 H   0  0  0  0  0  0  0  0  0  0  0  0
   -0.6261   -2.1849    2.9917 N   0  0  0  0  0  0  0  0  0  0  0  0
   -0.7237   -2.2601    1.5650 C   0  0  2  0  0  0  0  0  0  0  0  0
    0.1695   -1.1513    1.0687 C   0  0  0  0  0  0  0  0  0  0  0  0
    0.3193   -0.1267    1.7365 O   0  0  0  0  0  0  0  0  0  0  0  0
   -2.1397   -2.0663    1.0750 C   0  0  0  0  0  0  0  0  0  0  0  0
   -0.5717   -1.2606    3.4238 H   0  0  0  0  0  0  0  0  0  0  0  0
   -0.3076   -3.2111    1.2363 H   0  0  0  0  0  0  0  0  0  0  0  0
   -2.5584   -1.1089    1.4061 H   0  0  0  0  0  0  0  0  0  0  0  0
   -2.1682   -2.0790   -0.0197 H   0  0  0  0  0  0  0  0  0  0  0  0
   -2.7965   -2.8601    1.4459 H   0  0  0  0  0  0  0  0  0  0  0  0
    0.7724   -1.3745   -0.1593 N   0  0  0  0  0  0  0  0  0  0  0  0
    1.6644   -0.4046   -0.7812 C   0  0  2  0  0  0  0  0  0  0  0  0
    1.7547    0.7703    0.1454 C   0  0  0  0  0  0  0  0  0  0  0  0
    2.4555    1.7281   -0.1600 O   0  0  0  0  0  0  0  0  0  0  0  0
    0.9832   -0.0385   -2.0947 C   0  0  0  0  0  0  0  0  0  0  0  0
    0.4329   -1.4308   -1.7953 C   0  0  0  0  0  0  0  0  0  0  0  0
    0.7499   -2.6270   -0.9105 C   0  0  0  0  0  0  0  0  0  0  0  0
    2.6660   -0.8234   -0.9178 H   0  0  0  0  0  0  0  0  0  0  0  0
    1.7341    0.0889   -2.8835 H   0  0  0  0  0  0  0  0  0  0  0  0
    0.3808    0.8733   -2.0362 H   0  0  0  0  0  0  0  0  0  0  0  0
   -0.5797   -1.3599   -1.3815 H   0  0  0  0  0  0  0  0  0  0  0  0
    0.3950   -2.0608   -2.6885 H   0  0  0  0  0  0  0  0  0  0  0  0
   -0.0575   -3.3641   -0.8933 H   0  0  0  0  0  0  0  0  0  0  0  0
    1.6766   -3.1193   -1.2248 H   0  0  0  0  0  0  0  0  0  0  0  0
    1.0580    0.7130    1.2747 N   0  0  0  0  0  0  0  0  0  0  0  0
    0.7139    0.8471    2.6720 C   0  0  2  0  0  0  0  0  0  0  0  0
    1.8579    0.2705    3.4956 C   0  0  0  0  0  0  0  0  0  0  0  0
    2.6601   -0.5470    3.0492 O   0  0  0  0  0  0  0  0  0  0  0  0
   -0.5947    0.1405    2.9899 C   0  0  0  0  0  0  0  0  0  0  0  0
    1.0997    1.5523    0.7044 H   0  0  0  0  0  0  0  0  0  0  0  0
    0.6226    1.9200    2.8737 H   0  0  0  0  0  0  0  0  0  0  0  0
   -0.5224   -0.9355    2.7940 H   0  0  0  0  0  0  0  0  0  0  0  0
   -0.8685    0.2672    4.0425 H   0  0  0  0  0  0  0  0  0  0  0  0
   -1.4105    0.5362    2.3754 H   0  0  0  0  0  0  0  0  0  0  0  0
    1.8519    0.7434    4.8003 N   0  0  0  0  0  0  0  0  0  0  0  0
    2.8291    0.3349    5.7822 C   0  0  0  0  0  0  0  0  0  0  0  0
    1.1607    1.4339    5.0783 H   0  0  0  0  0  0  0  0  0  0  0  0
    2.4450   -0.5284    6.3455 H   0  0  0  0  0  0  0  0  0  0  0  0
    3.7639    0.0548    5.2745 H   0  0  0  0  0  0  0  0  0  0  0  0
    3.0231    1.1674    6.4746 H   0  0  0  0  0  0  0  0  0  0  0  0
 18 19  1  0  0  0  0
 19 31  1  0  0  0  0
 19 20  2  0  0  0  0
  8  9  1  0  0  0  0
  9 17  1  0  0  0  0
  9 10  2  0  0  0  0
  1  3  1  0  0  0  0
  1  7  1  0  0  0  0
  1  2  2  0  0  0  0
 32 33  1  0  0  0  0
 33 41  1  0  0  0  0
 33 34  2  0  0  0  0
 21 22  1  0  0  0  0
 22 23  1  0  0  0  0
 18 21  1  0  0  0  0
 17 23  1  0  0  0  0
 17 18  1  0  0  0  0
  8 11  1  0  0  0  0
 32 35  1  0  0  0  0
 41 42  1  0  0  0  0
  7  8  1  0  0  0  0
 31 32  1  0  0  0  0
 22 27  1  0  0  0  0
 22 28  1  0  0  0  0
 21 25  1  0  0  0  0
 21 26  1  0  0  0  0
 23 29  1  0  0  0  0
 23 30  1  0  0  0  0
 18 24  1  0  0  0  0
  3  4  1  0  0  0  0
  3  5  1  0  0  0  0
  3  6  1  0  0  0  0
 11 14  1  0  0  0  0
 11 15  1  0  0  0  0
 11 16  1  0  0  0  0
 35 38  1  0  0  0  0
 35 39  1  0  0  0  0
 35 40  1  0  0  0  0
 42 44  1  0  0  0  0
 42 45  1  0  0  0  0
 42 46  1  0  0  0  0
  8 13  1  0  0  0  0
 32 37  1  0  0  0  0
 31 36  1  0  0  0  0
 41 43  1  0  0  0  0
  7 12  1  0  0  0  0
M  END
$$$$

  -OEChem-05262214473D

 46 46  0     1  0  0  0  0  0999 V2000
   -0.6012   -3.2995    3.8205 C   0  0  0  0  0  0  0  0  0  0  0  0
   -0.6574   -4.4683    3.4568 O   0  0  0  0  0  0  0  0  0  0  0  0
   -0.4935   -2.9859    5.2760 C   0  0  0  0  0  0  0  0  0  0  0  0
   -1.4789   -2.8689    5.7550 H   0  0  0  0  0  0  0  0  0  0  0  0
    0.0123   -3.7847    5.8419 H   0  0  0  0  0  0  0  0  0  0  0  0
    0.0585   -2.0642    5.5199 H   0  0  0  0  0  0  0  0  0  0  0  0
   -0.6261   -2.1849    2.9917 N   0  0  0  0  0  0  0  0  0  0  0  0
   -0.7237   -2.2601    1.5650 C   0  0  2  0  0  0  0  0  0  0  0  0
    0.1695   -1.1513    1.0687 C   0  0  0  0  0  0  0  0  0  0  0  0
    0.3193   -0.1267    1.7365 O   0  0  0  0  0  0  0  0  0  0  0  0
   -2.1397   -2.0663    1.0750 C   0  0  0  0  0  0  0  0  0  0  0  0
   -0.5717   -1.2606    3.4238 H   0  0  0  0  0  0  0  0  0  0  0  0
   -0.3076   -3.2111    1.2363 H   0  0  0  0  0  0  0  0  0  0  0  0
   -2.5584   -1.1089    1.4061 H   0  0  0  0  0  0  0  0  0  0  0  0
   -2.1682   -2.0790   -0.0197 H   0  0  0  0  0  0  0  0  0  0  0  0
   -2.7965   -2.8601    1.4459 H   0  0  0  0  0  0  0  0  0  0  0  0
    0.7724   -1.3745   -0.1593 N   0  0  0  0  0  0  0  0  0  0  0  0
    1.6644   -0.4046   -0.7812 C   0  0  2  0  0  0  0  0  0  0  0  0
    1.7547    0.7703    0.1454 C   0  0  0  0  0  0  0  0  0  0  0  0
    2.2177    1.8285   -0.2641 O   0  0  0  0  0  0  0  0  0  0  0  0
    0.9832   -0.0385   -2.0947 C   0  0  0  0  0  0  0  0  0  0  0  0
    0.4329   -1.4308   -1.7953 C   0  0  0  0  0  0  0  0  0  0  0  0
    0.7499   -2.6270   -0.9105 C   0  0  0  0  0  0  0  0  0  0  0  0
    2.6660   -0.8234   -0.9178 H   0  0  0  0  0  0  0  0  0  0  0  0
    1.7341    0.0889   -2.8835 H   0  0  0  0  0  0  0  0  0  0  0  0
    0.3808    0.8733   -2.0362 H   0  0  0  0  0  0  0  0  0  0  0  0
   -0.5797   -1.3599   -1.3815 H   0  0  0  0  0  0  0  0  0  0  0  0
    0.3950   -2.0608   -2.6885 H   0  0  0  0  0  0  0  0  0  0  0  0
   -0.0575   -3.3641   -0.8933 H   0  0  0  0  0  0  0  0  0  0  0  0
    1.6766   -3.1193   -1.2248 H   0  0  0  0  0  0  0  0  0  0  0  0
    1.3213    0.6022    1.3895 N   0  0  0  0  0  0  0  0  0  0  0  0
    1.2528    0.6802    2.8311 C   0  0  2  0  0  0  0  0  0  0  0  0
    2.6175    0.2968    3.3882 C   0  0  0  0  0  0  0  0  0  0  0  0
    3.4308   -0.3808    2.7633 O   0  0  0  0  0  0  0  0  0  0  0  0
    0.1655   -0.2282    3.3834 C   0  0  0  0  0  0  0  0  0  0  0  0
    1.1122    1.4367    0.8497 H   0  0  0  0  0  0  0  0  0  0  0  0
    1.0359    1.7244    3.0814 H   0  0  0  0  0  0  0  0  0  0  0  0
    0.3657   -1.2786    3.1425 H   0  0  0  0  0  0  0  0  0  0  0  0
    0.0958   -0.1465    4.4731 H   0  0  0  0  0  0  0  0  0  0  0  0
   -0.8108    0.0298    2.9590 H   0  0  0  0  0  0  0  0  0  0  0  0
    2.8030    0.7637    4.6819 N   0  0  0  0  0  0  0  0  0  0  0  0
    4.0122    0.5194    5.4330 C   0  0  0  0  0  0  0  0  0  0  0  0
    2.0827    1.3337    5.1155 H   0  0  0  0  0  0  0  0  0  0  0  0
    3.8928   -0.3941    6.0341 H   0  0  0  0  0  0  0  0  0  0  0  0
    4.8560    0.3935    4.7385 H   0  0  0  0  0  0  0  0  0  0  0  0
    4.2091    1.3728    6.0984 H   0  0  0  0  0  0  0  0  0  0  0  0
 18 19  1  0  0  0  0
 19 31  1  0  0  0  0
 19 20  2  0  0  0  0
  8  9  1  0  0  0  0
  9 17  1  0  0  0  0
  9 10  2  0  0  0  0
  1  3  1  0  0  0  0
  1  7  1  0  0  0  0
  1  2  2  0  0  0  0
 32 33  1  0  0  0  0
 33 41  1  0  0  0  0
 33 34  2  0  0  0  0
 21 22  1  0  0  0  0
 22 23  1  0  0  0  0
 18 21  1  0  0  0  0
 17 23  1  0  0  0  0
 17 18  1  0  0  0  0
  8 11  1  0  0  0  0
 32 35  1  0  0  0  0
 41 42  1  0  0  0  0
  7  8  1  0  0  0  0
 31 32  1  0  0  0  0
 22 27  1  0  0  0  0
 22 28  1  0  0  0  0
 21 25  1  0  0  0  0
 21 26  1  0  0  0  0
 23 29  1  0  0  0  0
 23 30  1  0  0  0  0
 18 24  1  0  0  0  0
  3  4  1  0  0  0  0
  3  5  1  0  0  0  0
  3  6  1  0  0  0  0
 11 14  1  0  0  0  0
 11 15  1  0  0  0  0
 11 16  1  0  0  0  0
 35 38  1  0  0  0  0
 35 39  1  0  0  0  0
 35 40  1  0  0  0  0
 42 44  1  0  0  0  0
 42 45  1  0  0  0  0
 42 46  1  0  0  0  0
  8 13  1  0  0  0  0
 32 37  1  0  0  0  0
 31 36  1  0  0  0  0
 41 43  1  0  0  0  0
  7 12  1  0  0  0  0
M  END
$$$$

  -OEChem-05262214473D

 46 46  0     1  0  0  0  0  0999 V2000
   -0.6012   -3.2995    3.8205 C   0  0  0  0  0  0  0  0  0  0  0  0
   -0.6574   -4.4683    3.4568 O   0  0  0  0  0  0  0  0  0  0  0  0
   -0.4935   -2.9859    5.2760 C   0  0  0  0  0  0  0  0  0  0  0  0
   -1.4789   -2.8689    5.7550 H   0  0  0  0  0  0  0  0  0  0  0  0
    0.0123   -3.7847    5.8419 H   0  0  0  0  0  0  0  0  0  0  0  0
    0.0585   -2.0642    5.5199 H   0  0  0  0  0  0  0  0  0  0  0  0
   -0.6261   -2.1849    2.9917 N   0  0  0  0  0  0  0  0  0  0  0  0
   -0.7237   -2.2601    1.5650 C   0  0  2  0  0  0  0  0  0  0  0  0
    0.1695   -1.1513    1.0687 C   0  0  0  0  0  0  0  0  0  0  0  0
    0.3193   -0.1267    1.7365 O   0  0  0  0  0  0  0  0  0  0  0  0
   -2.1397   -2.0663    1.0750 C   0  0  0  0  0  0  0  0  0  0  0  0
   -0.5717   -1.2606    3.4238 H   0  0  0  0  0  0  0  0  0  0  0  0
   -0.3076   -3.2111    1.2363 H   0  0  0  0  0  0  0  0  0  0  0  0
   -2.5584   -1.1089    1.4061 H   0  0  0  0  0  0  0  0  0  0  0  0
   -2.1682   -2.0790   -0.0197 H   0  0  0  0  0  0  0  0  0  0  0  0
   -2.7965   -2.8601    1.4459 H   0  0  0  0  0  0  0  0  0  0  0  0
    0.7724   -1.3745   -0.1593 N   0  0  0  0  0  0  0  0  0  0  0  0
    1.6644   -0.4046   -0.7812 C   0  0  2  0  0  0  0  0  0  0  0  0
    1.7547    0.7703    0.1454 C   0  0  0  0  0  0  0  0  0  0  0  0
    1.9508    1.8890   -0.3148 O   0  0  0  0  0  0  0  0  0  0  0  0
    0.9832   -0.0385   -2.0947 C   0  0  0  0  0  0  0  0  0  0  0  0
    0.4329   -1.4308   -1.7953 C   0  0  0  0  0  0  0  0  0  0  0  0
    0.7499   -2.6270   -0.9105 C   0  0  0  0  0  0  0  0  0  0  0  0
    2.6660   -0.8234   -0.9178 H   0  0  0  0  0  0  0  0  0  0  0  0
    1.7341    0.0889   -2.8835 H   0  0  0  0  0  0  0  0  0  0  0  0
    0.3808    0.8733   -2.0362 H   0  0  0  0  0  0  0  0  0  0  0  0
   -0.5797   -1.3599   -1.3815 H   0  0  0  0  0  0  0  0  0  0  0  0
    0.3950   -2.0608   -2.6885 H   0  0  0  0  0  0  0  0  0  0  0  0
   -0.0575   -3.3641   -0.8933 H   0  0  0  0  0  0  0  0  0  0  0  0
    1.6766   -3.1193   -1.2248 H   0  0  0  0  0  0  0  0  0  0  0  0
    1.6166    0.5355    1.4453 N   0  0  0  0  0  0  0  0  0  0  0  0
    1.8324    0.6028    2.8729 C   0  0  2  0  0  0  0  0  0  0  0  0
    3.3251    0.4453    3.1308 C   0  0  0  0  0  0  0  0  0  0  0  0
    4.0906   -0.0924    2.3333 O   0  0  0  0  0  0  0  0  0  0  0  0
    1.0385   -0.4690    3.6035 C   0  0  0  0  0  0  0  0  0  0  0  0
    1.1723    1.3248    0.9858 H   0  0  0  0  0  0  0  0  0  0  0  0
    1.5085    1.5984    3.1951 H   0  0  0  0  0  0  0  0  0  0  0  0
    1.3491   -1.4734    3.2937 H   0  0  0  0  0  0  0  0  0  0  0  0
    1.1807   -0.3986    4.6870 H   0  0  0  0  0  0  0  0  0  0  0  0
   -0.0321   -0.3724    3.3931 H   0  0  0  0  0  0  0  0  0  0  0  0
    3.6945    0.9373    4.3748 N   0  0  0  0  0  0  0  0  0  0  0  0
    5.0547    0.8922    4.8585 C   0  0  0  0  0  0  0  0  0  0  0  0
    2.9969    1.3838    4.9628 H   0  0  0  0  0  0  0  0  0  0  0  0
    5.2067   -0.0280    5.4417 H   0  0  0  0  0  0  0  0  0  0  0  0
    5.7479    0.9038    4.0046 H   0  0  0  0  0  0  0  0  0  0  0  0
    5.2456    1.7669    5.4976 H   0  0  0  0  0  0  0  0  0  0  0  0
 18 19  1  0  0  0  0
 19 31  1  0  0  0  0
 19 20  2  0  0  0  0
  8  9  1  0  0  0  0
  9 17  1  0  0  0  0
  9 10  2  0  0  0  0
  1  3  1  0  0  0  0
  1  7  1  0  0  0  0
  1  2  2  0  0  0  0
 32 33  1  0  0  0  0
 33 41  1  0  0  0  0
 33 34  2  0  0  0  0
 21 22  1  0  0  0  0
 22 23  1  0  0  0  0
 18 21  1  0  0  0  0
 17 23  1  0  0  0  0
 17 18  1  0  0  0  0
  8 11  1  0  0  0  0
 32 35  1  0  0  0  0
 41 42  1  0  0  0  0
  7  8  1  0  0  0  0
 31 32  1  0  0  0  0
 22 27  1  0  0  0  0
 22 28  1  0  0  0  0
 21 25  1  0  0  0  0
 21 26  1  0  0  0  0
 23 29  1  0  0  0  0
 23 30  1  0  0  0  0
 18 24  1  0  0  0  0
  3  4  1  0  0  0  0
  3  5  1  0  0  0  0
  3  6  1  0  0  0  0
 11 14  1  0  0  0  0
 11 15  1  0  0  0  0
 11 16  1  0  0  0  0
 35 38  1  0  0  0  0
 35 39  1  0  0  0  0
 35 40  1  0  0  0  0
 42 44  1  0  0  0  0
 42 45  1  0  0  0  0
 42 46  1  0  0  0  0
  8 13  1  0  0  0  0
 32 37  1  0  0  0  0
 31 36  1  0  0  0  0
 41 43  1  0  0  0  0
  7 12  1  0  0  0  0
M  END
$$$$

  -OEChem-05262214473D

 46 46  0     1  0  0  0  0  0999 V2000
   -0.6012   -3.2995    3.8205 C   0  0  0  0  0  0  0  0  0  0  0  0
   -0.6574   -4.4683    3.4568 O   0  0  0  0  0  0  0  0  0  0  0  0
   -0.4935   -2.9859    5.2760 C   0  0  0  0  0  0  0  0  0  0  0  0
   -1.4789   -2.8689    5.7550 H   0  0  0  0  0  0  0  0  0  0  0  0
    0.0123   -3.7847    5.8419 H   0  0  0  0  0  0  0  0  0  0  0  0
    0.0585   -2.0642    5.5199 H   0  0  0  0  0  0  0  0  0  0  0  0
   -0.6261   -2.1849    2.9917 N   0  0  0  0  0  0  0  0  0  0  0  0
   -0.7237   -2.2601    1.5650 C   0  0  2  0  0  0  0  0  0  0  0  0
    0.1695   -1.1513    1.0687 C   0  0  0  0  0  0  0  0  0  0  0  0
    0.3193   -0.1267    1.7365 O   0  0  0  0  0  0  0  0  0  0  0  0
   -2.1397   -2.0663    1.0750 C   0  0  0  0  0  0  0  0  0  0  0  0
   -0.5717   -1.2606    3.4238 H   0  0  0  0  0  0  0  0  0  0  0  0
   -0.3076   -3.2111    1.2363 H   0  0  0  0  0  0  0  0  0  0  0  0
   -2.5584   -1.1089    1.4061 H   0  0  0  0  0  0  0  0  0  0  0  0
   -2.1682   -2.0790   -0.0197 H   0  0  0  0  0  0  0  0  0  0  0  0
   -2.7965   -2.8601    1.4459 H   0  0  0  0  0  0  0  0  0  0  0  0
    0.7724   -1.3745   -0.1593 N   0  0  0  0  0  0  0  0  0  0  0  0
    1.6644   -0.4046   -0.7812 C   0  0  2  0  0  0  0  0  0  0  0  0
    1.7547    0.7703    0.1454 C   0  0  0  0  0  0  0  0  0  0  0  0
    1.6730    1.9056   -0.3087 O   0  0  0  0  0  0  0  0  0  0  0  0
    0.9832   -0.0385   -2.0947 C   0  0  0  0  0  0  0  0  0  0  0  0
    0.4329   -1.4308   -1.7953 C   0  0  0  0  0  0  0  0  0  0  0  0
    0.7499   -2.6270   -0.9105 C   0  0  0  0  0  0  0  0  0  0  0  0
    2.6660   -0.8234   -0.9178 H   0  0  0  0  0  0  0  0  0  0  0  0
    1.7341    0.0889   -2.8835 H   0  0  0  0  0  0  0  0  0  0  0  0
    0.3808    0.8733   -2.0362 H   0  0  0  0  0  0  0  0  0  0  0  0
   -0.5797   -1.3599   -1.3815 H   0  0  0  0  0  0  0  0  0  0  0  0
    0.3950   -2.0608   -2.6885 H   0  0  0  0  0  0  0  0  0  0  0  0
   -0.0575   -3.3641   -0.8933 H   0  0  0  0  0  0  0  0  0  0  0  0
    1.6766   -3.1193   -1.2248 H   0  0  0  0  0  0  0  0  0  0  0  0
    1.9238    0.5175    1.4382 N   0  0  0  0  0  0  0  0  0  0  0  0
    2.4130    0.6200    2.7944 C   0  0  2  0  0  0  0  0  0  0  0  0
    3.9327    0.7061    2.7409 C   0  0  0  0  0  0  0  0  0  0  0  0
    4.5945    0.2983    1.7887 O   0  0  0  0  0  0  0  0  0  0  0  0
    1.9650   -0.5653    3.6353 C   0  0  0  0  0  0  0  0  0  0  0  0
    1.2758    1.2241    1.1033 H   0  0  0  0  0  0  0  0  0  0  0  0
    2.0083    1.5505    3.2071 H   0  0  0  0  0  0  0  0  0  0  0  0
    2.3609   -1.5066    3.2371 H   0  0  0  0  0  0  0  0  0  0  0  0
    2.3124   -0.4719    4.6695 H   0  0  0  0  0  0  0  0  0  0  0  0
    0.8725   -0.6432    3.6482 H   0  0  0  0  0  0  0  0  0  0  0  0
    4.4656    1.2524    3.9001 N   0  0  0  0  0  0  0  0  0  0  0  0
    5.8854    1.4281    4.0980 C   0  0  0  0  0  0  0  0  0  0  0  0
    3.8410    1.5808    4.6307 H   0  0  0  0  0  0  0  0  0  0  0  0
    6.2970    0.5451    4.6086 H   0  0  0  0  0  0  0  0  0  0  0  0
    6.3790    1.5508    3.1226 H   0  0  0  0  0  0  0  0  0  0  0  0
    6.0618    2.3228    4.7132 H   0  0  0  0  0  0  0  0  0  0  0  0
 18 19  1  0  0  0  0
 19 31  1  0  0  0  0
 19 20  2  0  0  0  0
  8  9  1  0  0  0  0
  9 17  1  0  0  0  0
  9 10  2  0  0  0  0
  1  3  1  0  0  0  0
  1  7  1  0  0  0  0
  1  2  2  0  0  0  0
 32 33  1  0  0  0  0
 33 41  1  0  0  0  0
 33 34  2  0  0  0  0
 21 22  1  0  0  0  0
 22 23  1  0  0  0  0
 18 21  1  0  0  0  0
 17 23  1  0  0  0  0
 17 18  1  0  0  0  0
  8 11  1  0  0  0  0
 32 35  1  0  0  0  0
 41 42  1  0  0  0  0
  7  8  1  0  0  0  0
 31 32  1  0  0  0  0
 22 27  1  0  0  0  0
 22 28  1  0  0  0  0
 21 25  1  0  0  0  0
 21 26  1  0  0  0  0
 23 29  1  0  0  0  0
 23 30  1  0  0  0  0
 18 24  1  0  0  0  0
  3  4  1  0  0  0  0
  3  5  1  0  0  0  0
  3  6  1  0  0  0  0
 11 14  1  0  0  0  0
 11 15  1  0  0  0  0
 11 16  1  0  0  0  0
 35 38  1  0  0  0  0
 35 39  1  0  0  0  0
 35 40  1  0  0  0  0
 42 44  1  0  0  0  0
 42 45  1  0  0  0  0
 42 46  1  0  0  0  0
  8 13  1  0  0  0  0
 32 37  1  0  0  0  0
 31 36  1  0  0  0  0
 41 43  1  0  0  0  0
  7 12  1  0  0  0  0
M  END
$$$$

  -OEChem-05262214473D

 46 46  0     1  0  0  0  0  0999 V2000
   -0.6012   -3.2995    3.8205 C   0  0  0  0  0  0  0  0  0  0  0  0
   -0.6574   -4.4683    3.4568 O   0  0  0  0  0  0  0  0  0  0  0  0
   -0.4935   -2.9859    5.2760 C   0  0  0  0  0  0  0  0  0  0  0  0
   -1.4789   -2.8689    5.7550 H   0  0  0  0  0  0  0  0  0  0  0  0
    0.0123   -3.7847    5.8419 H   0  0  0  0  0  0  0  0  0  0  0  0
    0.0585   -2.0642    5.5199 H   0  0  0  0  0  0  0  0  0  0  0  0
   -0.6261   -2.1849    2.9917 N   0  0  0  0  0  0  0  0  0  0  0  0
   -0.7237   -2.2601    1.5650 C   0  0  2  0  0  0  0  0  0  0  0  0
    0.1695   -1.1513    1.0687 C   0  0  0  0  0  0  0  0  0  0  0  0
    0.3193   -0.1267    1.7365 O   0  0  0  0  0  0  0  0  0  0  0  0
   -2.1397   -2.0663    1.0750 C   0  0  0  0  0  0  0  0  0  0  0  0
   -0.5717   -1.2606    3.4238 H   0  0  0  0  0  0  0  0  0  0  0  0
   -0.3076   -3.2111    1.2363 H   0  0  0  0  0  0  0  0  0  0  0  0
   -2.5584   -1.1089    1.4061 H   0  0  0  0  0  0  0  0  0  0  0  0
   -2.1682   -2.0790   -0.0197 H   0  0  0  0  0  0  0  0  0  0  0  0
   -2.7965   -2.8601    1.4459 H   0  0  0  0  0  0  0  0  0  0  0  0
    0.7724   -1.3745   -0.1593 N   0  0  0  0  0  0  0  0  0  0  0  0
    1.6644   -0.4046   -0.7812 C   0  0  2  0  0  0  0  0  0  0  0  0
    1.7547    0.7703    0.1454 C   0  0  0  0  0  0  0  0  0  0  0  0
    1.4033    1.8771   -0.2462 O   0  0  0  0  0  0  0  0  0  0  0  0
    0.9832   -0.0385   -2.0947 C   0  0  0  0  0  0  0  0  0  0  0  0
    0.4329   -1.4308   -1.7953 C   0  0  0  0  0  0  0  0  0  0  0  0
    0.7499   -2.6270   -0.9105 C   0  0  0  0  0  0  0  0  0  0  0  0
    2.6660   -0.8234   -0.9178 H   0  0  0  0  0  0  0  0  0  0  0  0
    1.7341    0.0889   -2.8835 H   0  0  0  0  0  0  0  0  0  0  0  0
    0.3808    0.8733   -2.0362 H   0  0  0  0  0  0  0  0  0  0  0  0
   -0.5797   -1.3599   -1.3815 H   0  0  0  0  0  0  0  0  0  0  0  0
    0.3950   -2.0608   -2.6885 H   0  0  0  0  0  0  0  0  0  0  0  0
   -0.0575   -3.3641   -0.8933 H   0  0  0  0  0  0  0  0  0  0  0  0
    1.6766   -3.1193   -1.2248 H   0  0  0  0  0  0  0  0  0  0  0  0
    2.2220    0.5493    1.3688 N   0  0  0  0  0  0  0  0  0  0  0  0
    2.9552    0.7307    2.6011 C   0  0  2  0  0  0  0  0  0  0  0  0
    4.3987    1.0612    2.2451 C   0  0  0  0  0  0  0  0  0  0  0  0
    4.9083    0.7649    1.1664 O   0  0  0  0  0  0  0  0  0  0  0  0
    2.8818   -0.5106    3.4766 C   0  0  0  0  0  0  0  0  0  0  0  0
    1.4158    1.1417    1.1943 H   0  0  0  0  0  0  0  0  0  0  0  0
    2.5011    1.5840    3.1166 H   0  0  0  0  0  0  0  0  0  0  0  0
    3.3320   -1.3759    2.9767 H   0  0  0  0  0  0  0  0  0  0  0  0
    3.4137   -0.3613    4.4220 H   0  0  0  0  0  0  0  0  0  0  0  0
    1.8414   -0.7640    3.7069 H   0  0  0  0  0  0  0  0  0  0  0  0
    5.0636    1.6875    3.2900 N   0  0  0  0  0  0  0  0  0  0  0  0
    6.4478    2.0906    3.2032 C   0  0  0  0  0  0  0  0  0  0  0  0
    4.5574    1.9114    4.1417 H   0  0  0  0  0  0  0  0  0  0  0  0
    7.0896    1.2861    3.5918 H   0  0  0  0  0  0  0  0  0  0  0  0
    6.7061    2.2904    2.1528 H   0  0  0  0  0  0  0  0  0  0  0  0
    6.6021    3.0025    3.7986 H   0  0  0  0  0  0  0  0  0  0  0  0
 18 19  1  0  0  0  0
 19 31  1  0  0  0  0
 19 20  2  0  0  0  0
  8  9  1  0  0  0  0
  9 17  1  0  0  0  0
  9 10  2  0  0  0  0
  1  3  1  0  0  0  0
  1  7  1  0  0  0  0
  1  2  2  0  0  0  0
 32 33  1  0  0  0  0
 33 41  1  0  0  0  0
 33 34  2  0  0  0  0
 21 22  1  0  0  0  0
 22 23  1  0  0  0  0
 18 21  1  0  0  0  0
 17 23  1  0  0  0  0
 17 18  1  0  0  0  0
  8 11  1  0  0  0  0
 32 35  1  0  0  0  0
 41 42  1  0  0  0  0
  7  8  1  0  0  0  0
 31 32  1  0  0  0  0
 22 27  1  0  0  0  0
 22 28  1  0  0  0  0
 21 25  1  0  0  0  0
 21 26  1  0  0  0  0
 23 29  1  0  0  0  0
 23 30  1  0  0  0  0
 18 24  1  0  0  0  0
  3  4  1  0  0  0  0
  3  5  1  0  0  0  0
  3  6  1  0  0  0  0
 11 14  1  0  0  0  0
 11 15  1  0  0  0  0
 11 16  1  0  0  0  0
 35 38  1  0  0  0  0
 35 39  1  0  0  0  0
 35 40  1  0  0  0  0
 42 44  1  0  0  0  0
 42 45  1  0  0  0  0
 42 46  1  0  0  0  0
  8 13  1  0  0  0  0
 32 37  1  0  0  0  0
 31 36  1  0  0  0  0
 41 43  1  0  0  0  0
  7 12  1  0  0  0  0
M  END
$$$$

  -OEChem-05262214473D

 46 46  0     1  0  0  0  0  0999 V2000
   -0.6012   -3.2995    3.8205 C   0  0  0  0  0  0  0  0  0  0  0  0
   -0.6574   -4.4683    3.4568 O   0  0  0  0  0  0  0  0  0  0  0  0
   -0.4935   -2.9859    5.2760 C   0  0  0  0  0  0  0  0  0  0  0  0
   -1.4789   -2.8689    5.7550 H   0  0  0  0  0  0  0  0  0  0  0  0
    0.0123   -3.7847    5.8419 H   0  0  0  0  0  0  0  0  0  0  0  0
    0.0585   -2.0642    5.5199 H   0  0  0  0  0  0  0  0  0  0  0  0
   -0.6261   -2.1849    2.9917 N   0  0  0  0  0  0  0  0  0  0  0  0
   -0.7237   -2.2601    1.5650 C   0  0  2  0  0  0  0  0  0  0  0  0
    0.1695   -1.1513    1.0687 C   0  0  0  0  0  0  0  0  0  0  0  0
    0.3193   -0.1267    1.7365 O   0  0  0  0  0  0  0  0  0  0  0  0
   -2.1397   -2.0663    1.0750 C   0  0  0  0  0  0  0  0  0  0  0  0
   -0.5717   -1.2606    3.4238 H   0  0  0  0  0  0  0  0  0  0  0  0
   -0.3076   -3.2111    1.2363 H   0  0  0  0  0  0  0  0  0  0  0  0
   -2.5584   -1.1089    1.4061 H   0  0  0  0  0  0  0  0  0  0  0  0
   -2.1682   -2.0790   -0.0197 H   0  0  0  0  0  0  0  0  0  0  0  0
   -2.7965   -2.8601    1.4459 H   0  0  0  0  0  0  0  0  0  0  0  0
    0.7724   -1.3745   -0.1593 N   0  0  0  0  0  0  0  0  0  0  0  0
    1.6644   -0.4046   -0.7812 C   0  0  2  0  0  0  0  0  0  0  0  0
    1.7547    0.7703    0.1454 C   0  0  0  0  0  0  0  0  0  0  0  0
    1.1600    1.8054   -0.1316 O   0  0  0  0  0  0  0  0  0  0  0  0
    0.9832   -0.0385   -2.0947 C   0  0  0  0  0  0  0  0  0  0  0  0
    0.4329   -1.4308   -1.7953 C   0  0  0  0  0  0  0  0  0  0  0  0
    0.7499   -2.6270   -0.9105 C   0  0  0  0  0  0  0  0  0  0  0  0
    2.6660   -0.8234   -0.9178 H   0  0  0  0  0  0  0  0  0  0  0  0
    1.7341    0.0889   -2.8835 H   0  0  0  0  0  0  0  0  0  0  0  0
    0.3808    0.8733   -2.0362 H   0  0  0  0  0  0  0  0  0  0  0  0
   -0.5797   -1.3599   -1.3815 H   0  0  0  0  0  0  0  0  0  0  0  0
    0.3950   -2.0608   -2.6885 H   0  0  0  0  0  0  0  0  0  0  0  0
   -0.0575   -3.3641   -0.8933 H   0  0  0  0  0  0  0  0  0  0  0  0
    1.6766   -3.1193   -1.2248 H   0  0  0  0  0  0  0  0  0  0  0  0
    2.4909    0.6288    1.2418 N   0  0  0  0  0  0  0  0  0  0  0  0
    3.4220    0.9275    2.3061 C   0  0  2  0  0  0  0  0  0  0  0  0
    4.6915    1.4865    1.6773 C   0  0  0  0  0  0  0  0  0  0  0  0
    5.0105    1.2755    0.5090 O   0  0  0  0  0  0  0  0  0  0  0  0
    3.7264   -0.3086    3.1381 C   0  0  0  0  0  0  0  0  0  0  0  0
    1.5826    1.0830    1.2524 H   0  0  0  0  0  0  0  0  0  0  0  0
    2.9534    1.6966    2.9297 H   0  0  0  0  0  0  0  0  0  0  0  0
    4.1963   -1.0903    2.5302 H   0  0  0  0  0  0  0  0  0  0  0  0
    4.4096   -0.0745    3.9612 H   0  0  0  0  0  0  0  0  0  0  0  0
    2.8084   -0.7266    3.5652 H   0  0  0  0  0  0  0  0  0  0  0  0
    5.4479    2.2130    2.5862 N   0  0  0  0  0  0  0  0  0  0  0  0
    6.7036    2.8343    2.2351 C   0  0  0  0  0  0  0  0  0  0  0  0
    5.0973    2.3529    3.5292 H   0  0  0  0  0  0  0  0  0  0  0  0
    7.5303    2.1445    2.4603 H   0  0  0  0  0  0  0  0  0  0  0  0
    6.7071    3.0724    1.1612 H   0  0  0  0  0  0  0  0  0  0  0  0
    6.8297    3.7597    2.8162 H   0  0  0  0  0  0  0  0  0  0  0  0
 18 19  1  0  0  0  0
 19 31  1  0  0  0  0
 19 20  2  0  0  0  0
  8  9  1  0  0  0  0
  9 17  1  0  0  0  0
  9 10  2  0  0  0  0
  1  3  1  0  0  0  0
  1  7  1  0  0  0  0
  1  2  2  0  0  0  0
 32 33  1  0  0  0  0
 33 41  1  0  0  0  0
 33 34  2  0  0  0  0
 21 22  1  0  0  0  0
 22 23  1  0  0  0  0
 18 21  1  0  0  0  0
 17 23  1  0  0  0  0
 17 18  1  0  0  0  0
  8 11  1  0  0  0  0
 32 35  1  0  0  0  0
 41 42  1  0  0  0  0
  7  8  1  0  0  0  0
 31 32  1  0  0  0  0
 22 27  1  0  0  0  0
 22 28  1  0  0  0  0
 21 25  1  0  0  0  0
 21 26  1  0  0  0  0
 23 29  1  0  0  0  0
 23 30  1  0  0  0  0
 18 24  1  0  0  0  0
  3  4  1  0  0  0  0
  3  5  1  0  0  0  0
  3  6  1  0  0  0  0
 11 14  1  0  0  0  0
 11 15  1  0  0  0  0
 11 16  1  0  0  0  0
 35 38  1  0  0  0  0
 35 39  1  0  0  0  0
 35 40  1  0  0  0  0
 42 44  1  0  0  0  0
 42 45  1  0  0  0  0
 42 46  1  0  0  0  0
  8 13  1  0  0  0  0
 32 37  1  0  0  0  0
 31 36  1  0  0  0  0
 41 43  1  0  0  0  0
  7 12  1  0  0  0  0
M  END
$$$$

  -OEChem-05262214473D

 46 46  0     1  0  0  0  0  0999 V2000
   -0.6012   -3.2995    3.8205 C   0  0  0  0  0  0  0  0  0  0  0  0
   -0.6574   -4.4683    3.4568 O   0  0  0  0  0  0  0  0  0  0  0  0
   -0.4935   -2.9859    5.2760 C   0  0  0  0  0  0  0  0  0  0  0  0
   -1.4789   -2.8689    5.7550 H   0  0  0  0  0  0  0  0  0  0  0  0
    0.0123   -3.7847    5.8419 H   0  0  0  0  0  0  0  0  0  0  0  0
    0.0585   -2.0642    5.5199 H   0  0  0  0  0  0  0  0  0  0  0  0
   -0.6261   -2.1849    2.9917 N   0  0  0  0  0  0  0  0  0  0  0  0
   -0.7237   -2.2601    1.5650 C   0  0  2  0  0  0  0  0  0  0  0  0
    0.1695   -1.1513    1.0687 C   0  0  0  0  0  0  0  0  0  0  0  0
    0.3193   -0.1267    1.7365 O   0  0  0  0  0  0  0  0  0  0  0  0
   -2.1397   -2.0663    1.0750 C   0  0  0  0  0  0  0  0  0  0  0  0
   -0.5717   -1.2606    3.4238 H   0  0  0  0  0  0  0  0  0  0  0  0
   -0.3076   -3.2111    1.2363 H   0  0  0  0  0  0  0  0  0  0  0  0
   -2.5584   -1.1089    1.4061 H   0  0  0  0  0  0  0  0  0  0  0  0
   -2.1682   -2.0790   -0.0197 H   0  0  0  0  0  0  0  0  0  0  0  0
   -2.7965   -2.8601    1.4459 H   0  0  0  0  0  0  0  0  0  0  0  0
    0.7724   -1.3745   -0.1593 N   0  0  0  0  0  0  0  0  0  0  0  0
    1.6644   -0.4046   -0.7812 C   0  0  2  0  0  0  0  0  0  0  0  0
    1.7547    0.7703    0.1454 C   0  0  0  0  0  0  0  0  0  0  0  0
    0.9598    1.6954    0.0273 O   0  0  0  0  0  0  0  0  0  0  0  0
    0.9832   -0.0385   -2.0947 C   0  0  0  0  0  0  0  0  0  0  0  0
    0.4329   -1.4308   -1.7953 C   0  0  0  0  0  0  0  0  0  0  0  0
    0.7499   -2.6270   -0.9105 C   0  0  0  0  0  0  0  0  0  0  0  0
    2.6660   -0.8234   -0.9178 H   0  0  0  0  0  0  0  0  0  0  0  0
    1.7341    0.0889   -2.8835 H   0  0  0  0  0  0  0  0  0  0  0  0
    0.3808    0.8733   -2.0362 H   0  0  0  0  0  0  0  0  0  0  0  0
   -0.5797   -1.3599   -1.3815 H   0  0  0  0  0  0  0  0  0  0  0  0
    0.3950   -2.0608   -2.6885 H   0  0  0  0  0  0  0  0  0  0  0  0
   -0.0575   -3.3641   -0.8933 H   0  0  0  0  0  0  0  0  0  0  0  0
    1.6766   -3.1193   -1.2248 H   0  0  0  0  0  0  0  0  0  0  0  0
    2.7121    0.7506    1.0657 N   0  0  0  0  0  0  0  0  0  0  0  0
    3.7816    1.1968    1.9295 C   0  0  2  0  0  0  0  0  0  0  0  0
    4.7911    1.9530    1.0760 C   0  0  0  0  0  0  0  0  0  0  0  0
    4.8942    1.7953   -0.1387 O   0  0  0  0  0  0  0  0  0  0  0  0
    4.4412    0.0269    2.6430 C   0  0  0  0  0  0  0  0  0  0  0  0
    1.7649    1.0520    1.2739 H   0  0  0  0  0  0  0  0  0  0  0  0
    3.3344    1.8806    2.6592 H   0  0  0  0  0  0  0  0  0  0  0  0
    4.8949   -0.6692    1.9280 H   0  0  0  0  0  0  0  0  0  0  0  0
    5.2321    0.3691    3.3185 H   0  0  0  0  0  0  0  0  0  0  0  0
    3.7078   -0.5335    3.2327 H   0  0  0  0  0  0  0  0  0  0  0  0
    5.5923    2.7930    1.8366 N   0  0  0  0  0  0  0  0  0  0  0  0
    6.6353    3.6088    1.2597 C   0  0  0  0  0  0  0  0  0  0  0  0
    5.4239    2.8753    2.8350 H   0  0  0  0  0  0  0  0  0  0  0  0
    7.5891    3.0618    1.2914 H   0  0  0  0  0  0  0  0  0  0  0  0
    6.3817    3.8433    0.2154 H   0  0  0  0  0  0  0  0  0  0  0  0
    6.7292    4.5429    1.8329 H   0  0  0  0  0  0  0  0  0  0  0  0
 18 19  1  0  0  0  0
 19 31  1  0  0  0  0
 19 20  2  0  0  0  0
  8  9  1  0  0  0  0
  9 17  1  0  0  0  0
  9 10  2  0  0  0  0
  1  3  1  0  0  0  0
  1  7  1  0  0  0  0
  1  2  2  0  0  0  0
 32 33  1  0  0  0  0
 33 41  1  0  0  0  0
 33 34  2  0  0  0  0
 21 22  1  0  0  0  0
 22 23  1  0  0  0  0
 18 21  1  0  0  0  0
 17 23  1  0  0  0  0
 17 18  1  0  0  0  0
  8 11  1  0  0  0  0
 32 35  1  0  0  0  0
 41 42  1  0  0  0  0
  7  8  1  0  0  0  0
 31 32  1  0  0  0  0
 22 27  1  0  0  0  0
 22 28  1  0  0  0  0
 21 25  1  0  0  0  0
 21 26  1  0  0  0  0
 23 29  1  0  0  0  0
 23 30  1  0  0  0  0
 18 24  1  0  0  0  0
  3  4  1  0  0  0  0
  3  5  1  0  0  0  0
  3  6  1  0  0  0  0
 11 14  1  0  0  0  0
 11 15  1  0  0  0  0
 11 16  1  0  0  0  0
 35 38  1  0  0  0  0
 35 39  1  0  0  0  0
 35 40  1  0  0  0  0
 42 44  1  0  0  0  0
 42 45  1  0  0  0  0
 42 46  1  0  0  0  0
  8 13  1  0  0  0  0
 32 37  1  0  0  0  0
 31 36  1  0  0  0  0
 41 43  1  0  0  0  0
  7 12  1  0  0  0  0
M  END
$$$$

  -OEChem-05262214473D

 46 46  0     1  0  0  0  0  0999 V2000
   -0.6012   -3.2995    3.8205 C   0  0  0  0  0  0  0  0  0  0  0  0
   -0.6574   -4.4683    3.4568 O   0  0  0  0  0  0  0  0  0  0  0  0
   -0.4935   -2.9859    5.2760 C   0  0  0  0  0  0  0  0  0  0  0  0
   -1.4789   -2.8689    5.7550 H   0  0  0  0  0  0  0  0  0  0  0  0
    0.0123   -3.7847    5.8419 H   0  0  0  0  0  0  0  0  0  0  0  0
    0.0585   -2.0642    5.5199 H   0  0  0  0  0  0  0  0  0  0  0  0
   -0.6261   -2.1849    2.9917 N   0  0  0  0  0  0  0  0  0  0  0  0
   -0.7237   -2.2601    1.5650 C   0  0  2  0  0  0  0  0  0  0  0  0
    0.1695   -1.1513    1.0687 C   0  0  0  0  0  0  0  0  0  0  0  0
    0.3193   -0.1267    1.7365 O   0  0  0  0  0  0  0  0  0  0  0  0
   -2.1397   -2.0663    1.0750 C   0  0  0  0  0  0  0  0  0  0  0  0
   -0.5717   -1.2606    3.4238 H   0  0  0  0  0  0  0  0  0  0  0  0
   -0.3076   -3.2111    1.2363 H   0  0  0  0  0  0  0  0  0  0  0  0
   -2.5584   -1.1089    1.4061 H   0  0  0  0  0  0  0  0  0  0  0  0
   -2.1682   -2.0790   -0.0197 H   0  0  0  0  0  0  0  0  0  0  0  0
   -2.7965   -2.8601    1.4459 H   0  0  0  0  0  0  0  0  0  0  0  0
    0.7724   -1.3745   -0.1593 N   0  0  0  0  0  0  0  0  0  0  0  0
    1.6644   -0.4046   -0.7812 C   0  0  2  0  0  0  0  0  0  0  0  0
    1.7547    0.7703    0.1454 C   0  0  0  0  0  0  0  0  0  0  0  0
    0.8162    1.5547    0.2198 O   0  0  0  0  0  0  0  0  0  0  0  0
    0.9832   -0.0385   -2.0947 C   0  0  0  0  0  0  0  0  0  0  0  0
    0.4329   -1.4308   -1.7953 C   0  0  0  0  0  0  0  0  0  0  0  0
    0.7499   -2.6270   -0.9105 C   0  0  0  0  0  0  0  0  0  0  0  0
    2.6660   -0.8234   -0.9178 H   0  0  0  0  0  0  0  0  0  0  0  0
    1.7341    0.0889   -2.8835 H   0  0  0  0  0  0  0  0  0  0  0  0
    0.3808    0.8733   -2.0362 H   0  0  0  0  0  0  0  0  0  0  0  0
   -0.5797   -1.3599   -1.3815 H   0  0  0  0  0  0  0  0  0  0  0  0
    0.3950   -2.0608   -2.6885 H   0  0  0  0  0  0  0  0  0  0  0  0
   -0.0575   -3.3641   -0.8933 H   0  0  0  0  0  0  0  0  0  0  0  0
    1.6766   -3.1193   -1.2248 H   0  0  0  0  0  0  0  0  0  0  0  0
    2.8706    0.9064    0.8527 N   0  0  0  0  0  0  0  0  0  0  0  0
    4.0094    1.5203    1.4971 C   0  0  2  0  0  0  0  0  0  0  0  0
    4.6906    2.4290    0.4823 C   0  0  0  0  0  0  0  0  0  0  0  0
    4.5673    2.2888   -0.7327 O   0  0  0  0  0  0  0  0  0  0  0  0
    4.9775    0.4730    2.0250 C   0  0  0  0  0  0  0  0  0  0  0  0
    1.9503    1.0510    1.2571 H   0  0  0  0  0  0  0  0  0  0  0  0
    3.6181    2.1236    2.3235 H   0  0  0  0  0  0  0  0  0  0  0  0
    5.3801   -0.1412    1.2113 H   0  0  0  0  0  0  0  0  0  0  0  0
    5.8254    0.9391    2.5378 H   0  0  0  0  0  0  0  0  0  0  0  0
    4.4782   -0.1980    2.7322 H   0  0  0  0  0  0  0  0  0  0  0  0
    5.4869    3.3881    1.0924 N   0  0  0  0  0  0  0  0  0  0  0  0
    6.2475    4.3611    0.3435 C   0  0  0  0  0  0  0  0  0  0  0  0
    5.5150    3.4429    2.1062 H   0  0  0  0  0  0  0  0  0  0  0  0
    7.2621    3.9755    0.1647 H   0  0  0  0  0  0  0  0  0  0  0  0
    5.7522    4.5506   -0.6202 H   0  0  0  0  0  0  0  0  0  0  0  0
    6.3073    5.2987    0.9157 H   0  0  0  0  0  0  0  0  0  0  0  0
 18 19  1  0  0  0  0
 19 31  1  0  0  0  0
 19 20  2  0  0  0  0
  8  9  1  0  0  0  0
  9 17  1  0  0  0  0
  9 10  2  0  0  0  0
  1  3  1  0  0  0  0
  1  7  1  0  0  0  0
  1  2  2  0  0  0  0
 32 33  1  0  0  0  0
 33 41  1  0  0  0  0
 33 34  2  0  0  0  0
 21 22  1  0  0  0  0
 22 23  1  0  0  0  0
 18 21  1  0  0  0  0
 17 23  1  0  0  0  0
 17 18  1  0  0  0  0
  8 11  1  0  0  0  0
 32 35  1  0  0  0  0
 41 42  1  0  0  0  0
  7  8  1  0  0  0  0
 31 32  1  0  0  0  0
 22 27  1  0  0  0  0
 22 28  1  0  0  0  0
 21 25  1  0  0  0  0
 21 26  1  0  0  0  0
 23 29  1  0  0  0  0
 23 30  1  0  0  0  0
 18 24  1  0  0  0  0
  3  4  1  0  0  0  0
  3  5  1  0  0  0  0
  3  6  1  0  0  0  0
 11 14  1  0  0  0  0
 11 15  1  0  0  0  0
 11 16  1  0  0  0  0
 35 38  1  0  0  0  0
 35 39  1  0  0  0  0
 35 40  1  0  0  0  0
 42 44  1  0  0  0  0
 42 45  1  0  0  0  0
 42 46  1  0  0  0  0
  8 13  1  0  0  0  0
 32 37  1  0  0  0  0
 31 36  1  0  0  0  0
 41 43  1  0  0  0  0
  7 12  1  0  0  0  0
M  END
$$$$

  -OEChem-05262214473D

 46 46  0     1  0  0  0  0  0999 V2000
   -0.6012   -3.2995    3.8205 C   0  0  0  0  0  0  0  0  0  0  0  0
   -0.6574   -4.4683    3.4568 O   0  0  0  0  0  0  0  0  0  0  0  0
   -0.4935   -2.9859    5.2760 C   0  0  0  0  0  0  0  0  0  0  0  0
   -1.4789   -2.8689    5.7550 H   0  0  0  0  0  0  0  0  0  0  0  0
    0.0123   -3.7847    5.8419 H   0  0  0  0  0  0  0  0  0  0  0  0
    0.0585   -2.0642    5.5199 H   0  0  0  0  0  0  0  0  0  0  0  0
   -0.6261   -2.1849    2.9917 N   0  0  0  0  0  0  0  0  0  0  0  0
   -0.7237   -2.2601    1.5650 C   0  0  2  0  0  0  0  0  0  0  0  0
    0.1695   -1.1513    1.0687 C   0  0  0  0  0  0  0  0  0  0  0  0
    0.3193   -0.1267    1.7365 O   0  0  0  0  0  0  0  0  0  0  0  0
   -2.1397   -2.0663    1.0750 C   0  0  0  0  0  0  0  0  0  0  0  0
   -0.5717   -1.2606    3.4238 H   0  0  0  0  0  0  0  0  0  0  0  0
   -0.3076   -3.2111    1.2363 H   0  0  0  0  0  0  0  0  0  0  0  0
   -2.5584   -1.1089    1.4061 H   0  0  0  0  0  0  0  0  0  0  0  0
   -2.1682   -2.0790   -0.0197 H   0  0  0  0  0  0  0  0  0  0  0  0
   -2.7965   -2.8601    1.4459 H   0  0  0  0  0  0  0  0  0  0  0  0
    0.7724   -1.3745   -0.1593 N   0  0  0  0  0  0  0  0  0  0  0  0
    1.6644   -0.4046   -0.7812 C   0  0  2  0  0  0  0  0  0  0  0  0
    1.7547    0.7703    0.1454 C   0  0  0  0  0  0  0  0  0  0  0  0
    0.7390    1.3928    0.4326 O   0  0  0  0  0  0  0  0  0  0  0  0
    0.9832   -0.0385   -2.0947 C   0  0  0  0  0  0  0  0  0  0  0  0
    0.4329   -1.4308   -1.7953 C   0  0  0  0  0  0  0  0  0  0  0  0
    0.7499   -2.6270   -0.9105 C   0  0  0  0  0  0  0  0  0  0  0  0
    2.6660   -0.8234   -0.9178 H   0  0  0  0  0  0  0  0  0  0  0  0
    1.7341    0.0889   -2.8835 H   0  0  0  0  0  0  0  0  0  0  0  0
    0.3808    0.8733   -2.0362 H   0  0  0  0  0  0  0  0  0  0  0  0
   -0.5797   -1.3599   -1.3815 H   0  0  0  0  0  0  0  0  0  0  0  0
    0.3950   -2.0608   -2.6885 H   0  0  0  0  0  0  0  0  0  0  0  0
   -0.0575   -3.3641   -0.8933 H   0  0  0  0  0  0  0  0  0  0  0  0
    1.6766   -3.1193   -1.2248 H   0  0  0  0  0  0  0  0  0  0  0  0
    2.9555    1.0856    0.6172 N   0  0  0  0  0  0  0  0  0  0  0  0
    4.0900    1.8760    1.0382 C   0  0  2  0  0  0  0  0  0  0  0  0
    4.3971    2.8819   -0.0634 C   0  0  0  0  0  0  0  0  0  0  0  0
    4.0521    2.7225   -1.2325 O   0  0  0  0  0  0  0  0  0  0  0  0
    5.2989    0.9994    1.3262 C   0  0  0  0  0  0  0  0  0  0  0  0
    2.1261    1.0799    1.2033 H   0  0  0  0  0  0  0  0  0  0  0  0
    3.7851    2.4089    1.9454 H   0  0  0  0  0  0  0  0  0  0  0  0
    5.6190    0.4576    0.4287 H   0  0  0  0  0  0  0  0  0  0  0  0
    6.1488    1.5968    1.6723 H   0  0  0  0  0  0  0  0  0  0  0  0
    5.0671    0.2571    2.0976 H   0  0  0  0  0  0  0  0  0  0  0  0
    5.1390    3.9576    0.4041 N   0  0  0  0  0  0  0  0  0  0  0  0
    5.5668    5.0401   -0.4510 C   0  0  0  0  0  0  0  0  0  0  0  0
    5.3643    4.0172    1.3927 H   0  0  0  0  0  0  0  0  0  0  0  0
    6.5714    4.8233   -0.8430 H   0  0  0  0  0  0  0  0  0  0  0  0
    4.8616    5.1462   -1.2886 H   0  0  0  0  0  0  0  0  0  0  0  0
    5.5929    5.9755    0.1271 H   0  0  0  0  0  0  0  0  0  0  0  0
 18 19  1  0  0  0  0
 19 31  1  0  0  0  0
 19 20  2  0  0  0  0
  8  9  1  0  0  0  0
  9 17  1  0  0  0  0
  9 10  2  0  0  0  0
  1  3  1  0  0  0  0
  1  7  1  0  0  0  0
  1  2  2  0  0  0  0
 32 33  1  0  0  0  0
 33 41  1  0  0  0  0
 33 34  2  0  0  0  0
 21 22  1  0  0  0  0
 22 23  1  0  0  0  0
 18 21  1  0  0  0  0
 17 23  1  0  0  0  0
 17 18  1  0  0  0  0
  8 11  1  0  0  0  0
 32 35  1  0  0  0  0
 41 42  1  0  0  0  0
  7  8  1  0  0  0  0
 31 32  1  0  0  0  0
 22 27  1  0  0  0  0
 22 28  1  0  0  0  0
 21 25  1  0  0  0  0
 21 26  1  0  0  0  0
 23 29  1  0  0  0  0
 23 30  1  0  0  0  0
 18 24  1  0  0  0  0
  3  4  1  0  0  0  0
  3  5  1  0  0  0  0
  3  6  1  0  0  0  0
 11 14  1  0  0  0  0
 11 15  1  0  0  0  0
 11 16  1  0  0  0  0
 35 38  1  0  0  0  0
 35 39  1  0  0  0  0
 35 40  1  0  0  0  0
 42 44  1  0  0  0  0
 42 45  1  0  0  0  0
 42 46  1  0  0  0  0
  8 13  1  0  0  0  0
 32 37  1  0  0  0  0
 31 36  1  0  0  0  0
 41 43  1  0  0  0  0
  7 12  1  0  0  0  0
M  END
$$$$

  -OEChem-05262214473D

 46 46  0     1  0  0  0  0  0999 V2000
   -0.6012   -3.2995    3.8205 C   0  0  0  0  0  0  0  0  0  0  0  0
   -0.6574   -4.4683    3.4568 O   0  0  0  0  0  0  0  0  0  0  0  0
   -0.4935   -2.9859    5.2760 C   0  0  0  0  0  0  0  0  0  0  0  0
   -1.4789   -2.8689    5.7550 H   0  0  0  0  0  0  0  0  0  0  0  0
    0.0123   -3.7847    5.8419 H   0  0  0  0  0  0  0  0  0  0  0  0
    0.0585   -2.0642    5.5199 H   0  0  0  0  0  0  0  0  0  0  0  0
   -0.6261   -2.1849    2.9917 N   0  0  0  0  0  0  0  0  0  0  0  0
   -0.7237   -2.2601    1.5650 C   0  0  2  0  0  0  0  0  0  0  0  0
    0.1695   -1.1513    1.0687 C   0  0  0  0  0  0  0  0  0  0  0  0
    0.3193   -0.1267    1.7365 O   0  0  0  0  0  0  0  0  0  0  0  0
   -2.1397   -2.0663    1.0750 C   0  0  0  0  0  0  0  0  0  0  0  0
   -0.5717   -1.2606    3.4238 H   0  0  0  0  0  0  0  0  0  0  0  0
   -0.3076   -3.2111    1.2363 H   0  0  0  0  0  0  0  0  0  0  0  0
   -2.5584   -1.1089    1.4061 H   0  0  0  0  0  0  0  0  0  0  0  0
   -2.1682   -2.0790   -0.0197 H   0  0  0  0  0  0  0  0  0  0  0  0
   -2.7965   -2.8601    1.4459 H   0  0  0  0  0  0  0  0  0  0  0  0
    0.7724   -1.3745   -0.1593 N   0  0  0  0  0  0  0  0  0  0  0  0
    1.6644   -0.4046   -0.7812 C   0  0  2  0  0  0  0  0  0  0  0  0
    1.7547    0.7703    0.1454 C   0  0  0  0  0  0  0  0  0  0  0  0
    0.7335    1.2208    0.6513 O   0  0  0  0  0  0  0  0  0  0  0  0
    0.9832   -0.0385   -2.0947 C   0  0  0  0  0  0  0  0  0  0  0  0
    0.4329   -1.4308   -1.7953 C   0  0  0  0  0  0  0  0  0  0  0  0
    0.7499   -2.6270   -0.9105 C   0  0  0  0  0  0  0  0  0  0  0  0
    2.6660   -0.8234   -0.9178 H   0  0  0  0  0  0  0  0  0  0  0  0
    1.7341    0.0889   -2.8835 H   0  0  0  0  0  0  0  0  0  0  0  0
    0.3808    0.8733   -2.0362 H   0  0  0  0  0  0  0  0  0  0  0  0
   -0.5797   -1.3599   -1.3815 H   0  0  0  0  0  0  0  0  0  0  0  0
    0.3950   -2.0608   -2.6885 H   0  0  0  0  0  0  0  0  0  0  0  0
   -0.0575   -3.3641   -0.8933 H   0  0  0  0  0  0  0  0  0  0  0  0
    1.6766   -3.1193   -1.2248 H   0  0  0  0  0  0  0  0  0  0  0  0
    2.9612    1.2759    0.3754 N   0  0  0  0  0  0  0  0  0  0  0  0
    4.0179    2.2397    0.5841 C   0  0  2  0  0  0  0  0  0  0  0  0
    3.9303    3.2809   -0.5239 C   0  0  0  0  0  0  0  0  0  0  0  0
    3.3837    3.0669   -1.6039 O   0  0  0  0  0  0  0  0  0  0  0  0
    5.3833    1.5702    0.5942 C   0  0  0  0  0  0  0  0  0  0  0  0
    2.2804    1.1368    1.1161 H   0  0  0  0  0  0  0  0  0  0  0  0
    3.8241    2.7170    1.5508 H   0  0  0  0  0  0  0  0  0  0  0  0
    5.5952    1.0863   -0.3663 H   0  0  0  0  0  0  0  0  0  0  0  0
    6.1804    2.2974    0.7809 H   0  0  0  0  0  0  0  0  0  0  0  0
    5.4344    0.8009    1.3723 H   0  0  0  0  0  0  0  0  0  0  0  0
    4.5721    4.4628   -0.1812 N   0  0  0  0  0  0  0  0  0  0  0  0
    4.6394    5.5994   -1.0699 C   0  0  0  0  0  0  0  0  0  0  0  0
    4.9822    4.5589    0.7431 H   0  0  0  0  0  0  0  0  0  0  0  0
    5.5643    5.5474   -1.6631 H   0  0  0  0  0  0  0  0  0  0  0  0
    3.7704    5.5894   -1.7442 H   0  0  0  0  0  0  0  0  0  0  0  0
    4.6345    6.5273   -0.4791 H   0  0  0  0  0  0  0  0  0  0  0  0
 18 19  1  0  0  0  0
 19 31  1  0  0  0  0
 19 20  2  0  0  0  0
  8  9  1  0  0  0  0
  9 17  1  0  0  0  0
  9 10  2  0  0  0  0
  1  3  1  0  0  0  0
  1  7  1  0  0  0  0
  1  2  2  0  0  0  0
 32 33  1  0  0  0  0
 33 41  1  0  0  0  0
 33 34  2  0  0  0  0
 21 22  1  0  0  0  0
 22 23  1  0  0  0  0
 18 21  1  0  0  0  0
 17 23  1  0  0  0  0
 17 18  1  0  0  0  0
  8 11  1  0  0  0  0
 32 35  1  0  0  0  0
 41 42  1  0  0  0  0
  7  8  1  0  0  0  0
 31 32  1  0  0  0  0
 22 27  1  0  0  0  0
 22 28  1  0  0  0  0
 21 25  1  0  0  0  0
 21 26  1  0  0  0  0
 23 29  1  0  0  0  0
 23 30  1  0  0  0  0
 18 24  1  0  0  0  0
  3  4  1  0  0  0  0
  3  5  1  0  0  0  0
  3  6  1  0  0  0  0
 11 14  1  0  0  0  0
 11 15  1  0  0  0  0
 11 16  1  0  0  0  0
 35 38  1  0  0  0  0
 35 39  1  0  0  0  0
 35 40  1  0  0  0  0
 42 44  1  0  0  0  0
 42 45  1  0  0  0  0
 42 46  1  0  0  0  0
  8 13  1  0  0  0  0
 32 37  1  0  0  0  0
 31 36  1  0  0  0  0
 41 43  1  0  0  0  0
  7 12  1  0  0  0  0
M  END
$$$$

  -OEChem-05262214473D

 46 46  0     1  0  0  0  0  0999 V2000
   -0.6012   -3.2995    3.8205 C   0  0  0  0  0  0  0  0  0  0  0  0
   -0.6574   -4.4683    3.4568 O   0  0  0  0  0  0  0  0  0  0  0  0
   -0.4935   -2.9859    5.2760 C   0  0  0  0  0  0  0  0  0  0  0  0
   -1.4789   -2.8689    5.7550 H   0  0  0  0  0  0  0  0  0  0  0  0
    0.0123   -3.7847    5.8419 H   0  0  0  0  0  0  0  0  0  0  0  0
    0.0585   -2.0642    5.5199 H   0  0  0  0  0  0  0  0  0  0  0  0
   -0.6261   -2.1849    2.9917 N   0  0  0  0  0  0  0  0  0  0  0  0
   -0.7237   -2.2601    1.5650 C   0  0  2  0  0  0  0  0  0  0  0  0
    0.1695   -1.1513    1.0687 C   0  0  0  0  0  0  0  0  0  0  0  0
    0.3193   -0.1267    1.7365 O   0  0  0  0  0  0  0  0  0  0  0  0
   -2.1397   -2.0663    1.0750 C   0  0  0  0  0  0  0  0  0  0  0  0
   -0.5717   -1.2606    3.4238 H   0  0  0  0  0  0  0  0  0  0  0  0
   -0.3076   -3.2111    1.2363 H   0  0  0  0  0  0  0  0  0  0  0  0
   -2.5584   -1.1089    1.4061 H   0  0  0  0  0  0  0  0  0  0  0  0
   -2.1682   -2.0790   -0.0197 H   0  0  0  0  0  0  0  0  0  0  0  0
   -2.7965   -2.8601    1.4459 H   0  0  0  0  0  0  0  0  0  0  0  0
    0.7724   -1.3745   -0.1593 N   0  0  0  0  0  0  0  0  0  0  0  0
    1.6644   -0.4046   -0.7812 C   0  0  2  0  0  0  0  0  0  0  0  0
    1.7547    0.7703    0.1454 C   0  0  0  0  0  0  0  0  0  0  0  0
    0.8001    1.0503    0.8610 O   0  0  0  0  0  0  0  0  0  0  0  0
    0.9832   -0.0385   -2.0947 C   0  0  0  0  0  0  0  0  0  0  0  0
    0.4329   -1.4308   -1.7953 C   0  0  0  0  0  0  0  0  0  0  0  0
    0.7499   -2.6270   -0.9105 C   0  0  0  0  0  0  0  0  0  0  0  0
    2.6660   -0.8234   -0.9178 H   0  0  0  0  0  0  0  0  0  0  0  0
    1.7341    0.0889   -2.8835 H   0  0  0  0  0  0  0  0  0  0  0  0
    0.3808    0.8733   -2.0362 H   0  0  0  0  0  0  0  0  0  0  0  0
   -0.5797   -1.3599   -1.3815 H   0  0  0  0  0  0  0  0  0  0  0  0
    0.3950   -2.0608   -2.6885 H   0  0  0  0  0  0  0  0  0  0  0  0
   -0.0575   -3.3641   -0.8933 H   0  0  0  0  0  0  0  0  0  0  0  0
    1.6766   -3.1193   -1.2248 H   0  0  0  0  0  0  0  0  0  0  0  0
    2.8871    1.4644    0.1435 N   0  0  0  0  0  0  0  0  0  0  0  0
    3.7979    2.5864    0.1658 C   0  0  2  0  0  0  0  0  0  0  0  0
    3.3223    3.5989   -0.8678 C   0  0  0  0  0  0  0  0  0  0  0  0
    2.6076    3.2983   -1.8217 O   0  0  0  0  0  0  0  0  0  0  0  0
    5.2251    2.1464   -0.1211 C   0  0  0  0  0  0  0  0  0  0  0  0
    2.4027    1.2178    1.0014 H   0  0  0  0  0  0  0  0  0  0  0  0
    3.7324    3.0271    1.1666 H   0  0  0  0  0  0  0  0  0  0  0  0
    5.3103    1.7023   -1.1195 H   0  0  0  0  0  0  0  0  0  0  0  0
    5.9180    2.9930   -0.0757 H   0  0  0  0  0  0  0  0  0  0  0  0
    5.5551    1.3962    0.6056 H   0  0  0  0  0  0  0  0  0  0  0  0
    3.8250    4.8692   -0.6238 N   0  0  0  0  0  0  0  0  0  0  0  0
    3.5287    6.0009   -1.4707 C   0  0  0  0  0  0  0  0  0  0  0  0
    4.3947    5.0312    0.2015 H   0  0  0  0  0  0  0  0  0  0  0  0
    4.3093    6.0986   -2.2396 H   0  0  0  0  0  0  0  0  0  0  0  0
    2.5531    5.8501   -1.9560 H   0  0  0  0  0  0  0  0  0  0  0  0
    3.4975    6.9164   -0.8617 H   0  0  0  0  0  0  0  0  0  0  0  0
 18 19  1  0  0  0  0
 19 31  1  0  0  0  0
 19 20  2  0  0  0  0
  8  9  1  0  0  0  0
  9 17  1  0  0  0  0
  9 10  2  0  0  0  0
  1  3  1  0  0  0  0
  1  7  1  0  0  0  0
  1  2  2  0  0  0  0
 32 33  1  0  0  0  0
 33 41  1  0  0  0  0
 33 34  2  0  0  0  0
 21 22  1  0  0  0  0
 22 23  1  0  0  0  0
 18 21  1  0  0  0  0
 17 23  1  0  0  0  0
 17 18  1  0  0  0  0
  8 11  1  0  0  0  0
 32 35  1  0  0  0  0
 41 42  1  0  0  0  0
  7  8  1  0  0  0  0
 31 32  1  0  0  0  0
 22 27  1  0  0  0  0
 22 28  1  0  0  0  0
 21 25  1  0  0  0  0
 21 26  1  0  0  0  0
 23 29  1  0  0  0  0
 23 30  1  0  0  0  0
 18 24  1  0  0  0  0
  3  4  1  0  0  0  0
  3  5  1  0  0  0  0
  3  6  1  0  0  0  0
 11 14  1  0  0  0  0
 11 15  1  0  0  0  0
 11 16  1  0  0  0  0
 35 38  1  0  0  0  0
 35 39  1  0  0  0  0
 35 40  1  0  0  0  0
 42 44  1  0  0  0  0
 42 45  1  0  0  0  0
 42 46  1  0  0  0  0
  8 13  1  0  0  0  0
 32 37  1  0  0  0  0
 31 36  1  0  0  0  0
 41 43  1  0  0  0  0
  7 12  1  0  0  0  0
M  END
$$$$

  -OEChem-05262214473D

 46 46  0     1  0  0  0  0  0999 V2000
   -0.6012   -3.2995    3.8205 C   0  0  0  0  0  0  0  0  0  0  0  0
   -0.6574   -4.4683    3.4568 O   0  0  0  0  0  0  0  0  0  0  0  0
   -0.4935   -2.9859    5.2760 C   0  0  0  0  0  0  0  0  0  0  0  0
   -1.4789   -2.8689    5.7550 H   0  0  0  0  0  0  0  0  0  0  0  0
    0.0123   -3.7847    5.8419 H   0  0  0  0  0  0  0  0  0  0  0  0
    0.0585   -2.0642    5.5199 H   0  0  0  0  0  0  0  0  0  0  0  0
   -0.6261   -2.1849    2.9917 N   0  0  0  0  0  0  0  0  0  0  0  0
   -0.7237   -2.2601    1.5650 C   0  0  2  0  0  0  0  0  0  0  0  0
    0.1695   -1.1513    1.0687 C   0  0  0  0  0  0  0  0  0  0  0  0
    0.3193   -0.1267    1.7365 O   0  0  0  0  0  0  0  0  0  0  0  0
   -2.1397   -2.0663    1.0750 C   0  0  0  0  0  0  0  0  0  0  0  0
   -0.5717   -1.2606    3.4238 H   0  0  0  0  0  0  0  0  0  0  0  0
   -0.3076   -3.2111    1.2363 H   0  0  0  0  0  0  0  0  0  0  0  0
   -2.5584   -1.1089    1.4061 H   0  0  0  0  0  0  0  0  0  0  0  0
   -2.1682   -2.0790   -0.0197 H   0  0  0  0  0  0  0  0  0  0  0  0
   -2.7965   -2.8601    1.4459 H   0  0  0  0  0  0  0  0  0  0  0  0
    0.7724   -1.3745   -0.1593 N   0  0  0  0  0  0  0  0  0  0  0  0
    1.6644   -0.4046   -0.7812 C   0  0  2  0  0  0  0  0  0  0  0  0
    1.7547    0.7703    0.1454 C   0  0  0  0  0  0  0  0  0  0  0  0
    0.9343    0.8930    1.0473 O   0  0  0  0  0  0  0  0  0  0  0  0
    0.9832   -0.0385   -2.0947 C   0  0  0  0  0  0  0  0  0  0  0  0
    0.4329   -1.4308   -1.7953 C   0  0  0  0  0  0  0  0  0  0  0  0
    0.7499   -2.6270   -0.9105 C   0  0  0  0  0  0  0  0  0  0  0  0
    2.6660   -0.8234   -0.9178 H   0  0  0  0  0  0  0  0  0  0  0  0
    1.7341    0.0889   -2.8835 H   0  0  0  0  0  0  0  0  0  0  0  0
    0.3808    0.8733   -2.0362 H   0  0  0  0  0  0  0  0  0  0  0  0
   -0.5797   -1.3599   -1.3815 H   0  0  0  0  0  0  0  0  0  0  0  0
    0.3950   -2.0608   -2.6885 H   0  0  0  0  0  0  0  0  0  0  0  0
   -0.0575   -3.3641   -0.8933 H   0  0  0  0  0  0  0  0  0  0  0  0
    1.6766   -3.1193   -1.2248 H   0  0  0  0  0  0  0  0  0  0  0  0
    2.7383    1.6383   -0.0624 N   0  0  0  0  0  0  0  0  0  0  0  0
    3.4451    2.8927   -0.1882 C   0  0  2  0  0  0  0  0  0  0  0  0
    2.6143    3.8141   -1.0716 C   0  0  0  0  0  0  0  0  0  0  0  0
    1.7768    3.4011   -1.8711 O   0  0  0  0  0  0  0  0  0  0  0  0
    4.8349    2.6888   -0.7708 C   0  0  0  0  0  0  0  0  0  0  0  0
    2.4846    1.3174    0.8671 H   0  0  0  0  0  0  0  0  0  0  0  0
    3.5164    3.3180    0.8188 H   0  0  0  0  0  0  0  0  0  0  0  0
    4.7838    2.2634   -1.7798 H   0  0  0  0  0  0  0  0  0  0  0  0
    5.3796    3.6363   -0.8389 H   0  0  0  0  0  0  0  0  0  0  0  0
    5.4209    2.0025   -0.1501 H   0  0  0  0  0  0  0  0  0  0  0  0
    2.9486    5.1492   -0.8933 N   0  0  0  0  0  0  0  0  0  0  0  0
    2.3102    6.2174   -1.6264 C   0  0  0  0  0  0  0  0  0  0  0  0
    3.6417    5.4018   -0.1951 H   0  0  0  0  0  0  0  0  0  0  0  0
    2.8919    6.4392   -2.5333 H   0  0  0  0  0  0  0  0  0  0  0  0
    1.2926    5.9104   -1.9096 H   0  0  0  0  0  0  0  0  0  0  0  0
    2.2595    7.1163   -0.9945 H   0  0  0  0  0  0  0  0  0  0  0  0
 18 19  1  0  0  0  0
 19 31  1  0  0  0  0
 19 20  2  0  0  0  0
  8  9  1  0  0  0  0
  9 17  1  0  0  0  0
  9 10  2  0  0  0  0
  1  3  1  0  0  0  0
  1  7  1  0  0  0  0
  1  2  2  0  0  0  0
 32 33  1  0  0  0  0
 33 41  1  0  0  0  0
 33 34  2  0  0  0  0
 21 22  1  0  0  0  0
 22 23  1  0  0  0  0
 18 21  1  0  0  0  0
 17 23  1  0  0  0  0
 17 18  1  0  0  0  0
  8 11  1  0  0  0  0
 32 35  1  0  0  0  0
 41 42  1  0  0  0  0
  7  8  1  0  0  0  0
 31 32  1  0  0  0  0
 22 27  1  0  0  0  0
 22 28  1  0  0  0  0
 21 25  1  0  0  0  0
 21 26  1  0  0  0  0
 23 29  1  0  0  0  0
 23 30  1  0  0  0  0
 18 24  1  0  0  0  0
  3  4  1  0  0  0  0
  3  5  1  0  0  0  0
  3  6  1  0  0  0  0
 11 14  1  0  0  0  0
 11 15  1  0  0  0  0
 11 16  1  0  0  0  0
 35 38  1  0  0  0  0
 35 39  1  0  0  0  0
 35 40  1  0  0  0  0
 42 44  1  0  0  0  0
 42 45  1  0  0  0  0
 42 46  1  0  0  0  0
  8 13  1  0  0  0  0
 32 37  1  0  0  0  0
 31 36  1  0  0  0  0
 41 43  1  0  0  0  0
  7 12  1  0  0  0  0
M  END
$$$$

  -OEChem-05262214473D

 46 46  0     1  0  0  0  0  0999 V2000
   -0.6012   -3.2995    3.8205 C   0  0  0  0  0  0  0  0  0  0  0  0
   -0.6574   -4.4683    3.4568 O   0  0  0  0  0  0  0  0  0  0  0  0
   -0.4935   -2.9859    5.2760 C   0  0  0  0  0  0  0  0  0  0  0  0
   -1.4789   -2.8689    5.7550 H   0  0  0  0  0  0  0  0  0  0  0  0
    0.0123   -3.7847    5.8419 H   0  0  0  0  0  0  0  0  0  0  0  0
    0.0585   -2.0642    5.5199 H   0  0  0  0  0  0  0  0  0  0  0  0
   -0.6261   -2.1849    2.9917 N   0  0  0  0  0  0  0  0  0  0  0  0
   -0.7237   -2.2601    1.5650 C   0  0  2  0  0  0  0  0  0  0  0  0
    0.1695   -1.1513    1.0687 C   0  0  0  0  0  0  0  0  0  0  0  0
    0.3193   -0.1267    1.7365 O   0  0  0  0  0  0  0  0  0  0  0  0
   -2.1397   -2.0663    1.0750 C   0  0  0  0  0  0  0  0  0  0  0  0
   -0.5717   -1.2606    3.4238 H   0  0  0  0  0  0  0  0  0  0  0  0
   -0.3076   -3.2111    1.2363 H   0  0  0  0  0  0  0  0  0  0  0  0
   -2.5584   -1.1089    1.4061 H   0  0  0  0  0  0  0  0  0  0  0  0
   -2.1682   -2.0790   -0.0197 H   0  0  0  0  0  0  0  0  0  0  0  0
   -2.7965   -2.8601    1.4459 H   0  0  0  0  0  0  0  0  0  0  0  0
    0.7724   -1.3745   -0.1593 N   0  0  0  0  0  0  0  0  0  0  0  0
    1.6644   -0.4046   -0.7812 C   0  0  2  0  0  0  0  0  0  0  0  0
    1.7547    0.7703    0.1454 C   0  0  0  0  0  0  0  0  0  0  0  0
    1.1268    0.7596    1.1977 O   0  0  0  0  0  0  0  0  0  0  0  0
    0.9832   -0.0385   -2.0947 C   0  0  0  0  0  0  0  0  0  0  0  0
    0.4329   -1.4308   -1.7953 C   0  0  0  0  0  0  0  0  0  0  0  0
    0.7499   -2.6270   -0.9105 C   0  0  0  0  0  0  0  0  0  0  0  0
    2.6660   -0.8234   -0.9178 H   0  0  0  0  0  0  0  0  0  0  0  0
    1.7341    0.0889   -2.8835 H   0  0  0  0  0  0  0  0  0  0  0  0
    0.3808    0.8733   -2.0362 H   0  0  0  0  0  0  0  0  0  0  0  0
   -0.5797   -1.3599   -1.3815 H   0  0  0  0  0  0  0  0  0  0  0  0
    0.3950   -2.0608   -2.6885 H   0  0  0  0  0  0  0  0  0  0  0  0
   -0.0575   -3.3641   -0.8933 H   0  0  0  0  0  0  0  0  0  0  0  0
    1.6766   -3.1193   -1.2248 H   0  0  0  0  0  0  0  0  0  0  0  0
    2.5251    1.7856   -0.2284 N   0  0  0  0  0  0  0  0  0  0  0  0
    2.9835    3.1377   -0.4538 C   0  0  2  0  0  0  0  0  0  0  0  0
    1.8547    3.9118   -1.1215 C   0  0  0  0  0  0  0  0  0  0  0  0
    0.9478    3.3683   -1.7486 O   0  0  0  0  0  0  0  0  0  0  0  0
    4.2395    3.1605   -1.3109 C   0  0  0  0  0  0  0  0  0  0  0  0
    2.5205    1.4288    0.7224 H   0  0  0  0  0  0  0  0  0  0  0  0
    3.1906    3.5697    0.5313 H   0  0  0  0  0  0  0  0  0  0  0  0
    4.0515    2.7315   -2.3019 H   0  0  0  0  0  0  0  0  0  0  0  0
    4.6017    4.1835   -1.4569 H   0  0  0  0  0  0  0  0  0  0  0  0
    5.0410    2.5784   -0.8434 H   0  0  0  0  0  0  0  0  0  0  0  0
    2.0026    5.2836   -0.9715 N   0  0  0  0  0  0  0  0  0  0  0  0
    1.0670    6.2339   -1.5262 C   0  0  0  0  0  0  0  0  0  0  0  0
    2.7747    5.6456   -0.4196 H   0  0  0  0  0  0  0  0  0  0  0  0
    1.4087    6.5460   -2.5241 H   0  0  0  0  0  0  0  0  0  0  0  0
    0.0748    5.7663   -1.6081 H   0  0  0  0  0  0  0  0  0  0  0  0
    1.0046    7.1135   -0.8685 H   0  0  0  0  0  0  0  0  0  0  0  0
 18 19  1  0  0  0  0
 19 31  1  0  0  0  0
 19 20  2  0  0  0  0
  8  9  1  0  0  0  0
  9 17  1  0  0  0  0
  9 10  2  0  0  0  0
  1  3  1  0  0  0  0
  1  7  1  0  0  0  0
  1  2  2  0  0  0  0
 32 33  1  0  0  0  0
 33 41  1  0  0  0  0
 33 34  2  0  0  0  0
 21 22  1  0  0  0  0
 22 23  1  0  0  0  0
 18 21  1  0  0  0  0
 17 23  1  0  0  0  0
 17 18  1  0  0  0  0
  8 11  1  0  0  0  0
 32 35  1  0  0  0  0
 41 42  1  0  0  0  0
  7  8  1  0  0  0  0
 31 32  1  0  0  0  0
 22 27  1  0  0  0  0
 22 28  1  0  0  0  0
 21 25  1  0  0  0  0
 21 26  1  0  0  0  0
 23 29  1  0  0  0  0
 23 30  1  0  0  0  0
 18 24  1  0  0  0  0
  3  4  1  0  0  0  0
  3  5  1  0  0  0  0
  3  6  1  0  0  0  0
 11 14  1  0  0  0  0
 11 15  1  0  0  0  0
 11 16  1  0  0  0  0
 35 38  1  0  0  0  0
 35 39  1  0  0  0  0
 35 40  1  0  0  0  0
 42 44  1  0  0  0  0
 42 45  1  0  0  0  0
 42 46  1  0  0  0  0
  8 13  1  0  0  0  0
 32 37  1  0  0  0  0
 31 36  1  0  0  0  0
 41 43  1  0  0  0  0
  7 12  1  0  0  0  0
M  END
$$$$

  -OEChem-05262214473D

 46 46  0     1  0  0  0  0  0999 V2000
   -0.6012   -3.2995    3.8205 C   0  0  0  0  0  0  0  0  0  0  0  0
   -0.6574   -4.4683    3.4568 O   0  0  0  0  0  0  0  0  0  0  0  0
   -0.4935   -2.9859    5.2760 C   0  0  0  0  0  0  0  0  0  0  0  0
   -1.4789   -2.8689    5.7550 H   0  0  0  0  0  0  0  0  0  0  0  0
    0.0123   -3.7847    5.8419 H   0  0  0  0  0  0  0  0  0  0  0  0
    0.0585   -2.0642    5.5199 H   0  0  0  0  0  0  0  0  0  0  0  0
   -0.6261   -2.1849    2.9917 N   0  0  0  0  0  0  0  0  0  0  0  0
   -0.7237   -2.2601    1.5650 C   0  0  2  0  0  0  0  0  0  0  0  0
    0.1695   -1.1513    1.0687 C   0  0  0  0  0  0  0  0  0  0  0  0
    0.3193   -0.1267    1.7365 O   0  0  0  0  0  0  0  0  0  0  0  0
   -2.1397   -2.0663    1.0750 C   0  0  0  0  0  0  0  0  0  0  0  0
   -0.5717   -1.2606    3.4238 H   0  0  0  0  0  0  0  0  0  0  0  0
   -0.3076   -3.2111    1.2363 H   0  0  0  0  0  0  0  0  0  0  0  0
   -2.5584   -1.1089    1.4061 H   0  0  0  0  0  0  0  0  0  0  0  0
   -2.1682   -2.0790   -0.0197 H   0  0  0  0  0  0  0  0  0  0  0  0
   -2.7965   -2.8601    1.4459 H   0  0  0  0  0  0  0  0  0  0  0  0
    0.7724   -1.3745   -0.1593 N   0  0  0  0  0  0  0  0  0  0  0  0
    1.6644   -0.4046   -0.7812 C   0  0  2  0  0  0  0  0  0  0  0  0
    1.7547    0.7703    0.1454 C   0  0  0  0  0  0  0  0  0  0  0  0
    1.3646    0.6593    1.3017 O   0  0  0  0  0  0  0  0  0  0  0  0
    0.9832   -0.0385   -2.0947 C   0  0  0  0  0  0  0  0  0  0  0  0
    0.4329   -1.4308   -1.7953 C   0  0  0  0  0  0  0  0  0  0  0  0
    0.7499   -2.6270   -0.9105 C   0  0  0  0  0  0  0  0  0  0  0  0
    2.6660   -0.8234   -0.9178 H   0  0  0  0  0  0  0  0  0  0  0  0
    1.7341    0.0889   -2.8835 H   0  0  0  0  0  0  0  0  0  0  0  0
    0.3808    0.8733   -2.0362 H   0  0  0  0  0  0  0  0  0  0  0  0
   -0.5797   -1.3599   -1.3815 H   0  0  0  0  0  0  0  0  0  0  0  0
    0.3950   -2.0608   -2.6885 H   0  0  0  0  0  0  0  0  0  0  0  0
   -0.0575   -3.3641   -0.8933 H   0  0  0  0  0  0  0  0  0  0  0  0
    1.6766   -3.1193   -1.2248 H   0  0  0  0  0  0  0  0  0  0  0  0
    2.2618    1.8964   -0.3433 N   0  0  0  0  0  0  0  0  0  0  0  0
    2.4446    3.3046   -0.6129 C   0  0  2  0  0  0  0  0  0  0  0  0
    1.0951    3.8856   -1.0141 C   0  0  0  0  0  0  0  0  0  0  0  0
    0.1771    3.2020   -1.4626 O   0  0  0  0  0  0  0  0  0  0  0  0
    3.4793    3.5293   -1.7044 C   0  0  0  0  0  0  0  0  0  0  0  0
    2.5080    1.5445    0.5770 H   0  0  0  0  0  0  0  0  0  0  0  0
    2.7773    3.7653    0.3236 H   0  0  0  0  0  0  0  0  0  0  0  0
    3.1634    3.0746   -2.6504 H   0  0  0  0  0  0  0  0  0  0  0  0
    3.6374    4.5972   -1.8875 H   0  0  0  0  0  0  0  0  0  0  0  0
    4.4413    3.0848   -1.4270 H   0  0  0  0  0  0  0  0  0  0  0  0
    1.0514    5.2634   -0.8531 N   0  0  0  0  0  0  0  0  0  0  0  0
   -0.1161    6.0495   -1.1769 C   0  0  0  0  0  0  0  0  0  0  0  0
    1.8526    5.7458   -0.4568 H   0  0  0  0  0  0  0  0  0  0  0  0
   -0.0391    6.4118   -2.2127 H   0  0  0  0  0  0  0  0  0  0  0  0
   -1.0174    5.4276   -1.0722 H   0  0  0  0  0  0  0  0  0  0  0  0
   -0.1814    6.9080   -0.4923 H   0  0  0  0  0  0  0  0  0  0  0  0
 18 19  1  0  0  0  0
 19 31  1  0  0  0  0
 19 20  2  0  0  0  0
  8  9  1  0  0  0  0
  9 17  1  0  0  0  0
  9 10  2  0  0  0  0
  1  3  1  0  0  0  0
  1  7  1  0  0  0  0
  1  2  2  0  0  0  0
 32 33  1  0  0  0  0
 33 41  1  0  0  0  0
 33 34  2  0  0  0  0
 21 22  1  0  0  0  0
 22 23  1  0  0  0  0
 18 21  1  0  0  0  0
 17 23  1  0  0  0  0
 17 18  1  0  0  0  0
  8 11  1  0  0  0  0
 32 35  1  0  0  0  0
 41 42  1  0  0  0  0
  7  8  1  0  0  0  0
 31 32  1  0  0  0  0
 22 27  1  0  0  0  0
 22 28  1  0  0  0  0
 21 25  1  0  0  0  0
 21 26  1  0  0  0  0
 23 29  1  0  0  0  0
 23 30  1  0  0  0  0
 18 24  1  0  0  0  0
  3  4  1  0  0  0  0
  3  5  1  0  0  0  0
  3  6  1  0  0  0  0
 11 14  1  0  0  0  0
 11 15  1  0  0  0  0
 11 16  1  0  0  0  0
 35 38  1  0  0  0  0
 35 39  1  0  0  0  0
 35 40  1  0  0  0  0
 42 44  1  0  0  0  0
 42 45  1  0  0  0  0
 42 46  1  0  0  0  0
  8 13  1  0  0  0  0
 32 37  1  0  0  0  0
 31 36  1  0  0  0  0
 41 43  1  0  0  0  0
  7 12  1  0  0  0  0
M  END
$$$$

  -OEChem-05262214473D

 46 46  0     1  0  0  0  0  0999 V2000
   -0.6012   -3.2995    3.8205 C   0  0  0  0  0  0  0  0  0  0  0  0
   -0.6574   -4.4683    3.4568 O   0  0  0  0  0  0  0  0  0  0  0  0
   -0.4935   -2.9859    5.2760 C   0  0  0  0  0  0  0  0  0  0  0  0
   -1.4789   -2.8689    5.7550 H   0  0  0  0  0  0  0  0  0  0  0  0
    0.0123   -3.7847    5.8419 H   0  0  0  0  0  0  0  0  0  0  0  0
    0.0585   -2.0642    5.5199 H   0  0  0  0  0  0  0  0  0  0  0  0
   -0.6261   -2.1849    2.9917 N   0  0  0  0  0  0  0  0  0  0  0  0
   -0.7237   -2.2601    1.5650 C   0  0  2  0  0  0  0  0  0  0  0  0
    0.1695   -1.1513    1.0687 C   0  0  0  0  0  0  0  0  0  0  0  0
    0.3193   -0.1267    1.7365 O   0  0  0  0  0  0  0  0  0  0  0  0
   -2.1397   -2.0663    1.0750 C   0  0  0  0  0  0  0  0  0  0  0  0
   -0.5717   -1.2606    3.4238 H   0  0  0  0  0  0  0  0  0  0  0  0
   -0.3076   -3.2111    1.2363 H   0  0  0  0  0  0  0  0  0  0  0  0
   -2.5584   -1.1089    1.4061 H   0  0  0  0  0  0  0  0  0  0  0  0
   -2.1682   -2.0790   -0.0197 H   0  0  0  0  0  0  0  0  0  0  0  0
   -2.7965   -2.8601    1.4459 H   0  0  0  0  0  0  0  0  0  0  0  0
    0.7724   -1.3745   -0.1593 N   0  0  0  0  0  0  0  0  0  0  0  0
    1.6644   -0.4046   -0.7812 C   0  0  2  0  0  0  0  0  0  0  0  0
    1.7547    0.7703    0.1454 C   0  0  0  0  0  0  0  0  0  0  0  0
    1.6315    0.5987    1.3525 O   0  0  0  0  0  0  0  0  0  0  0  0
    0.9832   -0.0385   -2.0947 C   0  0  0  0  0  0  0  0  0  0  0  0
    0.4329   -1.4308   -1.7953 C   0  0  0  0  0  0  0  0  0  0  0  0
    0.7499   -2.6270   -0.9105 C   0  0  0  0  0  0  0  0  0  0  0  0
    2.6660   -0.8234   -0.9178 H   0  0  0  0  0  0  0  0  0  0  0  0
    1.7341    0.0889   -2.8835 H   0  0  0  0  0  0  0  0  0  0  0  0
    0.3808    0.8733   -2.0362 H   0  0  0  0  0  0  0  0  0  0  0  0
   -0.5797   -1.3599   -1.3815 H   0  0  0  0  0  0  0  0  0  0  0  0
    0.3950   -2.0608   -2.6885 H   0  0  0  0  0  0  0  0  0  0  0  0
   -0.0575   -3.3641   -0.8933 H   0  0  0  0  0  0  0  0  0  0  0  0
    1.6766   -3.1193   -1.2248 H   0  0  0  0  0  0  0  0  0  0  0  0
    1.9665    1.9631   -0.3991 N   0  0  0  0  0  0  0  0  0  0  0  0
    1.8650    3.3821   -0.6546 C   0  0  2  0  0  0  0  0  0  0  0  0
    0.3875    3.7370   -0.7567 C   0  0  0  0  0  0  0  0  0  0  0  0
   -0.4826    2.9137   -1.0327 O   0  0  0  0  0  0  0  0  0  0  0  0
    2.6063    3.7700   -1.9245 C   0  0  0  0  0  0  0  0  0  0  0  0
    2.4479    1.6564    0.4409 H   0  0  0  0  0  0  0  0  0  0  0  0
    2.3046    3.8913    0.2099 H   0  0  0  0  0  0  0  0  0  0  0  0
    2.1800    3.2694   -2.8015 H   0  0  0  0  0  0  0  0  0  0  0  0
    2.5525    4.8493   -2.1013 H   0  0  0  0  0  0  0  0  0  0  0  0
    3.6626    3.4871   -1.8611 H   0  0  0  0  0  0  0  0  0  0  0  0
    0.1599    5.0898   -0.5460 N   0  0  0  0  0  0  0  0  0  0  0  0
   -1.1585    5.6766   -0.6024 C   0  0  0  0  0  0  0  0  0  0  0  0
    0.9384    5.6957   -0.3041 H   0  0  0  0  0  0  0  0  0  0  0  0
   -1.3530    6.0456   -1.6203 H   0  0  0  0  0  0  0  0  0  0  0  0
   -1.9093    4.9173   -0.3382 H   0  0  0  0  0  0  0  0  0  0  0  0
   -1.2178    6.5139    0.1085 H   0  0  0  0  0  0  0  0  0  0  0  0
 18 19  1  0  0  0  0
 19 31  1  0  0  0  0
 19 20  2  0  0  0  0
  8  9  1  0  0  0  0
  9 17  1  0  0  0  0
  9 10  2  0  0  0  0
  1  3  1  0  0  0  0
  1  7  1  0  0  0  0
  1  2  2  0  0  0  0
 32 33  1  0  0  0  0
 33 41  1  0  0  0  0
 33 34  2  0  0  0  0
 21 22  1  0  0  0  0
 22 23  1  0  0  0  0
 18 21  1  0  0  0  0
 17 23  1  0  0  0  0
 17 18  1  0  0  0  0
  8 11  1  0  0  0  0
 32 35  1  0  0  0  0
 41 42  1  0  0  0  0
  7  8  1  0  0  0  0
 31 32  1  0  0  0  0
 22 27  1  0  0  0  0
 22 28  1  0  0  0  0
 21 25  1  0  0  0  0
 21 26  1  0  0  0  0
 23 29  1  0  0  0  0
 23 30  1  0  0  0  0
 18 24  1  0  0  0  0
  3  4  1  0  0  0  0
  3  5  1  0  0  0  0
  3  6  1  0  0  0  0
 11 14  1  0  0  0  0
 11 15  1  0  0  0  0
 11 16  1  0  0  0  0
 35 38  1  0  0  0  0
 35 39  1  0  0  0  0
 35 40  1  0  0  0  0
 42 44  1  0  0  0  0
 42 45  1  0  0  0  0
 42 46  1  0  0  0  0
  8 13  1  0  0  0  0
 32 37  1  0  0  0  0
 31 36  1  0  0  0  0
 41 43  1  0  0  0  0
  7 12  1  0  0  0  0
M  END
$$$$

  -OEChem-05262214473D

 46 46  0     1  0  0  0  0  0999 V2000
   -0.6012   -3.2995    3.8205 C   0  0  0  0  0  0  0  0  0  0  0  0
   -0.6574   -4.4683    3.4568 O   0  0  0  0  0  0  0  0  0  0  0  0
   -0.4935   -2.9859    5.2760 C   0  0  0  0  0  0  0  0  0  0  0  0
   -1.4789   -2.8689    5.7550 H   0  0  0  0  0  0  0  0  0  0  0  0
    0.0123   -3.7847    5.8419 H   0  0  0  0  0  0  0  0  0  0  0  0
    0.0585   -2.0642    5.5199 H   0  0  0  0  0  0  0  0  0  0  0  0
   -0.6261   -2.1849    2.9917 N   0  0  0  0  0  0  0  0  0  0  0  0
   -0.7237   -2.2601    1.5650 C   0  0  2  0  0  0  0  0  0  0  0  0
    0.1695   -1.1513    1.0687 C   0  0  0  0  0  0  0  0  0  0  0  0
    0.3193   -0.1267    1.7365 O   0  0  0  0  0  0  0  0  0  0  0  0
   -2.1397   -2.0663    1.0750 C   0  0  0  0  0  0  0  0  0  0  0  0
   -0.5717   -1.2606    3.4238 H   0  0  0  0  0  0  0  0  0  0  0  0
   -0.3076   -3.2111    1.2363 H   0  0  0  0  0  0  0  0  0  0  0  0
   -2.5584   -1.1089    1.4061 H   0  0  0  0  0  0  0  0  0  0  0  0
   -2.1682   -2.0790   -0.0197 H   0  0  0  0  0  0  0  0  0  0  0  0
   -2.7965   -2.8601    1.4459 H   0  0  0  0  0  0  0  0  0  0  0  0
    0.7724   -1.3745   -0.1593 N   0  0  0  0  0  0  0  0  0  0  0  0
    1.6644   -0.4046   -0.7812 C   0  0  2  0  0  0  0  0  0  0  0  0
    1.7547    0.7703    0.1454 C   0  0  0  0  0  0  0  0  0  0  0  0
    1.9093    0.5822    1.3464 O   0  0  0  0  0  0  0  0  0  0  0  0
    0.9832   -0.0385   -2.0947 C   0  0  0  0  0  0  0  0  0  0  0  0
    0.4329   -1.4308   -1.7953 C   0  0  0  0  0  0  0  0  0  0  0  0
    0.7499   -2.6270   -0.9105 C   0  0  0  0  0  0  0  0  0  0  0  0
    2.6660   -0.8234   -0.9178 H   0  0  0  0  0  0  0  0  0  0  0  0
    1.7341    0.0889   -2.8835 H   0  0  0  0  0  0  0  0  0  0  0  0
    0.3808    0.8733   -2.0362 H   0  0  0  0  0  0  0  0  0  0  0  0
   -0.5797   -1.3599   -1.3815 H   0  0  0  0  0  0  0  0  0  0  0  0
    0.3950   -2.0608   -2.6885 H   0  0  0  0  0  0  0  0  0  0  0  0
   -0.0575   -3.3641   -0.8933 H   0  0  0  0  0  0  0  0  0  0  0  0
    1.6766   -3.1193   -1.2248 H   0  0  0  0  0  0  0  0  0  0  0  0
    1.6593    1.9812   -0.3920 N   0  0  0  0  0  0  0  0  0  0  0  0
    1.2844    3.3648   -0.5761 C   0  0  2  0  0  0  0  0  0  0  0  0
   -0.2201    3.4762   -0.3669 C   0  0  0  0  0  0  0  0  0  0  0  0
   -0.9866    2.5229   -0.4880 O   0  0  0  0  0  0  0  0  0  0  0  0
    1.6798    3.8663   -1.9563 C   0  0  0  0  0  0  0  0  0  0  0  0
    2.3444    1.7570    0.3234 H   0  0  0  0  0  0  0  0  0  0  0  0
    1.8049    3.9392    0.1979 H   0  0  0  0  0  0  0  0  0  0  0  0
    1.1682    3.3026   -2.7450 H   0  0  0  0  0  0  0  0  0  0  0  0
    1.4208    4.9226   -2.0839 H   0  0  0  0  0  0  0  0  0  0  0  0
    2.7580    3.7578   -2.1162 H   0  0  0  0  0  0  0  0  0  0  0  0
   -0.6111    4.7747   -0.0713 N   0  0  0  0  0  0  0  0  0  0  0  0
   -1.9893    5.1407    0.1581 C   0  0  0  0  0  0  0  0  0  0  0  0
    0.0944    5.4986    0.0281 H   0  0  0  0  0  0  0  0  0  0  0  0
   -2.4433    5.4725   -0.7873 H   0  0  0  0  0  0  0  0  0  0  0  0
   -2.5404    4.2703    0.5438 H   0  0  0  0  0  0  0  0  0  0  0  0
   -2.0340    5.9580    0.8929 H   0  0  0  0  0  0  0  0  0  0  0  0
 18 19  1  0  0  0  0
 19 31  1  0  0  0  0
 19 20  2  0  0  0  0
  8  9  1  0  0  0  0
  9 17  1  0  0  0  0
  9 10  2  0  0  0  0
  1  3  1  0  0  0  0
  1  7  1  0  0  0  0
  1  2  2  0  0  0  0
 32 33  1  0  0  0  0
 33 41  1  0  0  0  0
 33 34  2  0  0  0  0
 21 22  1  0  0  0  0
 22 23  1  0  0  0  0
 18 21  1  0  0  0  0
 17 23  1  0  0  0  0
 17 18  1  0  0  0  0
  8 11  1  0  0  0  0
 32 35  1  0  0  0  0
 41 42  1  0  0  0  0
  7  8  1  0  0  0  0
 31 32  1  0  0  0  0
 22 27  1  0  0  0  0
 22 28  1  0  0  0  0
 21 25  1  0  0  0  0
 21 26  1  0  0  0  0
 23 29  1  0  0  0  0
 23 30  1  0  0  0  0
 18 24  1  0  0  0  0
  3  4  1  0  0  0  0
  3  5  1  0  0  0  0
  3  6  1  0  0  0  0
 11 14  1  0  0  0  0
 11 15  1  0  0  0  0
 11 16  1  0  0  0  0
 35 38  1  0  0  0  0
 35 39  1  0  0  0  0
 35 40  1  0  0  0  0
 42 44  1  0  0  0  0
 42 45  1  0  0  0  0
 42 46  1  0  0  0  0
  8 13  1  0  0  0  0
 32 37  1  0  0  0  0
 31 36  1  0  0  0  0
 41 43  1  0  0  0  0
  7 12  1  0  0  0  0
M  END
$$$$

  -OEChem-05262214473D

 46 46  0     1  0  0  0  0  0999 V2000
   -0.6012   -3.2995    3.8205 C   0  0  0  0  0  0  0  0  0  0  0  0
   -0.6574   -4.4683    3.4568 O   0  0  0  0  0  0  0  0  0  0  0  0
   -0.4935   -2.9859    5.2760 C   0  0  0  0  0  0  0  0  0  0  0  0
   -1.4789   -2.8689    5.7550 H   0  0  0  0  0  0  0  0  0  0  0  0
    0.0123   -3.7847    5.8419 H   0  0  0  0  0  0  0  0  0  0  0  0
    0.0585   -2.0642    5.5199 H   0  0  0  0  0  0  0  0  0  0  0  0
   -0.6261   -2.1849    2.9917 N   0  0  0  0  0  0  0  0  0  0  0  0
   -0.7237   -2.2601    1.5650 C   0  0  2  0  0  0  0  0  0  0  0  0
    0.1695   -1.1513    1.0687 C   0  0  0  0  0  0  0  0  0  0  0  0
    0.3193   -0.1267    1.7365 O   0  0  0  0  0  0  0  0  0  0  0  0
   -2.1397   -2.0663    1.0750 C   0  0  0  0  0  0  0  0  0  0  0  0
   -0.5717   -1.2606    3.4238 H   0  0  0  0  0  0  0  0  0  0  0  0
   -0.3076   -3.2111    1.2363 H   0  0  0  0  0  0  0  0  0  0  0  0
   -2.5584   -1.1089    1.4061 H   0  0  0  0  0  0  0  0  0  0  0  0
   -2.1682   -2.0790   -0.0197 H   0  0  0  0  0  0  0  0  0  0  0  0
   -2.7965   -2.8601    1.4459 H   0  0  0  0  0  0  0  0  0  0  0  0
    0.7724   -1.3745   -0.1593 N   0  0  0  0  0  0  0  0  0  0  0  0
    1.6644   -0.4046   -0.7812 C   0  0  2  0  0  0  0  0  0  0  0  0
    1.7547    0.7703    0.1454 C   0  0  0  0  0  0  0  0  0  0  0  0
    2.1790    0.6107    1.2839 O   0  0  0  0  0  0  0  0  0  0  0  0
    0.9832   -0.0385   -2.0947 C   0  0  0  0  0  0  0  0  0  0  0  0
    0.4329   -1.4308   -1.7953 C   0  0  0  0  0  0  0  0  0  0  0  0
    0.7499   -2.6270   -0.9105 C   0  0  0  0  0  0  0  0  0  0  0  0
    2.6660   -0.8234   -0.9178 H   0  0  0  0  0  0  0  0  0  0  0  0
    1.7341    0.0889   -2.8835 H   0  0  0  0  0  0  0  0  0  0  0  0
    0.3808    0.8733   -2.0362 H   0  0  0  0  0  0  0  0  0  0  0  0
   -0.5797   -1.3599   -1.3815 H   0  0  0  0  0  0  0  0  0  0  0  0
    0.3950   -2.0608   -2.6885 H   0  0  0  0  0  0  0  0  0  0  0  0
   -0.0575   -3.3641   -0.8933 H   0  0  0  0  0  0  0  0  0  0  0  0
    1.6766   -3.1193   -1.2248 H   0  0  0  0  0  0  0  0  0  0  0  0
    1.3611    1.9494   -0.3226 N   0  0  0  0  0  0  0  0  0  0  0  0
    0.7422    3.2541   -0.3828 C   0  0  2  0  0  0  0  0  0  0  0  0
   -0.6861    3.1211    0.1289 C   0  0  0  0  0  0  0  0  0  0  0  0
   -1.3004    2.0563    0.1342 O   0  0  0  0  0  0  0  0  0  0  0  0
    0.7630    3.8116   -1.7975 C   0  0  0  0  0  0  0  0  0  0  0  0
    2.2045    1.8395    0.2325 H   0  0  0  0  0  0  0  0  0  0  0  0
    1.3120    3.9058    0.2884 H   0  0  0  0  0  0  0  0  0  0  0  0
    0.1971    3.1720   -2.4846 H   0  0  0  0  0  0  0  0  0  0  0  0
    0.3195    4.8120   -1.8363 H   0  0  0  0  0  0  0  0  0  0  0  0
    1.7891    3.8786   -2.1749 H   0  0  0  0  0  0  0  0  0  0  0  0
   -1.2092    4.3396    0.5388 N   0  0  0  0  0  0  0  0  0  0  0  0
   -2.5517    4.4783    1.0529 C   0  0  0  0  0  0  0  0  0  0  0  0
   -0.6220    5.1681    0.5170 H   0  0  0  0  0  0  0  0  0  0  0  0
   -3.2358    4.7315    0.2296 H   0  0  0  0  0  0  0  0  0  0  0  0
   -2.8675    3.5307    1.5136 H   0  0  0  0  0  0  0  0  0  0  0  0
   -2.5743    5.2783    1.8075 H   0  0  0  0  0  0  0  0  0  0  0  0
 18 19  1  0  0  0  0
 19 31  1  0  0  0  0
 19 20  2  0  0  0  0
  8  9  1  0  0  0  0
  9 17  1  0  0  0  0
  9 10  2  0  0  0  0
  1  3  1  0  0  0  0
  1  7  1  0  0  0  0
  1  2  2  0  0  0  0
 32 33  1  0  0  0  0
 33 41  1  0  0  0  0
 33 34  2  0  0  0  0
 21 22  1  0  0  0  0
 22 23  1  0  0  0  0
 18 21  1  0  0  0  0
 17 23  1  0  0  0  0
 17 18  1  0  0  0  0
  8 11  1  0  0  0  0
 32 35  1  0  0  0  0
 41 42  1  0  0  0  0
  7  8  1  0  0  0  0
 31 32  1  0  0  0  0
 22 27  1  0  0  0  0
 22 28  1  0  0  0  0
 21 25  1  0  0  0  0
 21 26  1  0  0  0  0
 23 29  1  0  0  0  0
 23 30  1  0  0  0  0
 18 24  1  0  0  0  0
  3  4  1  0  0  0  0
  3  5  1  0  0  0  0
  3  6  1  0  0  0  0
 11 14  1  0  0  0  0
 11 15  1  0  0  0  0
 11 16  1  0  0  0  0
 35 38  1  0  0  0  0
 35 39  1  0  0  0  0
 35 40  1  0  0  0  0
 42 44  1  0  0  0  0
 42 45  1  0  0  0  0
 42 46  1  0  0  0  0
  8 13  1  0  0  0  0
 32 37  1  0  0  0  0
 31 36  1  0  0  0  0
 41 43  1  0  0  0  0
  7 12  1  0  0  0  0
M  END
$$$$

  -OEChem-05262214473D

 46 46  0     1  0  0  0  0  0999 V2000
   -0.6012   -3.2995    3.8205 C   0  0  0  0  0  0  0  0  0  0  0  0
   -0.6574   -4.4683    3.4568 O   0  0  0  0  0  0  0  0  0  0  0  0
   -0.4935   -2.9859    5.2760 C   0  0  0  0  0  0  0  0  0  0  0  0
   -1.4789   -2.8689    5.7550 H   0  0  0  0  0  0  0  0  0  0  0  0
    0.0123   -3.7847    5.8419 H   0  0  0  0  0  0  0  0  0  0  0  0
    0.0585   -2.0642    5.5199 H   0  0  0  0  0  0  0  0  0  0  0  0
   -0.6261   -2.1849    2.9917 N   0  0  0  0  0  0  0  0  0  0  0  0
   -0.7237   -2.2601    1.5650 C   0  0  2  0  0  0  0  0  0  0  0  0
    0.1695   -1.1513    1.0687 C   0  0  0  0  0  0  0  0  0  0  0  0
    0.3193   -0.1267    1.7365 O   0  0  0  0  0  0  0  0  0  0  0  0
   -2.1397   -2.0663    1.0750 C   0  0  0  0  0  0  0  0  0  0  0  0
   -0.5717   -1.2606    3.4238 H   0  0  0  0  0  0  0  0  0  0  0  0
   -0.3076   -3.2111    1.2363 H   0  0  0  0  0  0  0  0  0  0  0  0
   -2.5584   -1.1089    1.4061 H   0  0  0  0  0  0  0  0  0  0  0  0
   -2.1682   -2.0790   -0.0197 H   0  0  0  0  0  0  0  0  0  0  0  0
   -2.7965   -2.8601    1.4459 H   0  0  0  0  0  0  0  0  0  0  0  0
    0.7724   -1.3745   -0.1593 N   0  0  0  0  0  0  0  0  0  0  0  0
    1.6644   -0.4046   -0.7812 C   0  0  2  0  0  0  0  0  0  0  0  0
    1.7547    0.7703    0.1454 C   0  0  0  0  0  0  0  0  0  0  0  0
    2.4222    0.6824    1.1693 O   0  0  0  0  0  0  0  0  0  0  0  0
    0.9832   -0.0385   -2.0947 C   0  0  0  0  0  0  0  0  0  0  0  0
    0.4329   -1.4308   -1.7953 C   0  0  0  0  0  0  0  0  0  0  0  0
    0.7499   -2.6270   -0.9105 C   0  0  0  0  0  0  0  0  0  0  0  0
    2.6660   -0.8234   -0.9178 H   0  0  0  0  0  0  0  0  0  0  0  0
    1.7341    0.0889   -2.8835 H   0  0  0  0  0  0  0  0  0  0  0  0
    0.3808    0.8733   -2.0362 H   0  0  0  0  0  0  0  0  0  0  0  0
   -0.5797   -1.3599   -1.3815 H   0  0  0  0  0  0  0  0  0  0  0  0
    0.3950   -2.0608   -2.6885 H   0  0  0  0  0  0  0  0  0  0  0  0
   -0.0575   -3.3641   -0.8933 H   0  0  0  0  0  0  0  0  0  0  0  0
    1.6766   -3.1193   -1.2248 H   0  0  0  0  0  0  0  0  0  0  0  0
    1.0922    1.8698   -0.1955 N   0  0  0  0  0  0  0  0  0  0  0  0
    0.2754    3.0573   -0.0878 C   0  0  2  0  0  0  0  0  0  0  0  0
   -0.9789    2.6958    0.6967 C   0  0  0  0  0  0  0  0  0  0  0  0
   -1.4026    1.5458    0.7916 O   0  0  0  0  0  0  0  0  0  0  0  0
   -0.0815    3.6096   -1.4591 C   0  0  0  0  0  0  0  0  0  0  0  0
    2.0376    1.8982    0.1743 H   0  0  0  0  0  0  0  0  0  0  0  0
    0.8597    3.7931    0.4753 H   0  0  0  0  0  0  0  0  0  0  0  0
   -0.6672    2.8863   -2.0381 H   0  0  0  0  0  0  0  0  0  0  0  0
   -0.6763    4.5252   -1.3755 H   0  0  0  0  0  0  0  0  0  0  0  0
    0.8221    3.8412   -2.0332 H   0  0  0  0  0  0  0  0  0  0  0  0
   -1.5935    3.8141    1.2426 N   0  0  0  0  0  0  0  0  0  0  0  0
   -2.8075    3.7345    2.0210 C   0  0  0  0  0  0  0  0  0  0  0  0
   -1.1619    4.7266    1.1295 H   0  0  0  0  0  0  0  0  0  0  0  0
   -3.6765    3.8731    1.3611 H   0  0  0  0  0  0  0  0  0  0  0  0
   -2.8685    2.7487    2.5052 H   0  0  0  0  0  0  0  0  0  0  0  0
   -2.8020    4.5211    2.7900 H   0  0  0  0  0  0  0  0  0  0  0  0
 18 19  1  0  0  0  0
 19 31  1  0  0  0  0
 19 20  2  0  0  0  0
  8  9  1  0  0  0  0
  9 17  1  0  0  0  0
  9 10  2  0  0  0  0
  1  3  1  0  0  0  0
  1  7  1  0  0  0  0
  1  2  2  0  0  0  0
 32 33  1  0  0  0  0
 33 41  1  0  0  0  0
 33 34  2  0  0  0  0
 21 22  1  0  0  0  0
 22 23  1  0  0  0  0
 18 21  1  0  0  0  0
 17 23  1  0  0  0  0
 17 18  1  0  0  0  0
  8 11  1  0  0  0  0
 32 35  1  0  0  0  0
 41 42  1  0  0  0  0
  7  8  1  0  0  0  0
 31 32  1  0  0  0  0
 22 27  1  0  0  0  0
 22 28  1  0  0  0  0
 21 25  1  0  0  0  0
 21 26  1  0  0  0  0
 23 29  1  0  0  0  0
 23 30  1  0  0  0  0
 18 24  1  0  0  0  0
  3  4  1  0  0  0  0
  3  5  1  0  0  0  0
  3  6  1  0  0  0  0
 11 14  1  0  0  0  0
 11 15  1  0  0  0  0
 11 16  1  0  0  0  0
 35 38  1  0  0  0  0
 35 39  1  0  0  0  0
 35 40  1  0  0  0  0
 42 44  1  0  0  0  0
 42 45  1  0  0  0  0
 42 46  1  0  0  0  0
  8 13  1  0  0  0  0
 32 37  1  0  0  0  0
 31 36  1  0  0  0  0
 41 43  1  0  0  0  0
  7 12  1  0  0  0  0
M  END
$$$$

  -OEChem-05262214473D

 46 46  0     1  0  0  0  0  0999 V2000
   -0.6012   -3.2995    3.8205 C   0  0  0  0  0  0  0  0  0  0  0  0
   -0.6574   -4.4683    3.4568 O   0  0  0  0  0  0  0  0  0  0  0  0
   -0.4935   -2.9859    5.2760 C   0  0  0  0  0  0  0  0  0  0  0  0
   -1.4789   -2.8689    5.7550 H   0  0  0  0  0  0  0  0  0  0  0  0
    0.0123   -3.7847    5.8419 H   0  0  0  0  0  0  0  0  0  0  0  0
    0.0585   -2.0642    5.5199 H   0  0  0  0  0  0  0  0  0  0  0  0
   -0.6261   -2.1849    2.9917 N   0  0  0  0  0  0  0  0  0  0  0  0
   -0.7237   -2.2601    1.5650 C   0  0  2  0  0  0  0  0  0  0  0  0
    0.1695   -1.1513    1.0687 C   0  0  0  0  0  0  0  0  0  0  0  0
    0.3193   -0.1267    1.7365 O   0  0  0  0  0  0  0  0  0  0  0  0
   -2.1397   -2.0663    1.0750 C   0  0  0  0  0  0  0  0  0  0  0  0
   -0.5717   -1.2606    3.4238 H   0  0  0  0  0  0  0  0  0  0  0  0
   -0.3076   -3.2111    1.2363 H   0  0  0  0  0  0  0  0  0  0  0  0
   -2.5584   -1.1089    1.4061 H   0  0  0  0  0  0  0  0  0  0  0  0
   -2.1682   -2.0790   -0.0197 H   0  0  0  0  0  0  0  0  0  0  0  0
   -2.7965   -2.8601    1.4459 H   0  0  0  0  0  0  0  0  0  0  0  0
    0.7724   -1.3745   -0.1593 N   0  0  0  0  0  0  0  0  0  0  0  0
    1.6644   -0.4046   -0.7812 C   0  0  2  0  0  0  0  0  0  0  0  0
    1.7547    0.7703    0.1454 C   0  0  0  0  0  0  0  0  0  0  0  0
    2.6225    0.7923    1.0103 O   0  0  0  0  0  0  0  0  0  0  0  0
    0.9832   -0.0385   -2.0947 C   0  0  0  0  0  0  0  0  0  0  0  0
    0.4329   -1.4308   -1.7953 C   0  0  0  0  0  0  0  0  0  0  0  0
    0.7499   -2.6270   -0.9105 C   0  0  0  0  0  0  0  0  0  0  0  0
    2.6660   -0.8234   -0.9178 H   0  0  0  0  0  0  0  0  0  0  0  0
    1.7341    0.0889   -2.8835 H   0  0  0  0  0  0  0  0  0  0  0  0
    0.3808    0.8733   -2.0362 H   0  0  0  0  0  0  0  0  0  0  0  0
   -0.5797   -1.3599   -1.3815 H   0  0  0  0  0  0  0  0  0  0  0  0
    0.3950   -2.0608   -2.6885 H   0  0  0  0  0  0  0  0  0  0  0  0
   -0.0575   -3.3641   -0.8933 H   0  0  0  0  0  0  0  0  0  0  0  0
    1.6766   -3.1193   -1.2248 H   0  0  0  0  0  0  0  0  0  0  0  0
    0.8710    1.7480   -0.0195 N   0  0  0  0  0  0  0  0  0  0  0  0
   -0.0842    2.7880    0.2887 C   0  0  2  0  0  0  0  0  0  0  0  0
   -1.0785    2.2293    1.2980 C   0  0  0  0  0  0  0  0  0  0  0  0
   -1.2863    1.0260    1.4394 O   0  0  0  0  0  0  0  0  0  0  0  0
   -0.7964    3.2741   -0.9640 C   0  0  0  0  0  0  0  0  0  0  0  0
    1.8553    1.9291    0.1529 H   0  0  0  0  0  0  0  0  0  0  0  0
    0.4787    3.6091    0.7459 H   0  0  0  0  0  0  0  0  0  0  0  0
   -1.3658    2.4652   -1.4359 H   0  0  0  0  0  0  0  0  0  0  0  0
   -1.4989    4.0816   -0.7329 H   0  0  0  0  0  0  0  0  0  0  0  0
   -0.0773    3.6482   -1.7007 H   0  0  0  0  0  0  0  0  0  0  0  0
   -1.7379    3.2340    1.9921 N   0  0  0  0  0  0  0  0  0  0  0  0
   -2.7392    2.9601    2.9963 C   0  0  0  0  0  0  0  0  0  0  0  0
   -1.4885    4.2042    1.8238 H   0  0  0  0  0  0  0  0  0  0  0  0
   -3.7354    2.9558    2.5300 H   0  0  0  0  0  0  0  0  0  0  0  0
   -2.5431    1.9778    3.4510 H   0  0  0  0  0  0  0  0  0  0  0  0
   -2.7015    3.7379    3.7733 H   0  0  0  0  0  0  0  0  0  0  0  0
 18 19  1  0  0  0  0
 19 31  1  0  0  0  0
 19 20  2  0  0  0  0
  8  9  1  0  0  0  0
  9 17  1  0  0  0  0
  9 10  2  0  0  0  0
  1  3  1  0  0  0  0
  1  7  1  0  0  0  0
  1  2  2  0  0  0  0
 32 33  1  0  0  0  0
 33 41  1  0  0  0  0
 33 34  2  0  0  0  0
 21 22  1  0  0  0  0
 22 23  1  0  0  0  0
 18 21  1  0  0  0  0
 17 23  1  0  0  0  0
 17 18  1  0  0  0  0
  8 11  1  0  0  0  0
 32 35  1  0  0  0  0
 41 42  1  0  0  0  0
  7  8  1  0  0  0  0
 31 32  1  0  0  0  0
 22 27  1  0  0  0  0
 22 28  1  0  0  0  0
 21 25  1  0  0  0  0
 21 26  1  0  0  0  0
 23 29  1  0  0  0  0
 23 30  1  0  0  0  0
 18 24  1  0  0  0  0
  3  4  1  0  0  0  0
  3  5  1  0  0  0  0
  3  6  1  0  0  0  0
 11 14  1  0  0  0  0
 11 15  1  0  0  0  0
 11 16  1  0  0  0  0
 35 38  1  0  0  0  0
 35 39  1  0  0  0  0
 35 40  1  0  0  0  0
 42 44  1  0  0  0  0
 42 45  1  0  0  0  0
 42 46  1  0  0  0  0
  8 13  1  0  0  0  0
 32 37  1  0  0  0  0
 31 36  1  0  0  0  0
 41 43  1  0  0  0  0
  7 12  1  0  0  0  0
M  END
$$$$

  -OEChem-05262214473D

 46 46  0     1  0  0  0  0  0999 V2000
   -0.6012   -3.2995    3.8205 C   0  0  0  0  0  0  0  0  0  0  0  0
   -0.6574   -4.4683    3.4568 O   0  0  0  0  0  0  0  0  0  0  0  0
   -0.4935   -2.9859    5.2760 C   0  0  0  0  0  0  0  0  0  0  0  0
   -1.4789   -2.8689    5.7550 H   0  0  0  0  0  0  0  0  0  0  0  0
    0.0123   -3.7847    5.8419 H   0  0  0  0  0  0  0  0  0  0  0  0
    0.0585   -2.0642    5.5199 H   0  0  0  0  0  0  0  0  0  0  0  0
   -0.6261   -2.1849    2.9917 N   0  0  0  0  0  0  0  0  0  0  0  0
   -0.7237   -2.2601    1.5650 C   0  0  2  0  0  0  0  0  0  0  0  0
    0.1695   -1.1513    1.0687 C   0  0  0  0  0  0  0  0  0  0  0  0
    0.3193   -0.1267    1.7365 O   0  0  0  0  0  0  0  0  0  0  0  0
   -2.1397   -2.0663    1.0750 C   0  0  0  0  0  0  0  0  0  0  0  0
   -0.5717   -1.2606    3.4238 H   0  0  0  0  0  0  0  0  0  0  0  0
   -0.3076   -3.2111    1.2363 H   0  0  0  0  0  0  0  0  0  0  0  0
   -2.5584   -1.1089    1.4061 H   0  0  0  0  0  0  0  0  0  0  0  0
   -2.1682   -2.0790   -0.0197 H   0  0  0  0  0  0  0  0  0  0  0  0
   -2.7965   -2.8601    1.4459 H   0  0  0  0  0  0  0  0  0  0  0  0
    0.7724   -1.3745   -0.1593 N   0  0  0  0  0  0  0  0  0  0  0  0
    1.6644   -0.4046   -0.7812 C   0  0  2  0  0  0  0  0  0  0  0  0
    1.7547    0.7703    0.1454 C   0  0  0  0  0  0  0  0  0  0  0  0
    2.7661    0.9331    0.8179 O   0  0  0  0  0  0  0  0  0  0  0  0
    0.9832   -0.0385   -2.0947 C   0  0  0  0  0  0  0  0  0  0  0  0
    0.4329   -1.4308   -1.7953 C   0  0  0  0  0  0  0  0  0  0  0  0
    0.7499   -2.6270   -0.9105 C   0  0  0  0  0  0  0  0  0  0  0  0
    2.6660   -0.8234   -0.9178 H   0  0  0  0  0  0  0  0  0  0  0  0
    1.7341    0.0889   -2.8835 H   0  0  0  0  0  0  0  0  0  0  0  0
    0.3808    0.8733   -2.0362 H   0  0  0  0  0  0  0  0  0  0  0  0
   -0.5797   -1.3599   -1.3815 H   0  0  0  0  0  0  0  0  0  0  0  0
    0.3950   -2.0608   -2.6885 H   0  0  0  0  0  0  0  0  0  0  0  0
   -0.0575   -3.3641   -0.8933 H   0  0  0  0  0  0  0  0  0  0  0  0
    1.6766   -3.1193   -1.2248 H   0  0  0  0  0  0  0  0  0  0  0  0
    0.7125    1.5922    0.1935 N   0  0  0  0  0  0  0  0  0  0  0  0
   -0.3120    2.4645    0.7212 C   0  0  2  0  0  0  0  0  0  0  0  0
   -0.9781    1.7533    1.8917 C   0  0  0  0  0  0  0  0  0  0  0  0
   -0.9594    0.5324    2.0334 O   0  0  0  0  0  0  0  0  0  0  0  0
   -1.3327    2.8280   -0.3459 C   0  0  0  0  0  0  0  0  0  0  0  0
    1.6699    1.9302    0.1696 H   0  0  0  0  0  0  0  0  0  0  0  0
    0.1951    3.3662    1.0816 H   0  0  0  0  0  0  0  0  0  0  0  0
   -1.8511    1.9372   -0.7192 H   0  0  0  0  0  0  0  0  0  0  0  0
   -2.0921    3.5116    0.0478 H   0  0  0  0  0  0  0  0  0  0  0  0
   -0.8477    3.3126   -1.2002 H   0  0  0  0  0  0  0  0  0  0  0  0
   -1.6325    2.6390    2.7364 N   0  0  0  0  0  0  0  0  0  0  0  0
   -2.3514    2.2078    3.9125 C   0  0  0  0  0  0  0  0  0  0  0  0
   -1.5796    3.6365    2.5525 H   0  0  0  0  0  0  0  0  0  0  0  0
   -3.4083    2.0422    3.6567 H   0  0  0  0  0  0  0  0  0  0  0  0
   -1.9136    1.2705    4.2866 H   0  0  0  0  0  0  0  0  0  0  0  0
   -2.2796    2.9821    4.6905 H   0  0  0  0  0  0  0  0  0  0  0  0
 18 19  1  0  0  0  0
 19 31  1  0  0  0  0
 19 20  2  0  0  0  0
  8  9  1  0  0  0  0
  9 17  1  0  0  0  0
  9 10  2  0  0  0  0
  1  3  1  0  0  0  0
  1  7  1  0  0  0  0
  1  2  2  0  0  0  0
 32 33  1  0  0  0  0
 33 41  1  0  0  0  0
 33 34  2  0  0  0  0
 21 22  1  0  0  0  0
 22 23  1  0  0  0  0
 18 21  1  0  0  0  0
 17 23  1  0  0  0  0
 17 18  1  0  0  0  0
  8 11  1  0  0  0  0
 32 35  1  0  0  0  0
 41 42  1  0  0  0  0
  7  8  1  0  0  0  0
 31 32  1  0  0  0  0
 22 27  1  0  0  0  0
 22 28  1  0  0  0  0
 21 25  1  0  0  0  0
 21 26  1  0  0  0  0
 23 29  1  0  0  0  0
 23 30  1  0  0  0  0
 18 24  1  0  0  0  0
  3  4  1  0  0  0  0
  3  5  1  0  0  0  0
  3  6  1  0  0  0  0
 11 14  1  0  0  0  0
 11 15  1  0  0  0  0
 11 16  1  0  0  0  0
 35 38  1  0  0  0  0
 35 39  1  0  0  0  0
 35 40  1  0  0  0  0
 42 44  1  0  0  0  0
 42 45  1  0  0  0  0
 42 46  1  0  0  0  0
  8 13  1  0  0  0  0
 32 37  1  0  0  0  0
 31 36  1  0  0  0  0
 41 43  1  0  0  0  0
  7 12  1  0  0  0  0
M  END
$$$$

  -OEChem-05262214473D

 46 46  0     1  0  0  0  0  0999 V2000
   -0.6012   -3.2995    3.8205 C   0  0  0  0  0  0  0  0  0  0  0  0
   -0.6574   -4.4683    3.4568 O   0  0  0  0  0  0  0  0  0  0  0  0
   -0.4935   -2.9859    5.2760 C   0  0  0  0  0  0  0  0  0  0  0  0
   -1.4789   -2.8689    5.7550 H   0  0  0  0  0  0  0  0  0  0  0  0
    0.0123   -3.7847    5.8419 H   0  0  0  0  0  0  0  0  0  0  0  0
    0.0585   -2.0642    5.5199 H   0  0  0  0  0  0  0  0  0  0  0  0
   -0.6261   -2.1849    2.9917 N   0  0  0  0  0  0  0  0  0  0  0  0
   -0.7237   -2.2601    1.5650 C   0  0  2  0  0  0  0  0  0  0  0  0
    0.1695   -1.1513    1.0687 C   0  0  0  0  0  0  0  0  0  0  0  0
    0.3193   -0.1267    1.7365 O   0  0  0  0  0  0  0  0  0  0  0  0
   -2.1397   -2.0663    1.0750 C   0  0  0  0  0  0  0  0  0  0  0  0
   -0.5717   -1.2606    3.4238 H   0  0  0  0  0  0  0  0  0  0  0  0
   -0.3076   -3.2111    1.2363 H   0  0  0  0  0  0  0  0  0  0  0  0
   -2.5584   -1.1089    1.4061 H   0  0  0  0  0  0  0  0  0  0  0  0
   -2.1682   -2.0790   -0.0197 H   0  0  0  0  0  0  0  0  0  0  0  0
   -2.7965   -2.8601    1.4459 H   0  0  0  0  0  0  0  0  0  0  0  0
    0.7724   -1.3745   -0.1593 N   0  0  0  0  0  0  0  0  0  0  0  0
    1.6644   -0.4046   -0.7812 C   0  0  2  0  0  0  0  0  0  0  0  0
    1.7547    0.7703    0.1454 C   0  0  0  0  0  0  0  0  0  0  0  0
    2.8433    1.0950    0.6051 O   0  0  0  0  0  0  0  0  0  0  0  0
    0.9832   -0.0385   -2.0947 C   0  0  0  0  0  0  0  0  0  0  0  0
    0.4329   -1.4308   -1.7953 C   0  0  0  0  0  0  0  0  0  0  0  0
    0.7499   -2.6270   -0.9105 C   0  0  0  0  0  0  0  0  0  0  0  0
    2.6660   -0.8234   -0.9178 H   0  0  0  0  0  0  0  0  0  0  0  0
    1.7341    0.0889   -2.8835 H   0  0  0  0  0  0  0  0  0  0  0  0
    0.3808    0.8733   -2.0362 H   0  0  0  0  0  0  0  0  0  0  0  0
   -0.5797   -1.3599   -1.3815 H   0  0  0  0  0  0  0  0  0  0  0  0
    0.3950   -2.0608   -2.6885 H   0  0  0  0  0  0  0  0  0  0  0  0
   -0.0575   -3.3641   -0.8933 H   0  0  0  0  0  0  0  0  0  0  0  0
    1.6766   -3.1193   -1.2248 H   0  0  0  0  0  0  0  0  0  0  0  0
    0.6276    1.4131    0.4290 N   0  0  0  0  0  0  0  0  0  0  0  0
   -0.3926    2.1088    1.1801 C   0  0  2  0  0  0  0  0  0  0  0  0
   -0.6845    1.3004    2.4374 C   0  0  0  0  0  0  0  0  0  0  0  0
   -0.4442    0.0987    2.5331 O   0  0  0  0  0  0  0  0  0  0  0  0
   -1.6541    2.3016    0.3529 C   0  0  0  0  0  0  0  0  0  0  0  0
    1.4941    1.9012    0.2235 H   0  0  0  0  0  0  0  0  0  0  0  0
    0.0280    3.0809    1.4596 H   0  0  0  0  0  0  0  0  0  0  0  0
   -2.0899    1.3384    0.0634 H   0  0  0  0  0  0  0  0  0  0  0  0
   -2.4156    2.8539    0.9134 H   0  0  0  0  0  0  0  0  0  0  0  0
   -1.4366    2.8575   -0.5656 H   0  0  0  0  0  0  0  0  0  0  0  0
   -1.2845    2.0694    3.4247 N   0  0  0  0  0  0  0  0  0  0  0  0
   -1.6707    1.5288    4.7071 C   0  0  0  0  0  0  0  0  0  0  0  0
   -1.4290    3.0623    3.2660 H   0  0  0  0  0  0  0  0  0  0  0  0
   -2.7177    1.1944    4.6644 H   0  0  0  0  0  0  0  0  0  0  0  0
   -1.0230    0.6749    4.9550 H   0  0  0  0  0  0  0  0  0  0  0  0
   -1.5651    2.3053    5.4791 H   0  0  0  0  0  0  0  0  0  0  0  0
 18 19  1  0  0  0  0
 19 31  1  0  0  0  0
 19 20  2  0  0  0  0
  8  9  1  0  0  0  0
  9 17  1  0  0  0  0
  9 10  2  0  0  0  0
  1  3  1  0  0  0  0
  1  7  1  0  0  0  0
  1  2  2  0  0  0  0
 32 33  1  0  0  0  0
 33 41  1  0  0  0  0
 33 34  2  0  0  0  0
 21 22  1  0  0  0  0
 22 23  1  0  0  0  0
 18 21  1  0  0  0  0
 17 23  1  0  0  0  0
 17 18  1  0  0  0  0
  8 11  1  0  0  0  0
 32 35  1  0  0  0  0
 41 42  1  0  0  0  0
  7  8  1  0  0  0  0
 31 32  1  0  0  0  0
 22 27  1  0  0  0  0
 22 28  1  0  0  0  0
 21 25  1  0  0  0  0
 21 26  1  0  0  0  0
 23 29  1  0  0  0  0
 23 30  1  0  0  0  0
 18 24  1  0  0  0  0
  3  4  1  0  0  0  0
  3  5  1  0  0  0  0
  3  6  1  0  0  0  0
 11 14  1  0  0  0  0
 11 15  1  0  0  0  0
 11 16  1  0  0  0  0
 35 38  1  0  0  0  0
 35 39  1  0  0  0  0
 35 40  1  0  0  0  0
 42 44  1  0  0  0  0
 42 45  1  0  0  0  0
 42 46  1  0  0  0  0
  8 13  1  0  0  0  0
 32 37  1  0  0  0  0
 31 36  1  0  0  0  0
 41 43  1  0  0  0  0
  7 12  1  0  0  0  0
M  END
$$$$

  -OEChem-05262214473D

 46 46  0     1  0  0  0  0  0999 V2000
   -0.6012   -3.2995    3.8205 C   0  0  0  0  0  0  0  0  0  0  0  0
   -0.6574   -4.4683    3.4568 O   0  0  0  0  0  0  0  0  0  0  0  0
   -0.4935   -2.9859    5.2760 C   0  0  0  0  0  0  0  0  0  0  0  0
   -1.4789   -2.8689    5.7550 H   0  0  0  0  0  0  0  0  0  0  0  0
    0.0123   -3.7847    5.8419 H   0  0  0  0  0  0  0  0  0  0  0  0
    0.0585   -2.0642    5.5199 H   0  0  0  0  0  0  0  0  0  0  0  0
   -0.6261   -2.1849    2.9917 N   0  0  0  0  0  0  0  0  0  0  0  0
   -0.7237   -2.2601    1.5650 C   0  0  2  0  0  0  0  0  0  0  0  0
    0.1695   -1.1513    1.0687 C   0  0  0  0  0  0  0  0  0  0  0  0
    0.3193   -0.1267    1.7365 O   0  0  0  0  0  0  0  0  0  0  0  0
   -2.1397   -2.0663    1.0750 C   0  0  0  0  0  0  0  0  0  0  0  0
   -0.5717   -1.2606    3.4238 H   0  0  0  0  0  0  0  0  0  0  0  0
   -0.3076   -3.2111    1.2363 H   0  0  0  0  0  0  0  0  0  0  0  0
   -2.5584   -1.1089    1.4061 H   0  0  0  0  0  0  0  0  0  0  0  0
   -2.1682   -2.0790   -0.0197 H   0  0  0  0  0  0  0  0  0  0  0  0
   -2.7965   -2.8601    1.4459 H   0  0  0  0  0  0  0  0  0  0  0  0
    0.7724   -1.3745   -0.1593 N   0  0  0  0  0  0  0  0  0  0  0  0
    1.6644   -0.4046   -0.7812 C   0  0  2  0  0  0  0  0  0  0  0  0
    1.7547    0.7703    0.1454 C   0  0  0  0  0  0  0  0  0  0  0  0
    2.8488    1.2670    0.3864 O   0  0  0  0  0  0  0  0  0  0  0  0
    0.9832   -0.0385   -2.0947 C   0  0  0  0  0  0  0  0  0  0  0  0
    0.4329   -1.4308   -1.7953 C   0  0  0  0  0  0  0  0  0  0  0  0
    0.7499   -2.6270   -0.9105 C   0  0  0  0  0  0  0  0  0  0  0  0
    2.6660   -0.8234   -0.9178 H   0  0  0  0  0  0  0  0  0  0  0  0
    1.7341    0.0889   -2.8835 H   0  0  0  0  0  0  0  0  0  0  0  0
    0.3808    0.8733   -2.0362 H   0  0  0  0  0  0  0  0  0  0  0  0
   -0.5797   -1.3599   -1.3815 H   0  0  0  0  0  0  0  0  0  0  0  0
    0.3950   -2.0608   -2.6885 H   0  0  0  0  0  0  0  0  0  0  0  0
   -0.0575   -3.3641   -0.8933 H   0  0  0  0  0  0  0  0  0  0  0  0
    1.6766   -3.1193   -1.2248 H   0  0  0  0  0  0  0  0  0  0  0  0
    0.6220    1.2227    0.6709 N   0  0  0  0  0  0  0  0  0  0  0  0
   -0.3205    1.7452    1.6342 C   0  0  2  0  0  0  0  0  0  0  0  0
   -0.2177    0.9014    2.8979 C   0  0  0  0  0  0  0  0  0  0  0  0
    0.2242   -0.2456    2.9045 O   0  0  0  0  0  0  0  0  0  0  0  0
   -1.7385    1.7309    1.0848 C   0  0  0  0  0  0  0  0  0  0  0  0
    1.3398    1.8443    0.3107 H   0  0  0  0  0  0  0  0  0  0  0  0
   -0.0110    2.7727    1.8542 H   0  0  0  0  0  0  0  0  0  0  0  0
   -2.0661    0.7097    0.8584 H   0  0  0  0  0  0  0  0  0  0  0  0
   -2.4472    2.1533    1.8048 H   0  0  0  0  0  0  0  0  0  0  0  0
   -1.8039    2.3137    0.1597 H   0  0  0  0  0  0  0  0  0  0  0  0
   -0.7177    1.5642    4.0100 N   0  0  0  0  0  0  0  0  0  0  0  0
   -0.7433    0.9695    5.3259 C   0  0  0  0  0  0  0  0  0  0  0  0
   -1.0468    2.5205    3.9157 H   0  0  0  0  0  0  0  0  0  0  0  0
   -1.7106    0.4702    5.4844 H   0  0  0  0  0  0  0  0  0  0  0  0
    0.0682    0.2317    5.4106 H   0  0  0  0  0  0  0  0  0  0  0  0
   -0.6067    1.7535    6.0853 H   0  0  0  0  0  0  0  0  0  0  0  0
 18 19  1  0  0  0  0
 19 31  1  0  0  0  0
 19 20  2  0  0  0  0
  8  9  1  0  0  0  0
  9 17  1  0  0  0  0
  9 10  2  0  0  0  0
  1  3  1  0  0  0  0
  1  7  1  0  0  0  0
  1  2  2  0  0  0  0
 32 33  1  0  0  0  0
 33 41  1  0  0  0  0
 33 34  2  0  0  0  0
 21 22  1  0  0  0  0
 22 23  1  0  0  0  0
 18 21  1  0  0  0  0
 17 23  1  0  0  0  0
 17 18  1  0  0  0  0
  8 11  1  0  0  0  0
 32 35  1  0  0  0  0
 41 42  1  0  0  0  0
  7  8  1  0  0  0  0
 31 32  1  0  0  0  0
 22 27  1  0  0  0  0
 22 28  1  0  0  0  0
 21 25  1  0  0  0  0
 21 26  1  0  0  0  0
 23 29  1  0  0  0  0
 23 30  1  0  0  0  0
 18 24  1  0  0  0  0
  3  4  1  0  0  0  0
  3  5  1  0  0  0  0
  3  6  1  0  0  0  0
 11 14  1  0  0  0  0
 11 15  1  0  0  0  0
 11 16  1  0  0  0  0
 35 38  1  0  0  0  0
 35 39  1  0  0  0  0
 35 40  1  0  0  0  0
 42 44  1  0  0  0  0
 42 45  1  0  0  0  0
 42 46  1  0  0  0  0
  8 13  1  0  0  0  0
 32 37  1  0  0  0  0
 31 36  1  0  0  0  0
 41 43  1  0  0  0  0
  7 12  1  0  0  0  0
M  END
$$$$

  -OEChem-05262214473D

 46 46  0     1  0  0  0  0  0999 V2000
   -0.6012   -3.2995    3.8205 C   0  0  0  0  0  0  0  0  0  0  0  0
   -0.6574   -4.4683    3.4568 O   0  0  0  0  0  0  0  0  0  0  0  0
   -0.4935   -2.9859    5.2760 C   0  0  0  0  0  0  0  0  0  0  0  0
   -1.4789   -2.8689    5.7550 H   0  0  0  0  0  0  0  0  0  0  0  0
    0.0123   -3.7847    5.8419 H   0  0  0  0  0  0  0  0  0  0  0  0
    0.0585   -2.0642    5.5199 H   0  0  0  0  0  0  0  0  0  0  0  0
   -0.6261   -2.1849    2.9917 N   0  0  0  0  0  0  0  0  0  0  0  0
   -0.7237   -2.2601    1.5650 C   0  0  2  0  0  0  0  0  0  0  0  0
    0.1695   -1.1513    1.0687 C   0  0  0  0  0  0  0  0  0  0  0  0
    0.3193   -0.1267    1.7365 O   0  0  0  0  0  0  0  0  0  0  0  0
   -2.1397   -2.0663    1.0750 C   0  0  0  0  0  0  0  0  0  0  0  0
   -0.5717   -1.2606    3.4238 H   0  0  0  0  0  0  0  0  0  0  0  0
   -0.3076   -3.2111    1.2363 H   0  0  0  0  0  0  0  0  0  0  0  0
   -2.5584   -1.1089    1.4061 H   0  0  0  0  0  0  0  0  0  0  0  0
   -2.1682   -2.0790   -0.0197 H   0  0  0  0  0  0  0  0  0  0  0  0
   -2.7965   -2.8601    1.4459 H   0  0  0  0  0  0  0  0  0  0  0  0
    0.7724   -1.3745   -0.1593 N   0  0  0  0  0  0  0  0  0  0  0  0
    1.6644   -0.4046   -0.7812 C   0  0  2  0  0  0  0  0  0  0  0  0
    1.7547    0.7703    0.1454 C   0  0  0  0  0  0  0  0  0  0  0  0
    2.7822    1.4375    0.1767 O   0  0  0  0  0  0  0  0  0  0  0  0
    0.9832   -0.0385   -2.0947 C   0  0  0  0  0  0  0  0  0  0  0  0
    0.4329   -1.4308   -1.7953 C   0  0  0  0  0  0  0  0  0  0  0  0
    0.7499   -2.6270   -0.9105 C   0  0  0  0  0  0  0  0  0  0  0  0
    2.6660   -0.8234   -0.9178 H   0  0  0  0  0  0  0  0  0  0  0  0
    1.7341    0.0889   -2.8835 H   0  0  0  0  0  0  0  0  0  0  0  0
    0.3808    0.8733   -2.0362 H   0  0  0  0  0  0  0  0  0  0  0  0
   -0.5797   -1.3599   -1.3815 H   0  0  0  0  0  0  0  0  0  0  0  0
    0.3950   -2.0608   -2.6885 H   0  0  0  0  0  0  0  0  0  0  0  0
   -0.0575   -3.3641   -0.8933 H   0  0  0  0  0  0  0  0  0  0  0  0
    1.6766   -3.1193   -1.2248 H   0  0  0  0  0  0  0  0  0  0  0  0
    0.6960    1.0342    0.9027 N   0  0  0  0  0  0  0  0  0  0  0  0
   -0.1005    1.3984    2.0524 C   0  0  2  0  0  0  0  0  0  0  0  0
    0.3903    0.5835    3.2418 C   0  0  0  0  0  0  0  0  0  0  0  0
    1.0003   -0.4771    3.1223 O   0  0  0  0  0  0  0  0  0  0  0  0
   -1.5802    1.1546    1.8001 C   0  0  0  0  0  0  0  0  0  0  0  0
    1.2175    1.7633    0.4253 H   0  0  0  0  0  0  0  0  0  0  0  0
    0.0807    2.4626    2.2385 H   0  0  0  0  0  0  0  0  0  0  0  0
   -1.7812    0.0937    1.6117 H   0  0  0  0  0  0  0  0  0  0  0  0
   -2.1848    1.4577    2.6613 H   0  0  0  0  0  0  0  0  0  0  0  0
   -1.9246    1.7184    0.9264 H   0  0  0  0  0  0  0  0  0  0  0  0
    0.0294    1.1578    4.4526 N   0  0  0  0  0  0  0  0  0  0  0  0
    0.3674    0.5679    5.7268 C   0  0  0  0  0  0  0  0  0  0  0  0
   -0.4593    2.0483    4.4572 H   0  0  0  0  0  0  0  0  0  0  0  0
   -0.4556   -0.0810    6.0610 H   0  0  0  0  0  0  0  0  0  0  0  0
    1.2855   -0.0289    5.6224 H   0  0  0  0  0  0  0  0  0  0  0  0
    0.5302    1.3644    6.4678 H   0  0  0  0  0  0  0  0  0  0  0  0
 18 19  1  0  0  0  0
 19 31  1  0  0  0  0
 19 20  2  0  0  0  0
  8  9  1  0  0  0  0
  9 17  1  0  0  0  0
  9 10  2  0  0  0  0
  1  3  1  0  0  0  0
  1  7  1  0  0  0  0
  1  2  2  0  0  0  0
 32 33  1  0  0  0  0
 33 41  1  0  0  0  0
 33 34  2  0  0  0  0
 21 22  1  0  0  0  0
 22 23  1  0  0  0  0
 18 21  1  0  0  0  0
 17 23  1  0  0  0  0
 17 18  1  0  0  0  0
  8 11  1  0  0  0  0
 32 35  1  0  0  0  0
 41 42  1  0  0  0  0
  7  8  1  0  0  0  0
 31 32  1  0  0  0  0
 22 27  1  0  0  0  0
 22 28  1  0  0  0  0
 21 25  1  0  0  0  0
 21 26  1  0  0  0  0
 23 29  1  0  0  0  0
 23 30  1  0  0  0  0
 18 24  1  0  0  0  0
  3  4  1  0  0  0  0
  3  5  1  0  0  0  0
  3  6  1  0  0  0  0
 11 14  1  0  0  0  0
 11 15  1  0  0  0  0
 11 16  1  0  0  0  0
 35 38  1  0  0  0  0
 35 39  1  0  0  0  0
 35 40  1  0  0  0  0
 42 44  1  0  0  0  0
 42 45  1  0  0  0  0
 42 46  1  0  0  0  0
  8 13  1  0  0  0  0
 32 37  1  0  0  0  0
 31 36  1  0  0  0  0
 41 43  1  0  0  0  0
  7 12  1  0  0  0  0
M  END
$$$$

  -OEChem-05262214473D

 46 46  0     1  0  0  0  0  0999 V2000
   -0.6012   -3.2995    3.8205 C   0  0  0  0  0  0  0  0  0  0  0  0
   -0.6574   -4.4683    3.4568 O   0  0  0  0  0  0  0  0  0  0  0  0
   -0.4935   -2.9859    5.2760 C   0  0  0  0  0  0  0  0  0  0  0  0
   -1.4789   -2.8689    5.7550 H   0  0  0  0  0  0  0  0  0  0  0  0
    0.0123   -3.7847    5.8419 H   0  0  0  0  0  0  0  0  0  0  0  0
    0.0585   -2.0642    5.5199 H   0  0  0  0  0  0  0  0  0  0  0  0
   -0.6261   -2.1849    2.9917 N   0  0  0  0  0  0  0  0  0  0  0  0
   -0.7237   -2.2601    1.5650 C   0  0  2  0  0  0  0  0  0  0  0  0
    0.1695   -1.1513    1.0687 C   0  0  0  0  0  0  0  0  0  0  0  0
    0.3193   -0.1267    1.7365 O   0  0  0  0  0  0  0  0  0  0  0  0
   -2.1397   -2.0663    1.0750 C   0  0  0  0  0  0  0  0  0  0  0  0
   -0.5717   -1.2606    3.4238 H   0  0  0  0  0  0  0  0  0  0  0  0
   -0.3076   -3.2111    1.2363 H   0  0  0  0  0  0  0  0  0  0  0  0
   -2.5584   -1.1089    1.4061 H   0  0  0  0  0  0  0  0  0  0  0  0
   -2.1682   -2.0790   -0.0197 H   0  0  0  0  0  0  0  0  0  0  0  0
   -2.7965   -2.8601    1.4459 H   0  0  0  0  0  0  0  0  0  0  0  0
    0.7724   -1.3745   -0.1593 N   0  0  0  0  0  0  0  0  0  0  0  0
    1.6644   -0.4046   -0.7812 C   0  0  2  0  0  0  0  0  0  0  0  0
    1.7547    0.7703    0.1454 C   0  0  0  0  0  0  0  0  0  0  0  0
    2.6480    1.5948   -0.0097 O   0  0  0  0  0  0  0  0  0  0  0  0
    0.9832   -0.0385   -2.0947 C   0  0  0  0  0  0  0  0  0  0  0  0
    0.4329   -1.4308   -1.7953 C   0  0  0  0  0  0  0  0  0  0  0  0
    0.7499   -2.6270   -0.9105 C   0  0  0  0  0  0  0  0  0  0  0  0
    2.6660   -0.8234   -0.9178 H   0  0  0  0  0  0  0  0  0  0  0  0
    1.7341    0.0889   -2.8835 H   0  0  0  0  0  0  0  0  0  0  0  0
    0.3808    0.8733   -2.0362 H   0  0  0  0  0  0  0  0  0  0  0  0
   -0.5797   -1.3599   -1.3815 H   0  0  0  0  0  0  0  0  0  0  0  0
    0.3950   -2.0608   -2.6885 H   0  0  0  0  0  0  0  0  0  0  0  0
   -0.0575   -3.3641   -0.8933 H   0  0  0  0  0  0  0  0  0  0  0  0
    1.6766   -3.1193   -1.2248 H   0  0  0  0  0  0  0  0  0  0  0  0
    0.8448    0.8604    1.1086 N   0  0  0  0  0  0  0  0  0  0  0  0
    0.2523    1.0921    2.4065 C   0  0  2  0  0  0  0  0  0  0  0  0
    1.0983    0.3683    3.4456 C   0  0  0  0  0  0  0  0  0  0  0  0
    1.8312   -0.5799    3.1717 O   0  0  0  0  0  0  0  0  0  0  0  0
   -1.1901    0.6122    2.4499 C   0  0  0  0  0  0  0  0  0  0  0  0
    1.1356    1.6637    0.5596 H   0  0  0  0  0  0  0  0  0  0  0  0
    0.2968    2.1718    2.5862 H   0  0  0  0  0  0  0  0  0  0  0  0
   -1.2547   -0.4674    2.2719 H   0  0  0  0  0  0  0  0  0  0  0  0
   -1.6463    0.8144    3.4246 H   0  0  0  0  0  0  0  0  0  0  0  0
   -1.7904    1.1121    1.6821 H   0  0  0  0  0  0  0  0  0  0  0  0
    0.9058    0.8778    4.7221 N   0  0  0  0  0  0  0  0  0  0  0  0
    1.5859    0.3515    5.8825 C   0  0  0  0  0  0  0  0  0  0  0  0
    0.2937    1.6776    4.8538 H   0  0  0  0  0  0  0  0  0  0  0  0
    0.9618   -0.4215    6.3546 H   0  0  0  0  0  0  0  0  0  0  0  0
    2.5460   -0.0893    5.5760 H   0  0  0  0  0  0  0  0  0  0  0  0
    1.7683    1.1645    6.6006 H   0  0  0  0  0  0  0  0  0  0  0  0
 18 19  1  0  0  0  0
 19 31  1  0  0  0  0
 19 20  2  0  0  0  0
  8  9  1  0  0  0  0
  9 17  1  0  0  0  0
  9 10  2  0  0  0  0
  1  3  1  0  0  0  0
  1  7  1  0  0  0  0
  1  2  2  0  0  0  0
 32 33  1  0  0  0  0
 33 41  1  0  0  0  0
 33 34  2  0  0  0  0
 21 22  1  0  0  0  0
 22 23  1  0  0  0  0
 18 21  1  0  0  0  0
 17 23  1  0  0  0  0
 17 18  1  0  0  0  0
  8 11  1  0  0  0  0
 32 35  1  0  0  0  0
 41 42  1  0  0  0  0
  7  8  1  0  0  0  0
 31 32  1  0  0  0  0
 22 27  1  0  0  0  0
 22 28  1  0  0  0  0
 21 25  1  0  0  0  0
 21 26  1  0  0  0  0
 23 29  1  0  0  0  0
 23 30  1  0  0  0  0
 18 24  1  0  0  0  0
  3  4  1  0  0  0  0
  3  5  1  0  0  0  0
  3  6  1  0  0  0  0
 11 14  1  0  0  0  0
 11 15  1  0  0  0  0
 11 16  1  0  0  0  0
 35 38  1  0  0  0  0
 35 39  1  0  0  0  0
 35 40  1  0  0  0  0
 42 44  1  0  0  0  0
 42 45  1  0  0  0  0
 42 46  1  0  0  0  0
  8 13  1  0  0  0  0
 32 37  1  0  0  0  0
 31 36  1  0  0  0  0
 41 43  1  0  0  0  0
  7 12  1  0  0  0  0
M  END
$$$$

  -OEChem-05262214473D

 46 46  0     1  0  0  0  0  0999 V2000
   -0.6012   -3.2995    3.8205 C   0  0  0  0  0  0  0  0  0  0  0  0
   -0.6574   -4.4683    3.4568 O   0  0  0  0  0  0  0  0  0  0  0  0
   -0.4935   -2.9859    5.2760 C   0  0  0  0  0  0  0  0  0  0  0  0
   -1.4789   -2.8689    5.7550 H   0  0  0  0  0  0  0  0  0  0  0  0
    0.0123   -3.7847    5.8419 H   0  0  0  0  0  0  0  0  0  0  0  0
    0.0585   -2.0642    5.5199 H   0  0  0  0  0  0  0  0  0  0  0  0
   -0.6261   -2.1849    2.9917 N   0  0  0  0  0  0  0  0  0  0  0  0
   -0.7237   -2.2601    1.5650 C   0  0  2  0  0  0  0  0  0  0  0  0
    0.1695   -1.1513    1.0687 C   0  0  0  0  0  0  0  0  0  0  0  0
    0.3193   -0.1267    1.7365 O   0  0  0  0  0  0  0  0  0  0  0  0
   -2.1397   -2.0663    1.0750 C   0  0  0  0  0  0  0  0  0  0  0  0
   -0.5717   -1.2606    3.4238 H   0  0  0  0  0  0  0  0  0  0  0  0
   -0.3076   -3.2111    1.2363 H   0  0  0  0  0  0  0  0  0  0  0  0
   -2.5584   -1.1089    1.4061 H   0  0  0  0  0  0  0  0  0  0  0  0
   -2.1682   -2.0790   -0.0197 H   0  0  0  0  0  0  0  0  0  0  0  0
   -2.7965   -2.8601    1.4459 H   0  0  0  0  0  0  0  0  0  0  0  0
    0.7724   -1.3745   -0.1593 N   0  0  0  0  0  0  0  0  0  0  0  0
    1.6644   -0.4046   -0.7812 C   0  0  2  0  0  0  0  0  0  0  0  0
    1.7547    0.7703    0.1454 C   0  0  0  0  0  0  0  0  0  0  0  0
    2.4555    1.7281   -0.1600 O   0  0  0  0  0  0  0  0  0  0  0  0
    0.9832   -0.0385   -2.0947 C   0  0  0  0  0  0  0  0  0  0  0  0
    0.4329   -1.4308   -1.7953 C   0  0  0  0  0  0  0  0  0  0  0  0
    0.7499   -2.6270   -0.9105 C   0  0  0  0  0  0  0  0  0  0  0  0
    2.6660   -0.8234   -0.9178 H   0  0  0  0  0  0  0  0  0  0  0  0
    1.7341    0.0889   -2.8835 H   0  0  0  0  0  0  0  0  0  0  0  0
    0.3808    0.8733   -2.0362 H   0  0  0  0  0  0  0  0  0  0  0  0
   -0.5797   -1.3599   -1.3815 H   0  0  0  0  0  0  0  0  0  0  0  0
    0.3950   -2.0608   -2.6885 H   0  0  0  0  0  0  0  0  0  0  0  0
   -0.0575   -3.3641   -0.8933 H   0  0  0  0  0  0  0  0  0  0  0  0
    1.6766   -3.1193   -1.2248 H   0  0  0  0  0  0  0  0  0  0  0  0
    1.0580    0.7130    1.2747 N   0  0  0  0  0  0  0  0  0  0  0  0
    0.7139    0.8471    2.6720 C   0  0  2  0  0  0  0  0  0  0  0  0
    1.8579    0.2705    3.4956 C   0  0  0  0  0  0  0  0  0  0  0  0
    2.6601   -0.5470    3.0492 O   0  0  0  0  0  0  0  0  0  0  0  0
   -0.5947    0.1405    2.9899 C   0  0  0  0  0  0  0  0  0  0  0  0
    1.0997    1.5523    0.7044 H   0  0  0  0  0  0  0  0  0  0  0  0
    0.6226    1.9200    2.8737 H   0  0  0  0  0  0  0  0  0  0  0  0
   -0.5224   -0.9355    2.7940 H   0  0  0  0  0  0  0  0  0  0  0  0
   -0.8685    0.2672    4.0425 H   0  0  0  0  0  0  0  0  0  0  0  0
   -1.4105    0.5362    2.3754 H   0  0  0  0  0  0  0  0  0  0  0  0
    1.8519    0.7434    4.8003 N   0  0  0  0  0  0  0  0  0  0  0  0
    2.8291    0.3349    5.7822 C   0  0  0  0  0  0  0  0  0  0  0  0
    1.1607    1.4339    5.0783 H   0  0  0  0  0  0  0  0  0  0  0  0
    2.4450   -0.5284    6.3455 H   0  0  0  0  0  0  0  0  0  0  0  0
    3.7639    0.0548    5.2745 H   0  0  0  0  0  0  0  0  0  0  0  0
    3.0231    1.1674    6.4746 H   0  0  0  0  0  0  0  0  0  0  0  0
 18 19  1  0  0  0  0
 19 31  1  0  0  0  0
 19 20  2  0  0  0  0
  8  9  1  0  0  0  0
  9 17  1  0  0  0  0
  9 10  2  0  0  0  0
  1  3  1  0  0  0  0
  1  7  1  0  0  0  0
  1  2  2  0  0  0  0
 32 33  1  0  0  0  0
 33 41  1  0  0  0  0
 33 34  2  0  0  0  0
 21 22  1  0  0  0  0
 22 23  1  0  0  0  0
 18 21  1  0  0  0  0
 17 23  1  0  0  0  0
 17 18  1  0  0  0  0
  8 11  1  0  0  0  0
 32 35  1  0  0  0  0
 41 42  1  0  0  0  0
  7  8  1  0  0  0  0
 31 32  1  0  0  0  0
 22 27  1  0  0  0  0
 22 28  1  0  0  0  0
 21 25  1  0  0  0  0
 21 26  1  0  0  0  0
 23 29  1  0  0  0  0
 23 30  1  0  0  0  0
 18 24  1  0  0  0  0
  3  4  1  0  0  0  0
  3  5  1  0  0  0  0
  3  6  1  0  0  0  0
 11 14  1  0  0  0  0
 11 15  1  0  0  0  0
 11 16  1  0  0  0  0
 35 38  1  0  0  0  0
 35 39  1  0  0  0  0
 35 40  1  0  0  0  0
 42 44  1  0  0  0  0
 42 45  1  0  0  0  0
 42 46  1  0  0  0  0
  8 13  1  0  0  0  0
 32 37  1  0  0  0  0
 31 36  1  0  0  0  0
 41 43  1  0  0  0  0
  7 12  1  0  0  0  0
M  END
$$$$

  -OEChem-05262214473D

 46 46  0     1  0  0  0  0  0999 V2000
   -0.6012   -3.2995    3.8205 C   0  0  0  0  0  0  0  0  0  0  0  0
   -0.6574   -4.4683    3.4568 O   0  0  0  0  0  0  0  0  0  0  0  0
   -0.4935   -2.9859    5.2760 C   0  0  0  0  0  0  0  0  0  0  0  0
   -1.4789   -2.8689    5.7550 H   0  0  0  0  0  0  0  0  0  0  0  0
    0.0123   -3.7847    5.8419 H   0  0  0  0  0  0  0  0  0  0  0  0
    0.0585   -2.0642    5.5199 H   0  0  0  0  0  0  0  0  0  0  0  0
   -0.6261   -2.1849    2.9917 N   0  0  0  0  0  0  0  0  0  0  0  0
   -0.7237   -2.2601    1.5650 C   0  0  2  0  0  0  0  0  0  0  0  0
    0.1695   -1.1513    1.0687 C   0  0  0  0  0  0  0  0  0  0  0  0
    0.3193   -0.1267    1.7365 O   0  0  0  0  0  0  0  0  0  0  0  0
   -2.1397   -2.0663    1.0750 C   0  0  0  0  0  0  0  0  0  0  0  0
   -0.5717   -1.2606    3.4238 H   0  0  0  0  0  0  0  0  0  0  0  0
   -0.3076   -3.2111    1.2363 H   0  0  0  0  0  0  0  0  0  0  0  0
   -2.5584   -1.1089    1.4061 H   0  0  0  0  0  0  0  0  0  0  0  0
   -2.1682   -2.0790   -0.0197 H   0  0  0  0  0  0  0  0  0  0  0  0
   -2.7965   -2.8601    1.4459 H   0  0  0  0  0  0  0  0  0  0  0  0
    0.7724   -1.3745   -0.1593 N   0  0  0  0  0  0  0  0  0  0  0  0
    1.6644   -0.4046   -0.7812 C   0  0  2  0  0  0  0  0  0  0  0  0
    1.7547    0.7703    0.1454 C   0  0  0  0  0  0  0  0  0  0  0  0
    2.2177    1.8285   -0.2641 O   0  0  0  0  0  0  0  0  0  0  0  0
    0.9832   -0.0385   -2.0947 C   0  0  0  0  0  0  0  0  0  0  0  0
    0.4329   -1.4308   -1.7953 C   0  0  0  0  0  0  0  0  0  0  0  0
    0.7499   -2.6270   -0.9105 C   0  0  0  0  0  0  0  0  0  0  0  0
    2.6660   -0.8234   -0.9178 H   0  0  0  0  0  0  0  0  0  0  0  0
    1.7341    0.0889   -2.8835 H   0  0  0  0  0  0  0  0  0  0  0  0
    0.3808    0.8733   -2.0362 H   0  0  0  0  0  0  0  0  0  0  0  0
   -0.5797   -1.3599   -1.3815 H   0  0  0  0  0  0  0  0  0  0  0  0
    0.3950   -2.0608   -2.6885 H   0  0  0  0  0  0  0  0  0  0  0  0
   -0.0575   -3.3641   -0.8933 H   0  0  0  0  0  0  0  0  0  0  0  0
    1.6766   -3.1193   -1.2248 H   0  0  0  0  0  0  0  0  0  0  0  0
    1.3213    0.6022    1.3895 N   0  0  0  0  0  0  0  0  0  0  0  0
    1.2528    0.6802    2.8311 C   0  0  2  0  0  0  0  0  0  0  0  0
    2.6175    0.2968    3.3882 C   0  0  0  0  0  0  0  0  0  0  0  0
    3.4308   -0.3808    2.7633 O   0  0  0  0  0  0  0  0  0  0  0  0
    0.1655   -0.2282    3.3834 C   0  0  0  0  0  0  0  0  0  0  0  0
    1.1122    1.4367    0.8497 H   0  0  0  0  0  0  0  0  0  0  0  0
    1.0359    1.7244    3.0814 H   0  0  0  0  0  0  0  0  0  0  0  0
    0.3657   -1.2786    3.1425 H   0  0  0  0  0  0  0  0  0  0  0  0
    0.0958   -0.1465    4.4731 H   0  0  0  0  0  0  0  0  0  0  0  0
   -0.8108    0.0298    2.9590 H   0  0  0  0  0  0  0  0  0  0  0  0
    2.8030    0.7637    4.6819 N   0  0  0  0  0  0  0  0  0  0  0  0
    4.0122    0.5194    5.4330 C   0  0  0  0  0  0  0  0  0  0  0  0
    2.0827    1.3337    5.1155 H   0  0  0  0  0  0  0  0  0  0  0  0
    3.8928   -0.3941    6.0341 H   0  0  0  0  0  0  0  0  0  0  0  0
    4.8560    0.3935    4.7385 H   0  0  0  0  0  0  0  0  0  0  0  0
    4.2091    1.3728    6.0984 H   0  0  0  0  0  0  0  0  0  0  0  0
 18 19  1  0  0  0  0
 19 31  1  0  0  0  0
 19 20  2  0  0  0  0
  8  9  1  0  0  0  0
  9 17  1  0  0  0  0
  9 10  2  0  0  0  0
  1  3  1  0  0  0  0
  1  7  1  0  0  0  0
  1  2  2  0  0  0  0
 32 33  1  0  0  0  0
 33 41  1  0  0  0  0
 33 34  2  0  0  0  0
 21 22  1  0  0  0  0
 22 23  1  0  0  0  0
 18 21  1  0  0  0  0
 17 23  1  0  0  0  0
 17 18  1  0  0  0  0
  8 11  1  0  0  0  0
 32 35  1  0  0  0  0
 41 42  1  0  0  0  0
  7  8  1  0  0  0  0
 31 32  1  0  0  0  0
 22 27  1  0  0  0  0
 22 28  1  0  0  0  0
 21 25  1  0  0  0  0
 21 26  1  0  0  0  0
 23 29  1  0  0  0  0
 23 30  1  0  0  0  0
 18 24  1  0  0  0  0
  3  4  1  0  0  0  0
  3  5  1  0  0  0  0
  3  6  1  0  0  0  0
 11 14  1  0  0  0  0
 11 15  1  0  0  0  0
 11 16  1  0  0  0  0
 35 38  1  0  0  0  0
 35 39  1  0  0  0  0
 35 40  1  0  0  0  0
 42 44  1  0  0  0  0
 42 45  1  0  0  0  0
 42 46  1  0  0  0  0
  8 13  1  0  0  0  0
 32 37  1  0  0  0  0
 31 36  1  0  0  0  0
 41 43  1  0  0  0  0
  7 12  1  0  0  0  0
M  END
$$$$

  -OEChem-05262214473D

 46 46  0     1  0  0  0  0  0999 V2000
   -0.6012   -3.2995    3.8205 C   0  0  0  0  0  0  0  0  0  0  0  0
   -0.6574   -4.4683    3.4568 O   0  0  0  0  0  0  0  0  0  0  0  0
   -0.4935   -2.9859    5.2760 C   0  0  0  0  0  0  0  0  0  0  0  0
   -1.4789   -2.8689    5.7550 H   0  0  0  0  0  0  0  0  0  0  0  0
    0.0123   -3.7847    5.8419 H   0  0  0  0  0  0  0  0  0  0  0  0
    0.0585   -2.0642    5.5199 H   0  0  0  0  0  0  0  0  0  0  0  0
   -0.6261   -2.1849    2.9917 N   0  0  0  0  0  0  0  0  0  0  0  0
   -0.7237   -2.2601    1.5650 C   0  0  2  0  0  0  0  0  0  0  0  0
    0.1695   -1.1513    1.0687 C   0  0  0  0  0  0  0  0  0  0  0  0
    0.3193   -0.1267    1.7365 O   0  0  0  0  0  0  0  0  0  0  0  0
   -2.1397   -2.0663    1.0750 C   0  0  0  0  0  0  0  0  0  0  0  0
   -0.5717   -1.2606    3.4238 H   0  0  0  0  0  0  0  0  0  0  0  0
   -0.3076   -3.2111    1.2363 H   0  0  0  0  0  0  0  0  0  0  0  0
   -2.5584   -1.1089    1.4061 H   0  0  0  0  0  0  0  0  0  0  0  0
   -2.1682   -2.0790   -0.0197 H   0  0  0  0  0  0  0  0  0  0  0  0
   -2.7965   -2.8601    1.4459 H   0  0  0  0  0  0  0  0  0  0  0  0
    0.7724   -1.3745   -0.1593 N   0  0  0  0  0  0  0  0  0  0  0  0
    1.6644   -0.4046   -0.7812 C   0  0  2  0  0  0  0  0  0  0  0  0
    1.7547    0.7703    0.1454 C   0  0  0  0  0  0  0  0  0  0  0  0
    1.9508    1.8890   -0.3148 O   0  0  0  0  0  0  0  0  0  0  0  0
    0.9832   -0.0385   -2.0947 C   0  0  0  0  0  0  0  0  0  0  0  0
    0.4329   -1.4308   -1.7953 C   0  0  0  0  0  0  0  0  0  0  0  0
    0.7499   -2.6270   -0.9105 C   0  0  0  0  0  0  0  0  0  0  0  0
    2.6660   -0.8234   -0.9178 H   0  0  0  0  0  0  0  0  0  0  0  0
    1.7341    0.0889   -2.8835 H   0  0  0  0  0  0  0  0  0  0  0  0
    0.3808    0.8733   -2.0362 H   0  0  0  0  0  0  0  0  0  0  0  0
   -0.5797   -1.3599   -1.3815 H   0  0  0  0  0  0  0  0  0  0  0  0
    0.3950   -2.0608   -2.6885 H   0  0  0  0  0  0  0  0  0  0  0  0
   -0.0575   -3.3641   -0.8933 H   0  0  0  0  0  0  0  0  0  0  0  0
    1.6766   -3.1193   -1.2248 H   0  0  0  0  0  0  0  0  0  0  0  0
    1.6166    0.5355    1.4453 N   0  0  0  0  0  0  0  0  0  0  0  0
    1.8324    0.6028    2.8729 C   0  0  2  0  0  0  0  0  0  0  0  0
    3.3251    0.4453    3.1308 C   0  0  0  0  0  0  0  0  0  0  0  0
    4.0906   -0.0924    2.3333 O   0  0  0  0  0  0  0  0  0  0  0  0
    1.0385   -0.4690    3.6035 C   0  0  0  0  0  0  0  0  0  0  0  0
    1.1723    1.3248    0.9858 H   0  0  0  0  0  0  0  0  0  0  0  0
    1.5085    1.5984    3.1951 H   0  0  0  0  0  0  0  0  0  0  0  0
    1.3491   -1.4734    3.2937 H   0  0  0  0  0  0  0  0  0  0  0  0
    1.1807   -0.3986    4.6870 H   0  0  0  0  0  0  0  0  0  0  0  0
   -0.0321   -0.3724    3.3931 H   0  0  0  0  0  0  0  0  0  0  0  0
    3.6945    0.9373    4.3748 N   0  0  0  0  0  0  0  0  0  0  0  0
    5.0547    0.8922    4.8585 C   0  0  0  0  0  0  0  0  0  0  0  0
    2.9969    1.3838    4.9628 H   0  0  0  0  0  0  0  0  0  0  0  0
    5.2067   -0.0280    5.4417 H   0  0  0  0  0  0  0  0  0  0  0  0
    5.7479    0.9038    4.0046 H   0  0  0  0  0  0  0  0  0  0  0  0
    5.2456    1.7669    5.4976 H   0  0  0  0  0  0  0  0  0  0  0  0
 18 19  1  0  0  0  0
 19 31  1  0  0  0  0
 19 20  2  0  0  0  0
  8  9  1  0  0  0  0
  9 17  1  0  0  0  0
  9 10  2  0  0  0  0
  1  3  1  0  0  0  0
  1  7  1  0  0  0  0
  1  2  2  0  0  0  0
 32 33  1  0  0  0  0
 33 41  1  0  0  0  0
 33 34  2  0  0  0  0
 21 22  1  0  0  0  0
 22 23  1  0  0  0  0
 18 21  1  0  0  0  0
 17 23  1  0  0  0  0
 17 18  1  0  0  0  0
  8 11  1  0  0  0  0
 32 35  1  0  0  0  0
 41 42  1  0  0  0  0
  7  8  1  0  0  0  0
 31 32  1  0  0  0  0
 22 27  1  0  0  0  0
 22 28  1  0  0  0  0
 21 25  1  0  0  0  0
 21 26  1  0  0  0  0
 23 29  1  0  0  0  0
 23 30  1  0  0  0  0
 18 24  1  0  0  0  0
  3  4  1  0  0  0  0
  3  5  1  0  0  0  0
  3  6  1  0  0  0  0
 11 14  1  0  0  0  0
 11 15  1  0  0  0  0
 11 16  1  0  0  0  0
 35 38  1  0  0  0  0
 35 39  1  0  0  0  0
 35 40  1  0  0  0  0
 42 44  1  0  0  0  0
 42 45  1  0  0  0  0
 42 46  1  0  0  0  0
  8 13  1  0  0  0  0
 32 37  1  0  0  0  0
 31 36  1  0  0  0  0
 41 43  1  0  0  0  0
  7 12  1  0  0  0  0
M  END
$$$$

  -OEChem-05262214473D

 46 46  0     1  0  0  0  0  0999 V2000
   -0.6012   -3.2995    3.8205 C   0  0  0  0  0  0  0  0  0  0  0  0
   -0.6574   -4.4683    3.4568 O   0  0  0  0  0  0  0  0  0  0  0  0
   -0.4935   -2.9859    5.2760 C   0  0  0  0  0  0  0  0  0  0  0  0
   -1.4789   -2.8689    5.7550 H   0  0  0  0  0  0  0  0  0  0  0  0
    0.0123   -3.7847    5.8419 H   0  0  0  0  0  0  0  0  0  0  0  0
    0.0585   -2.0642    5.5199 H   0  0  0  0  0  0  0  0  0  0  0  0
   -0.6261   -2.1849    2.9917 N   0  0  0  0  0  0  0  0  0  0  0  0
   -0.7237   -2.2601    1.5650 C   0  0  2  0  0  0  0  0  0  0  0  0
    0.1695   -1.1513    1.0687 C   0  0  0  0  0  0  0  0  0  0  0  0
    0.3193   -0.1267    1.7365 O   0  0  0  0  0  0  0  0  0  0  0  0
   -2.1397   -2.0663    1.0750 C   0  0  0  0  0  0  0  0  0  0  0  0
   -0.5717   -1.2606    3.4238 H   0  0  0  0  0  0  0  0  0  0  0  0
   -0.3076   -3.2111    1.2363 H   0  0  0  0  0  0  0  0  0  0  0  0
   -2.5584   -1.1089    1.4061 H   0  0  0  0  0  0  0  0  0  0  0  0
   -2.1682   -2.0790   -0.0197 H   0  0  0  0  0  0  0  0  0  0  0  0
   -2.7965   -2.8601    1.4459 H   0  0  0  0  0  0  0  0  0  0  0  0
    0.7724   -1.3745   -0.1593 N   0  0  0  0  0  0  0  0  0  0  0  0
    1.6644   -0.4046   -0.7812 C   0  0  2  0  0  0  0  0  0  0  0  0
    1.7547    0.7703    0.1454 C   0  0  0  0  0  0  0  0  0  0  0  0
    1.6730    1.9056   -0.3087 O   0  0  0  0  0  0  0  0  0  0  0  0
    0.9832   -0.0385   -2.0947 C   0  0  0  0  0  0  0  0  0  0  0  0
    0.4329   -1.4308   -1.7953 C   0  0  0  0  0  0  0  0  0  0  0  0
    0.7499   -2.6270   -0.9105 C   0  0  0  0  0  0  0  0  0  0  0  0
    2.6660   -0.8234   -0.9178 H   0  0  0  0  0  0  0  0  0  0  0  0
    1.7341    0.0889   -2.8835 H   0  0  0  0  0  0  0  0  0  0  0  0
    0.3808    0.8733   -2.0362 H   0  0  0  0  0  0  0  0  0  0  0  0
   -0.5797   -1.3599   -1.3815 H   0  0  0  0  0  0  0  0  0  0  0  0
    0.3950   -2.0608   -2.6885 H   0  0  0  0  0  0  0  0  0  0  0  0
   -0.0575   -3.3641   -0.8933 H   0  0  0  0  0  0  0  0  0  0  0  0
    1.6766   -3.1193   -1.2248 H   0  0  0  0  0  0  0  0  0  0  0  0
    1.9238    0.5175    1.4382 N   0  0  0  0  0  0  0  0  0  0  0  0
    2.4130    0.6200    2.7944 C   0  0  2  0  0  0  0  0  0  0  0  0
    3.9327    0.7061    2.7409 C   0  0  0  0  0  0  0  0  0  0  0  0
    4.5945    0.2983    1.7887 O   0  0  0  0  0  0  0  0  0  0  0  0
    1.9650   -0.5653    3.6353 C   0  0  0  0  0  0  0  0  0  0  0  0
    1.2758    1.2241    1.1033 H   0  0  0  0  0  0  0  0  0  0  0  0
    2.0083    1.5505    3.2071 H   0  0  0  0  0  0  0  0  0  0  0  0
    2.3609   -1.5066    3.2371 H   0  0  0  0  0  0  0  0  0  0  0  0
    2.3124   -0.4719    4.6695 H   0  0  0  0  0  0  0  0  0  0  0  0
    0.8725   -0.6432    3.6482 H   0  0  0  0  0  0  0  0  0  0  0  0
    4.4656    1.2524    3.9001 N   0  0  0  0  0  0  0  0  0  0  0  0
    5.8854    1.4281    4.0980 C   0  0  0  0  0  0  0  0  0  0  0  0
    3.8410    1.5808    4.6307 H   0  0  0  0  0  0  0  0  0  0  0  0
    6.2970    0.5451    4.6086 H   0  0  0  0  0  0  0  0  0  0  0  0
    6.3790    1.5508    3.1226 H   0  0  0  0  0  0  0  0  0  0  0  0
    6.0618    2.3228    4.7132 H   0  0  0  0  0  0  0  0  0  0  0  0
 18 19  1  0  0  0  0
 19 31  1  0  0  0  0
 19 20  2  0  0  0  0
  8  9  1  0  0  0  0
  9 17  1  0  0  0  0
  9 10  2  0  0  0  0
  1  3  1  0  0  0  0
  1  7  1  0  0  0  0
  1  2  2  0  0  0  0
 32 33  1  0  0  0  0
 33 41  1  0  0  0  0
 33 34  2  0  0  0  0
 21 22  1  0  0  0  0
 22 23  1  0  0  0  0
 18 21  1  0  0  0  0
 17 23  1  0  0  0  0
 17 18  1  0  0  0  0
  8 11  1  0  0  0  0
 32 35  1  0  0  0  0
 41 42  1  0  0  0  0
  7  8  1  0  0  0  0
 31 32  1  0  0  0  0
 22 27  1  0  0  0  0
 22 28  1  0  0  0  0
 21 25  1  0  0  0  0
 21 26  1  0  0  0  0
 23 29  1  0  0  0  0
 23 30  1  0  0  0  0
 18 24  1  0  0  0  0
  3  4  1  0  0  0  0
  3  5  1  0  0  0  0
  3  6  1  0  0  0  0
 11 14  1  0  0  0  0
 11 15  1  0  0  0  0
 11 16  1  0  0  0  0
 35 38  1  0  0  0  0
 35 39  1  0  0  0  0
 35 40  1  0  0  0  0
 42 44  1  0  0  0  0
 42 45  1  0  0  0  0
 42 46  1  0  0  0  0
  8 13  1  0  0  0  0
 32 37  1  0  0  0  0
 31 36  1  0  0  0  0
 41 43  1  0  0  0  0
  7 12  1  0  0  0  0
M  END
$$$$

  -OEChem-05262214473D

 46 46  0     1  0  0  0  0  0999 V2000
   -0.6012   -3.2995    3.8205 C   0  0  0  0  0  0  0  0  0  0  0  0
   -0.6574   -4.4683    3.4568 O   0  0  0  0  0  0  0  0  0  0  0  0
   -0.4935   -2.9859    5.2760 C   0  0  0  0  0  0  0  0  0  0  0  0
   -1.4789   -2.8689    5.7550 H   0  0  0  0  0  0  0  0  0  0  0  0
    0.0123   -3.7847    5.8419 H   0  0  0  0  0  0  0  0  0  0  0  0
    0.0585   -2.0642    5.5199 H   0  0  0  0  0  0  0  0  0  0  0  0
   -0.6261   -2.1849    2.9917 N   0  0  0  0  0  0  0  0  0  0  0  0
   -0.7237   -2.2601    1.5650 C   0  0  2  0  0  0  0  0  0  0  0  0
    0.1695   -1.1513    1.0687 C   0  0  0  0  0  0  0  0  0  0  0  0
    0.3193   -0.1267    1.7365 O   0  0  0  0  0  0  0  0  0  0  0  0
   -2.1397   -2.0663    1.0750 C   0  0  0  0  0  0  0  0  0  0  0  0
   -0.5717   -1.2606    3.4238 H   0  0  0  0  0  0  0  0  0  0  0  0
   -0.3076   -3.2111    1.2363 H   0  0  0  0  0  0  0  0  0  0  0  0
   -2.5584   -1.1089    1.4061 H   0  0  0  0  0  0  0  0  0  0  0  0
   -2.1682   -2.0790   -0.0197 H   0  0  0  0  0  0  0  0  0  0  0  0
   -2.7965   -2.8601    1.4459 H   0  0  0  0  0  0  0  0  0  0  0  0
    0.7724   -1.3745   -0.1593 N   0  0  0  0  0  0  0  0  0  0  0  0
    1.6644   -0.4046   -0.7812 C   0  0  2  0  0  0  0  0  0  0  0  0
    1.7547    0.7703    0.1454 C   0  0  0  0  0  0  0  0  0  0  0  0
    1.4033    1.8771   -0.2462 O   0  0  0  0  0  0  0  0  0  0  0  0
    0.9832   -0.0385   -2.0947 C   0  0  0  0  0  0  0  0  0  0  0  0
    0.4329   -1.4308   -1.7953 C   0  0  0  0  0  0  0  0  0  0  0  0
    0.7499   -2.6270   -0.9105 C   0  0  0  0  0  0  0  0  0  0  0  0
    2.6660   -0.8234   -0.9178 H   0  0  0  0  0  0  0  0  0  0  0  0
    1.7341    0.0889   -2.8835 H   0  0  0  0  0  0  0  0  0  0  0  0
    0.3808    0.8733   -2.0362 H   0  0  0  0  0  0  0  0  0  0  0  0
   -0.5797   -1.3599   -1.3815 H   0  0  0  0  0  0  0  0  0  0  0  0
    0.3950   -2.0608   -2.6885 H   0  0  0  0  0  0  0  0  0  0  0  0
   -0.0575   -3.3641   -0.8933 H   0  0  0  0  0  0  0  0  0  0  0  0
    1.6766   -3.1193   -1.2248 H   0  0  0  0  0  0  0  0  0  0  0  0
    2.2220    0.5493    1.3688 N   0  0  0  0  0  0  0  0  0  0  0  0
    2.9552    0.7307    2.6011 C   0  0  2  0  0  0  0  0  0  0  0  0
    4.3987    1.0612    2.2451 C   0  0  0  0  0  0  0  0  0  0  0  0
    4.9083    0.7649    1.1664 O   0  0  0  0  0  0  0  0  0  0  0  0
    2.8818   -0.5106    3.4766 C   0  0  0  0  0  0  0  0  0  0  0  0
    1.4158    1.1417    1.1943 H   0  0  0  0  0  0  0  0  0  0  0  0
    2.5011    1.5840    3.1166 H   0  0  0  0  0  0  0  0  0  0  0  0
    3.3320   -1.3760    2.9767 H   0  0  0  0  0  0  0  0  0  0  0  0
    3.4137   -0.3613    4.4220 H   0  0  0  0  0  0  0  0  0  0  0  0
    1.8414   -0.7640    3.7069 H   0  0  0  0  0  0  0  0  0  0  0  0
    5.0636    1.6875    3.2900 N   0  0  0  0  0  0  0  0  0  0  0  0
    6.4478    2.0906    3.2032 C   0  0  0  0  0  0  0  0  0  0  0  0
    4.5574    1.9114    4.1417 H   0  0  0  0  0  0  0  0  0  0  0  0
    7.0896    1.2861    3.5918 H   0  0  0  0  0  0  0  0  0  0  0  0
    6.7061    2.2904    2.1528 H   0  0  0  0  0  0  0  0  0  0  0  0
    6.6021    3.0025    3.7986 H   0  0  0  0  0  0  0  0  0  0  0  0
 18 19  1  0  0  0  0
 19 31  1  0  0  0  0
 19 20  2  0  0  0  0
  8  9  1  0  0  0  0
  9 17  1  0  0  0  0
  9 10  2  0  0  0  0
  1  3  1  0  0  0  0
  1  7  1  0  0  0  0
  1  2  2  0  0  0  0
 32 33  1  0  0  0  0
 33 41  1  0  0  0  0
 33 34  2  0  0  0  0
 21 22  1  0  0  0  0
 22 23  1  0  0  0  0
 18 21  1  0  0  0  0
 17 23  1  0  0  0  0
 17 18  1  0  0  0  0
  8 11  1  0  0  0  0
 32 35  1  0  0  0  0
 41 42  1  0  0  0  0
  7  8  1  0  0  0  0
 31 32  1  0  0  0  0
 22 27  1  0  0  0  0
 22 28  1  0  0  0  0
 21 25  1  0  0  0  0
 21 26  1  0  0  0  0
 23 29  1  0  0  0  0
 23 30  1  0  0  0  0
 18 24  1  0  0  0  0
  3  4  1  0  0  0  0
  3  5  1  0  0  0  0
  3  6  1  0  0  0  0
 11 14  1  0  0  0  0
 11 15  1  0  0  0  0
 11 16  1  0  0  0  0
 35 38  1  0  0  0  0
 35 39  1  0  0  0  0
 35 40  1  0  0  0  0
 42 44  1  0  0  0  0
 42 45  1  0  0  0  0
 42 46  1  0  0  0  0
  8 13  1  0  0  0  0
 32 37  1  0  0  0  0
 31 36  1  0  0  0  0
 41 43  1  0  0  0  0
  7 12  1  0  0  0  0
M  END
$$$$

  -OEChem-05262214473D

 46 46  0     1  0  0  0  0  0999 V2000
   -0.6012   -3.2995    3.8205 C   0  0  0  0  0  0  0  0  0  0  0  0
   -0.6574   -4.4683    3.4568 O   0  0  0  0  0  0  0  0  0  0  0  0
   -0.4935   -2.9859    5.2760 C   0  0  0  0  0  0  0  0  0  0  0  0
   -1.4789   -2.8689    5.7550 H   0  0  0  0  0  0  0  0  0  0  0  0
    0.0123   -3.7847    5.8419 H   0  0  0  0  0  0  0  0  0  0  0  0
    0.0585   -2.0642    5.5199 H   0  0  0  0  0  0  0  0  0  0  0  0
   -0.6261   -2.1849    2.9917 N   0  0  0  0  0  0  0  0  0  0  0  0
   -0.7237   -2.2601    1.5650 C   0  0  2  0  0  0  0  0  0  0  0  0
    0.1695   -1.1513    1.0687 C   0  0  0  0  0  0  0  0  0  0  0  0
    0.3193   -0.1267    1.7365 O   0  0  0  0  0  0  0  0  0  0  0  0
   -2.1397   -2.0663    1.0750 C   0  0  0  0  0  0  0  0  0  0  0  0
   -0.5717   -1.2606    3.4238 H   0  0  0  0  0  0  0  0  0  0  0  0
   -0.3076   -3.2111    1.2363 H   0  0  0  0  0  0  0  0  0  0  0  0
   -2.5584   -1.1089    1.4061 H   0  0  0  0  0  0  0  0  0  0  0  0
   -2.1682   -2.0790   -0.0197 H   0  0  0  0  0  0  0  0  0  0  0  0
   -2.7965   -2.8601    1.4459 H   0  0  0  0  0  0  0  0  0  0  0  0
    0.7724   -1.3745   -0.1593 N   0  0  0  0  0  0  0  0  0  0  0  0
    1.6644   -0.4046   -0.7812 C   0  0  2  0  0  0  0  0  0  0  0  0
    1.7547    0.7703    0.1454 C   0  0  0  0  0  0  0  0  0  0  0  0
    1.1600    1.8054   -0.1316 O   0  0  0  0  0  0  0  0  0  0  0  0
    0.9832   -0.0385   -2.0947 C   0  0  0  0  0  0  0  0  0  0  0  0
    0.4329   -1.4308   -1.7953 C   0  0  0  0  0  0  0  0  0  0  0  0
    0.7499   -2.6270   -0.9105 C   0  0  0  0  0  0  0  0  0  0  0  0
    2.6660   -0.8234   -0.9178 H   0  0  0  0  0  0  0  0  0  0  0  0
    1.7341    0.0889   -2.8835 H   0  0  0  0  0  0  0  0  0  0  0  0
    0.3808    0.8733   -2.0362 H   0  0  0  0  0  0  0  0  0  0  0  0
   -0.5797   -1.3599   -1.3815 H   0  0  0  0  0  0  0  0  0  0  0  0
    0.3950   -2.0608   -2.6885 H   0  0  0  0  0  0  0  0  0  0  0  0
   -0.0575   -3.3641   -0.8933 H   0  0  0  0  0  0  0  0  0  0  0  0
    1.6766   -3.1193   -1.2248 H   0  0  0  0  0  0  0  0  0  0  0  0
    2.4909    0.6288    1.2418 N   0  0  0  0  0  0  0  0  0  0  0  0
    3.4220    0.9275    2.3061 C   0  0  2  0  0  0  0  0  0  0  0  0
    4.6915    1.4865    1.6773 C   0  0  0  0  0  0  0  0  0  0  0  0
    5.0105    1.2755    0.5090 O   0  0  0  0  0  0  0  0  0  0  0  0
    3.7264   -0.3086    3.1381 C   0  0  0  0  0  0  0  0  0  0  0  0
    1.5826    1.0830    1.2524 H   0  0  0  0  0  0  0  0  0  0  0  0
    2.9534    1.6966    2.9297 H   0  0  0  0  0  0  0  0  0  0  0  0
    4.1963   -1.0903    2.5302 H   0  0  0  0  0  0  0  0  0  0  0  0
    4.4096   -0.0745    3.9612 H   0  0  0  0  0  0  0  0  0  0  0  0
    2.8084   -0.7266    3.5652 H   0  0  0  0  0  0  0  0  0  0  0  0
    5.4479    2.2130    2.5862 N   0  0  0  0  0  0  0  0  0  0  0  0
    6.7036    2.8343    2.2351 C   0  0  0  0  0  0  0  0  0  0  0  0
    5.0973    2.3529    3.5292 H   0  0  0  0  0  0  0  0  0  0  0  0
    7.5303    2.1445    2.4603 H   0  0  0  0  0  0  0  0  0  0  0  0
    6.7071    3.0724    1.1612 H   0  0  0  0  0  0  0  0  0  0  0  0
    6.8297    3.7597    2.8162 H   0  0  0  0  0  0  0  0  0  0  0  0
 18 19  1  0  0  0  0
 19 31  1  0  0  0  0
 19 20  2  0  0  0  0
  8  9  1  0  0  0  0
  9 17  1  0  0  0  0
  9 10  2  0  0  0  0
  1  3  1  0  0  0  0
  1  7  1  0  0  0  0
  1  2  2  0  0  0  0
 32 33  1  0  0  0  0
 33 41  1  0  0  0  0
 33 34  2  0  0  0  0
 21 22  1  0  0  0  0
 22 23  1  0  0  0  0
 18 21  1  0  0  0  0
 17 23  1  0  0  0  0
 17 18  1  0  0  0  0
  8 11  1  0  0  0  0
 32 35  1  0  0  0  0
 41 42  1  0  0  0  0
  7  8  1  0  0  0  0
 31 32  1  0  0  0  0
 22 27  1  0  0  0  0
 22 28  1  0  0  0  0
 21 25  1  0  0  0  0
 21 26  1  0  0  0  0
 23 29  1  0  0  0  0
 23 30  1  0  0  0  0
 18 24  1  0  0  0  0
  3  4  1  0  0  0  0
  3  5  1  0  0  0  0
  3  6  1  0  0  0  0
 11 14  1  0  0  0  0
 11 15  1  0  0  0  0
 11 16  1  0  0  0  0
 35 38  1  0  0  0  0
 35 39  1  0  0  0  0
 35 40  1  0  0  0  0
 42 44  1  0  0  0  0
 42 45  1  0  0  0  0
 42 46  1  0  0  0  0
  8 13  1  0  0  0  0
 32 37  1  0  0  0  0
 31 36  1  0  0  0  0
 41 43  1  0  0  0  0
  7 12  1  0  0  0  0
M  END
$$$$

  -OEChem-05262214473D

 46 46  0     1  0  0  0  0  0999 V2000
   -0.6012   -3.2995    3.8205 C   0  0  0  0  0  0  0  0  0  0  0  0
   -0.6574   -4.4683    3.4568 O   0  0  0  0  0  0  0  0  0  0  0  0
   -0.4935   -2.9859    5.2760 C   0  0  0  0  0  0  0  0  0  0  0  0
   -1.4789   -2.8689    5.7550 H   0  0  0  0  0  0  0  0  0  0  0  0
    0.0123   -3.7847    5.8419 H   0  0  0  0  0  0  0  0  0  0  0  0
    0.0585   -2.0642    5.5199 H   0  0  0  0  0  0  0  0  0  0  0  0
   -0.6261   -2.1849    2.9917 N   0  0  0  0  0  0  0  0  0  0  0  0
   -0.7237   -2.2601    1.5650 C   0  0  2  0  0  0  0  0  0  0  0  0
    0.1695   -1.1513    1.0687 C   0  0  0  0  0  0  0  0  0  0  0  0
    0.3193   -0.1267    1.7365 O   0  0  0  0  0  0  0  0  0  0  0  0
   -2.1397   -2.0663    1.0750 C   0  0  0  0  0  0  0  0  0  0  0  0
   -0.5717   -1.2606    3.4238 H   0  0  0  0  0  0  0  0  0  0  0  0
   -0.3076   -3.2111    1.2363 H   0  0  0  0  0  0  0  0  0  0  0  0
   -2.5584   -1.1089    1.4061 H   0  0  0  0  0  0  0  0  0  0  0  0
   -2.1682   -2.0790   -0.0197 H   0  0  0  0  0  0  0  0  0  0  0  0
   -2.7965   -2.8601    1.4459 H   0  0  0  0  0  0  0  0  0  0  0  0
    0.7724   -1.3745   -0.1593 N   0  0  0  0  0  0  0  0  0  0  0  0
    1.6644   -0.4046   -0.7812 C   0  0  2  0  0  0  0  0  0  0  0  0
    1.7547    0.7703    0.1454 C   0  0  0  0  0  0  0  0  0  0  0  0
    0.9598    1.6954    0.0273 O   0  0  0  0  0  0  0  0  0  0  0  0
    0.9832   -0.0385   -2.0947 C   0  0  0  0  0  0  0  0  0  0  0  0
    0.4329   -1.4308   -1.7953 C   0  0  0  0  0  0  0  0  0  0  0  0
    0.7499   -2.6270   -0.9105 C   0  0  0  0  0  0  0  0  0  0  0  0
    2.6660   -0.8234   -0.9178 H   0  0  0  0  0  0  0  0  0  0  0  0
    1.7341    0.0889   -2.8835 H   0  0  0  0  0  0  0  0  0  0  0  0
    0.3808    0.8733   -2.0362 H   0  0  0  0  0  0  0  0  0  0  0  0
   -0.5797   -1.3599   -1.3815 H   0  0  0  0  0  0  0  0  0  0  0  0
    0.3950   -2.0608   -2.6885 H   0  0  0  0  0  0  0  0  0  0  0  0
   -0.0575   -3.3641   -0.8933 H   0  0  0  0  0  0  0  0  0  0  0  0
    1.6766   -3.1193   -1.2248 H   0  0  0  0  0  0  0  0  0  0  0  0
    2.7121    0.7506    1.0657 N   0  0  0  0  0  0  0  0  0  0  0  0
    3.7816    1.1968    1.9295 C   0  0  2  0  0  0  0  0  0  0  0  0
    4.7911    1.9530    1.0760 C   0  0  0  0  0  0  0  0  0  0  0  0
    4.8942    1.7953   -0.1387 O   0  0  0  0  0  0  0  0  0  0  0  0
    4.4412    0.0269    2.6430 C   0  0  0  0  0  0  0  0  0  0  0  0
    1.7649    1.0520    1.2739 H   0  0  0  0  0  0  0  0  0  0  0  0
    3.3344    1.8806    2.6592 H   0  0  0  0  0  0  0  0  0  0  0  0
    4.8949   -0.6692    1.9280 H   0  0  0  0  0  0  0  0  0  0  0  0
    5.2321    0.3691    3.3185 H   0  0  0  0  0  0  0  0  0  0  0  0
    3.7078   -0.5335    3.2327 H   0  0  0  0  0  0  0  0  0  0  0  0
    5.5923    2.7930    1.8366 N   0  0  0  0  0  0  0  0  0  0  0  0
    6.6353    3.6088    1.2597 C   0  0  0  0  0  0  0  0  0  0  0  0
    5.4239    2.8753    2.8350 H   0  0  0  0  0  0  0  0  0  0  0  0
    7.5891    3.0618    1.2914 H   0  0  0  0  0  0  0  0  0  0  0  0
    6.3817    3.8433    0.2154 H   0  0  0  0  0  0  0  0  0  0  0  0
    6.7292    4.5429    1.8329 H   0  0  0  0  0  0  0  0  0  0  0  0
 18 19  1  0  0  0  0
 19 31  1  0  0  0  0
 19 20  2  0  0  0  0
  8  9  1  0  0  0  0
  9 17  1  0  0  0  0
  9 10  2  0  0  0  0
  1  3  1  0  0  0  0
  1  7  1  0  0  0  0
  1  2  2  0  0  0  0
 32 33  1  0  0  0  0
 33 41  1  0  0  0  0
 33 34  2  0  0  0  0
 21 22  1  0  0  0  0
 22 23  1  0  0  0  0
 18 21  1  0  0  0  0
 17 23  1  0  0  0  0
 17 18  1  0  0  0  0
  8 11  1  0  0  0  0
 32 35  1  0  0  0  0
 41 42  1  0  0  0  0
  7  8  1  0  0  0  0
 31 32  1  0  0  0  0
 22 27  1  0  0  0  0
 22 28  1  0  0  0  0
 21 25  1  0  0  0  0
 21 26  1  0  0  0  0
 23 29  1  0  0  0  0
 23 30  1  0  0  0  0
 18 24  1  0  0  0  0
  3  4  1  0  0  0  0
  3  5  1  0  0  0  0
  3  6  1  0  0  0  0
 11 14  1  0  0  0  0
 11 15  1  0  0  0  0
 11 16  1  0  0  0  0
 35 38  1  0  0  0  0
 35 39  1  0  0  0  0
 35 40  1  0  0  0  0
 42 44  1  0  0  0  0
 42 45  1  0  0  0  0
 42 46  1  0  0  0  0
  8 13  1  0  0  0  0
 32 37  1  0  0  0  0
 31 36  1  0  0  0  0
 41 43  1  0  0  0  0
  7 12  1  0  0  0  0
M  END
$$$$

  -OEChem-05262214473D

 46 46  0     1  0  0  0  0  0999 V2000
   -0.6012   -3.2995    3.8205 C   0  0  0  0  0  0  0  0  0  0  0  0
   -0.6574   -4.4683    3.4568 O   0  0  0  0  0  0  0  0  0  0  0  0
   -0.4935   -2.9859    5.2760 C   0  0  0  0  0  0  0  0  0  0  0  0
   -1.4789   -2.8689    5.7550 H   0  0  0  0  0  0  0  0  0  0  0  0
    0.0123   -3.7847    5.8419 H   0  0  0  0  0  0  0  0  0  0  0  0
    0.0585   -2.0642    5.5199 H   0  0  0  0  0  0  0  0  0  0  0  0
   -0.6261   -2.1849    2.9917 N   0  0  0  0  0  0  0  0  0  0  0  0
   -0.7237   -2.2601    1.5650 C   0  0  2  0  0  0  0  0  0  0  0  0
    0.1695   -1.1513    1.0687 C   0  0  0  0  0  0  0  0  0  0  0  0
    0.3193   -0.1267    1.7365 O   0  0  0  0  0  0  0  0  0  0  0  0
   -2.1397   -2.0663    1.0750 C   0  0  0  0  0  0  0  0  0  0  0  0
   -0.5717   -1.2606    3.4238 H   0  0  0  0  0  0  0  0  0  0  0  0
   -0.3076   -3.2111    1.2363 H   0  0  0  0  0  0  0  0  0  0  0  0
   -2.5584   -1.1089    1.4061 H   0  0  0  0  0  0  0  0  0  0  0  0
   -2.1682   -2.0790   -0.0197 H   0  0  0  0  0  0  0  0  0  0  0  0
   -2.7965   -2.8601    1.4459 H   0  0  0  0  0  0  0  0  0  0  0  0
    0.7724   -1.3745   -0.1593 N   0  0  0  0  0  0  0  0  0  0  0  0
    1.6644   -0.4046   -0.7812 C   0  0  2  0  0  0  0  0  0  0  0  0
    1.7547    0.7703    0.1454 C   0  0  0  0  0  0  0  0  0  0  0  0
    0.8162    1.5547    0.2198 O   0  0  0  0  0  0  0  0  0  0  0  0
    0.9832   -0.0385   -2.0947 C   0  0  0  0  0  0  0  0  0  0  0  0
    0.4329   -1.4308   -1.7953 C   0  0  0  0  0  0  0  0  0  0  0  0
    0.7499   -2.6270   -0.9105 C   0  0  0  0  0  0  0  0  0  0  0  0
    2.6660   -0.8234   -0.9178 H   0  0  0  0  0  0  0  0  0  0  0  0
    1.7341    0.0889   -2.8835 H   0  0  0  0  0  0  0  0  0  0  0  0
    0.3808    0.8733   -2.0362 H   0  0  0  0  0  0  0  0  0  0  0  0
   -0.5797   -1.3599   -1.3815 H   0  0  0  0  0  0  0  0  0  0  0  0
    0.3950   -2.0608   -2.6885 H   0  0  0  0  0  0  0  0  0  0  0  0
   -0.0575   -3.3641   -0.8933 H   0  0  0  0  0  0  0  0  0  0  0  0
    1.6766   -3.1193   -1.2248 H   0  0  0  0  0  0  0  0  0  0  0  0
    2.8706    0.9064    0.8527 N   0  0  0  0  0  0  0  0  0  0  0  0
    4.0094    1.5203    1.4971 C   0  0  2  0  0  0  0  0  0  0  0  0
    4.6906    2.4290    0.4823 C   0  0  0  0  0  0  0  0  0  0  0  0
    4.5673    2.2888   -0.7327 O   0  0  0  0  0  0  0  0  0  0  0  0
    4.9775    0.4730    2.0250 C   0  0  0  0  0  0  0  0  0  0  0  0
    1.9503    1.0510    1.2571 H   0  0  0  0  0  0  0  0  0  0  0  0
    3.6181    2.1236    2.3235 H   0  0  0  0  0  0  0  0  0  0  0  0
    5.3801   -0.1412    1.2113 H   0  0  0  0  0  0  0  0  0  0  0  0
    5.8254    0.9391    2.5378 H   0  0  0  0  0  0  0  0  0  0  0  0
    4.4782   -0.1980    2.7322 H   0  0  0  0  0  0  0  0  0  0  0  0
    5.4869    3.3881    1.0924 N   0  0  0  0  0  0  0  0  0  0  0  0
    6.2475    4.3611    0.3435 C   0  0  0  0  0  0  0  0  0  0  0  0
    5.5150    3.4429    2.1062 H   0  0  0  0  0  0  0  0  0  0  0  0
    7.2621    3.9755    0.1647 H   0  0  0  0  0  0  0  0  0  0  0  0
    5.7522    4.5506   -0.6202 H   0  0  0  0  0  0  0  0  0  0  0  0
    6.3073    5.2987    0.9157 H   0  0  0  0  0  0  0  0  0  0  0  0
 18 19  1  0  0  0  0
 19 31  1  0  0  0  0
 19 20  2  0  0  0  0
  8  9  1  0  0  0  0
  9 17  1  0  0  0  0
  9 10  2  0  0  0  0
  1  3  1  0  0  0  0
  1  7  1  0  0  0  0
  1  2  2  0  0  0  0
 32 33  1  0  0  0  0
 33 41  1  0  0  0  0
 33 34  2  0  0  0  0
 21 22  1  0  0  0  0
 22 23  1  0  0  0  0
 18 21  1  0  0  0  0
 17 23  1  0  0  0  0
 17 18  1  0  0  0  0
  8 11  1  0  0  0  0
 32 35  1  0  0  0  0
 41 42  1  0  0  0  0
  7  8  1  0  0  0  0
 31 32  1  0  0  0  0
 22 27  1  0  0  0  0
 22 28  1  0  0  0  0
 21 25  1  0  0  0  0
 21 26  1  0  0  0  0
 23 29  1  0  0  0  0
 23 30  1  0  0  0  0
 18 24  1  0  0  0  0
  3  4  1  0  0  0  0
  3  5  1  0  0  0  0
  3  6  1  0  0  0  0
 11 14  1  0  0  0  0
 11 15  1  0  0  0  0
 11 16  1  0  0  0  0
 35 38  1  0  0  0  0
 35 39  1  0  0  0  0
 35 40  1  0  0  0  0
 42 44  1  0  0  0  0
 42 45  1  0  0  0  0
 42 46  1  0  0  0  0
  8 13  1  0  0  0  0
 32 37  1  0  0  0  0
 31 36  1  0  0  0  0
 41 43  1  0  0  0  0
  7 12  1  0  0  0  0
M  END
$$$$

  -OEChem-05262214473D

 46 46  0     1  0  0  0  0  0999 V2000
   -0.6012   -3.2995    3.8205 C   0  0  0  0  0  0  0  0  0  0  0  0
   -0.6574   -4.4683    3.4568 O   0  0  0  0  0  0  0  0  0  0  0  0
   -0.4935   -2.9859    5.2760 C   0  0  0  0  0  0  0  0  0  0  0  0
   -1.4789   -2.8689    5.7550 H   0  0  0  0  0  0  0  0  0  0  0  0
    0.0123   -3.7847    5.8419 H   0  0  0  0  0  0  0  0  0  0  0  0
    0.0585   -2.0642    5.5199 H   0  0  0  0  0  0  0  0  0  0  0  0
   -0.6261   -2.1849    2.9917 N   0  0  0  0  0  0  0  0  0  0  0  0
   -0.7237   -2.2601    1.5650 C   0  0  2  0  0  0  0  0  0  0  0  0
    0.1695   -1.1513    1.0687 C   0  0  0  0  0  0  0  0  0  0  0  0
    0.3193   -0.1267    1.7365 O   0  0  0  0  0  0  0  0  0  0  0  0
   -2.1397   -2.0663    1.0750 C   0  0  0  0  0  0  0  0  0  0  0  0
   -0.5717   -1.2606    3.4238 H   0  0  0  0  0  0  0  0  0  0  0  0
   -0.3076   -3.2111    1.2363 H   0  0  0  0  0  0  0  0  0  0  0  0
   -2.5584   -1.1089    1.4061 H   0  0  0  0  0  0  0  0  0  0  0  0
   -2.1682   -2.0790   -0.0197 H   0  0  0  0  0  0  0  0  0  0  0  0
   -2.7965   -2.8601    1.4459 H   0  0  0  0  0  0  0  0  0  0  0  0
    0.7724   -1.3745   -0.1593 N   0  0  0  0  0  0  0  0  0  0  0  0
    1.6644   -0.4046   -0.7812 C   0  0  2  0  0  0  0  0  0  0  0  0
    1.7547    0.7703    0.1454 C   0  0  0  0  0  0  0  0  0  0  0  0
    0.7390    1.3928    0.4326 O   0  0  0  0  0  0  0  0  0  0  0  0
    0.9832   -0.0385   -2.0947 C   0  0  0  0  0  0  0  0  0  0  0  0
    0.4329   -1.4308   -1.7953 C   0  0  0  0  0  0  0  0  0  0  0  0
    0.7499   -2.6270   -0.9105 C   0  0  0  0  0  0  0  0  0  0  0  0
    2.6660   -0.8234   -0.9178 H   0  0  0  0  0  0  0  0  0  0  0  0
    1.7341    0.0889   -2.8835 H   0  0  0  0  0  0  0  0  0  0  0  0
    0.3808    0.8733   -2.0362 H   0  0  0  0  0  0  0  0  0  0  0  0
   -0.5797   -1.3599   -1.3815 H   0  0  0  0  0  0  0  0  0  0  0  0
    0.3950   -2.0608   -2.6885 H   0  0  0  0  0  0  0  0  0  0  0  0
   -0.0575   -3.3641   -0.8933 H   0  0  0  0  0  0  0  0  0  0  0  0
    1.6766   -3.1193   -1.2248 H   0  0  0  0  0  0  0  0  0  0  0  0
    2.9555    1.0856    0.6172 N   0  0  0  0  0  0  0  0  0  0  0  0
    4.0900    1.8760    1.0382 C   0  0  2  0  0  0  0  0  0  0  0  0
    4.3971    2.8819   -0.0634 C   0  0  0  0  0  0  0  0  0  0  0  0
    4.0521    2.7225   -1.2325 O   0  0  0  0  0  0  0  0  0  0  0  0
    5.2989    0.9994    1.3262 C   0  0  0  0  0  0  0  0  0  0  0  0
    2.1261    1.0799    1.2033 H   0  0  0  0  0  0  0  0  0  0  0  0
    3.7851    2.4089    1.9454 H   0  0  0  0  0  0  0  0  0  0  0  0
    5.6190    0.4576    0.4287 H   0  0  0  0  0  0  0  0  0  0  0  0
    6.1488    1.5968    1.6723 H   0  0  0  0  0  0  0  0  0  0  0  0
    5.0671    0.2571    2.0976 H   0  0  0  0  0  0  0  0  0  0  0  0
    5.1390    3.9576    0.4041 N   0  0  0  0  0  0  0  0  0  0  0  0
    5.5668    5.0401   -0.4510 C   0  0  0  0  0  0  0  0  0  0  0  0
    5.3643    4.0172    1.3927 H   0  0  0  0  0  0  0  0  0  0  0  0
    6.5714    4.8233   -0.8430 H   0  0  0  0  0  0  0  0  0  0  0  0
    4.8616    5.1462   -1.2886 H   0  0  0  0  0  0  0  0  0  0  0  0
    5.5929    5.9755    0.1271 H   0  0  0  0  0  0  0  0  0  0  0  0
 18 19  1  0  0  0  0
 19 31  1  0  0  0  0
 19 20  2  0  0  0  0
  8  9  1  0  0  0  0
  9 17  1  0  0  0  0
  9 10  2  0  0  0  0
  1  3  1  0  0  0  0
  1  7  1  0  0  0  0
  1  2  2  0  0  0  0
 32 33  1  0  0  0  0
 33 41  1  0  0  0  0
 33 34  2  0  0  0  0
 21 22  1  0  0  0  0
 22 23  1  0  0  0  0
 18 21  1  0  0  0  0
 17 23  1  0  0  0  0
 17 18  1  0  0  0  0
  8 11  1  0  0  0  0
 32 35  1  0  0  0  0
 41 42  1  0  0  0  0
  7  8  1  0  0  0  0
 31 32  1  0  0  0  0
 22 27  1  0  0  0  0
 22 28  1  0  0  0  0
 21 25  1  0  0  0  0
 21 26  1  0  0  0  0
 23 29  1  0  0  0  0
 23 30  1  0  0  0  0
 18 24  1  0  0  0  0
  3  4  1  0  0  0  0
  3  5  1  0  0  0  0
  3  6  1  0  0  0  0
 11 14  1  0  0  0  0
 11 15  1  0  0  0  0
 11 16  1  0  0  0  0
 35 38  1  0  0  0  0
 35 39  1  0  0  0  0
 35 40  1  0  0  0  0
 42 44  1  0  0  0  0
 42 45  1  0  0  0  0
 42 46  1  0  0  0  0
  8 13  1  0  0  0  0
 32 37  1  0  0  0  0
 31 36  1  0  0  0  0
 41 43  1  0  0  0  0
  7 12  1  0  0  0  0
M  END
$$$$

  -OEChem-05262214473D

 46 46  0     1  0  0  0  0  0999 V2000
   -0.6012   -3.2995    3.8205 C   0  0  0  0  0  0  0  0  0  0  0  0
   -0.6574   -4.4683    3.4568 O   0  0  0  0  0  0  0  0  0  0  0  0
   -0.4935   -2.9859    5.2760 C   0  0  0  0  0  0  0  0  0  0  0  0
   -1.4789   -2.8689    5.7550 H   0  0  0  0  0  0  0  0  0  0  0  0
    0.0123   -3.7847    5.8419 H   0  0  0  0  0  0  0  0  0  0  0  0
    0.0585   -2.0642    5.5199 H   0  0  0  0  0  0  0  0  0  0  0  0
   -0.6261   -2.1849    2.9917 N   0  0  0  0  0  0  0  0  0  0  0  0
   -0.7237   -2.2601    1.5650 C   0  0  2  0  0  0  0  0  0  0  0  0
    0.1695   -1.1513    1.0687 C   0  0  0  0  0  0  0  0  0  0  0  0
    0.3193   -0.1267    1.7365 O   0  0  0  0  0  0  0  0  0  0  0  0
   -2.1397   -2.0663    1.0750 C   0  0  0  0  0  0  0  0  0  0  0  0
   -0.5717   -1.2606    3.4238 H   0  0  0  0  0  0  0  0  0  0  0  0
   -0.3076   -3.2111    1.2363 H   0  0  0  0  0  0  0  0  0  0  0  0
   -2.5584   -1.1089    1.4061 H   0  0  0  0  0  0  0  0  0  0  0  0
   -2.1682   -2.0790   -0.0197 H   0  0  0  0  0  0  0  0  0  0  0  0
   -2.7965   -2.8601    1.4459 H   0  0  0  0  0  0  0  0  0  0  0  0
    0.7724   -1.3745   -0.1593 N   0  0  0  0  0  0  0  0  0  0  0  0
    1.6644   -0.4046   -0.7812 C   0  0  2  0  0  0  0  0  0  0  0  0
    1.7547    0.7703    0.1454 C   0  0  0  0  0  0  0  0  0  0  0  0
    0.7335    1.2208    0.6513 O   0  0  0  0  0  0  0  0  0  0  0  0
    0.9832   -0.0385   -2.0947 C   0  0  0  0  0  0  0  0  0  0  0  0
    0.4329   -1.4308   -1.7953 C   0  0  0  0  0  0  0  0  0  0  0  0
    0.7499   -2.6270   -0.9105 C   0  0  0  0  0  0  0  0  0  0  0  0
    2.6660   -0.8234   -0.9178 H   0  0  0  0  0  0  0  0  0  0  0  0
    1.7341    0.0889   -2.8835 H   0  0  0  0  0  0  0  0  0  0  0  0
    0.3808    0.8733   -2.0362 H   0  0  0  0  0  0  0  0  0  0  0  0
   -0.5797   -1.3599   -1.3815 H   0  0  0  0  0  0  0  0  0  0  0  0
    0.3950   -2.0608   -2.6885 H   0  0  0  0  0  0  0  0  0  0  0  0
   -0.0575   -3.3641   -0.8933 H   0  0  0  0  0  0  0  0  0  0  0  0
    1.6766   -3.1193   -1.2248 H   0  0  0  0  0  0  0  0  0  0  0  0
    2.9612    1.2759    0.3754 N   0  0  0  0  0  0  0  0  0  0  0  0
    4.0179    2.2397    0.5841 C   0  0  2  0  0  0  0  0  0  0  0  0
    3.9303    3.2809   -0.5239 C   0  0  0  0  0  0  0  0  0  0  0  0
    3.3837    3.0669   -1.6039 O   0  0  0  0  0  0  0  0  0  0  0  0
    5.3833    1.5702    0.5942 C   0  0  0  0  0  0  0  0  0  0  0  0
    2.2804    1.1368    1.1161 H   0  0  0  0  0  0  0  0  0  0  0  0
    3.8241    2.7170    1.5508 H   0  0  0  0  0  0  0  0  0  0  0  0
    5.5952    1.0863   -0.3663 H   0  0  0  0  0  0  0  0  0  0  0  0
    6.1804    2.2974    0.7809 H   0  0  0  0  0  0  0  0  0  0  0  0
    5.4344    0.8009    1.3723 H   0  0  0  0  0  0  0  0  0  0  0  0
    4.5721    4.4628   -0.1812 N   0  0  0  0  0  0  0  0  0  0  0  0
    4.6394    5.5994   -1.0699 C   0  0  0  0  0  0  0  0  0  0  0  0
    4.9822    4.5589    0.7431 H   0  0  0  0  0  0  0  0  0  0  0  0
    5.5643    5.5474   -1.6631 H   0  0  0  0  0  0  0  0  0  0  0  0
    3.7704    5.5894   -1.7442 H   0  0  0  0  0  0  0  0  0  0  0  0
    4.6345    6.5273   -0.4791 H   0  0  0  0  0  0  0  0  0  0  0  0
 18 19  1  0  0  0  0
 19 31  1  0  0  0  0
 19 20  2  0  0  0  0
  8  9  1  0  0  0  0
  9 17  1  0  0  0  0
  9 10  2  0  0  0  0
  1  3  1  0  0  0  0
  1  7  1  0  0  0  0
  1  2  2  0  0  0  0
 32 33  1  0  0  0  0
 33 41  1  0  0  0  0
 33 34  2  0  0  0  0
 21 22  1  0  0  0  0
 22 23  1  0  0  0  0
 18 21  1  0  0  0  0
 17 23  1  0  0  0  0
 17 18  1  0  0  0  0
  8 11  1  0  0  0  0
 32 35  1  0  0  0  0
 41 42  1  0  0  0  0
  7  8  1  0  0  0  0
 31 32  1  0  0  0  0
 22 27  1  0  0  0  0
 22 28  1  0  0  0  0
 21 25  1  0  0  0  0
 21 26  1  0  0  0  0
 23 29  1  0  0  0  0
 23 30  1  0  0  0  0
 18 24  1  0  0  0  0
  3  4  1  0  0  0  0
  3  5  1  0  0  0  0
  3  6  1  0  0  0  0
 11 14  1  0  0  0  0
 11 15  1  0  0  0  0
 11 16  1  0  0  0  0
 35 38  1  0  0  0  0
 35 39  1  0  0  0  0
 35 40  1  0  0  0  0
 42 44  1  0  0  0  0
 42 45  1  0  0  0  0
 42 46  1  0  0  0  0
  8 13  1  0  0  0  0
 32 37  1  0  0  0  0
 31 36  1  0  0  0  0
 41 43  1  0  0  0  0
  7 12  1  0  0  0  0
M  END
$$$$

  -OEChem-05262214473D

 46 46  0     1  0  0  0  0  0999 V2000
   -0.6012   -3.2995    3.8205 C   0  0  0  0  0  0  0  0  0  0  0  0
   -0.6574   -4.4683    3.4568 O   0  0  0  0  0  0  0  0  0  0  0  0
   -0.4935   -2.9859    5.2760 C   0  0  0  0  0  0  0  0  0  0  0  0
   -1.4789   -2.8689    5.7550 H   0  0  0  0  0  0  0  0  0  0  0  0
    0.0123   -3.7847    5.8419 H   0  0  0  0  0  0  0  0  0  0  0  0
    0.0585   -2.0642    5.5199 H   0  0  0  0  0  0  0  0  0  0  0  0
   -0.6261   -2.1849    2.9917 N   0  0  0  0  0  0  0  0  0  0  0  0
   -0.7237   -2.2601    1.5650 C   0  0  2  0  0  0  0  0  0  0  0  0
    0.1695   -1.1513    1.0687 C   0  0  0  0  0  0  0  0  0  0  0  0
    0.3193   -0.1267    1.7365 O   0  0  0  0  0  0  0  0  0  0  0  0
   -2.1397   -2.0663    1.0750 C   0  0  0  0  0  0  0  0  0  0  0  0
   -0.5717   -1.2606    3.4238 H   0  0  0  0  0  0  0  0  0  0  0  0
   -0.3076   -3.2111    1.2363 H   0  0  0  0  0  0  0  0  0  0  0  0
   -2.5584   -1.1089    1.4061 H   0  0  0  0  0  0  0  0  0  0  0  0
   -2.1682   -2.0790   -0.0197 H   0  0  0  0  0  0  0  0  0  0  0  0
   -2.7965   -2.8601    1.4459 H   0  0  0  0  0  0  0  0  0  0  0  0
    0.7724   -1.3745   -0.1593 N   0  0  0  0  0  0  0  0  0  0  0  0
    1.6644   -0.4046   -0.7812 C   0  0  2  0  0  0  0  0  0  0  0  0
    1.7547    0.7703    0.1454 C   0  0  0  0  0  0  0  0  0  0  0  0
    0.8001    1.0503    0.8610 O   0  0  0  0  0  0  0  0  0  0  0  0
    0.9832   -0.0385   -2.0947 C   0  0  0  0  0  0  0  0  0  0  0  0
    0.4329   -1.4308   -1.7953 C   0  0  0  0  0  0  0  0  0  0  0  0
    0.7499   -2.6270   -0.9105 C   0  0  0  0  0  0  0  0  0  0  0  0
    2.6660   -0.8234   -0.9178 H   0  0  0  0  0  0  0  0  0  0  0  0
    1.7341    0.0889   -2.8835 H   0  0  0  0  0  0  0  0  0  0  0  0
    0.3808    0.8733   -2.0362 H   0  0  0  0  0  0  0  0  0  0  0  0
   -0.5797   -1.3599   -1.3815 H   0  0  0  0  0  0  0  0  0  0  0  0
    0.3950   -2.0608   -2.6885 H   0  0  0  0  0  0  0  0  0  0  0  0
   -0.0575   -3.3641   -0.8933 H   0  0  0  0  0  0  0  0  0  0  0  0
    1.6766   -3.1193   -1.2248 H   0  0  0  0  0  0  0  0  0  0  0  0
    2.8871    1.4644    0.1435 N   0  0  0  0  0  0  0  0  0  0  0  0
    3.7979    2.5864    0.1658 C   0  0  2  0  0  0  0  0  0  0  0  0
    3.3223    3.5989   -0.8678 C   0  0  0  0  0  0  0  0  0  0  0  0
    2.6076    3.2983   -1.8217 O   0  0  0  0  0  0  0  0  0  0  0  0
    5.2251    2.1464   -0.1211 C   0  0  0  0  0  0  0  0  0  0  0  0
    2.4027    1.2178    1.0014 H   0  0  0  0  0  0  0  0  0  0  0  0
    3.7324    3.0271    1.1666 H   0  0  0  0  0  0  0  0  0  0  0  0
    5.3103    1.7023   -1.1195 H   0  0  0  0  0  0  0  0  0  0  0  0
    5.9180    2.9930   -0.0757 H   0  0  0  0  0  0  0  0  0  0  0  0
    5.5551    1.3962    0.6056 H   0  0  0  0  0  0  0  0  0  0  0  0
    3.8250    4.8692   -0.6238 N   0  0  0  0  0  0  0  0  0  0  0  0
    3.5287    6.0009   -1.4707 C   0  0  0  0  0  0  0  0  0  0  0  0
    4.3947    5.0312    0.2015 H   0  0  0  0  0  0  0  0  0  0  0  0
    4.3093    6.0986   -2.2396 H   0  0  0  0  0  0  0  0  0  0  0  0
    2.5531    5.8501   -1.9560 H   0  0  0  0  0  0  0  0  0  0  0  0
    3.4975    6.9164   -0.8617 H   0  0  0  0  0  0  0  0  0  0  0  0
 18 19  1  0  0  0  0
 19 31  1  0  0  0  0
 19 20  2  0  0  0  0
  8  9  1  0  0  0  0
  9 17  1  0  0  0  0
  9 10  2  0  0  0  0
  1  3  1  0  0  0  0
  1  7  1  0  0  0  0
  1  2  2  0  0  0  0
 32 33  1  0  0  0  0
 33 41  1  0  0  0  0
 33 34  2  0  0  0  0
 21 22  1  0  0  0  0
 22 23  1  0  0  0  0
 18 21  1  0  0  0  0
 17 23  1  0  0  0  0
 17 18  1  0  0  0  0
  8 11  1  0  0  0  0
 32 35  1  0  0  0  0
 41 42  1  0  0  0  0
  7  8  1  0  0  0  0
 31 32  1  0  0  0  0
 22 27  1  0  0  0  0
 22 28  1  0  0  0  0
 21 25  1  0  0  0  0
 21 26  1  0  0  0  0
 23 29  1  0  0  0  0
 23 30  1  0  0  0  0
 18 24  1  0  0  0  0
  3  4  1  0  0  0  0
  3  5  1  0  0  0  0
  3  6  1  0  0  0  0
 11 14  1  0  0  0  0
 11 15  1  0  0  0  0
 11 16  1  0  0  0  0
 35 38  1  0  0  0  0
 35 39  1  0  0  0  0
 35 40  1  0  0  0  0
 42 44  1  0  0  0  0
 42 45  1  0  0  0  0
 42 46  1  0  0  0  0
  8 13  1  0  0  0  0
 32 37  1  0  0  0  0
 31 36  1  0  0  0  0
 41 43  1  0  0  0  0
  7 12  1  0  0  0  0
M  END
$$$$

  -OEChem-05262214473D

 46 46  0     1  0  0  0  0  0999 V2000
   -0.6012   -3.2995    3.8205 C   0  0  0  0  0  0  0  0  0  0  0  0
   -0.6574   -4.4683    3.4568 O   0  0  0  0  0  0  0  0  0  0  0  0
   -0.4935   -2.9859    5.2760 C   0  0  0  0  0  0  0  0  0  0  0  0
   -1.4789   -2.8689    5.7550 H   0  0  0  0  0  0  0  0  0  0  0  0
    0.0123   -3.7847    5.8419 H   0  0  0  0  0  0  0  0  0  0  0  0
    0.0585   -2.0642    5.5199 H   0  0  0  0  0  0  0  0  0  0  0  0
   -0.6261   -2.1849    2.9917 N   0  0  0  0  0  0  0  0  0  0  0  0
   -0.7237   -2.2601    1.5650 C   0  0  2  0  0  0  0  0  0  0  0  0
    0.1695   -1.1513    1.0687 C   0  0  0  0  0  0  0  0  0  0  0  0
    0.3193   -0.1267    1.7365 O   0  0  0  0  0  0  0  0  0  0  0  0
   -2.1397   -2.0663    1.0750 C   0  0  0  0  0  0  0  0  0  0  0  0
   -0.5717   -1.2606    3.4238 H   0  0  0  0  0  0  0  0  0  0  0  0
   -0.3076   -3.2111    1.2363 H   0  0  0  0  0  0  0  0  0  0  0  0
   -2.5584   -1.1089    1.4061 H   0  0  0  0  0  0  0  0  0  0  0  0
   -2.1682   -2.0790   -0.0197 H   0  0  0  0  0  0  0  0  0  0  0  0
   -2.7965   -2.8601    1.4459 H   0  0  0  0  0  0  0  0  0  0  0  0
    0.7724   -1.3745   -0.1593 N   0  0  0  0  0  0  0  0  0  0  0  0
    1.6644   -0.4046   -0.7812 C   0  0  2  0  0  0  0  0  0  0  0  0
    1.7547    0.7703    0.1454 C   0  0  0  0  0  0  0  0  0  0  0  0
    0.9343    0.8930    1.0473 O   0  0  0  0  0  0  0  0  0  0  0  0
    0.9832   -0.0385   -2.0947 C   0  0  0  0  0  0  0  0  0  0  0  0
    0.4329   -1.4308   -1.7953 C   0  0  0  0  0  0  0  0  0  0  0  0
    0.7499   -2.6270   -0.9105 C   0  0  0  0  0  0  0  0  0  0  0  0
    2.6660   -0.8234   -0.9178 H   0  0  0  0  0  0  0  0  0  0  0  0
    1.7341    0.0889   -2.8835 H   0  0  0  0  0  0  0  0  0  0  0  0
    0.3808    0.8733   -2.0362 H   0  0  0  0  0  0  0  0  0  0  0  0
   -0.5797   -1.3599   -1.3815 H   0  0  0  0  0  0  0  0  0  0  0  0
    0.3950   -2.0608   -2.6885 H   0  0  0  0  0  0  0  0  0  0  0  0
   -0.0575   -3.3641   -0.8933 H   0  0  0  0  0  0  0  0  0  0  0  0
    1.6766   -3.1193   -1.2248 H   0  0  0  0  0  0  0  0  0  0  0  0
    2.7383    1.6383   -0.0624 N   0  0  0  0  0  0  0  0  0  0  0  0
    3.4451    2.8927   -0.1882 C   0  0  2  0  0  0  0  0  0  0  0  0
    2.6143    3.8141   -1.0716 C   0  0  0  0  0  0  0  0  0  0  0  0
    1.7768    3.4011   -1.8711 O   0  0  0  0  0  0  0  0  0  0  0  0
    4.8349    2.6888   -0.7708 C   0  0  0  0  0  0  0  0  0  0  0  0
    2.4846    1.3174    0.8671 H   0  0  0  0  0  0  0  0  0  0  0  0
    3.5164    3.3180    0.8188 H   0  0  0  0  0  0  0  0  0  0  0  0
    4.7838    2.2634   -1.7798 H   0  0  0  0  0  0  0  0  0  0  0  0
    5.3796    3.6363   -0.8389 H   0  0  0  0  0  0  0  0  0  0  0  0
    5.4209    2.0025   -0.1501 H   0  0  0  0  0  0  0  0  0  0  0  0
    2.9486    5.1492   -0.8933 N   0  0  0  0  0  0  0  0  0  0  0  0
    2.3102    6.2174   -1.6264 C   0  0  0  0  0  0  0  0  0  0  0  0
    3.6417    5.4018   -0.1951 H   0  0  0  0  0  0  0  0  0  0  0  0
    2.8919    6.4392   -2.5333 H   0  0  0  0  0  0  0  0  0  0  0  0
    1.2926    5.9104   -1.9096 H   0  0  0  0  0  0  0  0  0  0  0  0
    2.2595    7.1163   -0.9945 H   0  0  0  0  0  0  0  0  0  0  0  0
 18 19  1  0  0  0  0
 19 31  1  0  0  0  0
 19 20  2  0  0  0  0
  8  9  1  0  0  0  0
  9 17  1  0  0  0  0
  9 10  2  0  0  0  0
  1  3  1  0  0  0  0
  1  7  1  0  0  0  0
  1  2  2  0  0  0  0
 32 33  1  0  0  0  0
 33 41  1  0  0  0  0
 33 34  2  0  0  0  0
 21 22  1  0  0  0  0
 22 23  1  0  0  0  0
 18 21  1  0  0  0  0
 17 23  1  0  0  0  0
 17 18  1  0  0  0  0
  8 11  1  0  0  0  0
 32 35  1  0  0  0  0
 41 42  1  0  0  0  0
  7  8  1  0  0  0  0
 31 32  1  0  0  0  0
 22 27  1  0  0  0  0
 22 28  1  0  0  0  0
 21 25  1  0  0  0  0
 21 26  1  0  0  0  0
 23 29  1  0  0  0  0
 23 30  1  0  0  0  0
 18 24  1  0  0  0  0
  3  4  1  0  0  0  0
  3  5  1  0  0  0  0
  3  6  1  0  0  0  0
 11 14  1  0  0  0  0
 11 15  1  0  0  0  0
 11 16  1  0  0  0  0
 35 38  1  0  0  0  0
 35 39  1  0  0  0  0
 35 40  1  0  0  0  0
 42 44  1  0  0  0  0
 42 45  1  0  0  0  0
 42 46  1  0  0  0  0
  8 13  1  0  0  0  0
 32 37  1  0  0  0  0
 31 36  1  0  0  0  0
 41 43  1  0  0  0  0
  7 12  1  0  0  0  0
M  END
$$$$

  -OEChem-05262214473D

 46 46  0     1  0  0  0  0  0999 V2000
   -0.6012   -3.2995    3.8205 C   0  0  0  0  0  0  0  0  0  0  0  0
   -0.6574   -4.4683    3.4568 O   0  0  0  0  0  0  0  0  0  0  0  0
   -0.4935   -2.9859    5.2760 C   0  0  0  0  0  0  0  0  0  0  0  0
   -1.4789   -2.8689    5.7550 H   0  0  0  0  0  0  0  0  0  0  0  0
    0.0123   -3.7847    5.8419 H   0  0  0  0  0  0  0  0  0  0  0  0
    0.0585   -2.0642    5.5199 H   0  0  0  0  0  0  0  0  0  0  0  0
   -0.6261   -2.1849    2.9917 N   0  0  0  0  0  0  0  0  0  0  0  0
   -0.7237   -2.2601    1.5650 C   0  0  2  0  0  0  0  0  0  0  0  0
    0.1695   -1.1513    1.0687 C   0  0  0  0  0  0  0  0  0  0  0  0
    0.3193   -0.1267    1.7365 O   0  0  0  0  0  0  0  0  0  0  0  0
   -2.1397   -2.0663    1.0750 C   0  0  0  0  0  0  0  0  0  0  0  0
   -0.5717   -1.2606    3.4238 H   0  0  0  0  0  0  0  0  0  0  0  0
   -0.3076   -3.2111    1.2363 H   0  0  0  0  0  0  0  0  0  0  0  0
   -2.5584   -1.1089    1.4061 H   0  0  0  0  0  0  0  0  0  0  0  0
   -2.1682   -2.0790   -0.0197 H   0  0  0  0  0  0  0  0  0  0  0  0
   -2.7965   -2.8601    1.4459 H   0  0  0  0  0  0  0  0  0  0  0  0
    0.7724   -1.3745   -0.1593 N   0  0  0  0  0  0  0  0  0  0  0  0
    1.6644   -0.4046   -0.7812 C   0  0  2  0  0  0  0  0  0  0  0  0
    1.7547    0.7703    0.1454 C   0  0  0  0  0  0  0  0  0  0  0  0
    1.1268    0.7596    1.1977 O   0  0  0  0  0  0  0  0  0  0  0  0
    0.9832   -0.0385   -2.0947 C   0  0  0  0  0  0  0  0  0  0  0  0
    0.4329   -1.4308   -1.7953 C   0  0  0  0  0  0  0  0  0  0  0  0
    0.7499   -2.6270   -0.9105 C   0  0  0  0  0  0  0  0  0  0  0  0
    2.6660   -0.8234   -0.9178 H   0  0  0  0  0  0  0  0  0  0  0  0
    1.7341    0.0889   -2.8835 H   0  0  0  0  0  0  0  0  0  0  0  0
    0.3808    0.8733   -2.0362 H   0  0  0  0  0  0  0  0  0  0  0  0
   -0.5797   -1.3599   -1.3815 H   0  0  0  0  0  0  0  0  0  0  0  0
    0.3950   -2.0608   -2.6885 H   0  0  0  0  0  0  0  0  0  0  0  0
   -0.0575   -3.3641   -0.8933 H   0  0  0  0  0  0  0  0  0  0  0  0
    1.6766   -3.1193   -1.2248 H   0  0  0  0  0  0  0  0  0  0  0  0
    2.5251    1.7856   -0.2284 N   0  0  0  0  0  0  0  0  0  0  0  0
    2.9835    3.1377   -0.4538 C   0  0  2  0  0  0  0  0  0  0  0  0
    1.8547    3.9118   -1.1215 C   0  0  0  0  0  0  0  0  0  0  0  0
    0.9478    3.3683   -1.7486 O   0  0  0  0  0  0  0  0  0  0  0  0
    4.2395    3.1605   -1.3109 C   0  0  0  0  0  0  0  0  0  0  0  0
    2.5205    1.4288    0.7224 H   0  0  0  0  0  0  0  0  0  0  0  0
    3.1906    3.5697    0.5313 H   0  0  0  0  0  0  0  0  0  0  0  0
    4.0515    2.7315   -2.3019 H   0  0  0  0  0  0  0  0  0  0  0  0
    4.6017    4.1835   -1.4569 H   0  0  0  0  0  0  0  0  0  0  0  0
    5.0410    2.5784   -0.8434 H   0  0  0  0  0  0  0  0  0  0  0  0
    2.0026    5.2836   -0.9715 N   0  0  0  0  0  0  0  0  0  0  0  0
    1.0670    6.2339   -1.5262 C   0  0  0  0  0  0  0  0  0  0  0  0
    2.7747    5.6456   -0.4196 H   0  0  0  0  0  0  0  0  0  0  0  0
    1.4087    6.5460   -2.5241 H   0  0  0  0  0  0  0  0  0  0  0  0
    0.0748    5.7663   -1.6081 H   0  0  0  0  0  0  0  0  0  0  0  0
    1.0046    7.1135   -0.8685 H   0  0  0  0  0  0  0  0  0  0  0  0
 18 19  1  0  0  0  0
 19 31  1  0  0  0  0
 19 20  2  0  0  0  0
  8  9  1  0  0  0  0
  9 17  1  0  0  0  0
  9 10  2  0  0  0  0
  1  3  1  0  0  0  0
  1  7  1  0  0  0  0
  1  2  2  0  0  0  0
 32 33  1  0  0  0  0
 33 41  1  0  0  0  0
 33 34  2  0  0  0  0
 21 22  1  0  0  0  0
 22 23  1  0  0  0  0
 18 21  1  0  0  0  0
 17 23  1  0  0  0  0
 17 18  1  0  0  0  0
  8 11  1  0  0  0  0
 32 35  1  0  0  0  0
 41 42  1  0  0  0  0
  7  8  1  0  0  0  0
 31 32  1  0  0  0  0
 22 27  1  0  0  0  0
 22 28  1  0  0  0  0
 21 25  1  0  0  0  0
 21 26  1  0  0  0  0
 23 29  1  0  0  0  0
 23 30  1  0  0  0  0
 18 24  1  0  0  0  0
  3  4  1  0  0  0  0
  3  5  1  0  0  0  0
  3  6  1  0  0  0  0
 11 14  1  0  0  0  0
 11 15  1  0  0  0  0
 11 16  1  0  0  0  0
 35 38  1  0  0  0  0
 35 39  1  0  0  0  0
 35 40  1  0  0  0  0
 42 44  1  0  0  0  0
 42 45  1  0  0  0  0
 42 46  1  0  0  0  0
  8 13  1  0  0  0  0
 32 37  1  0  0  0  0
 31 36  1  0  0  0  0
 41 43  1  0  0  0  0
  7 12  1  0  0  0  0
M  END
$$$$

  -OEChem-05262214473D

 46 46  0     1  0  0  0  0  0999 V2000
   -0.6012   -3.2995    3.8205 C   0  0  0  0  0  0  0  0  0  0  0  0
   -0.6574   -4.4683    3.4568 O   0  0  0  0  0  0  0  0  0  0  0  0
   -0.4935   -2.9859    5.2760 C   0  0  0  0  0  0  0  0  0  0  0  0
   -1.4789   -2.8689    5.7550 H   0  0  0  0  0  0  0  0  0  0  0  0
    0.0123   -3.7847    5.8419 H   0  0  0  0  0  0  0  0  0  0  0  0
    0.0585   -2.0642    5.5199 H   0  0  0  0  0  0  0  0  0  0  0  0
   -0.6261   -2.1849    2.9917 N   0  0  0  0  0  0  0  0  0  0  0  0
   -0.7237   -2.2601    1.5650 C   0  0  2  0  0  0  0  0  0  0  0  0
    0.1695   -1.1513    1.0687 C   0  0  0  0  0  0  0  0  0  0  0  0
    0.3193   -0.1267    1.7365 O   0  0  0  0  0  0  0  0  0  0  0  0
   -2.1397   -2.0663    1.0750 C   0  0  0  0  0  0  0  0  0  0  0  0
   -0.5717   -1.2606    3.4238 H   0  0  0  0  0  0  0  0  0  0  0  0
   -0.3076   -3.2111    1.2363 H   0  0  0  0  0  0  0  0  0  0  0  0
   -2.5584   -1.1089    1.4061 H   0  0  0  0  0  0  0  0  0  0  0  0
   -2.1682   -2.0790   -0.0197 H   0  0  0  0  0  0  0  0  0  0  0  0
   -2.7965   -2.8601    1.4459 H   0  0  0  0  0  0  0  0  0  0  0  0
    0.7724   -1.3745   -0.1593 N   0  0  0  0  0  0  0  0  0  0  0  0
    1.6644   -0.4046   -0.7812 C   0  0  2  0  0  0  0  0  0  0  0  0
    1.7547    0.7703    0.1454 C   0  0  0  0  0  0  0  0  0  0  0  0
    1.3646    0.6593    1.3017 O   0  0  0  0  0  0  0  0  0  0  0  0
    0.9832   -0.0385   -2.0947 C   0  0  0  0  0  0  0  0  0  0  0  0
    0.4329   -1.4308   -1.7953 C   0  0  0  0  0  0  0  0  0  0  0  0
    0.7499   -2.6270   -0.9105 C   0  0  0  0  0  0  0  0  0  0  0  0
    2.6660   -0.8234   -0.9178 H   0  0  0  0  0  0  0  0  0  0  0  0
    1.7341    0.0889   -2.8835 H   0  0  0  0  0  0  0  0  0  0  0  0
    0.3808    0.8733   -2.0362 H   0  0  0  0  0  0  0  0  0  0  0  0
   -0.5797   -1.3599   -1.3815 H   0  0  0  0  0  0  0  0  0  0  0  0
    0.3950   -2.0608   -2.6885 H   0  0  0  0  0  0  0  0  0  0  0  0
   -0.0575   -3.3641   -0.8933 H   0  0  0  0  0  0  0  0  0  0  0  0
    1.6766   -3.1193   -1.2248 H   0  0  0  0  0  0  0  0  0  0  0  0
    2.2618    1.8964   -0.3433 N   0  0  0  0  0  0  0  0  0  0  0  0
    2.4446    3.3046   -0.6129 C   0  0  2  0  0  0  0  0  0  0  0  0
    1.0951    3.8856   -1.0141 C   0  0  0  0  0  0  0  0  0  0  0  0
    0.1771    3.2020   -1.4626 O   0  0  0  0  0  0  0  0  0  0  0  0
    3.4793    3.5293   -1.7044 C   0  0  0  0  0  0  0  0  0  0  0  0
    2.5080    1.5445    0.5770 H   0  0  0  0  0  0  0  0  0  0  0  0
    2.7773    3.7653    0.3236 H   0  0  0  0  0  0  0  0  0  0  0  0
    3.1634    3.0746   -2.6504 H   0  0  0  0  0  0  0  0  0  0  0  0
    3.6374    4.5972   -1.8875 H   0  0  0  0  0  0  0  0  0  0  0  0
    4.4413    3.0848   -1.4270 H   0  0  0  0  0  0  0  0  0  0  0  0
    1.0514    5.2634   -0.8531 N   0  0  0  0  0  0  0  0  0  0  0  0
   -0.1161    6.0495   -1.1769 C   0  0  0  0  0  0  0  0  0  0  0  0
    1.8526    5.7458   -0.4568 H   0  0  0  0  0  0  0  0  0  0  0  0
   -0.0391    6.4118   -2.2127 H   0  0  0  0  0  0  0  0  0  0  0  0
   -1.0174    5.4276   -1.0722 H   0  0  0  0  0  0  0  0  0  0  0  0
   -0.1814    6.9080   -0.4923 H   0  0  0  0  0  0  0  0  0  0  0  0
 18 19  1  0  0  0  0
 19 31  1  0  0  0  0
 19 20  2  0  0  0  0
  8  9  1  0  0  0  0
  9 17  1  0  0  0  0
  9 10  2  0  0  0  0
  1  3  1  0  0  0  0
  1  7  1  0  0  0  0
  1  2  2  0  0  0  0
 32 33  1  0  0  0  0
 33 41  1  0  0  0  0
 33 34  2  0  0  0  0
 21 22  1  0  0  0  0
 22 23  1  0  0  0  0
 18 21  1  0  0  0  0
 17 23  1  0  0  0  0
 17 18  1  0  0  0  0
  8 11  1  0  0  0  0
 32 35  1  0  0  0  0
 41 42  1  0  0  0  0
  7  8  1  0  0  0  0
 31 32  1  0  0  0  0
 22 27  1  0  0  0  0
 22 28  1  0  0  0  0
 21 25  1  0  0  0  0
 21 26  1  0  0  0  0
 23 29  1  0  0  0  0
 23 30  1  0  0  0  0
 18 24  1  0  0  0  0
  3  4  1  0  0  0  0
  3  5  1  0  0  0  0
  3  6  1  0  0  0  0
 11 14  1  0  0  0  0
 11 15  1  0  0  0  0
 11 16  1  0  0  0  0
 35 38  1  0  0  0  0
 35 39  1  0  0  0  0
 35 40  1  0  0  0  0
 42 44  1  0  0  0  0
 42 45  1  0  0  0  0
 42 46  1  0  0  0  0
  8 13  1  0  0  0  0
 32 37  1  0  0  0  0
 31 36  1  0  0  0  0
 41 43  1  0  0  0  0
  7 12  1  0  0  0  0
M  END
$$$$

  -OEChem-05262214473D

 46 46  0     1  0  0  0  0  0999 V2000
   -0.6012   -3.2995    3.8205 C   0  0  0  0  0  0  0  0  0  0  0  0
   -0.6574   -4.4683    3.4568 O   0  0  0  0  0  0  0  0  0  0  0  0
   -0.4935   -2.9859    5.2760 C   0  0  0  0  0  0  0  0  0  0  0  0
   -1.4789   -2.8689    5.7550 H   0  0  0  0  0  0  0  0  0  0  0  0
    0.0123   -3.7847    5.8419 H   0  0  0  0  0  0  0  0  0  0  0  0
    0.0585   -2.0642    5.5199 H   0  0  0  0  0  0  0  0  0  0  0  0
   -0.6261   -2.1849    2.9917 N   0  0  0  0  0  0  0  0  0  0  0  0
   -0.7237   -2.2601    1.5650 C   0  0  2  0  0  0  0  0  0  0  0  0
    0.1695   -1.1513    1.0687 C   0  0  0  0  0  0  0  0  0  0  0  0
    0.3193   -0.1267    1.7365 O   0  0  0  0  0  0  0  0  0  0  0  0
   -2.1397   -2.0663    1.0750 C   0  0  0  0  0  0  0  0  0  0  0  0
   -0.5717   -1.2606    3.4238 H   0  0  0  0  0  0  0  0  0  0  0  0
   -0.3076   -3.2111    1.2363 H   0  0  0  0  0  0  0  0  0  0  0  0
   -2.5584   -1.1089    1.4061 H   0  0  0  0  0  0  0  0  0  0  0  0
   -2.1682   -2.0790   -0.0197 H   0  0  0  0  0  0  0  0  0  0  0  0
   -2.7965   -2.8601    1.4459 H   0  0  0  0  0  0  0  0  0  0  0  0
    0.7724   -1.3745   -0.1593 N   0  0  0  0  0  0  0  0  0  0  0  0
    1.6644   -0.4046   -0.7812 C   0  0  2  0  0  0  0  0  0  0  0  0
    1.7547    0.7703    0.1454 C   0  0  0  0  0  0  0  0  0  0  0  0
    1.6315    0.5987    1.3525 O   0  0  0  0  0  0  0  0  0  0  0  0
    0.9832   -0.0385   -2.0947 C   0  0  0  0  0  0  0  0  0  0  0  0
    0.4329   -1.4308   -1.7953 C   0  0  0  0  0  0  0  0  0  0  0  0
    0.7499   -2.6270   -0.9105 C   0  0  0  0  0  0  0  0  0  0  0  0
    2.6660   -0.8234   -0.9178 H   0  0  0  0  0  0  0  0  0  0  0  0
    1.7341    0.0889   -2.8835 H   0  0  0  0  0  0  0  0  0  0  0  0
    0.3808    0.8733   -2.0362 H   0  0  0  0  0  0  0  0  0  0  0  0
   -0.5797   -1.3599   -1.3815 H   0  0  0  0  0  0  0  0  0  0  0  0
    0.3950   -2.0608   -2.6885 H   0  0  0  0  0  0  0  0  0  0  0  0
   -0.0575   -3.3641   -0.8933 H   0  0  0  0  0  0  0  0  0  0  0  0
    1.6766   -3.1193   -1.2248 H   0  0  0  0  0  0  0  0  0  0  0  0
    1.9665    1.9631   -0.3991 N   0  0  0  0  0  0  0  0  0  0  0  0
    1.8650    3.3821   -0.6546 C   0  0  2  0  0  0  0  0  0  0  0  0
    0.3875    3.7370   -0.7567 C   0  0  0  0  0  0  0  0  0  0  0  0
   -0.4826    2.9137   -1.0327 O   0  0  0  0  0  0  0  0  0  0  0  0
    2.6063    3.7700   -1.9245 C   0  0  0  0  0  0  0  0  0  0  0  0
    2.4479    1.6564    0.4409 H   0  0  0  0  0  0  0  0  0  0  0  0
    2.3046    3.8913    0.2099 H   0  0  0  0  0  0  0  0  0  0  0  0
    2.1800    3.2694   -2.8015 H   0  0  0  0  0  0  0  0  0  0  0  0
    2.5525    4.8493   -2.1013 H   0  0  0  0  0  0  0  0  0  0  0  0
    3.6626    3.4871   -1.8611 H   0  0  0  0  0  0  0  0  0  0  0  0
    0.1599    5.0898   -0.5460 N   0  0  0  0  0  0  0  0  0  0  0  0
   -1.1585    5.6766   -0.6024 C   0  0  0  0  0  0  0  0  0  0  0  0
    0.9384    5.6957   -0.3041 H   0  0  0  0  0  0  0  0  0  0  0  0
   -1.3530    6.0456   -1.6203 H   0  0  0  0  0  0  0  0  0  0  0  0
   -1.9093    4.9173   -0.3382 H   0  0  0  0  0  0  0  0  0  0  0  0
   -1.2178    6.5139    0.1085 H   0  0  0  0  0  0  0  0  0  0  0  0
 18 19  1  0  0  0  0
 19 31  1  0  0  0  0
 19 20  2  0  0  0  0
  8  9  1  0  0  0  0
  9 17  1  0  0  0  0
  9 10  2  0  0  0  0
  1  3  1  0  0  0  0
  1  7  1  0  0  0  0
  1  2  2  0  0  0  0
 32 33  1  0  0  0  0
 33 41  1  0  0  0  0
 33 34  2  0  0  0  0
 21 22  1  0  0  0  0
 22 23  1  0  0  0  0
 18 21  1  0  0  0  0
 17 23  1  0  0  0  0
 17 18  1  0  0  0  0
  8 11  1  0  0  0  0
 32 35  1  0  0  0  0
 41 42  1  0  0  0  0
  7  8  1  0  0  0  0
 31 32  1  0  0  0  0
 22 27  1  0  0  0  0
 22 28  1  0  0  0  0
 21 25  1  0  0  0  0
 21 26  1  0  0  0  0
 23 29  1  0  0  0  0
 23 30  1  0  0  0  0
 18 24  1  0  0  0  0
  3  4  1  0  0  0  0
  3  5  1  0  0  0  0
  3  6  1  0  0  0  0
 11 14  1  0  0  0  0
 11 15  1  0  0  0  0
 11 16  1  0  0  0  0
 35 38  1  0  0  0  0
 35 39  1  0  0  0  0
 35 40  1  0  0  0  0
 42 44  1  0  0  0  0
 42 45  1  0  0  0  0
 42 46  1  0  0  0  0
  8 13  1  0  0  0  0
 32 37  1  0  0  0  0
 31 36  1  0  0  0  0
 41 43  1  0  0  0  0
  7 12  1  0  0  0  0
M  END
$$$$

  -OEChem-05262214473D

 46 46  0     1  0  0  0  0  0999 V2000
   -0.6012   -3.2995    3.8205 C   0  0  0  0  0  0  0  0  0  0  0  0
   -0.6574   -4.4683    3.4568 O   0  0  0  0  0  0  0  0  0  0  0  0
   -0.4935   -2.9859    5.2760 C   0  0  0  0  0  0  0  0  0  0  0  0
   -1.4789   -2.8689    5.7550 H   0  0  0  0  0  0  0  0  0  0  0  0
    0.0123   -3.7847    5.8419 H   0  0  0  0  0  0  0  0  0  0  0  0
    0.0585   -2.0642    5.5199 H   0  0  0  0  0  0  0  0  0  0  0  0
   -0.6261   -2.1849    2.9917 N   0  0  0  0  0  0  0  0  0  0  0  0
   -0.7237   -2.2601    1.5650 C   0  0  2  0  0  0  0  0  0  0  0  0
    0.1695   -1.1513    1.0687 C   0  0  0  0  0  0  0  0  0  0  0  0
    0.3193   -0.1267    1.7365 O   0  0  0  0  0  0  0  0  0  0  0  0
   -2.1397   -2.0663    1.0750 C   0  0  0  0  0  0  0  0  0  0  0  0
   -0.5717   -1.2606    3.4238 H   0  0  0  0  0  0  0  0  0  0  0  0
   -0.3076   -3.2111    1.2363 H   0  0  0  0  0  0  0  0  0  0  0  0
   -2.5584   -1.1089    1.4061 H   0  0  0  0  0  0  0  0  0  0  0  0
   -2.1682   -2.0790   -0.0197 H   0  0  0  0  0  0  0  0  0  0  0  0
   -2.7965   -2.8601    1.4459 H   0  0  0  0  0  0  0  0  0  0  0  0
    0.7724   -1.3745   -0.1593 N   0  0  0  0  0  0  0  0  0  0  0  0
    1.6644   -0.4046   -0.7812 C   0  0  2  0  0  0  0  0  0  0  0  0
    1.7547    0.7703    0.1454 C   0  0  0  0  0  0  0  0  0  0  0  0
    1.9093    0.5822    1.3464 O   0  0  0  0  0  0  0  0  0  0  0  0
    0.9832   -0.0385   -2.0947 C   0  0  0  0  0  0  0  0  0  0  0  0
    0.4329   -1.4308   -1.7953 C   0  0  0  0  0  0  0  0  0  0  0  0
    0.7499   -2.6270   -0.9105 C   0  0  0  0  0  0  0  0  0  0  0  0
    2.6660   -0.8234   -0.9178 H   0  0  0  0  0  0  0  0  0  0  0  0
    1.7341    0.0889   -2.8835 H   0  0  0  0  0  0  0  0  0  0  0  0
    0.3808    0.8733   -2.0362 H   0  0  0  0  0  0  0  0  0  0  0  0
   -0.5797   -1.3599   -1.3815 H   0  0  0  0  0  0  0  0  0  0  0  0
    0.3950   -2.0608   -2.6885 H   0  0  0  0  0  0  0  0  0  0  0  0
   -0.0575   -3.3641   -0.8933 H   0  0  0  0  0  0  0  0  0  0  0  0
    1.6766   -3.1193   -1.2248 H   0  0  0  0  0  0  0  0  0  0  0  0
    1.6593    1.9812   -0.3920 N   0  0  0  0  0  0  0  0  0  0  0  0
    1.2844    3.3648   -0.5761 C   0  0  2  0  0  0  0  0  0  0  0  0
   -0.2201    3.4762   -0.3669 C   0  0  0  0  0  0  0  0  0  0  0  0
   -0.9866    2.5229   -0.4880 O   0  0  0  0  0  0  0  0  0  0  0  0
    1.6798    3.8663   -1.9563 C   0  0  0  0  0  0  0  0  0  0  0  0
    2.3444    1.7570    0.3234 H   0  0  0  0  0  0  0  0  0  0  0  0
    1.8049    3.9392    0.1979 H   0  0  0  0  0  0  0  0  0  0  0  0
    1.1682    3.3026   -2.7450 H   0  0  0  0  0  0  0  0  0  0  0  0
    1.4208    4.9226   -2.0839 H   0  0  0  0  0  0  0  0  0  0  0  0
    2.7580    3.7578   -2.1162 H   0  0  0  0  0  0  0  0  0  0  0  0
   -0.6111    4.7747   -0.0713 N   0  0  0  0  0  0  0  0  0  0  0  0
   -1.9893    5.1407    0.1581 C   0  0  0  0  0  0  0  0  0  0  0  0
    0.0944    5.4986    0.0281 H   0  0  0  0  0  0  0  0  0  0  0  0
   -2.4433    5.4725   -0.7873 H   0  0  0  0  0  0  0  0  0  0  0  0
   -2.5404    4.2703    0.5438 H   0  0  0  0  0  0  0  0  0  0  0  0
   -2.0340    5.9580    0.8929 H   0  0  0  0  0  0  0  0  0  0  0  0
 18 19  1  0  0  0  0
 19 31  1  0  0  0  0
 19 20  2  0  0  0  0
  8  9  1  0  0  0  0
  9 17  1  0  0  0  0
  9 10  2  0  0  0  0
  1  3  1  0  0  0  0
  1  7  1  0  0  0  0
  1  2  2  0  0  0  0
 32 33  1  0  0  0  0
 33 41  1  0  0  0  0
 33 34  2  0  0  0  0
 21 22  1  0  0  0  0
 22 23  1  0  0  0  0
 18 21  1  0  0  0  0
 17 23  1  0  0  0  0
 17 18  1  0  0  0  0
  8 11  1  0  0  0  0
 32 35  1  0  0  0  0
 41 42  1  0  0  0  0
  7  8  1  0  0  0  0
 31 32  1  0  0  0  0
 22 27  1  0  0  0  0
 22 28  1  0  0  0  0
 21 25  1  0  0  0  0
 21 26  1  0  0  0  0
 23 29  1  0  0  0  0
 23 30  1  0  0  0  0
 18 24  1  0  0  0  0
  3  4  1  0  0  0  0
  3  5  1  0  0  0  0
  3  6  1  0  0  0  0
 11 14  1  0  0  0  0
 11 15  1  0  0  0  0
 11 16  1  0  0  0  0
 35 38  1  0  0  0  0
 35 39  1  0  0  0  0
 35 40  1  0  0  0  0
 42 44  1  0  0  0  0
 42 45  1  0  0  0  0
 42 46  1  0  0  0  0
  8 13  1  0  0  0  0
 32 37  1  0  0  0  0
 31 36  1  0  0  0  0
 41 43  1  0  0  0  0
  7 12  1  0  0  0  0
M  END
$$$$

  -OEChem-05262214473D

 46 46  0     1  0  0  0  0  0999 V2000
   -0.6012   -3.2995    3.8205 C   0  0  0  0  0  0  0  0  0  0  0  0
   -0.6574   -4.4683    3.4568 O   0  0  0  0  0  0  0  0  0  0  0  0
   -0.4935   -2.9859    5.2760 C   0  0  0  0  0  0  0  0  0  0  0  0
   -1.4789   -2.8689    5.7550 H   0  0  0  0  0  0  0  0  0  0  0  0
    0.0123   -3.7847    5.8419 H   0  0  0  0  0  0  0  0  0  0  0  0
    0.0585   -2.0642    5.5199 H   0  0  0  0  0  0  0  0  0  0  0  0
   -0.6261   -2.1849    2.9917 N   0  0  0  0  0  0  0  0  0  0  0  0
   -0.7237   -2.2601    1.5650 C   0  0  2  0  0  0  0  0  0  0  0  0
    0.1695   -1.1513    1.0687 C   0  0  0  0  0  0  0  0  0  0  0  0
    0.3193   -0.1267    1.7365 O   0  0  0  0  0  0  0  0  0  0  0  0
   -2.1397   -2.0663    1.0750 C   0  0  0  0  0  0  0  0  0  0  0  0
   -0.5717   -1.2606    3.4238 H   0  0  0  0  0  0  0  0  0  0  0  0
   -0.3076   -3.2111    1.2363 H   0  0  0  0  0  0  0  0  0  0  0  0
   -2.5584   -1.1089    1.4061 H   0  0  0  0  0  0  0  0  0  0  0  0
   -2.1682   -2.0790   -0.0197 H   0  0  0  0  0  0  0  0  0  0  0  0
   -2.7965   -2.8601    1.4459 H   0  0  0  0  0  0  0  0  0  0  0  0
    0.7724   -1.3745   -0.1593 N   0  0  0  0  0  0  0  0  0  0  0  0
    1.6644   -0.4046   -0.7812 C   0  0  2  0  0  0  0  0  0  0  0  0
    1.7547    0.7703    0.1454 C   0  0  0  0  0  0  0  0  0  0  0  0
    2.1790    0.6107    1.2839 O   0  0  0  0  0  0  0  0  0  0  0  0
    0.9832   -0.0385   -2.0947 C   0  0  0  0  0  0  0  0  0  0  0  0
    0.4329   -1.4308   -1.7953 C   0  0  0  0  0  0  0  0  0  0  0  0
    0.7499   -2.6270   -0.9105 C   0  0  0  0  0  0  0  0  0  0  0  0
    2.6660   -0.8234   -0.9178 H   0  0  0  0  0  0  0  0  0  0  0  0
    1.7341    0.0889   -2.8835 H   0  0  0  0  0  0  0  0  0  0  0  0
    0.3808    0.8733   -2.0362 H   0  0  0  0  0  0  0  0  0  0  0  0
   -0.5797   -1.3599   -1.3815 H   0  0  0  0  0  0  0  0  0  0  0  0
    0.3950   -2.0608   -2.6885 H   0  0  0  0  0  0  0  0  0  0  0  0
   -0.0575   -3.3641   -0.8933 H   0  0  0  0  0  0  0  0  0  0  0  0
    1.6766   -3.1193   -1.2248 H   0  0  0  0  0  0  0  0  0  0  0  0
    1.3611    1.9494   -0.3226 N   0  0  0  0  0  0  0  0  0  0  0  0
    0.7422    3.2541   -0.3828 C   0  0  2  0  0  0  0  0  0  0  0  0
   -0.6861    3.1211    0.1289 C   0  0  0  0  0  0  0  0  0  0  0  0
   -1.3004    2.0563    0.1342 O   0  0  0  0  0  0  0  0  0  0  0  0
    0.7630    3.8116   -1.7975 C   0  0  0  0  0  0  0  0  0  0  0  0
    2.2045    1.8395    0.2325 H   0  0  0  0  0  0  0  0  0  0  0  0
    1.3120    3.9058    0.2884 H   0  0  0  0  0  0  0  0  0  0  0  0
    0.1971    3.1720   -2.4846 H   0  0  0  0  0  0  0  0  0  0  0  0
    0.3195    4.8120   -1.8363 H   0  0  0  0  0  0  0  0  0  0  0  0
    1.7891    3.8786   -2.1749 H   0  0  0  0  0  0  0  0  0  0  0  0
   -1.2092    4.3396    0.5388 N   0  0  0  0  0  0  0  0  0  0  0  0
   -2.5517    4.4783    1.0529 C   0  0  0  0  0  0  0  0  0  0  0  0
   -0.6220    5.1681    0.5170 H   0  0  0  0  0  0  0  0  0  0  0  0
   -3.2358    4.7315    0.2296 H   0  0  0  0  0  0  0  0  0  0  0  0
   -2.8675    3.5307    1.5136 H   0  0  0  0  0  0  0  0  0  0  0  0
   -2.5743    5.2783    1.8075 H   0  0  0  0  0  0  0  0  0  0  0  0
 18 19  1  0  0  0  0
 19 31  1  0  0  0  0
 19 20  2  0  0  0  0
  8  9  1  0  0  0  0
  9 17  1  0  0  0  0
  9 10  2  0  0  0  0
  1  3  1  0  0  0  0
  1  7  1  0  0  0  0
  1  2  2  0  0  0  0
 32 33  1  0  0  0  0
 33 41  1  0  0  0  0
 33 34  2  0  0  0  0
 21 22  1  0  0  0  0
 22 23  1  0  0  0  0
 18 21  1  0  0  0  0
 17 23  1  0  0  0  0
 17 18  1  0  0  0  0
  8 11  1  0  0  0  0
 32 35  1  0  0  0  0
 41 42  1  0  0  0  0
  7  8  1  0  0  0  0
 31 32  1  0  0  0  0
 22 27  1  0  0  0  0
 22 28  1  0  0  0  0
 21 25  1  0  0  0  0
 21 26  1  0  0  0  0
 23 29  1  0  0  0  0
 23 30  1  0  0  0  0
 18 24  1  0  0  0  0
  3  4  1  0  0  0  0
  3  5  1  0  0  0  0
  3  6  1  0  0  0  0
 11 14  1  0  0  0  0
 11 15  1  0  0  0  0
 11 16  1  0  0  0  0
 35 38  1  0  0  0  0
 35 39  1  0  0  0  0
 35 40  1  0  0  0  0
 42 44  1  0  0  0  0
 42 45  1  0  0  0  0
 42 46  1  0  0  0  0
  8 13  1  0  0  0  0
 32 37  1  0  0  0  0
 31 36  1  0  0  0  0
 41 43  1  0  0  0  0
  7 12  1  0  0  0  0
M  END
$$$$

  -OEChem-05262214473D

 46 46  0     1  0  0  0  0  0999 V2000
   -0.6012   -3.2995    3.8205 C   0  0  0  0  0  0  0  0  0  0  0  0
   -0.6574   -4.4683    3.4568 O   0  0  0  0  0  0  0  0  0  0  0  0
   -0.4935   -2.9859    5.2760 C   0  0  0  0  0  0  0  0  0  0  0  0
   -1.4789   -2.8689    5.7550 H   0  0  0  0  0  0  0  0  0  0  0  0
    0.0123   -3.7847    5.8419 H   0  0  0  0  0  0  0  0  0  0  0  0
    0.0585   -2.0642    5.5199 H   0  0  0  0  0  0  0  0  0  0  0  0
   -0.6261   -2.1849    2.9917 N   0  0  0  0  0  0  0  0  0  0  0  0
   -0.7237   -2.2601    1.5650 C   0  0  2  0  0  0  0  0  0  0  0  0
    0.1695   -1.1513    1.0687 C   0  0  0  0  0  0  0  0  0  0  0  0
    0.3193   -0.1267    1.7365 O   0  0  0  0  0  0  0  0  0  0  0  0
   -2.1397   -2.0663    1.0750 C   0  0  0  0  0  0  0  0  0  0  0  0
   -0.5717   -1.2606    3.4238 H   0  0  0  0  0  0  0  0  0  0  0  0
   -0.3076   -3.2111    1.2363 H   0  0  0  0  0  0  0  0  0  0  0  0
   -2.5584   -1.1089    1.4061 H   0  0  0  0  0  0  0  0  0  0  0  0
   -2.1682   -2.0790   -0.0197 H   0  0  0  0  0  0  0  0  0  0  0  0
   -2.7965   -2.8601    1.4459 H   0  0  0  0  0  0  0  0  0  0  0  0
    0.7724   -1.3745   -0.1593 N   0  0  0  0  0  0  0  0  0  0  0  0
    1.6644   -0.4046   -0.7812 C   0  0  2  0  0  0  0  0  0  0  0  0
    1.7547    0.7703    0.1454 C   0  0  0  0  0  0  0  0  0  0  0  0
    2.4222    0.6824    1.1693 O   0  0  0  0  0  0  0  0  0  0  0  0
    0.9832   -0.0385   -2.0947 C   0  0  0  0  0  0  0  0  0  0  0  0
    0.4329   -1.4308   -1.7953 C   0  0  0  0  0  0  0  0  0  0  0  0
    0.7499   -2.6270   -0.9105 C   0  0  0  0  0  0  0  0  0  0  0  0
    2.6660   -0.8234   -0.9178 H   0  0  0  0  0  0  0  0  0  0  0  0
    1.7341    0.0889   -2.8835 H   0  0  0  0  0  0  0  0  0  0  0  0
    0.3808    0.8733   -2.0362 H   0  0  0  0  0  0  0  0  0  0  0  0
   -0.5797   -1.3599   -1.3815 H   0  0  0  0  0  0  0  0  0  0  0  0
    0.3950   -2.0608   -2.6885 H   0  0  0  0  0  0  0  0  0  0  0  0
   -0.0575   -3.3641   -0.8933 H   0  0  0  0  0  0  0  0  0  0  0  0
    1.6766   -3.1193   -1.2248 H   0  0  0  0  0  0  0  0  0  0  0  0
    1.0922    1.8698   -0.1955 N   0  0  0  0  0  0  0  0  0  0  0  0
    0.2754    3.0573   -0.0878 C   0  0  2  0  0  0  0  0  0  0  0  0
   -0.9789    2.6958    0.6967 C   0  0  0  0  0  0  0  0  0  0  0  0
   -1.4026    1.5458    0.7916 O   0  0  0  0  0  0  0  0  0  0  0  0
   -0.0815    3.6096   -1.4591 C   0  0  0  0  0  0  0  0  0  0  0  0
    2.0376    1.8982    0.1743 H   0  0  0  0  0  0  0  0  0  0  0  0
    0.8597    3.7931    0.4753 H   0  0  0  0  0  0  0  0  0  0  0  0
   -0.6672    2.8863   -2.0381 H   0  0  0  0  0  0  0  0  0  0  0  0
   -0.6763    4.5252   -1.3755 H   0  0  0  0  0  0  0  0  0  0  0  0
    0.8221    3.8412   -2.0332 H   0  0  0  0  0  0  0  0  0  0  0  0
   -1.5935    3.8141    1.2426 N   0  0  0  0  0  0  0  0  0  0  0  0
   -2.8075    3.7345    2.0210 C   0  0  0  0  0  0  0  0  0  0  0  0
   -1.1619    4.7266    1.1295 H   0  0  0  0  0  0  0  0  0  0  0  0
   -3.6765    3.8731    1.3611 H   0  0  0  0  0  0  0  0  0  0  0  0
   -2.8685    2.7487    2.5052 H   0  0  0  0  0  0  0  0  0  0  0  0
   -2.8020    4.5211    2.7900 H   0  0  0  0  0  0  0  0  0  0  0  0
 18 19  1  0  0  0  0
 19 31  1  0  0  0  0
 19 20  2  0  0  0  0
  8  9  1  0  0  0  0
  9 17  1  0  0  0  0
  9 10  2  0  0  0  0
  1  3  1  0  0  0  0
  1  7  1  0  0  0  0
  1  2  2  0  0  0  0
 32 33  1  0  0  0  0
 33 41  1  0  0  0  0
 33 34  2  0  0  0  0
 21 22  1  0  0  0  0
 22 23  1  0  0  0  0
 18 21  1  0  0  0  0
 17 23  1  0  0  0  0
 17 18  1  0  0  0  0
  8 11  1  0  0  0  0
 32 35  1  0  0  0  0
 41 42  1  0  0  0  0
  7  8  1  0  0  0  0
 31 32  1  0  0  0  0
 22 27  1  0  0  0  0
 22 28  1  0  0  0  0
 21 25  1  0  0  0  0
 21 26  1  0  0  0  0
 23 29  1  0  0  0  0
 23 30  1  0  0  0  0
 18 24  1  0  0  0  0
  3  4  1  0  0  0  0
  3  5  1  0  0  0  0
  3  6  1  0  0  0  0
 11 14  1  0  0  0  0
 11 15  1  0  0  0  0
 11 16  1  0  0  0  0
 35 38  1  0  0  0  0
 35 39  1  0  0  0  0
 35 40  1  0  0  0  0
 42 44  1  0  0  0  0
 42 45  1  0  0  0  0
 42 46  1  0  0  0  0
  8 13  1  0  0  0  0
 32 37  1  0  0  0  0
 31 36  1  0  0  0  0
 41 43  1  0  0  0  0
  7 12  1  0  0  0  0
M  END
$$$$

  -OEChem-05262214473D

 46 46  0     1  0  0  0  0  0999 V2000
   -0.6012   -3.2995    3.8205 C   0  0  0  0  0  0  0  0  0  0  0  0
   -0.6574   -4.4683    3.4568 O   0  0  0  0  0  0  0  0  0  0  0  0
   -0.4935   -2.9859    5.2760 C   0  0  0  0  0  0  0  0  0  0  0  0
   -1.4789   -2.8689    5.7550 H   0  0  0  0  0  0  0  0  0  0  0  0
    0.0123   -3.7847    5.8419 H   0  0  0  0  0  0  0  0  0  0  0  0
    0.0585   -2.0642    5.5199 H   0  0  0  0  0  0  0  0  0  0  0  0
   -0.6261   -2.1849    2.9917 N   0  0  0  0  0  0  0  0  0  0  0  0
   -0.7237   -2.2601    1.5650 C   0  0  2  0  0  0  0  0  0  0  0  0
    0.1695   -1.1513    1.0687 C   0  0  0  0  0  0  0  0  0  0  0  0
    0.3193   -0.1267    1.7365 O   0  0  0  0  0  0  0  0  0  0  0  0
   -2.1397   -2.0663    1.0750 C   0  0  0  0  0  0  0  0  0  0  0  0
   -0.5717   -1.2606    3.4238 H   0  0  0  0  0  0  0  0  0  0  0  0
   -0.3076   -3.2111    1.2363 H   0  0  0  0  0  0  0  0  0  0  0  0
   -2.5584   -1.1089    1.4061 H   0  0  0  0  0  0  0  0  0  0  0  0
   -2.1682   -2.0790   -0.0197 H   0  0  0  0  0  0  0  0  0  0  0  0
   -2.7965   -2.8601    1.4459 H   0  0  0  0  0  0  0  0  0  0  0  0
    0.7724   -1.3745   -0.1593 N   0  0  0  0  0  0  0  0  0  0  0  0
    1.6644   -0.4046   -0.7812 C   0  0  2  0  0  0  0  0  0  0  0  0
    1.7547    0.7703    0.1454 C   0  0  0  0  0  0  0  0  0  0  0  0
    2.6225    0.7923    1.0103 O   0  0  0  0  0  0  0  0  0  0  0  0
    0.9832   -0.0385   -2.0947 C   0  0  0  0  0  0  0  0  0  0  0  0
    0.4329   -1.4308   -1.7953 C   0  0  0  0  0  0  0  0  0  0  0  0
    0.7499   -2.6270   -0.9105 C   0  0  0  0  0  0  0  0  0  0  0  0
    2.6660   -0.8234   -0.9178 H   0  0  0  0  0  0  0  0  0  0  0  0
    1.7341    0.0889   -2.8835 H   0  0  0  0  0  0  0  0  0  0  0  0
    0.3808    0.8733   -2.0362 H   0  0  0  0  0  0  0  0  0  0  0  0
   -0.5797   -1.3599   -1.3815 H   0  0  0  0  0  0  0  0  0  0  0  0
    0.3950   -2.0608   -2.6885 H   0  0  0  0  0  0  0  0  0  0  0  0
   -0.0575   -3.3641   -0.8933 H   0  0  0  0  0  0  0  0  0  0  0  0
    1.6766   -3.1193   -1.2248 H   0  0  0  0  0  0  0  0  0  0  0  0
    0.8710    1.7480   -0.0195 N   0  0  0  0  0  0  0  0  0  0  0  0
   -0.0842    2.7880    0.2887 C   0  0  2  0  0  0  0  0  0  0  0  0
   -1.0785    2.2293    1.2980 C   0  0  0  0  0  0  0  0  0  0  0  0
   -1.2863    1.0260    1.4394 O   0  0  0  0  0  0  0  0  0  0  0  0
   -0.7964    3.2741   -0.9640 C   0  0  0  0  0  0  0  0  0  0  0  0
    1.8553    1.9291    0.1529 H   0  0  0  0  0  0  0  0  0  0  0  0
    0.4787    3.6091    0.7459 H   0  0  0  0  0  0  0  0  0  0  0  0
   -1.3658    2.4652   -1.4359 H   0  0  0  0  0  0  0  0  0  0  0  0
   -1.4989    4.0816   -0.7329 H   0  0  0  0  0  0  0  0  0  0  0  0
   -0.0773    3.6482   -1.7007 H   0  0  0  0  0  0  0  0  0  0  0  0
   -1.7379    3.2340    1.9921 N   0  0  0  0  0  0  0  0  0  0  0  0
   -2.7392    2.9601    2.9963 C   0  0  0  0  0  0  0  0  0  0  0  0
   -1.4885    4.2042    1.8238 H   0  0  0  0  0  0  0  0  0  0  0  0
   -3.7354    2.9558    2.5300 H   0  0  0  0  0  0  0  0  0  0  0  0
   -2.5431    1.9778    3.4510 H   0  0  0  0  0  0  0  0  0  0  0  0
   -2.7015    3.7379    3.7733 H   0  0  0  0  0  0  0  0  0  0  0  0
 18 19  1  0  0  0  0
 19 31  1  0  0  0  0
 19 20  2  0  0  0  0
  8  9  1  0  0  0  0
  9 17  1  0  0  0  0
  9 10  2  0  0  0  0
  1  3  1  0  0  0  0
  1  7  1  0  0  0  0
  1  2  2  0  0  0  0
 32 33  1  0  0  0  0
 33 41  1  0  0  0  0
 33 34  2  0  0  0  0
 21 22  1  0  0  0  0
 22 23  1  0  0  0  0
 18 21  1  0  0  0  0
 17 23  1  0  0  0  0
 17 18  1  0  0  0  0
  8 11  1  0  0  0  0
 32 35  1  0  0  0  0
 41 42  1  0  0  0  0
  7  8  1  0  0  0  0
 31 32  1  0  0  0  0
 22 27  1  0  0  0  0
 22 28  1  0  0  0  0
 21 25  1  0  0  0  0
 21 26  1  0  0  0  0
 23 29  1  0  0  0  0
 23 30  1  0  0  0  0
 18 24  1  0  0  0  0
  3  4  1  0  0  0  0
  3  5  1  0  0  0  0
  3  6  1  0  0  0  0
 11 14  1  0  0  0  0
 11 15  1  0  0  0  0
 11 16  1  0  0  0  0
 35 38  1  0  0  0  0
 35 39  1  0  0  0  0
 35 40  1  0  0  0  0
 42 44  1  0  0  0  0
 42 45  1  0  0  0  0
 42 46  1  0  0  0  0
  8 13  1  0  0  0  0
 32 37  1  0  0  0  0
 31 36  1  0  0  0  0
 41 43  1  0  0  0  0
  7 12  1  0  0  0  0
M  END
$$$$

  -OEChem-05262214473D

 46 46  0     1  0  0  0  0  0999 V2000
   -0.6012   -3.2995    3.8205 C   0  0  0  0  0  0  0  0  0  0  0  0
   -0.6574   -4.4683    3.4568 O   0  0  0  0  0  0  0  0  0  0  0  0
   -0.4935   -2.9859    5.2760 C   0  0  0  0  0  0  0  0  0  0  0  0
   -1.4789   -2.8689    5.7550 H   0  0  0  0  0  0  0  0  0  0  0  0
    0.0123   -3.7847    5.8419 H   0  0  0  0  0  0  0  0  0  0  0  0
    0.0585   -2.0642    5.5199 H   0  0  0  0  0  0  0  0  0  0  0  0
   -0.6261   -2.1849    2.9917 N   0  0  0  0  0  0  0  0  0  0  0  0
   -0.7237   -2.2601    1.5650 C   0  0  2  0  0  0  0  0  0  0  0  0
    0.1695   -1.1513    1.0687 C   0  0  0  0  0  0  0  0  0  0  0  0
    0.3193   -0.1267    1.7365 O   0  0  0  0  0  0  0  0  0  0  0  0
   -2.1397   -2.0663    1.0750 C   0  0  0  0  0  0  0  0  0  0  0  0
   -0.5717   -1.2606    3.4238 H   0  0  0  0  0  0  0  0  0  0  0  0
   -0.3076   -3.2111    1.2363 H   0  0  0  0  0  0  0  0  0  0  0  0
   -2.5584   -1.1089    1.4061 H   0  0  0  0  0  0  0  0  0  0  0  0
   -2.1682   -2.0790   -0.0197 H   0  0  0  0  0  0  0  0  0  0  0  0
   -2.7965   -2.8601    1.4459 H   0  0  0  0  0  0  0  0  0  0  0  0
    0.7724   -1.3745   -0.1593 N   0  0  0  0  0  0  0  0  0  0  0  0
    1.6644   -0.4046   -0.7812 C   0  0  2  0  0  0  0  0  0  0  0  0
    1.7547    0.7703    0.1454 C   0  0  0  0  0  0  0  0  0  0  0  0
    2.7661    0.9331    0.8179 O   0  0  0  0  0  0  0  0  0  0  0  0
    0.9832   -0.0385   -2.0947 C   0  0  0  0  0  0  0  0  0  0  0  0
    0.4329   -1.4308   -1.7953 C   0  0  0  0  0  0  0  0  0  0  0  0
    0.7499   -2.6270   -0.9105 C   0  0  0  0  0  0  0  0  0  0  0  0
    2.6660   -0.8234   -0.9178 H   0  0  0  0  0  0  0  0  0  0  0  0
    1.7341    0.0889   -2.8835 H   0  0  0  0  0  0  0  0  0  0  0  0
    0.3808    0.8733   -2.0362 H   0  0  0  0  0  0  0  0  0  0  0  0
   -0.5797   -1.3599   -1.3815 H   0  0  0  0  0  0  0  0  0  0  0  0
    0.3950   -2.0608   -2.6885 H   0  0  0  0  0  0  0  0  0  0  0  0
   -0.0575   -3.3641   -0.8933 H   0  0  0  0  0  0  0  0  0  0  0  0
    1.6766   -3.1193   -1.2248 H   0  0  0  0  0  0  0  0  0  0  0  0
    0.7125    1.5922    0.1935 N   0  0  0  0  0  0  0  0  0  0  0  0
   -0.3120    2.4645    0.7212 C   0  0  2  0  0  0  0  0  0  0  0  0
   -0.9781    1.7533    1.8917 C   0  0  0  0  0  0  0  0  0  0  0  0
   -0.9594    0.5324    2.0334 O   0  0  0  0  0  0  0  0  0  0  0  0
   -1.3327    2.8280   -0.3459 C   0  0  0  0  0  0  0  0  0  0  0  0
    1.6699    1.9302    0.1696 H   0  0  0  0  0  0  0  0  0  0  0  0
    0.1951    3.3662    1.0816 H   0  0  0  0  0  0  0  0  0  0  0  0
   -1.8511    1.9372   -0.7192 H   0  0  0  0  0  0  0  0  0  0  0  0
   -2.0921    3.5116    0.0478 H   0  0  0  0  0  0  0  0  0  0  0  0
   -0.8477    3.3126   -1.2002 H   0  0  0  0  0  0  0  0  0  0  0  0
   -1.6325    2.6390    2.7364 N   0  0  0  0  0  0  0  0  0  0  0  0
   -2.3514    2.2078    3.9125 C   0  0  0  0  0  0  0  0  0  0  0  0
   -1.5796    3.6365    2.5525 H   0  0  0  0  0  0  0  0  0  0  0  0
   -3.4083    2.0422    3.6567 H   0  0  0  0  0  0  0  0  0  0  0  0
   -1.9136    1.2705    4.2866 H   0  0  0  0  0  0  0  0  0  0  0  0
   -2.2796    2.9821    4.6905 H   0  0  0  0  0  0  0  0  0  0  0  0
 18 19  1  0  0  0  0
 19 31  1  0  0  0  0
 19 20  2  0  0  0  0
  8  9  1  0  0  0  0
  9 17  1  0  0  0  0
  9 10  2  0  0  0  0
  1  3  1  0  0  0  0
  1  7  1  0  0  0  0
  1  2  2  0  0  0  0
 32 33  1  0  0  0  0
 33 41  1  0  0  0  0
 33 34  2  0  0  0  0
 21 22  1  0  0  0  0
 22 23  1  0  0  0  0
 18 21  1  0  0  0  0
 17 23  1  0  0  0  0
 17 18  1  0  0  0  0
  8 11  1  0  0  0  0
 32 35  1  0  0  0  0
 41 42  1  0  0  0  0
  7  8  1  0  0  0  0
 31 32  1  0  0  0  0
 22 27  1  0  0  0  0
 22 28  1  0  0  0  0
 21 25  1  0  0  0  0
 21 26  1  0  0  0  0
 23 29  1  0  0  0  0
 23 30  1  0  0  0  0
 18 24  1  0  0  0  0
  3  4  1  0  0  0  0
  3  5  1  0  0  0  0
  3  6  1  0  0  0  0
 11 14  1  0  0  0  0
 11 15  1  0  0  0  0
 11 16  1  0  0  0  0
 35 38  1  0  0  0  0
 35 39  1  0  0  0  0
 35 40  1  0  0  0  0
 42 44  1  0  0  0  0
 42 45  1  0  0  0  0
 42 46  1  0  0  0  0
  8 13  1  0  0  0  0
 32 37  1  0  0  0  0
 31 36  1  0  0  0  0
 41 43  1  0  0  0  0
  7 12  1  0  0  0  0
M  END
$$$$

  -OEChem-05262214473D

 46 46  0     1  0  0  0  0  0999 V2000
   -0.6012   -3.2995    3.8205 C   0  0  0  0  0  0  0  0  0  0  0  0
   -0.6574   -4.4683    3.4568 O   0  0  0  0  0  0  0  0  0  0  0  0
   -0.4935   -2.9859    5.2760 C   0  0  0  0  0  0  0  0  0  0  0  0
   -1.4789   -2.8689    5.7550 H   0  0  0  0  0  0  0  0  0  0  0  0
    0.0123   -3.7847    5.8419 H   0  0  0  0  0  0  0  0  0  0  0  0
    0.0585   -2.0642    5.5199 H   0  0  0  0  0  0  0  0  0  0  0  0
   -0.6261   -2.1849    2.9917 N   0  0  0  0  0  0  0  0  0  0  0  0
   -0.7237   -2.2601    1.5650 C   0  0  2  0  0  0  0  0  0  0  0  0
    0.1695   -1.1513    1.0687 C   0  0  0  0  0  0  0  0  0  0  0  0
    0.3193   -0.1267    1.7365 O   0  0  0  0  0  0  0  0  0  0  0  0
   -2.1397   -2.0663    1.0750 C   0  0  0  0  0  0  0  0  0  0  0  0
   -0.5717   -1.2606    3.4238 H   0  0  0  0  0  0  0  0  0  0  0  0
   -0.3076   -3.2111    1.2363 H   0  0  0  0  0  0  0  0  0  0  0  0
   -2.5584   -1.1089    1.4061 H   0  0  0  0  0  0  0  0  0  0  0  0
   -2.1682   -2.0790   -0.0197 H   0  0  0  0  0  0  0  0  0  0  0  0
   -2.7965   -2.8601    1.4459 H   0  0  0  0  0  0  0  0  0  0  0  0
    0.7724   -1.3745   -0.1593 N   0  0  0  0  0  0  0  0  0  0  0  0
    1.6644   -0.4046   -0.7812 C   0  0  2  0  0  0  0  0  0  0  0  0
    1.7547    0.7703    0.1454 C   0  0  0  0  0  0  0  0  0  0  0  0
    2.8433    1.0950    0.6051 O   0  0  0  0  0  0  0  0  0  0  0  0
    0.9832   -0.0385   -2.0947 C   0  0  0  0  0  0  0  0  0  0  0  0
    0.4329   -1.4308   -1.7953 C   0  0  0  0  0  0  0  0  0  0  0  0
    0.7499   -2.6270   -0.9105 C   0  0  0  0  0  0  0  0  0  0  0  0
    2.6660   -0.8234   -0.9178 H   0  0  0  0  0  0  0  0  0  0  0  0
    1.7341    0.0889   -2.8835 H   0  0  0  0  0  0  0  0  0  0  0  0
    0.3808    0.8733   -2.0362 H   0  0  0  0  0  0  0  0  0  0  0  0
   -0.5797   -1.3599   -1.3815 H   0  0  0  0  0  0  0  0  0  0  0  0
    0.3950   -2.0608   -2.6885 H   0  0  0  0  0  0  0  0  0  0  0  0
   -0.0575   -3.3641   -0.8933 H   0  0  0  0  0  0  0  0  0  0  0  0
    1.6766   -3.1193   -1.2248 H   0  0  0  0  0  0  0  0  0  0  0  0
    0.6276    1.4131    0.4290 N   0  0  0  0  0  0  0  0  0  0  0  0
   -0.3926    2.1088    1.1801 C   0  0  2  0  0  0  0  0  0  0  0  0
   -0.6845    1.3004    2.4374 C   0  0  0  0  0  0  0  0  0  0  0  0
   -0.4442    0.0987    2.5331 O   0  0  0  0  0  0  0  0  0  0  0  0
   -1.6541    2.3016    0.3529 C   0  0  0  0  0  0  0  0  0  0  0  0
    1.4941    1.9012    0.2235 H   0  0  0  0  0  0  0  0  0  0  0  0
    0.0280    3.0809    1.4596 H   0  0  0  0  0  0  0  0  0  0  0  0
   -2.0899    1.3384    0.0634 H   0  0  0  0  0  0  0  0  0  0  0  0
   -2.4156    2.8539    0.9134 H   0  0  0  0  0  0  0  0  0  0  0  0
   -1.4366    2.8575   -0.5656 H   0  0  0  0  0  0  0  0  0  0  0  0
   -1.2845    2.0694    3.4247 N   0  0  0  0  0  0  0  0  0  0  0  0
   -1.6707    1.5288    4.7071 C   0  0  0  0  0  0  0  0  0  0  0  0
   -1.4290    3.0623    3.2660 H   0  0  0  0  0  0  0  0  0  0  0  0
   -2.7177    1.1944    4.6644 H   0  0  0  0  0  0  0  0  0  0  0  0
   -1.0230    0.6749    4.9550 H   0  0  0  0  0  0  0  0  0  0  0  0
   -1.5651    2.3053    5.4791 H   0  0  0  0  0  0  0  0  0  0  0  0
 18 19  1  0  0  0  0
 19 31  1  0  0  0  0
 19 20  2  0  0  0  0
  8  9  1  0  0  0  0
  9 17  1  0  0  0  0
  9 10  2  0  0  0  0
  1  3  1  0  0  0  0
  1  7  1  0  0  0  0
  1  2  2  0  0  0  0
 32 33  1  0  0  0  0
 33 41  1  0  0  0  0
 33 34  2  0  0  0  0
 21 22  1  0  0  0  0
 22 23  1  0  0  0  0
 18 21  1  0  0  0  0
 17 23  1  0  0  0  0
 17 18  1  0  0  0  0
  8 11  1  0  0  0  0
 32 35  1  0  0  0  0
 41 42  1  0  0  0  0
  7  8  1  0  0  0  0
 31 32  1  0  0  0  0
 22 27  1  0  0  0  0
 22 28  1  0  0  0  0
 21 25  1  0  0  0  0
 21 26  1  0  0  0  0
 23 29  1  0  0  0  0
 23 30  1  0  0  0  0
 18 24  1  0  0  0  0
  3  4  1  0  0  0  0
  3  5  1  0  0  0  0
  3  6  1  0  0  0  0
 11 14  1  0  0  0  0
 11 15  1  0  0  0  0
 11 16  1  0  0  0  0
 35 38  1  0  0  0  0
 35 39  1  0  0  0  0
 35 40  1  0  0  0  0
 42 44  1  0  0  0  0
 42 45  1  0  0  0  0
 42 46  1  0  0  0  0
  8 13  1  0  0  0  0
 32 37  1  0  0  0  0
 31 36  1  0  0  0  0
 41 43  1  0  0  0  0
  7 12  1  0  0  0  0
M  END
$$$$

  -OEChem-05262214473D

 46 46  0     1  0  0  0  0  0999 V2000
   -0.6012   -3.2995    3.8205 C   0  0  0  0  0  0  0  0  0  0  0  0
   -0.6574   -4.4683    3.4568 O   0  0  0  0  0  0  0  0  0  0  0  0
   -0.4935   -2.9859    5.2760 C   0  0  0  0  0  0  0  0  0  0  0  0
   -1.4789   -2.8689    5.7550 H   0  0  0  0  0  0  0  0  0  0  0  0
    0.0123   -3.7847    5.8419 H   0  0  0  0  0  0  0  0  0  0  0  0
    0.0585   -2.0642    5.5199 H   0  0  0  0  0  0  0  0  0  0  0  0
   -0.6261   -2.1849    2.9917 N   0  0  0  0  0  0  0  0  0  0  0  0
   -0.7237   -2.2601    1.5650 C   0  0  2  0  0  0  0  0  0  0  0  0
    0.1695   -1.1513    1.0687 C   0  0  0  0  0  0  0  0  0  0  0  0
    0.3193   -0.1267    1.7365 O   0  0  0  0  0  0  0  0  0  0  0  0
   -2.1397   -2.0663    1.0750 C   0  0  0  0  0  0  0  0  0  0  0  0
   -0.5717   -1.2606    3.4238 H   0  0  0  0  0  0  0  0  0  0  0  0
   -0.3076   -3.2111    1.2363 H   0  0  0  0  0  0  0  0  0  0  0  0
   -2.5584   -1.1089    1.4061 H   0  0  0  0  0  0  0  0  0  0  0  0
   -2.1682   -2.0790   -0.0197 H   0  0  0  0  0  0  0  0  0  0  0  0
   -2.7965   -2.8601    1.4459 H   0  0  0  0  0  0  0  0  0  0  0  0
    0.7724   -1.3745   -0.1593 N   0  0  0  0  0  0  0  0  0  0  0  0
    1.6644   -0.4046   -0.7812 C   0  0  2  0  0  0  0  0  0  0  0  0
    1.7547    0.7703    0.1454 C   0  0  0  0  0  0  0  0  0  0  0  0
    2.8488    1.2670    0.3864 O   0  0  0  0  0  0  0  0  0  0  0  0
    0.9832   -0.0385   -2.0947 C   0  0  0  0  0  0  0  0  0  0  0  0
    0.4329   -1.4308   -1.7953 C   0  0  0  0  0  0  0  0  0  0  0  0
    0.7499   -2.6270   -0.9105 C   0  0  0  0  0  0  0  0  0  0  0  0
    2.6660   -0.8234   -0.9178 H   0  0  0  0  0  0  0  0  0  0  0  0
    1.7341    0.0889   -2.8835 H   0  0  0  0  0  0  0  0  0  0  0  0
    0.3808    0.8733   -2.0362 H   0  0  0  0  0  0  0  0  0  0  0  0
   -0.5797   -1.3599   -1.3815 H   0  0  0  0  0  0  0  0  0  0  0  0
    0.3950   -2.0608   -2.6885 H   0  0  0  0  0  0  0  0  0  0  0  0
   -0.0575   -3.3641   -0.8933 H   0  0  0  0  0  0  0  0  0  0  0  0
    1.6766   -3.1193   -1.2248 H   0  0  0  0  0  0  0  0  0  0  0  0
    0.6220    1.2227    0.6709 N   0  0  0  0  0  0  0  0  0  0  0  0
   -0.3205    1.7452    1.6342 C   0  0  2  0  0  0  0  0  0  0  0  0
   -0.2177    0.9014    2.8979 C   0  0  0  0  0  0  0  0  0  0  0  0
    0.2242   -0.2456    2.9045 O   0  0  0  0  0  0  0  0  0  0  0  0
   -1.7385    1.7309    1.0848 C   0  0  0  0  0  0  0  0  0  0  0  0
    1.3398    1.8443    0.3107 H   0  0  0  0  0  0  0  0  0  0  0  0
   -0.0110    2.7727    1.8542 H   0  0  0  0  0  0  0  0  0  0  0  0
   -2.0661    0.7097    0.8584 H   0  0  0  0  0  0  0  0  0  0  0  0
   -2.4472    2.1533    1.8048 H   0  0  0  0  0  0  0  0  0  0  0  0
   -1.8039    2.3137    0.1597 H   0  0  0  0  0  0  0  0  0  0  0  0
   -0.7177    1.5642    4.0100 N   0  0  0  0  0  0  0  0  0  0  0  0
   -0.7433    0.9695    5.3259 C   0  0  0  0  0  0  0  0  0  0  0  0
   -1.0468    2.5205    3.9157 H   0  0  0  0  0  0  0  0  0  0  0  0
   -1.7106    0.4702    5.4844 H   0  0  0  0  0  0  0  0  0  0  0  0
    0.0682    0.2317    5.4106 H   0  0  0  0  0  0  0  0  0  0  0  0
   -0.6067    1.7535    6.0853 H   0  0  0  0  0  0  0  0  0  0  0  0
 18 19  1  0  0  0  0
 19 31  1  0  0  0  0
 19 20  2  0  0  0  0
  8  9  1  0  0  0  0
  9 17  1  0  0  0  0
  9 10  2  0  0  0  0
  1  3  1  0  0  0  0
  1  7  1  0  0  0  0
  1  2  2  0  0  0  0
 32 33  1  0  0  0  0
 33 41  1  0  0  0  0
 33 34  2  0  0  0  0
 21 22  1  0  0  0  0
 22 23  1  0  0  0  0
 18 21  1  0  0  0  0
 17 23  1  0  0  0  0
 17 18  1  0  0  0  0
  8 11  1  0  0  0  0
 32 35  1  0  0  0  0
 41 42  1  0  0  0  0
  7  8  1  0  0  0  0
 31 32  1  0  0  0  0
 22 27  1  0  0  0  0
 22 28  1  0  0  0  0
 21 25  1  0  0  0  0
 21 26  1  0  0  0  0
 23 29  1  0  0  0  0
 23 30  1  0  0  0  0
 18 24  1  0  0  0  0
  3  4  1  0  0  0  0
  3  5  1  0  0  0  0
  3  6  1  0  0  0  0
 11 14  1  0  0  0  0
 11 15  1  0  0  0  0
 11 16  1  0  0  0  0
 35 38  1  0  0  0  0
 35 39  1  0  0  0  0
 35 40  1  0  0  0  0
 42 44  1  0  0  0  0
 42 45  1  0  0  0  0
 42 46  1  0  0  0  0
  8 13  1  0  0  0  0
 32 37  1  0  0  0  0
 31 36  1  0  0  0  0
 41 43  1  0  0  0  0
  7 12  1  0  0  0  0
M  END
$$$$

  -OEChem-05262214473D

 46 46  0     1  0  0  0  0  0999 V2000
   -0.6012   -3.2995    3.8205 C   0  0  0  0  0  0  0  0  0  0  0  0
   -0.6574   -4.4683    3.4568 O   0  0  0  0  0  0  0  0  0  0  0  0
   -0.4935   -2.9859    5.2760 C   0  0  0  0  0  0  0  0  0  0  0  0
   -1.4789   -2.8689    5.7550 H   0  0  0  0  0  0  0  0  0  0  0  0
    0.0123   -3.7847    5.8419 H   0  0  0  0  0  0  0  0  0  0  0  0
    0.0585   -2.0642    5.5199 H   0  0  0  0  0  0  0  0  0  0  0  0
   -0.6261   -2.1849    2.9917 N   0  0  0  0  0  0  0  0  0  0  0  0
   -0.7237   -2.2601    1.5650 C   0  0  2  0  0  0  0  0  0  0  0  0
    0.1695   -1.1513    1.0687 C   0  0  0  0  0  0  0  0  0  0  0  0
    0.3193   -0.1267    1.7365 O   0  0  0  0  0  0  0  0  0  0  0  0
   -2.1397   -2.0663    1.0750 C   0  0  0  0  0  0  0  0  0  0  0  0
   -0.5717   -1.2606    3.4238 H   0  0  0  0  0  0  0  0  0  0  0  0
   -0.3076   -3.2111    1.2363 H   0  0  0  0  0  0  0  0  0  0  0  0
   -2.5584   -1.1089    1.4061 H   0  0  0  0  0  0  0  0  0  0  0  0
   -2.1682   -2.0790   -0.0197 H   0  0  0  0  0  0  0  0  0  0  0  0
   -2.7965   -2.8601    1.4459 H   0  0  0  0  0  0  0  0  0  0  0  0
    0.7724   -1.3745   -0.1593 N   0  0  0  0  0  0  0  0  0  0  0  0
    1.6644   -0.4046   -0.7812 C   0  0  2  0  0  0  0  0  0  0  0  0
    1.7547    0.7703    0.1454 C   0  0  0  0  0  0  0  0  0  0  0  0
    2.7822    1.4375    0.1767 O   0  0  0  0  0  0  0  0  0  0  0  0
    0.9832   -0.0385   -2.0947 C   0  0  0  0  0  0  0  0  0  0  0  0
    0.4329   -1.4308   -1.7953 C   0  0  0  0  0  0  0  0  0  0  0  0
    0.7499   -2.6270   -0.9105 C   0  0  0  0  0  0  0  0  0  0  0  0
    2.6660   -0.8234   -0.9178 H   0  0  0  0  0  0  0  0  0  0  0  0
    1.7341    0.0889   -2.8835 H   0  0  0  0  0  0  0  0  0  0  0  0
    0.3808    0.8733   -2.0362 H   0  0  0  0  0  0  0  0  0  0  0  0
   -0.5797   -1.3599   -1.3815 H   0  0  0  0  0  0  0  0  0  0  0  0
    0.3950   -2.0608   -2.6885 H   0  0  0  0  0  0  0  0  0  0  0  0
   -0.0575   -3.3641   -0.8933 H   0  0  0  0  0  0  0  0  0  0  0  0
    1.6766   -3.1193   -1.2248 H   0  0  0  0  0  0  0  0  0  0  0  0
    0.6960    1.0342    0.9027 N   0  0  0  0  0  0  0  0  0  0  0  0
   -0.1005    1.3984    2.0524 C   0  0  2  0  0  0  0  0  0  0  0  0
    0.3903    0.5835    3.2418 C   0  0  0  0  0  0  0  0  0  0  0  0
    1.0003   -0.4771    3.1223 O   0  0  0  0  0  0  0  0  0  0  0  0
   -1.5802    1.1546    1.8001 C   0  0  0  0  0  0  0  0  0  0  0  0
    1.2175    1.7633    0.4253 H   0  0  0  0  0  0  0  0  0  0  0  0
    0.0807    2.4626    2.2385 H   0  0  0  0  0  0  0  0  0  0  0  0
   -1.7812    0.0937    1.6117 H   0  0  0  0  0  0  0  0  0  0  0  0
   -2.1848    1.4577    2.6613 H   0  0  0  0  0  0  0  0  0  0  0  0
   -1.9246    1.7184    0.9264 H   0  0  0  0  0  0  0  0  0  0  0  0
    0.0294    1.1578    4.4526 N   0  0  0  0  0  0  0  0  0  0  0  0
    0.3674    0.5679    5.7268 C   0  0  0  0  0  0  0  0  0  0  0  0
   -0.4593    2.0483    4.4572 H   0  0  0  0  0  0  0  0  0  0  0  0
   -0.4556   -0.0810    6.0610 H   0  0  0  0  0  0  0  0  0  0  0  0
    1.2855   -0.0289    5.6224 H   0  0  0  0  0  0  0  0  0  0  0  0
    0.5302    1.3644    6.4678 H   0  0  0  0  0  0  0  0  0  0  0  0
 18 19  1  0  0  0  0
 19 31  1  0  0  0  0
 19 20  2  0  0  0  0
  8  9  1  0  0  0  0
  9 17  1  0  0  0  0
  9 10  2  0  0  0  0
  1  3  1  0  0  0  0
  1  7  1  0  0  0  0
  1  2  2  0  0  0  0
 32 33  1  0  0  0  0
 33 41  1  0  0  0  0
 33 34  2  0  0  0  0
 21 22  1  0  0  0  0
 22 23  1  0  0  0  0
 18 21  1  0  0  0  0
 17 23  1  0  0  0  0
 17 18  1  0  0  0  0
  8 11  1  0  0  0  0
 32 35  1  0  0  0  0
 41 42  1  0  0  0  0
  7  8  1  0  0  0  0
 31 32  1  0  0  0  0
 22 27  1  0  0  0  0
 22 28  1  0  0  0  0
 21 25  1  0  0  0  0
 21 26  1  0  0  0  0
 23 29  1  0  0  0  0
 23 30  1  0  0  0  0
 18 24  1  0  0  0  0
  3  4  1  0  0  0  0
  3  5  1  0  0  0  0
  3  6  1  0  0  0  0
 11 14  1  0  0  0  0
 11 15  1  0  0  0  0
 11 16  1  0  0  0  0
 35 38  1  0  0  0  0
 35 39  1  0  0  0  0
 35 40  1  0  0  0  0
 42 44  1  0  0  0  0
 42 45  1  0  0  0  0
 42 46  1  0  0  0  0
  8 13  1  0  0  0  0
 32 37  1  0  0  0  0
 31 36  1  0  0  0  0
 41 43  1  0  0  0  0
  7 12  1  0  0  0  0
M  END
$$$$

  -OEChem-05262214473D

 46 46  0     1  0  0  0  0  0999 V2000
   -0.6012   -3.2995    3.8205 C   0  0  0  0  0  0  0  0  0  0  0  0
   -0.6574   -4.4683    3.4568 O   0  0  0  0  0  0  0  0  0  0  0  0
   -0.4935   -2.9859    5.2760 C   0  0  0  0  0  0  0  0  0  0  0  0
   -1.4789   -2.8689    5.7550 H   0  0  0  0  0  0  0  0  0  0  0  0
    0.0123   -3.7847    5.8419 H   0  0  0  0  0  0  0  0  0  0  0  0
    0.0585   -2.0642    5.5199 H   0  0  0  0  0  0  0  0  0  0  0  0
   -0.6261   -2.1849    2.9917 N   0  0  0  0  0  0  0  0  0  0  0  0
   -0.7237   -2.2601    1.5650 C   0  0  2  0  0  0  0  0  0  0  0  0
    0.1695   -1.1513    1.0687 C   0  0  0  0  0  0  0  0  0  0  0  0
    0.3193   -0.1267    1.7365 O   0  0  0  0  0  0  0  0  0  0  0  0
   -2.1397   -2.0663    1.0750 C   0  0  0  0  0  0  0  0  0  0  0  0
   -0.5717   -1.2606    3.4238 H   0  0  0  0  0  0  0  0  0  0  0  0
   -0.3076   -3.2111    1.2363 H   0  0  0  0  0  0  0  0  0  0  0  0
   -2.5584   -1.1089    1.4061 H   0  0  0  0  0  0  0  0  0  0  0  0
   -2.1682   -2.0790   -0.0197 H   0  0  0  0  0  0  0  0  0  0  0  0
   -2.7965   -2.8601    1.4459 H   0  0  0  0  0  0  0  0  0  0  0  0
    0.7724   -1.3745   -0.1593 N   0  0  0  0  0  0  0  0  0  0  0  0
    1.6644   -0.4046   -0.7812 C   0  0  2  0  0  0  0  0  0  0  0  0
    1.7547    0.7703    0.1454 C   0  0  0  0  0  0  0  0  0  0  0  0
    2.6480    1.5948   -0.0097 O   0  0  0  0  0  0  0  0  0  0  0  0
    0.9832   -0.0385   -2.0947 C   0  0  0  0  0  0  0  0  0  0  0  0
    0.4329   -1.4308   -1.7953 C   0  0  0  0  0  0  0  0  0  0  0  0
    0.7499   -2.6270   -0.9105 C   0  0  0  0  0  0  0  0  0  0  0  0
    2.6660   -0.8234   -0.9178 H   0  0  0  0  0  0  0  0  0  0  0  0
    1.7341    0.0889   -2.8835 H   0  0  0  0  0  0  0  0  0  0  0  0
    0.3808    0.8733   -2.0362 H   0  0  0  0  0  0  0  0  0  0  0  0
   -0.5797   -1.3599   -1.3815 H   0  0  0  0  0  0  0  0  0  0  0  0
    0.3950   -2.0608   -2.6885 H   0  0  0  0  0  0  0  0  0  0  0  0
   -0.0575   -3.3641   -0.8933 H   0  0  0  0  0  0  0  0  0  0  0  0
    1.6766   -3.1193   -1.2248 H   0  0  0  0  0  0  0  0  0  0  0  0
    0.8448    0.8604    1.1086 N   0  0  0  0  0  0  0  0  0  0  0  0
    0.2523    1.0921    2.4064 C   0  0  2  0  0  0  0  0  0  0  0  0
    1.0983    0.3683    3.4456 C   0  0  0  0  0  0  0  0  0  0  0  0
    1.8312   -0.5799    3.1717 O   0  0  0  0  0  0  0  0  0  0  0  0
   -1.1901    0.6122    2.4499 C   0  0  0  0  0  0  0  0  0  0  0  0
    1.1356    1.6637    0.5596 H   0  0  0  0  0  0  0  0  0  0  0  0
    0.2968    2.1718    2.5862 H   0  0  0  0  0  0  0  0  0  0  0  0
   -1.2547   -0.4674    2.2719 H   0  0  0  0  0  0  0  0  0  0  0  0
   -1.6463    0.8144    3.4246 H   0  0  0  0  0  0  0  0  0  0  0  0
   -1.7904    1.1121    1.6821 H   0  0  0  0  0  0  0  0  0  0  0  0
    0.9058    0.8778    4.7221 N   0  0  0  0  0  0  0  0  0  0  0  0
    1.5859    0.3515    5.8825 C   0  0  0  0  0  0  0  0  0  0  0  0
    0.2937    1.6776    4.8538 H   0  0  0  0  0  0  0  0  0  0  0  0
    0.9618   -0.4215    6.3546 H   0  0  0  0  0  0  0  0  0  0  0  0
    2.5460   -0.0893    5.5760 H   0  0  0  0  0  0  0  0  0  0  0  0
    1.7683    1.1645    6.6006 H   0  0  0  0  0  0  0  0  0  0  0  0
 18 19  1  0  0  0  0
 19 31  1  0  0  0  0
 19 20  2  0  0  0  0
  8  9  1  0  0  0  0
  9 17  1  0  0  0  0
  9 10  2  0  0  0  0
  1  3  1  0  0  0  0
  1  7  1  0  0  0  0
  1  2  2  0  0  0  0
 32 33  1  0  0  0  0
 33 41  1  0  0  0  0
 33 34  2  0  0  0  0
 21 22  1  0  0  0  0
 22 23  1  0  0  0  0
 18 21  1  0  0  0  0
 17 23  1  0  0  0  0
 17 18  1  0  0  0  0
  8 11  1  0  0  0  0
 32 35  1  0  0  0  0
 41 42  1  0  0  0  0
  7  8  1  0  0  0  0
 31 32  1  0  0  0  0
 22 27  1  0  0  0  0
 22 28  1  0  0  0  0
 21 25  1  0  0  0  0
 21 26  1  0  0  0  0
 23 29  1  0  0  0  0
 23 30  1  0  0  0  0
 18 24  1  0  0  0  0
  3  4  1  0  0  0  0
  3  5  1  0  0  0  0
  3  6  1  0  0  0  0
 11 14  1  0  0  0  0
 11 15  1  0  0  0  0
 11 16  1  0  0  0  0
 35 38  1  0  0  0  0
 35 39  1  0  0  0  0
 35 40  1  0  0  0  0
 42 44  1  0  0  0  0
 42 45  1  0  0  0  0
 42 46  1  0  0  0  0
  8 13  1  0  0  0  0
 32 37  1  0  0  0  0
 31 36  1  0  0  0  0
 41 43  1  0  0  0  0
  7 12  1  0  0  0  0
M  END
$$$$

  -OEChem-05262214473D

 46 46  0     1  0  0  0  0  0999 V2000
   -0.6012   -3.2995    3.8205 C   0  0  0  0  0  0  0  0  0  0  0  0
   -0.6574   -4.4683    3.4568 O   0  0  0  0  0  0  0  0  0  0  0  0
   -0.4935   -2.9859    5.2760 C   0  0  0  0  0  0  0  0  0  0  0  0
   -1.4789   -2.8689    5.7550 H   0  0  0  0  0  0  0  0  0  0  0  0
    0.0123   -3.7847    5.8419 H   0  0  0  0  0  0  0  0  0  0  0  0
    0.0585   -2.0642    5.5199 H   0  0  0  0  0  0  0  0  0  0  0  0
   -0.6261   -2.1849    2.9917 N   0  0  0  0  0  0  0  0  0  0  0  0
   -0.7237   -2.2601    1.5650 C   0  0  2  0  0  0  0  0  0  0  0  0
    0.1695   -1.1513    1.0687 C   0  0  0  0  0  0  0  0  0  0  0  0
    0.3193   -0.1267    1.7365 O   0  0  0  0  0  0  0  0  0  0  0  0
   -2.1397   -2.0663    1.0750 C   0  0  0  0  0  0  0  0  0  0  0  0
   -0.5717   -1.2606    3.4238 H   0  0  0  0  0  0  0  0  0  0  0  0
   -0.3076   -3.2111    1.2363 H   0  0  0  0  0  0  0  0  0  0  0  0
   -2.5584   -1.1089    1.4061 H   0  0  0  0  0  0  0  0  0  0  0  0
   -2.1682   -2.0790   -0.0197 H   0  0  0  0  0  0  0  0  0  0  0  0
   -2.7965   -2.8601    1.4459 H   0  0  0  0  0  0  0  0  0  0  0  0
    0.7724   -1.3745   -0.1593 N   0  0  0  0  0  0  0  0  0  0  0  0
    1.6644   -0.4046   -0.7812 C   0  0  2  0  0  0  0  0  0  0  0  0
    1.7547    0.7703    0.1454 C   0  0  0  0  0  0  0  0  0  0  0  0
    2.4555    1.7281   -0.1600 O   0  0  0  0  0  0  0  0  0  0  0  0
    0.9832   -0.0385   -2.0947 C   0  0  0  0  0  0  0  0  0  0  0  0
    0.4329   -1.4308   -1.7953 C   0  0  0  0  0  0  0  0  0  0  0  0
    0.7499   -2.6270   -0.9105 C   0  0  0  0  0  0  0  0  0  0  0  0
    2.6660   -0.8234   -0.9178 H   0  0  0  0  0  0  0  0  0  0  0  0
    1.7341    0.0889   -2.8835 H   0  0  0  0  0  0  0  0  0  0  0  0
    0.3808    0.8733   -2.0362 H   0  0  0  0  0  0  0  0  0  0  0  0
   -0.5797   -1.3599   -1.3815 H   0  0  0  0  0  0  0  0  0  0  0  0
    0.3950   -2.0608   -2.6885 H   0  0  0  0  0  0  0  0  0  0  0  0
   -0.0575   -3.3641   -0.8933 H   0  0  0  0  0  0  0  0  0  0  0  0
    1.6766   -3.1193   -1.2248 H   0  0  0  0  0  0  0  0  0  0  0  0
    1.0580    0.7130    1.2747 N   0  0  0  0  0  0  0  0  0  0  0  0
    0.7139    0.8471    2.6720 C   0  0  2  0  0  0  0  0  0  0  0  0
    1.8579    0.2705    3.4956 C   0  0  0  0  0  0  0  0  0  0  0  0
    2.6601   -0.5470    3.0492 O   0  0  0  0  0  0  0  0  0  0  0  0
   -0.5947    0.1405    2.9899 C   0  0  0  0  0  0  0  0  0  0  0  0
    1.0997    1.5523    0.7044 H   0  0  0  0  0  0  0  0  0  0  0  0
    0.6226    1.9200    2.8737 H   0  0  0  0  0  0  0  0  0  0  0  0
   -0.5224   -0.9355    2.7940 H   0  0  0  0  0  0  0  0  0  0  0  0
   -0.8685    0.2672    4.0425 H   0  0  0  0  0  0  0  0  0  0  0  0
   -1.4105    0.5362    2.3754 H   0  0  0  0  0  0  0  0  0  0  0  0
    1.8519    0.7434    4.8003 N   0  0  0  0  0  0  0  0  0  0  0  0
    2.8291    0.3349    5.7822 C   0  0  0  0  0  0  0  0  0  0  0  0
    1.1607    1.4339    5.0783 H   0  0  0  0  0  0  0  0  0  0  0  0
    2.4450   -0.5284    6.3455 H   0  0  0  0  0  0  0  0  0  0  0  0
    3.7639    0.0548    5.2745 H   0  0  0  0  0  0  0  0  0  0  0  0
    3.0231    1.1674    6.4746 H   0  0  0  0  0  0  0  0  0  0  0  0
 18 19  1  0  0  0  0
 19 31  1  0  0  0  0
 19 20  2  0  0  0  0
  8  9  1  0  0  0  0
  9 17  1  0  0  0  0
  9 10  2  0  0  0  0
  1  3  1  0  0  0  0
  1  7  1  0  0  0  0
  1  2  2  0  0  0  0
 32 33  1  0  0  0  0
 33 41  1  0  0  0  0
 33 34  2  0  0  0  0
 21 22  1  0  0  0  0
 22 23  1  0  0  0  0
 18 21  1  0  0  0  0
 17 23  1  0  0  0  0
 17 18  1  0  0  0  0
  8 11  1  0  0  0  0
 32 35  1  0  0  0  0
 41 42  1  0  0  0  0
  7  8  1  0  0  0  0
 31 32  1  0  0  0  0
 22 27  1  0  0  0  0
 22 28  1  0  0  0  0
 21 25  1  0  0  0  0
 21 26  1  0  0  0  0
 23 29  1  0  0  0  0
 23 30  1  0  0  0  0
 18 24  1  0  0  0  0
  3  4  1  0  0  0  0
  3  5  1  0  0  0  0
  3  6  1  0  0  0  0
 11 14  1  0  0  0  0
 11 15  1  0  0  0  0
 11 16  1  0  0  0  0
 35 38  1  0  0  0  0
 35 39  1  0  0  0  0
 35 40  1  0  0  0  0
 42 44  1  0  0  0  0
 42 45  1  0  0  0  0
 42 46  1  0  0  0  0
  8 13  1  0  0  0  0
 32 37  1  0  0  0  0
 31 36  1  0  0  0  0
 41 43  1  0  0  0  0
  7 12  1  0  0  0  0
M  END
$$$$

  -OEChem-05262214473D

 46 46  0     1  0  0  0  0  0999 V2000
   -0.6012   -3.2995    3.8205 C   0  0  0  0  0  0  0  0  0  0  0  0
   -0.6574   -4.4683    3.4568 O   0  0  0  0  0  0  0  0  0  0  0  0
   -0.4935   -2.9859    5.2760 C   0  0  0  0  0  0  0  0  0  0  0  0
   -1.4789   -2.8689    5.7550 H   0  0  0  0  0  0  0  0  0  0  0  0
    0.0123   -3.7847    5.8419 H   0  0  0  0  0  0  0  0  0  0  0  0
    0.0585   -2.0642    5.5199 H   0  0  0  0  0  0  0  0  0  0  0  0
   -0.6261   -2.1849    2.9917 N   0  0  0  0  0  0  0  0  0  0  0  0
   -0.7237   -2.2601    1.5650 C   0  0  2  0  0  0  0  0  0  0  0  0
    0.1695   -1.1513    1.0687 C   0  0  0  0  0  0  0  0  0  0  0  0
    0.3193   -0.1267    1.7365 O   0  0  0  0  0  0  0  0  0  0  0  0
   -2.1397   -2.0663    1.0750 C   0  0  0  0  0  0  0  0  0  0  0  0
   -0.5717   -1.2606    3.4238 H   0  0  0  0  0  0  0  0  0  0  0  0
   -0.3076   -3.2111    1.2363 H   0  0  0  0  0  0  0  0  0  0  0  0
   -2.5584   -1.1089    1.4061 H   0  0  0  0  0  0  0  0  0  0  0  0
   -2.1682   -2.0790   -0.0197 H   0  0  0  0  0  0  0  0  0  0  0  0
   -2.7965   -2.8601    1.4459 H   0  0  0  0  0  0  0  0  0  0  0  0
    0.7724   -1.3745   -0.1593 N   0  0  0  0  0  0  0  0  0  0  0  0
    1.6644   -0.4046   -0.7812 C   0  0  2  0  0  0  0  0  0  0  0  0
    1.7547    0.7703    0.1454 C   0  0  0  0  0  0  0  0  0  0  0  0
    2.2177    1.8285   -0.2641 O   0  0  0  0  0  0  0  0  0  0  0  0
    0.9832   -0.0385   -2.0947 C   0  0  0  0  0  0  0  0  0  0  0  0
    0.4329   -1.4308   -1.7953 C   0  0  0  0  0  0  0  0  0  0  0  0
    0.7499   -2.6270   -0.9105 C   0  0  0  0  0  0  0  0  0  0  0  0
    2.6660   -0.8234   -0.9178 H   0  0  0  0  0  0  0  0  0  0  0  0
    1.7341    0.0889   -2.8835 H   0  0  0  0  0  0  0  0  0  0  0  0
    0.3808    0.8733   -2.0362 H   0  0  0  0  0  0  0  0  0  0  0  0
   -0.5797   -1.3599   -1.3815 H   0  0  0  0  0  0  0  0  0  0  0  0
    0.3950   -2.0608   -2.6885 H   0  0  0  0  0  0  0  0  0  0  0  0
   -0.0575   -3.3641   -0.8933 H   0  0  0  0  0  0  0  0  0  0  0  0
    1.6766   -3.1193   -1.2248 H   0  0  0  0  0  0  0  0  0  0  0  0
    1.3213    0.6022    1.3895 N   0  0  0  0  0  0  0  0  0  0  0  0
    1.2528    0.6802    2.8311 C   0  0  2  0  0  0  0  0  0  0  0  0
    2.6175    0.2968    3.3882 C   0  0  0  0  0  0  0  0  0  0  0  0
    3.4308   -0.3808    2.7633 O   0  0  0  0  0  0  0  0  0  0  0  0
    0.1655   -0.2282    3.3834 C   0  0  0  0  0  0  0  0  0  0  0  0
    1.1122    1.4367    0.8497 H   0  0  0  0  0  0  0  0  0  0  0  0
    1.0359    1.7244    3.0814 H   0  0  0  0  0  0  0  0  0  0  0  0
    0.3657   -1.2786    3.1425 H   0  0  0  0  0  0  0  0  0  0  0  0
    0.0958   -0.1465    4.4731 H   0  0  0  0  0  0  0  0  0  0  0  0
   -0.8108    0.0298    2.9590 H   0  0  0  0  0  0  0  0  0  0  0  0
    2.8030    0.7637    4.6819 N   0  0  0  0  0  0  0  0  0  0  0  0
    4.0122    0.5194    5.4330 C   0  0  0  0  0  0  0  0  0  0  0  0
    2.0827    1.3337    5.1155 H   0  0  0  0  0  0  0  0  0  0  0  0
    3.8928   -0.3941    6.0341 H   0  0  0  0  0  0  0  0  0  0  0  0
    4.8560    0.3935    4.7385 H   0  0  0  0  0  0  0  0  0  0  0  0
    4.2091    1.3728    6.0984 H   0  0  0  0  0  0  0  0  0  0  0  0
 18 19  1  0  0  0  0
 19 31  1  0  0  0  0
 19 20  2  0  0  0  0
  8  9  1  0  0  0  0
  9 17  1  0  0  0  0
  9 10  2  0  0  0  0
  1  3  1  0  0  0  0
  1  7  1  0  0  0  0
  1  2  2  0  0  0  0
 32 33  1  0  0  0  0
 33 41  1  0  0  0  0
 33 34  2  0  0  0  0
 21 22  1  0  0  0  0
 22 23  1  0  0  0  0
 18 21  1  0  0  0  0
 17 23  1  0  0  0  0
 17 18  1  0  0  0  0
  8 11  1  0  0  0  0
 32 35  1  0  0  0  0
 41 42  1  0  0  0  0
  7  8  1  0  0  0  0
 31 32  1  0  0  0  0
 22 27  1  0  0  0  0
 22 28  1  0  0  0  0
 21 25  1  0  0  0  0
 21 26  1  0  0  0  0
 23 29  1  0  0  0  0
 23 30  1  0  0  0  0
 18 24  1  0  0  0  0
  3  4  1  0  0  0  0
  3  5  1  0  0  0  0
  3  6  1  0  0  0  0
 11 14  1  0  0  0  0
 11 15  1  0  0  0  0
 11 16  1  0  0  0  0
 35 38  1  0  0  0  0
 35 39  1  0  0  0  0
 35 40  1  0  0  0  0
 42 44  1  0  0  0  0
 42 45  1  0  0  0  0
 42 46  1  0  0  0  0
  8 13  1  0  0  0  0
 32 37  1  0  0  0  0
 31 36  1  0  0  0  0
 41 43  1  0  0  0  0
  7 12  1  0  0  0  0
M  END
$$$$

  -OEChem-05262214473D

 46 46  0     1  0  0  0  0  0999 V2000
   -0.6012   -3.2995    3.8205 C   0  0  0  0  0  0  0  0  0  0  0  0
   -0.6574   -4.4683    3.4568 O   0  0  0  0  0  0  0  0  0  0  0  0
   -0.4935   -2.9859    5.2760 C   0  0  0  0  0  0  0  0  0  0  0  0
   -1.4789   -2.8689    5.7550 H   0  0  0  0  0  0  0  0  0  0  0  0
    0.0123   -3.7847    5.8419 H   0  0  0  0  0  0  0  0  0  0  0  0
    0.0585   -2.0642    5.5199 H   0  0  0  0  0  0  0  0  0  0  0  0
   -0.6261   -2.1849    2.9917 N   0  0  0  0  0  0  0  0  0  0  0  0
   -0.7237   -2.2601    1.5650 C   0  0  2  0  0  0  0  0  0  0  0  0
    0.1695   -1.1513    1.0687 C   0  0  0  0  0  0  0  0  0  0  0  0
    0.3193   -0.1267    1.7365 O   0  0  0  0  0  0  0  0  0  0  0  0
   -2.1397   -2.0663    1.0750 C   0  0  0  0  0  0  0  0  0  0  0  0
   -0.5717   -1.2606    3.4238 H   0  0  0  0  0  0  0  0  0  0  0  0
   -0.3076   -3.2111    1.2363 H   0  0  0  0  0  0  0  0  0  0  0  0
   -2.5584   -1.1089    1.4061 H   0  0  0  0  0  0  0  0  0  0  0  0
   -2.1682   -2.0790   -0.0197 H   0  0  0  0  0  0  0  0  0  0  0  0
   -2.7965   -2.8601    1.4459 H   0  0  0  0  0  0  0  0  0  0  0  0
    0.7724   -1.3745   -0.1593 N   0  0  0  0  0  0  0  0  0  0  0  0
    1.6644   -0.4046   -0.7812 C   0  0  2  0  0  0  0  0  0  0  0  0
    1.7547    0.7703    0.1454 C   0  0  0  0  0  0  0  0  0  0  0  0
    1.9508    1.8890   -0.3148 O   0  0  0  0  0  0  0  0  0  0  0  0
    0.9832   -0.0385   -2.0947 C   0  0  0  0  0  0  0  0  0  0  0  0
    0.4329   -1.4308   -1.7953 C   0  0  0  0  0  0  0  0  0  0  0  0
    0.7499   -2.6270   -0.9105 C   0  0  0  0  0  0  0  0  0  0  0  0
    2.6660   -0.8234   -0.9178 H   0  0  0  0  0  0  0  0  0  0  0  0
    1.7341    0.0889   -2.8835 H   0  0  0  0  0  0  0  0  0  0  0  0
    0.3808    0.8733   -2.0362 H   0  0  0  0  0  0  0  0  0  0  0  0
   -0.5797   -1.3599   -1.3815 H   0  0  0  0  0  0  0  0  0  0  0  0
    0.3950   -2.0608   -2.6885 H   0  0  0  0  0  0  0  0  0  0  0  0
   -0.0575   -3.3641   -0.8933 H   0  0  0  0  0  0  0  0  0  0  0  0
    1.6766   -3.1193   -1.2248 H   0  0  0  0  0  0  0  0  0  0  0  0
    1.6166    0.5355    1.4453 N   0  0  0  0  0  0  0  0  0  0  0  0
    1.8324    0.6028    2.8729 C   0  0  2  0  0  0  0  0  0  0  0  0
    3.3251    0.4453    3.1308 C   0  0  0  0  0  0  0  0  0  0  0  0
    4.0906   -0.0924    2.3333 O   0  0  0  0  0  0  0  0  0  0  0  0
    1.0385   -0.4690    3.6035 C   0  0  0  0  0  0  0  0  0  0  0  0
    1.1723    1.3248    0.9858 H   0  0  0  0  0  0  0  0  0  0  0  0
    1.5085    1.5984    3.1951 H   0  0  0  0  0  0  0  0  0  0  0  0
    1.3491   -1.4734    3.2937 H   0  0  0  0  0  0  0  0  0  0  0  0
    1.1807   -0.3986    4.6870 H   0  0  0  0  0  0  0  0  0  0  0  0
   -0.0321   -0.3724    3.3931 H   0  0  0  0  0  0  0  0  0  0  0  0
    3.6945    0.9373    4.3748 N   0  0  0  0  0  0  0  0  0  0  0  0
    5.0546    0.8922    4.8585 C   0  0  0  0  0  0  0  0  0  0  0  0
    2.9969    1.3838    4.9628 H   0  0  0  0  0  0  0  0  0  0  0  0
    5.2067   -0.0280    5.4417 H   0  0  0  0  0  0  0  0  0  0  0  0
    5.7479    0.9038    4.0046 H   0  0  0  0  0  0  0  0  0  0  0  0
    5.2456    1.7669    5.4976 H   0  0  0  0  0  0  0  0  0  0  0  0
 18 19  1  0  0  0  0
 19 31  1  0  0  0  0
 19 20  2  0  0  0  0
  8  9  1  0  0  0  0
  9 17  1  0  0  0  0
  9 10  2  0  0  0  0
  1  3  1  0  0  0  0
  1  7  1  0  0  0  0
  1  2  2  0  0  0  0
 32 33  1  0  0  0  0
 33 41  1  0  0  0  0
 33 34  2  0  0  0  0
 21 22  1  0  0  0  0
 22 23  1  0  0  0  0
 18 21  1  0  0  0  0
 17 23  1  0  0  0  0
 17 18  1  0  0  0  0
  8 11  1  0  0  0  0
 32 35  1  0  0  0  0
 41 42  1  0  0  0  0
  7  8  1  0  0  0  0
 31 32  1  0  0  0  0
 22 27  1  0  0  0  0
 22 28  1  0  0  0  0
 21 25  1  0  0  0  0
 21 26  1  0  0  0  0
 23 29  1  0  0  0  0
 23 30  1  0  0  0  0
 18 24  1  0  0  0  0
  3  4  1  0  0  0  0
  3  5  1  0  0  0  0
  3  6  1  0  0  0  0
 11 14  1  0  0  0  0
 11 15  1  0  0  0  0
 11 16  1  0  0  0  0
 35 38  1  0  0  0  0
 35 39  1  0  0  0  0
 35 40  1  0  0  0  0
 42 44  1  0  0  0  0
 42 45  1  0  0  0  0
 42 46  1  0  0  0  0
  8 13  1  0  0  0  0
 32 37  1  0  0  0  0
 31 36  1  0  0  0  0
 41 43  1  0  0  0  0
  7 12  1  0  0  0  0
M  END
$$$$

  -OEChem-05262214473D

 46 46  0     1  0  0  0  0  0999 V2000
   -0.6012   -3.2995    3.8205 C   0  0  0  0  0  0  0  0  0  0  0  0
   -0.6574   -4.4683    3.4568 O   0  0  0  0  0  0  0  0  0  0  0  0
   -0.4935   -2.9859    5.2760 C   0  0  0  0  0  0  0  0  0  0  0  0
   -1.4789   -2.8689    5.7550 H   0  0  0  0  0  0  0  0  0  0  0  0
    0.0123   -3.7847    5.8419 H   0  0  0  0  0  0  0  0  0  0  0  0
    0.0585   -2.0642    5.5199 H   0  0  0  0  0  0  0  0  0  0  0  0
   -0.6261   -2.1849    2.9917 N   0  0  0  0  0  0  0  0  0  0  0  0
   -0.7237   -2.2601    1.5650 C   0  0  2  0  0  0  0  0  0  0  0  0
    0.1695   -1.1513    1.0687 C   0  0  0  0  0  0  0  0  0  0  0  0
    0.3193   -0.1267    1.7365 O   0  0  0  0  0  0  0  0  0  0  0  0
   -2.1397   -2.0663    1.0750 C   0  0  0  0  0  0  0  0  0  0  0  0
   -0.5717   -1.2606    3.4238 H   0  0  0  0  0  0  0  0  0  0  0  0
   -0.3076   -3.2111    1.2363 H   0  0  0  0  0  0  0  0  0  0  0  0
   -2.5584   -1.1089    1.4061 H   0  0  0  0  0  0  0  0  0  0  0  0
   -2.1682   -2.0790   -0.0197 H   0  0  0  0  0  0  0  0  0  0  0  0
   -2.7965   -2.8601    1.4459 H   0  0  0  0  0  0  0  0  0  0  0  0
    0.7724   -1.3745   -0.1593 N   0  0  0  0  0  0  0  0  0  0  0  0
    1.6644   -0.4046   -0.7812 C   0  0  2  0  0  0  0  0  0  0  0  0
    1.7547    0.7703    0.1454 C   0  0  0  0  0  0  0  0  0  0  0  0
    1.6730    1.9056   -0.3087 O   0  0  0  0  0  0  0  0  0  0  0  0
    0.9832   -0.0385   -2.0947 C   0  0  0  0  0  0  0  0  0  0  0  0
    0.4329   -1.4308   -1.7953 C   0  0  0  0  0  0  0  0  0  0  0  0
    0.7499   -2.6270   -0.9105 C   0  0  0  0  0  0  0  0  0  0  0  0
    2.6660   -0.8234   -0.9178 H   0  0  0  0  0  0  0  0  0  0  0  0
    1.7341    0.0889   -2.8835 H   0  0  0  0  0  0  0  0  0  0  0  0
    0.3808    0.8733   -2.0362 H   0  0  0  0  0  0  0  0  0  0  0  0
   -0.5797   -1.3599   -1.3815 H   0  0  0  0  0  0  0  0  0  0  0  0
    0.3950   -2.0608   -2.6885 H   0  0  0  0  0  0  0  0  0  0  0  0
   -0.0575   -3.3641   -0.8933 H   0  0  0  0  0  0  0  0  0  0  0  0
    1.6766   -3.1193   -1.2248 H   0  0  0  0  0  0  0  0  0  0  0  0
    1.9238    0.5175    1.4382 N   0  0  0  0  0  0  0  0  0  0  0  0
    2.4130    0.6200    2.7944 C   0  0  2  0  0  0  0  0  0  0  0  0
    3.9327    0.7061    2.7409 C   0  0  0  0  0  0  0  0  0  0  0  0
    4.5945    0.2983    1.7887 O   0  0  0  0  0  0  0  0  0  0  0  0
    1.9650   -0.5653    3.6353 C   0  0  0  0  0  0  0  0  0  0  0  0
    1.2758    1.2241    1.1033 H   0  0  0  0  0  0  0  0  0  0  0  0
    2.0083    1.5505    3.2071 H   0  0  0  0  0  0  0  0  0  0  0  0
    2.3609   -1.5066    3.2371 H   0  0  0  0  0  0  0  0  0  0  0  0
    2.3124   -0.4719    4.6695 H   0  0  0  0  0  0  0  0  0  0  0  0
    0.8725   -0.6432    3.6482 H   0  0  0  0  0  0  0  0  0  0  0  0
    4.4656    1.2524    3.9001 N   0  0  0  0  0  0  0  0  0  0  0  0
    5.8854    1.4281    4.0980 C   0  0  0  0  0  0  0  0  0  0  0  0
    3.8410    1.5808    4.6307 H   0  0  0  0  0  0  0  0  0  0  0  0
    6.2970    0.5451    4.6086 H   0  0  0  0  0  0  0  0  0  0  0  0
    6.3790    1.5508    3.1226 H   0  0  0  0  0  0  0  0  0  0  0  0
    6.0618    2.3228    4.7132 H   0  0  0  0  0  0  0  0  0  0  0  0
 18 19  1  0  0  0  0
 19 31  1  0  0  0  0
 19 20  2  0  0  0  0
  8  9  1  0  0  0  0
  9 17  1  0  0  0  0
  9 10  2  0  0  0  0
  1  3  1  0  0  0  0
  1  7  1  0  0  0  0
  1  2  2  0  0  0  0
 32 33  1  0  0  0  0
 33 41  1  0  0  0  0
 33 34  2  0  0  0  0
 21 22  1  0  0  0  0
 22 23  1  0  0  0  0
 18 21  1  0  0  0  0
 17 23  1  0  0  0  0
 17 18  1  0  0  0  0
  8 11  1  0  0  0  0
 32 35  1  0  0  0  0
 41 42  1  0  0  0  0
  7  8  1  0  0  0  0
 31 32  1  0  0  0  0
 22 27  1  0  0  0  0
 22 28  1  0  0  0  0
 21 25  1  0  0  0  0
 21 26  1  0  0  0  0
 23 29  1  0  0  0  0
 23 30  1  0  0  0  0
 18 24  1  0  0  0  0
  3  4  1  0  0  0  0
  3  5  1  0  0  0  0
  3  6  1  0  0  0  0
 11 14  1  0  0  0  0
 11 15  1  0  0  0  0
 11 16  1  0  0  0  0
 35 38  1  0  0  0  0
 35 39  1  0  0  0  0
 35 40  1  0  0  0  0
 42 44  1  0  0  0  0
 42 45  1  0  0  0  0
 42 46  1  0  0  0  0
  8 13  1  0  0  0  0
 32 37  1  0  0  0  0
 31 36  1  0  0  0  0
 41 43  1  0  0  0  0
  7 12  1  0  0  0  0
M  END
$$$$

  -OEChem-05262214473D

 46 46  0     1  0  0  0  0  0999 V2000
   -0.6012   -3.2995    3.8205 C   0  0  0  0  0  0  0  0  0  0  0  0
   -0.6574   -4.4683    3.4568 O   0  0  0  0  0  0  0  0  0  0  0  0
   -0.4935   -2.9859    5.2760 C   0  0  0  0  0  0  0  0  0  0  0  0
   -1.4789   -2.8689    5.7550 H   0  0  0  0  0  0  0  0  0  0  0  0
    0.0123   -3.7847    5.8419 H   0  0  0  0  0  0  0  0  0  0  0  0
    0.0585   -2.0642    5.5199 H   0  0  0  0  0  0  0  0  0  0  0  0
   -0.6261   -2.1849    2.9917 N   0  0  0  0  0  0  0  0  0  0  0  0
   -0.7237   -2.2601    1.5650 C   0  0  2  0  0  0  0  0  0  0  0  0
    0.1695   -1.1513    1.0687 C   0  0  0  0  0  0  0  0  0  0  0  0
    0.3193   -0.1267    1.7365 O   0  0  0  0  0  0  0  0  0  0  0  0
   -2.1397   -2.0663    1.0750 C   0  0  0  0  0  0  0  0  0  0  0  0
   -0.5717   -1.2606    3.4238 H   0  0  0  0  0  0  0  0  0  0  0  0
   -0.3076   -3.2111    1.2363 H   0  0  0  0  0  0  0  0  0  0  0  0
   -2.5584   -1.1089    1.4061 H   0  0  0  0  0  0  0  0  0  0  0  0
   -2.1682   -2.0790   -0.0197 H   0  0  0  0  0  0  0  0  0  0  0  0
   -2.7965   -2.8601    1.4459 H   0  0  0  0  0  0  0  0  0  0  0  0
    0.7724   -1.3745   -0.1593 N   0  0  0  0  0  0  0  0  0  0  0  0
    1.6644   -0.4046   -0.7812 C   0  0  2  0  0  0  0  0  0  0  0  0
    1.7547    0.7703    0.1454 C   0  0  0  0  0  0  0  0  0  0  0  0
    1.4033    1.8771   -0.2462 O   0  0  0  0  0  0  0  0  0  0  0  0
    0.9832   -0.0385   -2.0947 C   0  0  0  0  0  0  0  0  0  0  0  0
    0.4329   -1.4308   -1.7953 C   0  0  0  0  0  0  0  0  0  0  0  0
    0.7499   -2.6270   -0.9105 C   0  0  0  0  0  0  0  0  0  0  0  0
    2.6660   -0.8234   -0.9178 H   0  0  0  0  0  0  0  0  0  0  0  0
    1.7341    0.0889   -2.8835 H   0  0  0  0  0  0  0  0  0  0  0  0
    0.3808    0.8733   -2.0362 H   0  0  0  0  0  0  0  0  0  0  0  0
   -0.5797   -1.3599   -1.3815 H   0  0  0  0  0  0  0  0  0  0  0  0
    0.3950   -2.0608   -2.6885 H   0  0  0  0  0  0  0  0  0  0  0  0
   -0.0575   -3.3641   -0.8933 H   0  0  0  0  0  0  0  0  0  0  0  0
    1.6766   -3.1193   -1.2248 H   0  0  0  0  0  0  0  0  0  0  0  0
    2.2220    0.5493    1.3688 N   0  0  0  0  0  0  0  0  0  0  0  0
    2.9552    0.7307    2.6011 C   0  0  2  0  0  0  0  0  0  0  0  0
    4.3987    1.0612    2.2451 C   0  0  0  0  0  0  0  0  0  0  0  0
    4.9083    0.7649    1.1664 O   0  0  0  0  0  0  0  0  0  0  0  0
    2.8818   -0.5106    3.4766 C   0  0  0  0  0  0  0  0  0  0  0  0
    1.4158    1.1417    1.1943 H   0  0  0  0  0  0  0  0  0  0  0  0
    2.5011    1.5840    3.1166 H   0  0  0  0  0  0  0  0  0  0  0  0
    3.3320   -1.3760    2.9767 H   0  0  0  0  0  0  0  0  0  0  0  0
    3.4137   -0.3613    4.4220 H   0  0  0  0  0  0  0  0  0  0  0  0
    1.8414   -0.7640    3.7069 H   0  0  0  0  0  0  0  0  0  0  0  0
    5.0636    1.6875    3.2900 N   0  0  0  0  0  0  0  0  0  0  0  0
    6.4478    2.0906    3.2032 C   0  0  0  0  0  0  0  0  0  0  0  0
    4.5574    1.9114    4.1417 H   0  0  0  0  0  0  0  0  0  0  0  0
    7.0896    1.2861    3.5918 H   0  0  0  0  0  0  0  0  0  0  0  0
    6.7061    2.2904    2.1528 H   0  0  0  0  0  0  0  0  0  0  0  0
    6.6021    3.0025    3.7986 H   0  0  0  0  0  0  0  0  0  0  0  0
 18 19  1  0  0  0  0
 19 31  1  0  0  0  0
 19 20  2  0  0  0  0
  8  9  1  0  0  0  0
  9 17  1  0  0  0  0
  9 10  2  0  0  0  0
  1  3  1  0  0  0  0
  1  7  1  0  0  0  0
  1  2  2  0  0  0  0
 32 33  1  0  0  0  0
 33 41  1  0  0  0  0
 33 34  2  0  0  0  0
 21 22  1  0  0  0  0
 22 23  1  0  0  0  0
 18 21  1  0  0  0  0
 17 23  1  0  0  0  0
 17 18  1  0  0  0  0
  8 11  1  0  0  0  0
 32 35  1  0  0  0  0
 41 42  1  0  0  0  0
  7  8  1  0  0  0  0
 31 32  1  0  0  0  0
 22 27  1  0  0  0  0
 22 28  1  0  0  0  0
 21 25  1  0  0  0  0
 21 26  1  0  0  0  0
 23 29  1  0  0  0  0
 23 30  1  0  0  0  0
 18 24  1  0  0  0  0
  3  4  1  0  0  0  0
  3  5  1  0  0  0  0
  3  6  1  0  0  0  0
 11 14  1  0  0  0  0
 11 15  1  0  0  0  0
 11 16  1  0  0  0  0
 35 38  1  0  0  0  0
 35 39  1  0  0  0  0
 35 40  1  0  0  0  0
 42 44  1  0  0  0  0
 42 45  1  0  0  0  0
 42 46  1  0  0  0  0
  8 13  1  0  0  0  0
 32 37  1  0  0  0  0
 31 36  1  0  0  0  0
 41 43  1  0  0  0  0
  7 12  1  0  0  0  0
M  END
$$$$

  -OEChem-05262214473D

 46 46  0     1  0  0  0  0  0999 V2000
   -0.6012   -3.2995    3.8205 C   0  0  0  0  0  0  0  0  0  0  0  0
   -0.6574   -4.4683    3.4568 O   0  0  0  0  0  0  0  0  0  0  0  0
   -0.4935   -2.9859    5.2760 C   0  0  0  0  0  0  0  0  0  0  0  0
   -1.4789   -2.8689    5.7550 H   0  0  0  0  0  0  0  0  0  0  0  0
    0.0123   -3.7847    5.8419 H   0  0  0  0  0  0  0  0  0  0  0  0
    0.0585   -2.0642    5.5199 H   0  0  0  0  0  0  0  0  0  0  0  0
   -0.6261   -2.1849    2.9917 N   0  0  0  0  0  0  0  0  0  0  0  0
   -0.7237   -2.2601    1.5650 C   0  0  2  0  0  0  0  0  0  0  0  0
    0.1695   -1.1513    1.0687 C   0  0  0  0  0  0  0  0  0  0  0  0
    0.3193   -0.1267    1.7365 O   0  0  0  0  0  0  0  0  0  0  0  0
   -2.1397   -2.0663    1.0750 C   0  0  0  0  0  0  0  0  0  0  0  0
   -0.5717   -1.2606    3.4238 H   0  0  0  0  0  0  0  0  0  0  0  0
   -0.3076   -3.2111    1.2363 H   0  0  0  0  0  0  0  0  0  0  0  0
   -2.5584   -1.1089    1.4061 H   0  0  0  0  0  0  0  0  0  0  0  0
   -2.1682   -2.0790   -0.0197 H   0  0  0  0  0  0  0  0  0  0  0  0
   -2.7965   -2.8601    1.4459 H   0  0  0  0  0  0  0  0  0  0  0  0
    0.7724   -1.3745   -0.1593 N   0  0  0  0  0  0  0  0  0  0  0  0
    1.6644   -0.4046   -0.7812 C   0  0  2  0  0  0  0  0  0  0  0  0
    1.7547    0.7703    0.1454 C   0  0  0  0  0  0  0  0  0  0  0  0
    1.1600    1.8054   -0.1316 O   0  0  0  0  0  0  0  0  0  0  0  0
    0.9832   -0.0385   -2.0947 C   0  0  0  0  0  0  0  0  0  0  0  0
    0.4329   -1.4308   -1.7953 C   0  0  0  0  0  0  0  0  0  0  0  0
    0.7499   -2.6270   -0.9105 C   0  0  0  0  0  0  0  0  0  0  0  0
    2.6660   -0.8234   -0.9178 H   0  0  0  0  0  0  0  0  0  0  0  0
    1.7341    0.0889   -2.8835 H   0  0  0  0  0  0  0  0  0  0  0  0
    0.3808    0.8733   -2.0362 H   0  0  0  0  0  0  0  0  0  0  0  0
   -0.5797   -1.3599   -1.3815 H   0  0  0  0  0  0  0  0  0  0  0  0
    0.3950   -2.0608   -2.6885 H   0  0  0  0  0  0  0  0  0  0  0  0
   -0.0575   -3.3641   -0.8933 H   0  0  0  0  0  0  0  0  0  0  0  0
    1.6766   -3.1193   -1.2248 H   0  0  0  0  0  0  0  0  0  0  0  0
    2.4909    0.6288    1.2418 N   0  0  0  0  0  0  0  0  0  0  0  0
    3.4220    0.9275    2.3061 C   0  0  2  0  0  0  0  0  0  0  0  0
    4.6915    1.4865    1.6773 C   0  0  0  0  0  0  0  0  0  0  0  0
    5.0105    1.2755    0.5090 O   0  0  0  0  0  0  0  0  0  0  0  0
    3.7264   -0.3086    3.1381 C   0  0  0  0  0  0  0  0  0  0  0  0
    1.5826    1.0830    1.2524 H   0  0  0  0  0  0  0  0  0  0  0  0
    2.9534    1.6966    2.9297 H   0  0  0  0  0  0  0  0  0  0  0  0
    4.1963   -1.0903    2.5302 H   0  0  0  0  0  0  0  0  0  0  0  0
    4.4096   -0.0745    3.9612 H   0  0  0  0  0  0  0  0  0  0  0  0
    2.8084   -0.7266    3.5652 H   0  0  0  0  0  0  0  0  0  0  0  0
    5.4479    2.2130    2.5862 N   0  0  0  0  0  0  0  0  0  0  0  0
    6.7036    2.8343    2.2351 C   0  0  0  0  0  0  0  0  0  0  0  0
    5.0973    2.3529    3.5292 H   0  0  0  0  0  0  0  0  0  0  0  0
    7.5303    2.1445    2.4603 H   0  0  0  0  0  0  0  0  0  0  0  0
    6.7071    3.0724    1.1612 H   0  0  0  0  0  0  0  0  0  0  0  0
    6.8297    3.7597    2.8162 H   0  0  0  0  0  0  0  0  0  0  0  0
 18 19  1  0  0  0  0
 19 31  1  0  0  0  0
 19 20  2  0  0  0  0
  8  9  1  0  0  0  0
  9 17  1  0  0  0  0
  9 10  2  0  0  0  0
  1  3  1  0  0  0  0
  1  7  1  0  0  0  0
  1  2  2  0  0  0  0
 32 33  1  0  0  0  0
 33 41  1  0  0  0  0
 33 34  2  0  0  0  0
 21 22  1  0  0  0  0
 22 23  1  0  0  0  0
 18 21  1  0  0  0  0
 17 23  1  0  0  0  0
 17 18  1  0  0  0  0
  8 11  1  0  0  0  0
 32 35  1  0  0  0  0
 41 42  1  0  0  0  0
  7  8  1  0  0  0  0
 31 32  1  0  0  0  0
 22 27  1  0  0  0  0
 22 28  1  0  0  0  0
 21 25  1  0  0  0  0
 21 26  1  0  0  0  0
 23 29  1  0  0  0  0
 23 30  1  0  0  0  0
 18 24  1  0  0  0  0
  3  4  1  0  0  0  0
  3  5  1  0  0  0  0
  3  6  1  0  0  0  0
 11 14  1  0  0  0  0
 11 15  1  0  0  0  0
 11 16  1  0  0  0  0
 35 38  1  0  0  0  0
 35 39  1  0  0  0  0
 35 40  1  0  0  0  0
 42 44  1  0  0  0  0
 42 45  1  0  0  0  0
 42 46  1  0  0  0  0
  8 13  1  0  0  0  0
 32 37  1  0  0  0  0
 31 36  1  0  0  0  0
 41 43  1  0  0  0  0
  7 12  1  0  0  0  0
M  END
$$$$

  -OEChem-05262214473D

 46 46  0     1  0  0  0  0  0999 V2000
   -0.6012   -3.2995    3.8205 C   0  0  0  0  0  0  0  0  0  0  0  0
   -0.6574   -4.4683    3.4568 O   0  0  0  0  0  0  0  0  0  0  0  0
   -0.4935   -2.9859    5.2760 C   0  0  0  0  0  0  0  0  0  0  0  0
   -1.4789   -2.8689    5.7550 H   0  0  0  0  0  0  0  0  0  0  0  0
    0.0123   -3.7847    5.8419 H   0  0  0  0  0  0  0  0  0  0  0  0
    0.0585   -2.0642    5.5199 H   0  0  0  0  0  0  0  0  0  0  0  0
   -0.6261   -2.1849    2.9917 N   0  0  0  0  0  0  0  0  0  0  0  0
   -0.7237   -2.2601    1.5650 C   0  0  2  0  0  0  0  0  0  0  0  0
    0.1695   -1.1513    1.0687 C   0  0  0  0  0  0  0  0  0  0  0  0
    0.3193   -0.1267    1.7365 O   0  0  0  0  0  0  0  0  0  0  0  0
   -2.1397   -2.0663    1.0750 C   0  0  0  0  0  0  0  0  0  0  0  0
   -0.5717   -1.2606    3.4238 H   0  0  0  0  0  0  0  0  0  0  0  0
   -0.3076   -3.2111    1.2363 H   0  0  0  0  0  0  0  0  0  0  0  0
   -2.5584   -1.1089    1.4061 H   0  0  0  0  0  0  0  0  0  0  0  0
   -2.1682   -2.0790   -0.0197 H   0  0  0  0  0  0  0  0  0  0  0  0
   -2.7965   -2.8601    1.4459 H   0  0  0  0  0  0  0  0  0  0  0  0
    0.7724   -1.3745   -0.1593 N   0  0  0  0  0  0  0  0  0  0  0  0
    1.6644   -0.4046   -0.7812 C   0  0  2  0  0  0  0  0  0  0  0  0
    1.7547    0.7703    0.1454 C   0  0  0  0  0  0  0  0  0  0  0  0
    0.9598    1.6954    0.0273 O   0  0  0  0  0  0  0  0  0  0  0  0
    0.9832   -0.0385   -2.0947 C   0  0  0  0  0  0  0  0  0  0  0  0
    0.4329   -1.4308   -1.7953 C   0  0  0  0  0  0  0  0  0  0  0  0
    0.7499   -2.6270   -0.9105 C   0  0  0  0  0  0  0  0  0  0  0  0
    2.6660   -0.8234   -0.9178 H   0  0  0  0  0  0  0  0  0  0  0  0
    1.7341    0.0889   -2.8835 H   0  0  0  0  0  0  0  0  0  0  0  0
    0.3808    0.8733   -2.0362 H   0  0  0  0  0  0  0  0  0  0  0  0
   -0.5797   -1.3599   -1.3815 H   0  0  0  0  0  0  0  0  0  0  0  0
    0.3950   -2.0608   -2.6885 H   0  0  0  0  0  0  0  0  0  0  0  0
   -0.0575   -3.3641   -0.8933 H   0  0  0  0  0  0  0  0  0  0  0  0
    1.6766   -3.1193   -1.2248 H   0  0  0  0  0  0  0  0  0  0  0  0
    2.7121    0.7506    1.0657 N   0  0  0  0  0  0  0  0  0  0  0  0
    3.7816    1.1968    1.9295 C   0  0  2  0  0  0  0  0  0  0  0  0
    4.7911    1.9530    1.0760 C   0  0  0  0  0  0  0  0  0  0  0  0
    4.8942    1.7952   -0.1387 O   0  0  0  0  0  0  0  0  0  0  0  0
    4.4412    0.0269    2.6430 C   0  0  0  0  0  0  0  0  0  0  0  0
    1.7649    1.0520    1.2739 H   0  0  0  0  0  0  0  0  0  0  0  0
    3.3344    1.8806    2.6592 H   0  0  0  0  0  0  0  0  0  0  0  0
    4.8949   -0.6692    1.9280 H   0  0  0  0  0  0  0  0  0  0  0  0
    5.2321    0.3691    3.3185 H   0  0  0  0  0  0  0  0  0  0  0  0
    3.7078   -0.5335    3.2327 H   0  0  0  0  0  0  0  0  0  0  0  0
    5.5923    2.7930    1.8366 N   0  0  0  0  0  0  0  0  0  0  0  0
    6.6353    3.6088    1.2597 C   0  0  0  0  0  0  0  0  0  0  0  0
    5.4239    2.8753    2.8350 H   0  0  0  0  0  0  0  0  0  0  0  0
    7.5891    3.0618    1.2914 H   0  0  0  0  0  0  0  0  0  0  0  0
    6.3817    3.8433    0.2154 H   0  0  0  0  0  0  0  0  0  0  0  0
    6.7292    4.5429    1.8329 H   0  0  0  0  0  0  0  0  0  0  0  0
 18 19  1  0  0  0  0
 19 31  1  0  0  0  0
 19 20  2  0  0  0  0
  8  9  1  0  0  0  0
  9 17  1  0  0  0  0
  9 10  2  0  0  0  0
  1  3  1  0  0  0  0
  1  7  1  0  0  0  0
  1  2  2  0  0  0  0
 32 33  1  0  0  0  0
 33 41  1  0  0  0  0
 33 34  2  0  0  0  0
 21 22  1  0  0  0  0
 22 23  1  0  0  0  0
 18 21  1  0  0  0  0
 17 23  1  0  0  0  0
 17 18  1  0  0  0  0
  8 11  1  0  0  0  0
 32 35  1  0  0  0  0
 41 42  1  0  0  0  0
  7  8  1  0  0  0  0
 31 32  1  0  0  0  0
 22 27  1  0  0  0  0
 22 28  1  0  0  0  0
 21 25  1  0  0  0  0
 21 26  1  0  0  0  0
 23 29  1  0  0  0  0
 23 30  1  0  0  0  0
 18 24  1  0  0  0  0
  3  4  1  0  0  0  0
  3  5  1  0  0  0  0
  3  6  1  0  0  0  0
 11 14  1  0  0  0  0
 11 15  1  0  0  0  0
 11 16  1  0  0  0  0
 35 38  1  0  0  0  0
 35 39  1  0  0  0  0
 35 40  1  0  0  0  0
 42 44  1  0  0  0  0
 42 45  1  0  0  0  0
 42 46  1  0  0  0  0
  8 13  1  0  0  0  0
 32 37  1  0  0  0  0
 31 36  1  0  0  0  0
 41 43  1  0  0  0  0
  7 12  1  0  0  0  0
M  END
$$$$

  -OEChem-05262214473D

 46 46  0     1  0  0  0  0  0999 V2000
   -0.6012   -3.2995    3.8205 C   0  0  0  0  0  0  0  0  0  0  0  0
   -0.6574   -4.4683    3.4568 O   0  0  0  0  0  0  0  0  0  0  0  0
   -0.4935   -2.9859    5.2760 C   0  0  0  0  0  0  0  0  0  0  0  0
   -1.4789   -2.8689    5.7550 H   0  0  0  0  0  0  0  0  0  0  0  0
    0.0123   -3.7847    5.8419 H   0  0  0  0  0  0  0  0  0  0  0  0
    0.0585   -2.0642    5.5199 H   0  0  0  0  0  0  0  0  0  0  0  0
   -0.6261   -2.1849    2.9917 N   0  0  0  0  0  0  0  0  0  0  0  0
   -0.7237   -2.2601    1.5650 C   0  0  2  0  0  0  0  0  0  0  0  0
    0.1695   -1.1513    1.0687 C   0  0  0  0  0  0  0  0  0  0  0  0
    0.3193   -0.1267    1.7365 O   0  0  0  0  0  0  0  0  0  0  0  0
   -2.1397   -2.0663    1.0750 C   0  0  0  0  0  0  0  0  0  0  0  0
   -0.5717   -1.2606    3.4238 H   0  0  0  0  0  0  0  0  0  0  0  0
   -0.3076   -3.2111    1.2363 H   0  0  0  0  0  0  0  0  0  0  0  0
   -2.5584   -1.1089    1.4061 H   0  0  0  0  0  0  0  0  0  0  0  0
   -2.1682   -2.0790   -0.0197 H   0  0  0  0  0  0  0  0  0  0  0  0
   -2.7965   -2.8601    1.4459 H   0  0  0  0  0  0  0  0  0  0  0  0
    0.7724   -1.3745   -0.1593 N   0  0  0  0  0  0  0  0  0  0  0  0
    1.6644   -0.4046   -0.7812 C   0  0  2  0  0  0  0  0  0  0  0  0
    1.7547    0.7703    0.1454 C   0  0  0  0  0  0  0  0  0  0  0  0
    0.8162    1.5547    0.2198 O   0  0  0  0  0  0  0  0  0  0  0  0
    0.9832   -0.0385   -2.0947 C   0  0  0  0  0  0  0  0  0  0  0  0
    0.4329   -1.4308   -1.7953 C   0  0  0  0  0  0  0  0  0  0  0  0
    0.7499   -2.6270   -0.9105 C   0  0  0  0  0  0  0  0  0  0  0  0
    2.6660   -0.8234   -0.9178 H   0  0  0  0  0  0  0  0  0  0  0  0
    1.7341    0.0889   -2.8835 H   0  0  0  0  0  0  0  0  0  0  0  0
    0.3808    0.8733   -2.0362 H   0  0  0  0  0  0  0  0  0  0  0  0
   -0.5797   -1.3599   -1.3815 H   0  0  0  0  0  0  0  0  0  0  0  0
    0.3950   -2.0608   -2.6885 H   0  0  0  0  0  0  0  0  0  0  0  0
   -0.0575   -3.3641   -0.8933 H   0  0  0  0  0  0  0  0  0  0  0  0
    1.6766   -3.1193   -1.2248 H   0  0  0  0  0  0  0  0  0  0  0  0
    2.8706    0.9064    0.8527 N   0  0  0  0  0  0  0  0  0  0  0  0
    4.0094    1.5203    1.4971 C   0  0  2  0  0  0  0  0  0  0  0  0
    4.6906    2.4290    0.4823 C   0  0  0  0  0  0  0  0  0  0  0  0
    4.5673    2.2888   -0.7327 O   0  0  0  0  0  0  0  0  0  0  0  0
    4.9775    0.4730    2.0250 C   0  0  0  0  0  0  0  0  0  0  0  0
    1.9503    1.0510    1.2571 H   0  0  0  0  0  0  0  0  0  0  0  0
    3.6180    2.1236    2.3235 H   0  0  0  0  0  0  0  0  0  0  0  0
    5.3801   -0.1412    1.2113 H   0  0  0  0  0  0  0  0  0  0  0  0
    5.8254    0.9391    2.5378 H   0  0  0  0  0  0  0  0  0  0  0  0
    4.4782   -0.1980    2.7322 H   0  0  0  0  0  0  0  0  0  0  0  0
    5.4869    3.3881    1.0924 N   0  0  0  0  0  0  0  0  0  0  0  0
    6.2475    4.3611    0.3435 C   0  0  0  0  0  0  0  0  0  0  0  0
    5.5150    3.4429    2.1062 H   0  0  0  0  0  0  0  0  0  0  0  0
    7.2621    3.9755    0.1647 H   0  0  0  0  0  0  0  0  0  0  0  0
    5.7523    4.5506   -0.6202 H   0  0  0  0  0  0  0  0  0  0  0  0
    6.3073    5.2987    0.9157 H   0  0  0  0  0  0  0  0  0  0  0  0
 18 19  1  0  0  0  0
 19 31  1  0  0  0  0
 19 20  2  0  0  0  0
  8  9  1  0  0  0  0
  9 17  1  0  0  0  0
  9 10  2  0  0  0  0
  1  3  1  0  0  0  0
  1  7  1  0  0  0  0
  1  2  2  0  0  0  0
 32 33  1  0  0  0  0
 33 41  1  0  0  0  0
 33 34  2  0  0  0  0
 21 22  1  0  0  0  0
 22 23  1  0  0  0  0
 18 21  1  0  0  0  0
 17 23  1  0  0  0  0
 17 18  1  0  0  0  0
  8 11  1  0  0  0  0
 32 35  1  0  0  0  0
 41 42  1  0  0  0  0
  7  8  1  0  0  0  0
 31 32  1  0  0  0  0
 22 27  1  0  0  0  0
 22 28  1  0  0  0  0
 21 25  1  0  0  0  0
 21 26  1  0  0  0  0
 23 29  1  0  0  0  0
 23 30  1  0  0  0  0
 18 24  1  0  0  0  0
  3  4  1  0  0  0  0
  3  5  1  0  0  0  0
  3  6  1  0  0  0  0
 11 14  1  0  0  0  0
 11 15  1  0  0  0  0
 11 16  1  0  0  0  0
 35 38  1  0  0  0  0
 35 39  1  0  0  0  0
 35 40  1  0  0  0  0
 42 44  1  0  0  0  0
 42 45  1  0  0  0  0
 42 46  1  0  0  0  0
  8 13  1  0  0  0  0
 32 37  1  0  0  0  0
 31 36  1  0  0  0  0
 41 43  1  0  0  0  0
  7 12  1  0  0  0  0
M  END
$$$$

  -OEChem-05262214473D

 46 46  0     1  0  0  0  0  0999 V2000
   -0.6012   -3.2995    3.8205 C   0  0  0  0  0  0  0  0  0  0  0  0
   -0.6574   -4.4683    3.4568 O   0  0  0  0  0  0  0  0  0  0  0  0
   -0.4935   -2.9859    5.2760 C   0  0  0  0  0  0  0  0  0  0  0  0
   -1.4789   -2.8689    5.7550 H   0  0  0  0  0  0  0  0  0  0  0  0
    0.0123   -3.7847    5.8419 H   0  0  0  0  0  0  0  0  0  0  0  0
    0.0585   -2.0642    5.5199 H   0  0  0  0  0  0  0  0  0  0  0  0
   -0.6261   -2.1849    2.9917 N   0  0  0  0  0  0  0  0  0  0  0  0
   -0.7237   -2.2601    1.5650 C   0  0  2  0  0  0  0  0  0  0  0  0
    0.1695   -1.1513    1.0687 C   0  0  0  0  0  0  0  0  0  0  0  0
    0.3193   -0.1267    1.7365 O   0  0  0  0  0  0  0  0  0  0  0  0
   -2.1397   -2.0663    1.0750 C   0  0  0  0  0  0  0  0  0  0  0  0
   -0.5717   -1.2606    3.4238 H   0  0  0  0  0  0  0  0  0  0  0  0
   -0.3076   -3.2111    1.2363 H   0  0  0  0  0  0  0  0  0  0  0  0
   -2.5584   -1.1089    1.4061 H   0  0  0  0  0  0  0  0  0  0  0  0
   -2.1682   -2.0790   -0.0197 H   0  0  0  0  0  0  0  0  0  0  0  0
   -2.7965   -2.8601    1.4459 H   0  0  0  0  0  0  0  0  0  0  0  0
    0.7724   -1.3745   -0.1593 N   0  0  0  0  0  0  0  0  0  0  0  0
    1.6644   -0.4046   -0.7812 C   0  0  2  0  0  0  0  0  0  0  0  0
    1.7547    0.7703    0.1454 C   0  0  0  0  0  0  0  0  0  0  0  0
    0.7390    1.3928    0.4326 O   0  0  0  0  0  0  0  0  0  0  0  0
    0.9832   -0.0385   -2.0947 C   0  0  0  0  0  0  0  0  0  0  0  0
    0.4329   -1.4308   -1.7953 C   0  0  0  0  0  0  0  0  0  0  0  0
    0.7499   -2.6270   -0.9105 C   0  0  0  0  0  0  0  0  0  0  0  0
    2.6660   -0.8234   -0.9178 H   0  0  0  0  0  0  0  0  0  0  0  0
    1.7341    0.0889   -2.8835 H   0  0  0  0  0  0  0  0  0  0  0  0
    0.3808    0.8733   -2.0362 H   0  0  0  0  0  0  0  0  0  0  0  0
   -0.5797   -1.3599   -1.3815 H   0  0  0  0  0  0  0  0  0  0  0  0
    0.3950   -2.0608   -2.6885 H   0  0  0  0  0  0  0  0  0  0  0  0
   -0.0575   -3.3641   -0.8933 H   0  0  0  0  0  0  0  0  0  0  0  0
    1.6766   -3.1193   -1.2248 H   0  0  0  0  0  0  0  0  0  0  0  0
    2.9555    1.0856    0.6172 N   0  0  0  0  0  0  0  0  0  0  0  0
    4.0900    1.8760    1.0382 C   0  0  2  0  0  0  0  0  0  0  0  0
    4.3971    2.8819   -0.0634 C   0  0  0  0  0  0  0  0  0  0  0  0
    4.0521    2.7225   -1.2325 O   0  0  0  0  0  0  0  0  0  0  0  0
    5.2989    0.9994    1.3262 C   0  0  0  0  0  0  0  0  0  0  0  0
    2.1261    1.0799    1.2033 H   0  0  0  0  0  0  0  0  0  0  0  0
    3.7851    2.4089    1.9454 H   0  0  0  0  0  0  0  0  0  0  0  0
    5.6190    0.4576    0.4287 H   0  0  0  0  0  0  0  0  0  0  0  0
    6.1488    1.5968    1.6723 H   0  0  0  0  0  0  0  0  0  0  0  0
    5.0671    0.2571    2.0976 H   0  0  0  0  0  0  0  0  0  0  0  0
    5.1390    3.9576    0.4041 N   0  0  0  0  0  0  0  0  0  0  0  0
    5.5668    5.0401   -0.4510 C   0  0  0  0  0  0  0  0  0  0  0  0
    5.3643    4.0172    1.3927 H   0  0  0  0  0  0  0  0  0  0  0  0
    6.5714    4.8233   -0.8430 H   0  0  0  0  0  0  0  0  0  0  0  0
    4.8616    5.1462   -1.2886 H   0  0  0  0  0  0  0  0  0  0  0  0
    5.5929    5.9755    0.1271 H   0  0  0  0  0  0  0  0  0  0  0  0
 18 19  1  0  0  0  0
 19 31  1  0  0  0  0
 19 20  2  0  0  0  0
  8  9  1  0  0  0  0
  9 17  1  0  0  0  0
  9 10  2  0  0  0  0
  1  3  1  0  0  0  0
  1  7  1  0  0  0  0
  1  2  2  0  0  0  0
 32 33  1  0  0  0  0
 33 41  1  0  0  0  0
 33 34  2  0  0  0  0
 21 22  1  0  0  0  0
 22 23  1  0  0  0  0
 18 21  1  0  0  0  0
 17 23  1  0  0  0  0
 17 18  1  0  0  0  0
  8 11  1  0  0  0  0
 32 35  1  0  0  0  0
 41 42  1  0  0  0  0
  7  8  1  0  0  0  0
 31 32  1  0  0  0  0
 22 27  1  0  0  0  0
 22 28  1  0  0  0  0
 21 25  1  0  0  0  0
 21 26  1  0  0  0  0
 23 29  1  0  0  0  0
 23 30  1  0  0  0  0
 18 24  1  0  0  0  0
  3  4  1  0  0  0  0
  3  5  1  0  0  0  0
  3  6  1  0  0  0  0
 11 14  1  0  0  0  0
 11 15  1  0  0  0  0
 11 16  1  0  0  0  0
 35 38  1  0  0  0  0
 35 39  1  0  0  0  0
 35 40  1  0  0  0  0
 42 44  1  0  0  0  0
 42 45  1  0  0  0  0
 42 46  1  0  0  0  0
  8 13  1  0  0  0  0
 32 37  1  0  0  0  0
 31 36  1  0  0  0  0
 41 43  1  0  0  0  0
  7 12  1  0  0  0  0
M  END
$$$$

  -OEChem-05262214473D

 46 46  0     1  0  0  0  0  0999 V2000
   -0.6012   -3.2995    3.8205 C   0  0  0  0  0  0  0  0  0  0  0  0
   -0.6574   -4.4683    3.4568 O   0  0  0  0  0  0  0  0  0  0  0  0
   -0.4935   -2.9859    5.2760 C   0  0  0  0  0  0  0  0  0  0  0  0
   -1.4789   -2.8689    5.7550 H   0  0  0  0  0  0  0  0  0  0  0  0
    0.0123   -3.7847    5.8419 H   0  0  0  0  0  0  0  0  0  0  0  0
    0.0585   -2.0642    5.5199 H   0  0  0  0  0  0  0  0  0  0  0  0
   -0.6261   -2.1849    2.9917 N   0  0  0  0  0  0  0  0  0  0  0  0
   -0.7237   -2.2601    1.5650 C   0  0  2  0  0  0  0  0  0  0  0  0
    0.1695   -1.1513    1.0687 C   0  0  0  0  0  0  0  0  0  0  0  0
    0.3193   -0.1267    1.7365 O   0  0  0  0  0  0  0  0  0  0  0  0
   -2.1397   -2.0663    1.0750 C   0  0  0  0  0  0  0  0  0  0  0  0
   -0.5717   -1.2606    3.4238 H   0  0  0  0  0  0  0  0  0  0  0  0
   -0.3076   -3.2111    1.2363 H   0  0  0  0  0  0  0  0  0  0  0  0
   -2.5584   -1.1089    1.4061 H   0  0  0  0  0  0  0  0  0  0  0  0
   -2.1682   -2.0790   -0.0197 H   0  0  0  0  0  0  0  0  0  0  0  0
   -2.7965   -2.8601    1.4459 H   0  0  0  0  0  0  0  0  0  0  0  0
    0.7724   -1.3745   -0.1593 N   0  0  0  0  0  0  0  0  0  0  0  0
    1.6644   -0.4046   -0.7812 C   0  0  2  0  0  0  0  0  0  0  0  0
    1.7547    0.7703    0.1454 C   0  0  0  0  0  0  0  0  0  0  0  0
    0.7335    1.2208    0.6513 O   0  0  0  0  0  0  0  0  0  0  0  0
    0.9832   -0.0385   -2.0947 C   0  0  0  0  0  0  0  0  0  0  0  0
    0.4329   -1.4308   -1.7953 C   0  0  0  0  0  0  0  0  0  0  0  0
    0.7499   -2.6270   -0.9105 C   0  0  0  0  0  0  0  0  0  0  0  0
    2.6660   -0.8234   -0.9178 H   0  0  0  0  0  0  0  0  0  0  0  0
    1.7341    0.0889   -2.8835 H   0  0  0  0  0  0  0  0  0  0  0  0
    0.3808    0.8733   -2.0362 H   0  0  0  0  0  0  0  0  0  0  0  0
   -0.5797   -1.3599   -1.3815 H   0  0  0  0  0  0  0  0  0  0  0  0
    0.3950   -2.0608   -2.6885 H   0  0  0  0  0  0  0  0  0  0  0  0
   -0.0575   -3.3641   -0.8933 H   0  0  0  0  0  0  0  0  0  0  0  0
    1.6766   -3.1193   -1.2248 H   0  0  0  0  0  0  0  0  0  0  0  0
    2.9612    1.2759    0.3754 N   0  0  0  0  0  0  0  0  0  0  0  0
    4.0179    2.2397    0.5841 C   0  0  2  0  0  0  0  0  0  0  0  0
    3.9303    3.2809   -0.5239 C   0  0  0  0  0  0  0  0  0  0  0  0
    3.3837    3.0669   -1.6039 O   0  0  0  0  0  0  0  0  0  0  0  0
    5.3833    1.5702    0.5942 C   0  0  0  0  0  0  0  0  0  0  0  0
    2.2804    1.1368    1.1161 H   0  0  0  0  0  0  0  0  0  0  0  0
    3.8241    2.7170    1.5508 H   0  0  0  0  0  0  0  0  0  0  0  0
    5.5952    1.0863   -0.3663 H   0  0  0  0  0  0  0  0  0  0  0  0
    6.1804    2.2974    0.7809 H   0  0  0  0  0  0  0  0  0  0  0  0
    5.4344    0.8009    1.3723 H   0  0  0  0  0  0  0  0  0  0  0  0
    4.5721    4.4628   -0.1812 N   0  0  0  0  0  0  0  0  0  0  0  0
    4.6394    5.5994   -1.0699 C   0  0  0  0  0  0  0  0  0  0  0  0
    4.9822    4.5589    0.7431 H   0  0  0  0  0  0  0  0  0  0  0  0
    5.5643    5.5474   -1.6631 H   0  0  0  0  0  0  0  0  0  0  0  0
    3.7704    5.5894   -1.7442 H   0  0  0  0  0  0  0  0  0  0  0  0
    4.6345    6.5273   -0.4791 H   0  0  0  0  0  0  0  0  0  0  0  0
 18 19  1  0  0  0  0
 19 31  1  0  0  0  0
 19 20  2  0  0  0  0
  8  9  1  0  0  0  0
  9 17  1  0  0  0  0
  9 10  2  0  0  0  0
  1  3  1  0  0  0  0
  1  7  1  0  0  0  0
  1  2  2  0  0  0  0
 32 33  1  0  0  0  0
 33 41  1  0  0  0  0
 33 34  2  0  0  0  0
 21 22  1  0  0  0  0
 22 23  1  0  0  0  0
 18 21  1  0  0  0  0
 17 23  1  0  0  0  0
 17 18  1  0  0  0  0
  8 11  1  0  0  0  0
 32 35  1  0  0  0  0
 41 42  1  0  0  0  0
  7  8  1  0  0  0  0
 31 32  1  0  0  0  0
 22 27  1  0  0  0  0
 22 28  1  0  0  0  0
 21 25  1  0  0  0  0
 21 26  1  0  0  0  0
 23 29  1  0  0  0  0
 23 30  1  0  0  0  0
 18 24  1  0  0  0  0
  3  4  1  0  0  0  0
  3  5  1  0  0  0  0
  3  6  1  0  0  0  0
 11 14  1  0  0  0  0
 11 15  1  0  0  0  0
 11 16  1  0  0  0  0
 35 38  1  0  0  0  0
 35 39  1  0  0  0  0
 35 40  1  0  0  0  0
 42 44  1  0  0  0  0
 42 45  1  0  0  0  0
 42 46  1  0  0  0  0
  8 13  1  0  0  0  0
 32 37  1  0  0  0  0
 31 36  1  0  0  0  0
 41 43  1  0  0  0  0
  7 12  1  0  0  0  0
M  END
$$$$

  -OEChem-05262214473D

 46 46  0     1  0  0  0  0  0999 V2000
   -0.6012   -3.2995    3.8205 C   0  0  0  0  0  0  0  0  0  0  0  0
   -0.6574   -4.4683    3.4568 O   0  0  0  0  0  0  0  0  0  0  0  0
   -0.4935   -2.9859    5.2760 C   0  0  0  0  0  0  0  0  0  0  0  0
   -1.4789   -2.8689    5.7550 H   0  0  0  0  0  0  0  0  0  0  0  0
    0.0123   -3.7847    5.8419 H   0  0  0  0  0  0  0  0  0  0  0  0
    0.0585   -2.0642    5.5199 H   0  0  0  0  0  0  0  0  0  0  0  0
   -0.6261   -2.1849    2.9917 N   0  0  0  0  0  0  0  0  0  0  0  0
   -0.7237   -2.2601    1.5650 C   0  0  2  0  0  0  0  0  0  0  0  0
    0.1695   -1.1513    1.0687 C   0  0  0  0  0  0  0  0  0  0  0  0
    0.3193   -0.1267    1.7365 O   0  0  0  0  0  0  0  0  0  0  0  0
   -2.1397   -2.0663    1.0750 C   0  0  0  0  0  0  0  0  0  0  0  0
   -0.5717   -1.2606    3.4238 H   0  0  0  0  0  0  0  0  0  0  0  0
   -0.3076   -3.2111    1.2363 H   0  0  0  0  0  0  0  0  0  0  0  0
   -2.5584   -1.1089    1.4061 H   0  0  0  0  0  0  0  0  0  0  0  0
   -2.1682   -2.0790   -0.0197 H   0  0  0  0  0  0  0  0  0  0  0  0
   -2.7965   -2.8601    1.4459 H   0  0  0  0  0  0  0  0  0  0  0  0
    0.7724   -1.3745   -0.1593 N   0  0  0  0  0  0  0  0  0  0  0  0
    1.6644   -0.4046   -0.7812 C   0  0  2  0  0  0  0  0  0  0  0  0
    1.7547    0.7703    0.1454 C   0  0  0  0  0  0  0  0  0  0  0  0
    0.8001    1.0503    0.8610 O   0  0  0  0  0  0  0  0  0  0  0  0
    0.9832   -0.0385   -2.0947 C   0  0  0  0  0  0  0  0  0  0  0  0
    0.4329   -1.4308   -1.7953 C   0  0  0  0  0  0  0  0  0  0  0  0
    0.7499   -2.6270   -0.9105 C   0  0  0  0  0  0  0  0  0  0  0  0
    2.6660   -0.8234   -0.9178 H   0  0  0  0  0  0  0  0  0  0  0  0
    1.7341    0.0889   -2.8835 H   0  0  0  0  0  0  0  0  0  0  0  0
    0.3808    0.8733   -2.0362 H   0  0  0  0  0  0  0  0  0  0  0  0
   -0.5797   -1.3599   -1.3815 H   0  0  0  0  0  0  0  0  0  0  0  0
    0.3950   -2.0608   -2.6885 H   0  0  0  0  0  0  0  0  0  0  0  0
   -0.0575   -3.3641   -0.8933 H   0  0  0  0  0  0  0  0  0  0  0  0
    1.6766   -3.1193   -1.2248 H   0  0  0  0  0  0  0  0  0  0  0  0
    2.8871    1.4644    0.1435 N   0  0  0  0  0  0  0  0  0  0  0  0
    3.7979    2.5864    0.1658 C   0  0  2  0  0  0  0  0  0  0  0  0
    3.3223    3.5989   -0.8678 C   0  0  0  0  0  0  0  0  0  0  0  0
    2.6076    3.2983   -1.8217 O   0  0  0  0  0  0  0  0  0  0  0  0
    5.2251    2.1464   -0.1211 C   0  0  0  0  0  0  0  0  0  0  0  0
    2.4027    1.2178    1.0014 H   0  0  0  0  0  0  0  0  0  0  0  0
    3.7324    3.0271    1.1666 H   0  0  0  0  0  0  0  0  0  0  0  0
    5.3103    1.7023   -1.1195 H   0  0  0  0  0  0  0  0  0  0  0  0
    5.9180    2.9930   -0.0757 H   0  0  0  0  0  0  0  0  0  0  0  0
    5.5551    1.3962    0.6056 H   0  0  0  0  0  0  0  0  0  0  0  0
    3.8250    4.8692   -0.6238 N   0  0  0  0  0  0  0  0  0  0  0  0
    3.5287    6.0009   -1.4707 C   0  0  0  0  0  0  0  0  0  0  0  0
    4.3947    5.0312    0.2015 H   0  0  0  0  0  0  0  0  0  0  0  0
    4.3093    6.0986   -2.2396 H   0  0  0  0  0  0  0  0  0  0  0  0
    2.5531    5.8501   -1.9560 H   0  0  0  0  0  0  0  0  0  0  0  0
    3.4975    6.9164   -0.8617 H   0  0  0  0  0  0  0  0  0  0  0  0
 18 19  1  0  0  0  0
 19 31  1  0  0  0  0
 19 20  2  0  0  0  0
  8  9  1  0  0  0  0
  9 17  1  0  0  0  0
  9 10  2  0  0  0  0
  1  3  1  0  0  0  0
  1  7  1  0  0  0  0
  1  2  2  0  0  0  0
 32 33  1  0  0  0  0
 33 41  1  0  0  0  0
 33 34  2  0  0  0  0
 21 22  1  0  0  0  0
 22 23  1  0  0  0  0
 18 21  1  0  0  0  0
 17 23  1  0  0  0  0
 17 18  1  0  0  0  0
  8 11  1  0  0  0  0
 32 35  1  0  0  0  0
 41 42  1  0  0  0  0
  7  8  1  0  0  0  0
 31 32  1  0  0  0  0
 22 27  1  0  0  0  0
 22 28  1  0  0  0  0
 21 25  1  0  0  0  0
 21 26  1  0  0  0  0
 23 29  1  0  0  0  0
 23 30  1  0  0  0  0
 18 24  1  0  0  0  0
  3  4  1  0  0  0  0
  3  5  1  0  0  0  0
  3  6  1  0  0  0  0
 11 14  1  0  0  0  0
 11 15  1  0  0  0  0
 11 16  1  0  0  0  0
 35 38  1  0  0  0  0
 35 39  1  0  0  0  0
 35 40  1  0  0  0  0
 42 44  1  0  0  0  0
 42 45  1  0  0  0  0
 42 46  1  0  0  0  0
  8 13  1  0  0  0  0
 32 37  1  0  0  0  0
 31 36  1  0  0  0  0
 41 43  1  0  0  0  0
  7 12  1  0  0  0  0
M  END
$$$$

  -OEChem-05262214473D

 46 46  0     1  0  0  0  0  0999 V2000
   -0.6012   -3.2995    3.8205 C   0  0  0  0  0  0  0  0  0  0  0  0
   -0.6574   -4.4683    3.4568 O   0  0  0  0  0  0  0  0  0  0  0  0
   -0.4935   -2.9859    5.2760 C   0  0  0  0  0  0  0  0  0  0  0  0
   -1.4789   -2.8689    5.7550 H   0  0  0  0  0  0  0  0  0  0  0  0
    0.0123   -3.7847    5.8419 H   0  0  0  0  0  0  0  0  0  0  0  0
    0.0585   -2.0642    5.5199 H   0  0  0  0  0  0  0  0  0  0  0  0
   -0.6261   -2.1849    2.9917 N   0  0  0  0  0  0  0  0  0  0  0  0
   -0.7237   -2.2601    1.5650 C   0  0  2  0  0  0  0  0  0  0  0  0
    0.1695   -1.1513    1.0687 C   0  0  0  0  0  0  0  0  0  0  0  0
    0.3193   -0.1267    1.7365 O   0  0  0  0  0  0  0  0  0  0  0  0
   -2.1397   -2.0663    1.0750 C   0  0  0  0  0  0  0  0  0  0  0  0
   -0.5717   -1.2606    3.4238 H   0  0  0  0  0  0  0  0  0  0  0  0
   -0.3076   -3.2111    1.2363 H   0  0  0  0  0  0  0  0  0  0  0  0
   -2.5584   -1.1089    1.4061 H   0  0  0  0  0  0  0  0  0  0  0  0
   -2.1682   -2.0790   -0.0197 H   0  0  0  0  0  0  0  0  0  0  0  0
   -2.7965   -2.8601    1.4459 H   0  0  0  0  0  0  0  0  0  0  0  0
    0.7724   -1.3745   -0.1593 N   0  0  0  0  0  0  0  0  0  0  0  0
    1.6644   -0.4046   -0.7812 C   0  0  2  0  0  0  0  0  0  0  0  0
    1.7547    0.7703    0.1454 C   0  0  0  0  0  0  0  0  0  0  0  0
    0.9343    0.8930    1.0473 O   0  0  0  0  0  0  0  0  0  0  0  0
    0.9832   -0.0385   -2.0947 C   0  0  0  0  0  0  0  0  0  0  0  0
    0.4329   -1.4308   -1.7953 C   0  0  0  0  0  0  0  0  0  0  0  0
    0.7499   -2.6270   -0.9105 C   0  0  0  0  0  0  0  0  0  0  0  0
    2.6660   -0.8234   -0.9178 H   0  0  0  0  0  0  0  0  0  0  0  0
    1.7341    0.0889   -2.8835 H   0  0  0  0  0  0  0  0  0  0  0  0
    0.3808    0.8733   -2.0362 H   0  0  0  0  0  0  0  0  0  0  0  0
   -0.5797   -1.3599   -1.3815 H   0  0  0  0  0  0  0  0  0  0  0  0
    0.3950   -2.0608   -2.6885 H   0  0  0  0  0  0  0  0  0  0  0  0
   -0.0575   -3.3641   -0.8933 H   0  0  0  0  0  0  0  0  0  0  0  0
    1.6766   -3.1193   -1.2248 H   0  0  0  0  0  0  0  0  0  0  0  0
    2.7383    1.6383   -0.0624 N   0  0  0  0  0  0  0  0  0  0  0  0
    3.4451    2.8927   -0.1882 C   0  0  2  0  0  0  0  0  0  0  0  0
    2.6143    3.8141   -1.0716 C   0  0  0  0  0  0  0  0  0  0  0  0
    1.7768    3.4011   -1.8711 O   0  0  0  0  0  0  0  0  0  0  0  0
    4.8349    2.6888   -0.7708 C   0  0  0  0  0  0  0  0  0  0  0  0
    2.4846    1.3174    0.8671 H   0  0  0  0  0  0  0  0  0  0  0  0
    3.5164    3.3180    0.8189 H   0  0  0  0  0  0  0  0  0  0  0  0
    4.7838    2.2634   -1.7798 H   0  0  0  0  0  0  0  0  0  0  0  0
    5.3796    3.6363   -0.8389 H   0  0  0  0  0  0  0  0  0  0  0  0
    5.4209    2.0025   -0.1501 H   0  0  0  0  0  0  0  0  0  0  0  0
    2.9486    5.1492   -0.8933 N   0  0  0  0  0  0  0  0  0  0  0  0
    2.3102    6.2174   -1.6264 C   0  0  0  0  0  0  0  0  0  0  0  0
    3.6417    5.4018   -0.1951 H   0  0  0  0  0  0  0  0  0  0  0  0
    2.8919    6.4392   -2.5333 H   0  0  0  0  0  0  0  0  0  0  0  0
    1.2926    5.9104   -1.9096 H   0  0  0  0  0  0  0  0  0  0  0  0
    2.2595    7.1163   -0.9945 H   0  0  0  0  0  0  0  0  0  0  0  0
 18 19  1  0  0  0  0
 19 31  1  0  0  0  0
 19 20  2  0  0  0  0
  8  9  1  0  0  0  0
  9 17  1  0  0  0  0
  9 10  2  0  0  0  0
  1  3  1  0  0  0  0
  1  7  1  0  0  0  0
  1  2  2  0  0  0  0
 32 33  1  0  0  0  0
 33 41  1  0  0  0  0
 33 34  2  0  0  0  0
 21 22  1  0  0  0  0
 22 23  1  0  0  0  0
 18 21  1  0  0  0  0
 17 23  1  0  0  0  0
 17 18  1  0  0  0  0
  8 11  1  0  0  0  0
 32 35  1  0  0  0  0
 41 42  1  0  0  0  0
  7  8  1  0  0  0  0
 31 32  1  0  0  0  0
 22 27  1  0  0  0  0
 22 28  1  0  0  0  0
 21 25  1  0  0  0  0
 21 26  1  0  0  0  0
 23 29  1  0  0  0  0
 23 30  1  0  0  0  0
 18 24  1  0  0  0  0
  3  4  1  0  0  0  0
  3  5  1  0  0  0  0
  3  6  1  0  0  0  0
 11 14  1  0  0  0  0
 11 15  1  0  0  0  0
 11 16  1  0  0  0  0
 35 38  1  0  0  0  0
 35 39  1  0  0  0  0
 35 40  1  0  0  0  0
 42 44  1  0  0  0  0
 42 45  1  0  0  0  0
 42 46  1  0  0  0  0
  8 13  1  0  0  0  0
 32 37  1  0  0  0  0
 31 36  1  0  0  0  0
 41 43  1  0  0  0  0
  7 12  1  0  0  0  0
M  END
$$$$
