@<TRIPOS>MOLECULE
default_name
   19    18     1     0     0
SMALL
No Charge or Current Charge


@<TRIPOS>ATOM
      1 N           27.3760    25.5590    24.0060 N.4        1 NCY       0.000000
      2 H1          27.7430    25.0690    23.2000 H          1 NCY       0.000000
      3 H2          26.3710    25.6280    23.9390 H          1 NCY       0.000000
      4 H3          27.6370    25.0200    24.8220 H          1 NCY       0.000000
      5 CA          28.0010    26.9000    24.0920 C.3        1 NCY       0.000000
      6 HA          27.7690    27.4560    23.1820 H          1 NCY       0.000000
      7 CB          27.4500    27.6930    25.2950 C.3        1 NCY       0.000000
      8 HB2         26.3640    27.5910    25.3640 H          1 NCY       0.000000
      9 HB3         27.9030    27.3440    26.2290 H          1 NCY       0.000000
     10 SG          27.8350    29.4460    25.0450 S.3        1 NCY       0.000000
     11 HG          27.3150    29.9360    26.1820 H          1 NCY       0.000000
     12 C           29.5240    26.7230    24.1350 C.2        1 NCY       0.000000
     13 O           29.9560    25.5850    24.2860 O.2        1 NCY       0.000000
     14 N           30.3170    27.7880    23.9790 N.am       2 NME      -0.415700
     15 H           29.8950    28.7060    23.9060 H          2 NME       0.271900
     16 CH3         31.7800    27.7260    23.9830 C.3        2 NME      -0.149000
     17 HH31        32.1280    26.9420    23.3070 H          2 NME       0.097600
     18 HH32        32.2010    28.6810    23.6630 H          2 NME       0.097600
     19 HH33        32.1420    27.5020    24.9890 H          2 NME       0.097600
@<TRIPOS>BOND
     1    12    13 2   
     2    12    14 am  
     3    10    11 1   
     4     7     8 1   
     5     7     9 1   
     6     7    10 1   
     7     5     6 1   
     8     5     7 1   
     9     5    12 1   
    10     1     2 1   
    11     1     3 1   
    12     1     4 1   
    13     1     5 1   
    14    16    17 1   
    15    16    18 1   
    16    16    19 1   
    17    14    15 1   
    18    14    16 1   
@<TRIPOS>SUBSTRUCTURE
     1 NCY         1 TEMP              0 ****  ****    0 ROOT
