@<TRIPOS>MOLECULE
default_name
   25    24     1     0     0
SMALL
No Charge or Current Charge


@<TRIPOS>ATOM
      1 N           27.3930    25.6000    24.0640 N.4        1 NME       0.000000
      2 H1          27.7140    25.0610    24.8600 H          1 NME       0.000000
      3 H2          27.6570    25.0910    23.2310 H          1 NME       0.000000
      4 H3          26.3880    25.7010    24.1030 H          1 NME       0.000000
      5 CA          28.0630    26.9220    24.0850 C.3        1 NME       0.000000
      6 HA          27.8050    27.4700    23.1790 H          1 NME       0.000000
      7 CB          27.5910    27.7380    25.3010 C.3        1 NME       0.000000
      8 HB2         26.5080    27.8510    25.2350 H          1 NME       0.000000
      9 HB3         27.8210    27.1890    26.2160 H          1 NME       0.000000
     10 CG          28.2100    29.1360    25.4030 C.3        1 NME       0.000000
     11 HG2         29.2730    29.0460    25.6320 H          1 NME       0.000000
     12 HG3         28.0970    29.6500    24.4480 H          1 NME       0.000000
     13 SD          27.4340    30.1430    26.6880 S.3        1 NME       0.000000
     14 CE          28.4350    31.6500    26.5730 C.3        1 NME       0.000000
     15 HE1         28.3460    32.0800    25.5750 H          1 NME       0.000000
     16 HE2         28.0810    32.3760    27.3060 H          1 NME       0.000000
     17 HE3         29.4800    31.4170    26.7790 H          1 NME       0.000000
     18 C           29.5710    26.6960    24.0870 C.2        1 NME       0.000000
     19 O           29.9770    25.6270    24.5230 O.2        1 NME       0.000000
     20 N           30.3760    27.6410    23.5870 N.am       2 NME      -0.415700
     21 H           29.9830    28.5030    23.2360 H          2 NME       0.271900
     22 CH3         31.8330    27.5120    23.5400 C.3        2 NME      -0.149000
     23 HH31        32.1160    26.6220    22.9740 H          2 NME       0.097600
     24 HH32        32.2790    28.3880    23.0650 H          2 NME       0.097600
     25 HH33        32.2340    27.4190    24.5530 H          2 NME       0.097600
@<TRIPOS>BOND
     1    18    19 2   
     2    18    20 am  
     3    14    15 1   
     4    14    16 1   
     5    14    17 1   
     6    13    14 1   
     7    10    11 1   
     8    10    12 1   
     9    10    13 1   
    10     7     8 1   
    11     7     9 1   
    12     7    10 1   
    13     5     6 1   
    14     5     7 1   
    15     5    18 1   
    16     1     2 1   
    17     1     3 1   
    18     1     4 1   
    19     1     5 1   
    20    22    23 1   
    21    22    24 1   
    22    22    25 1   
    23    20    21 1   
    24    20    22 1   
@<TRIPOS>SUBSTRUCTURE
     1 NME         1 TEMP              0 ****  ****    0 ROOT
