@<TRIPOS>MOLECULE
default_name
   26    25     1     0     0
SMALL
No Charge or Current Charge


@<TRIPOS>ATOM
      1 H1          25.8970    25.0270    24.4080 H          1 ACE       0.112300
      2 CH3         25.9310    26.0940    24.1970 C.3        1 ACE      -0.366200
      3 H2          25.4150    26.6460    24.9800 H          1 ACE       0.112300
      4 H3          25.4700    26.3000    23.2340 H          1 ACE       0.112300
      5 C           27.3750    26.5410    24.1560 C.2        1 ACE       0.597200
      6 O           28.2670    25.7180    24.3390 O.2        1 ACE      -0.567900
      7 N           27.5730    27.8350    23.9080 N.am       2 CIL      -0.567900
      8 H           26.7700    28.4410    23.7950 H          2 CIL      -0.567900
      9 CA          28.8520    28.5660    23.8830 C.3        2 CIL      -0.567900
     10 HA          29.4660    28.2200    24.7110 H          2 CIL      -0.567900
     11 CB          29.6110    28.2960    22.5610 C.3        2 CIL      -0.567900
     12 HB          29.7380    27.2150    22.4780 H          2 CIL      -0.567900
     13 CG2         28.8210    28.7860    21.3320 C.3        2 CIL      -0.567900
     14 HG21        28.7050    29.8700    21.3780 H          2 CIL      -0.567900
     15 HG22        29.3360    28.5140    20.4130 H          2 CIL      -0.567900
     16 HG23        27.8310    28.3340    21.3210 H          2 CIL      -0.567900
     17 CG1         31.0170    28.9320    22.6080 C.3        2 CIL      -0.567900
     18 HG12        30.9350    30.0160    22.5180 H          2 CIL      -0.567900
     19 HG13        31.4680    28.7100    23.5760 H          2 CIL      -0.567900
     20 CD1         31.9670    28.4110    21.5210 C.3        2 CIL      -0.567900
     21 HD11        31.6120    28.7030    20.5330 H          2 CIL      -0.567900
     22 HD12        32.9570    28.8400    21.6760 H          2 CIL      -0.567900
     23 HD13        32.0370    27.3250    21.5790 H          2 CIL      -0.567900
     24 C           28.5970    30.0550    24.1540 C.2        2 CIL      -0.567900
     25 O           27.4720    30.5040    23.8320 O.co2      2 CIL      -0.567900
     26 OXT         29.5070    30.6940    24.7220 O.co2      2 CIL      -0.567900
@<TRIPOS>BOND
     1     5     6 2   
     2     5     7 am  
     3     2     3 1   
     4     2     4 1   
     5     2     5 1   
     6     1     2 1   
     7    24    25 1   
     8    24    26 1   
     9    20    21 1   
    10    20    22 1   
    11    20    23 1   
    12    17    18 1   
    13    17    19 1   
    14    17    20 1   
    15    13    14 1   
    16    13    15 1   
    17    13    16 1   
    18    11    12 1   
    19    11    13 1   
    20    11    17 1   
    21     9    10 1   
    22     9    11 1   
    23     9    24 1   
    24     7     8 1   
    25     7     9 1   
@<TRIPOS>SUBSTRUCTURE
     1 ACE         1 TEMP              0 ****  ****    0 ROOT
