
  -OEChem-02062319133D

 56 57  0     1  0  0  0  0  0999 V2000
   -2.2945   -0.9999    3.8909 C   0  0  0  0  0  0  0  0  0  0  0  0
   -3.4177   -1.1966    3.4543 O   0  0  0  0  0  0  0  0  0  0  0  0
   -1.9453   -1.4025    5.3111 C   0  0  0  0  0  0  0  0  0  0  0  0
   -2.8365   -1.7666    5.8300 H   0  0  0  0  0  0  0  0  0  0  0  0
   -1.1939   -2.1957    5.2999 H   0  0  0  0  0  0  0  0  0  0  0  0
   -1.5487   -0.5420    5.8554 H   0  0  0  0  0  0  0  0  0  0  0  0
   -1.3373   -0.4161    3.0891 N   0  0  0  0  0  0  0  0  0  0  0  0
   -1.5327   -0.0720    1.6755 C   0  0  2  0  0  0  0  0  0  0  0  0
   -0.2107   -0.1335    0.8834 C   0  0  0  0  0  0  0  0  0  0  0  0
    0.8614   -0.1686    1.4753 O   0  0  0  0  0  0  0  0  0  0  0  0
   -2.1290    1.3379    1.6042 C   0  0  0  0  0  0  0  0  0  0  0  0
   -0.3882   -0.3512    3.4554 H   0  0  0  0  0  0  0  0  0  0  0  0
   -2.2257   -0.7845    1.2146 H   0  0  0  0  0  0  0  0  0  0  0  0
   -1.4430    2.0666    2.0493 H   0  0  0  0  0  0  0  0  0  0  0  0
   -2.3176    1.6243    0.5657 H   0  0  0  0  0  0  0  0  0  0  0  0
   -3.0782    1.3767    2.1481 H   0  0  0  0  0  0  0  0  0  0  0  0
   -0.2215   -0.0728   -0.4990 N   0  0  0  0  0  0  0  0  0  0  0  0
    0.9924   -0.1255   -1.3359 C   0  0  2  0  0  0  0  0  0  0  0  0
    1.9788    1.0203   -1.0455 C   0  0  0  0  0  0  0  0  0  0  0  0
    3.1816    0.8061   -0.9682 O   0  0  0  0  0  0  0  0  0  0  0  0
    0.6048   -0.1028   -2.8262 C   0  0  0  0  0  0  0  0  0  0  0  0
   -0.5598   -1.0177   -3.1203 C   0  0  0  0  0  0  0  0  0  0  0  0
   -1.7686   -0.6225   -3.6425 C   0  0  0  0  0  0  0  0  0  0  0  0
   -0.6305   -2.4568   -2.8867 C   0  0  0  0  0  0  0  0  0  0  0  0
   -2.5856   -1.7471   -3.7112 N   0  0  0  0  0  0  0  0  0  0  0  0
   -1.9069   -2.8658   -3.2569 C   0  0  0  0  0  0  0  0  0  0  0  0
    0.2922   -3.3931   -2.4055 C   0  0  0  0  0  0  0  0  0  0  0  0
   -2.2974   -4.1999   -3.1440 C   0  0  0  0  0  0  0  0  0  0  0  0
   -0.0886   -4.7370   -2.2880 C   0  0  0  0  0  0  0  0  0  0  0  0
   -1.3811   -5.1405   -2.6542 C   0  0  0  0  0  0  0  0  0  0  0  0
   -1.1082   -0.2847   -0.9540 H   0  0  0  0  0  0  0  0  0  0  0  0
    1.5164   -1.0614   -1.1199 H   0  0  0  0  0  0  0  0  0  0  0  0
    1.4664   -0.4068   -3.4300 H   0  0  0  0  0  0  0  0  0  0  0  0
    0.3400    0.9179   -3.1214 H   0  0  0  0  0  0  0  0  0  0  0  0
   -2.0332    0.3912   -3.9366 H   0  0  0  0  0  0  0  0  0  0  0  0
   -3.5367   -1.7655   -4.0764 H   0  0  0  0  0  0  0  0  0  0  0  0
    1.2963   -3.0895   -2.1299 H   0  0  0  0  0  0  0  0  0  0  0  0
   -3.2970   -4.5045   -3.4336 H   0  0  0  0  0  0  0  0  0  0  0  0
    0.6222   -5.4683   -1.9147 H   0  0  0  0  0  0  0  0  0  0  0  0
   -1.6702   -6.1834   -2.5619 H   0  0  0  0  0  0  0  0  0  0  0  0
    1.5092    2.3139   -0.9075 N   0  0  0  0  0  0  0  0  0  0  0  0
    2.3368    3.4083   -0.3816 C   0  0  2  0  0  0  0  0  0  0  0  0
    2.5022    3.2985    1.1532 C   0  0  0  0  0  0  0  0  0  0  0  0
    1.9757    4.1034    1.9135 O   0  0  0  0  0  0  0  0  0  0  0  0
    1.6923    4.7276   -0.8236 C   0  0  0  0  0  0  0  0  0  0  0  0
    0.5029    2.3963   -0.7992 H   0  0  0  0  0  0  0  0  0  0  0  0
    3.3390    3.3630   -0.8216 H   0  0  0  0  0  0  0  0  0  0  0  0
    0.6802    4.8195   -0.4166 H   0  0  0  0  0  0  0  0  0  0  0  0
    2.2857    5.5763   -0.4691 H   0  0  0  0  0  0  0  0  0  0  0  0
    1.6375    4.7768   -1.9151 H   0  0  0  0  0  0  0  0  0  0  0  0
    3.1946    2.2236    1.6735 N   0  0  0  0  0  0  0  0  0  0  0  0
    3.1841    1.8780    3.0874 C   0  0  0  0  0  0  0  0  0  0  0  0
    3.4420    1.4954    0.9991 H   0  0  0  0  0  0  0  0  0  0  0  0
    3.5817    2.7023    3.6885 H   0  0  0  0  0  0  0  0  0  0  0  0
    2.1640    1.6571    3.4180 H   0  0  0  0  0  0  0  0  0  0  0  0
    3.8038    0.9933    3.2614 H   0  0  0  0  0  0  0  0  0  0  0  0
  1  2  2  0  0  0  0
  1  3  1  0  0  0  0
  1  7  1  0  0  0  0
  3  4  1  0  0  0  0
  3  5  1  0  0  0  0
  3  6  1  0  0  0  0
  7  8  1  0  0  0  0
  7 12  1  0  0  0  0
  8  9  1  0  0  0  0
  8 11  1  0  0  0  0
  8 13  1  0  0  0  0
  9 10  2  0  0  0  0
  9 17  1  0  0  0  0
 11 14  1  0  0  0  0
 11 15  1  0  0  0  0
 11 16  1  0  0  0  0
 17 18  1  0  0  0  0
 17 31  1  0  0  0  0
 18 19  1  0  0  0  0
 18 21  1  0  0  0  0
 18 32  1  0  0  0  0
 19 20  2  0  0  0  0
 19 41  1  0  0  0  0
 21 22  1  0  0  0  0
 21 33  1  0  0  0  0
 21 34  1  0  0  0  0
 22 23  2  0  0  0  0
 22 24  1  0  0  0  0
 23 25  1  0  0  0  0
 23 35  1  0  0  0  0
 24 26  2  0  0  0  0
 24 27  1  0  0  0  0
 25 26  1  0  0  0  0
 25 36  1  0  0  0  0
 26 28  1  0  0  0  0
 27 29  2  0  0  0  0
 27 37  1  0  0  0  0
 28 30  2  0  0  0  0
 28 38  1  0  0  0  0
 29 30  1  0  0  0  0
 29 39  1  0  0  0  0
 30 40  1  0  0  0  0
 41 42  1  0  0  0  0
 41 46  1  0  0  0  0
 42 43  1  0  0  0  0
 42 45  1  0  0  0  0
 42 47  1  0  0  0  0
 43 44  2  0  0  0  0
 43 51  1  0  0  0  0
 45 48  1  0  0  0  0
 45 49  1  0  0  0  0
 45 50  1  0  0  0  0
 51 52  1  0  0  0  0
 51 53  1  0  0  0  0
 52 54  1  0  0  0  0
 52 55  1  0  0  0  0
 52 56  1  0  0  0  0
M  END
$$$$

  -OEChem-02062319133D

 56 57  0     1  0  0  0  0  0999 V2000
   -2.5686   -1.1110    3.8225 C   0  0  0  0  0  0  0  0  0  0  0  0
   -3.6865   -1.2633    3.3557 O   0  0  0  0  0  0  0  0  0  0  0  0
   -2.2584   -1.5790    5.2319 C   0  0  0  0  0  0  0  0  0  0  0  0
   -3.1580   -1.9886    5.7000 H   0  0  0  0  0  0  0  0  0  0  0  0
   -1.4891   -2.3549    5.2072 H   0  0  0  0  0  0  0  0  0  0  0  0
   -1.9001   -0.7395    5.8328 H   0  0  0  0  0  0  0  0  0  0  0  0
   -1.5817   -0.5160    3.0663 N   0  0  0  0  0  0  0  0  0  0  0  0
   -1.7250   -0.1561    1.6502 C   0  0  2  0  0  0  0  0  0  0  0  0
   -0.3749   -0.2281    0.9074 C   0  0  0  0  0  0  0  0  0  0  0  0
    0.6635   -0.4058    1.5330 O   0  0  0  0  0  0  0  0  0  0  0  0
   -2.3089    1.2582    1.5668 C   0  0  0  0  0  0  0  0  0  0  0  0
   -0.6355   -0.5170    3.4465 H   0  0  0  0  0  0  0  0  0  0  0  0
   -2.4070   -0.8589    1.1588 H   0  0  0  0  0  0  0  0  0  0  0  0
   -1.6350    1.9789    2.0414 H   0  0  0  0  0  0  0  0  0  0  0  0
   -2.4589    1.5534    0.5241 H   0  0  0  0  0  0  0  0  0  0  0  0
   -3.2767    1.2986    2.0770 H   0  0  0  0  0  0  0  0  0  0  0  0
   -0.3323   -0.1354   -0.4725 N   0  0  0  0  0  0  0  0  0  0  0  0
    0.8472   -0.5071   -1.2781 C   0  0  2  0  0  0  0  0  0  0  0  0
    2.1149    0.3011   -0.9456 C   0  0  0  0  0  0  0  0  0  0  0  0
    3.2059   -0.2516   -0.8912 O   0  0  0  0  0  0  0  0  0  0  0  0
    0.5229   -0.3556   -2.7750 C   0  0  0  0  0  0  0  0  0  0  0  0
   -0.8289   -0.9368   -3.1136 C   0  0  0  0  0  0  0  0  0  0  0  0
   -1.8927   -0.2337   -3.6279 C   0  0  0  0  0  0  0  0  0  0  0  0
   -1.2619   -2.3180   -2.9282 C   0  0  0  0  0  0  0  0  0  0  0  0
   -2.9653   -1.1140   -3.7363 N   0  0  0  0  0  0  0  0  0  0  0  0
   -2.5958   -2.3809   -3.3156 C   0  0  0  0  0  0  0  0  0  0  0  0
   -0.6090   -3.4706   -2.4756 C   0  0  0  0  0  0  0  0  0  0  0  0
   -3.3113   -3.5759   -3.2455 C   0  0  0  0  0  0  0  0  0  0  0  0
   -1.3180   -4.6775   -2.4000 C   0  0  0  0  0  0  0  0  0  0  0  0
   -2.6674   -4.7304   -2.7801 C   0  0  0  0  0  0  0  0  0  0  0  0
   -1.2344   -0.2057   -0.9418 H   0  0  0  0  0  0  0  0  0  0  0  0
    1.0806   -1.5561   -1.0720 H   0  0  0  0  0  0  0  0  0  0  0  0
    1.2947   -0.8591   -3.3665 H   0  0  0  0  0  0  0  0  0  0  0  0
    0.5366    0.7044   -3.0491 H   0  0  0  0  0  0  0  0  0  0  0  0
   -1.8906    0.8235   -3.8869 H   0  0  0  0  0  0  0  0  0  0  0  0
   -3.8858   -0.8808   -4.1060 H   0  0  0  0  0  0  0  0  0  0  0  0
    0.4373   -3.4386   -2.1911 H   0  0  0  0  0  0  0  0  0  0  0  0
   -4.3520   -3.6112   -3.5484 H   0  0  0  0  0  0  0  0  0  0  0  0
   -0.8191   -5.5760   -2.0486 H   0  0  0  0  0  0  0  0  0  0  0  0
   -3.2118   -5.6683   -2.7178 H   0  0  0  0  0  0  0  0  0  0  0  0
    2.0411    1.6727   -0.7865 N   0  0  0  0  0  0  0  0  0  0  0  0
    3.1674    2.4861   -0.3055 C   0  0  2  0  0  0  0  0  0  0  0  0
    3.3742    2.3363    1.2217 C   0  0  0  0  0  0  0  0  0  0  0  0
    3.2245    3.2836    1.9853 O   0  0  0  0  0  0  0  0  0  0  0  0
    2.9028    3.9337   -0.7359 C   0  0  0  0  0  0  0  0  0  0  0  0
    1.1041    2.0424   -0.6566 H   0  0  0  0  0  0  0  0  0  0  0  0
    4.0935    2.1585   -0.7899 H   0  0  0  0  0  0  0  0  0  0  0  0
    1.9841    4.3113   -0.2757 H   0  0  0  0  0  0  0  0  0  0  0  0
    3.7332    4.5773   -0.4287 H   0  0  0  0  0  0  0  0  0  0  0  0
    2.8020    3.9954   -1.8236 H   0  0  0  0  0  0  0  0  0  0  0  0
    3.6898    1.0945    1.7355 N   0  0  0  0  0  0  0  0  0  0  0  0
    3.6825    0.7907    3.1589 C   0  0  0  0  0  0  0  0  0  0  0  0
    3.6489    0.3194    1.0695 H   0  0  0  0  0  0  0  0  0  0  0  0
    4.4031    1.4211    3.6899 H   0  0  0  0  0  0  0  0  0  0  0  0
    2.6858    0.9592    3.5794 H   0  0  0  0  0  0  0  0  0  0  0  0
    3.9546   -0.2566    3.3210 H   0  0  0  0  0  0  0  0  0  0  0  0
  1  2  2  0  0  0  0
  1  3  1  0  0  0  0
  1  7  1  0  0  0  0
  3  4  1  0  0  0  0
  3  5  1  0  0  0  0
  3  6  1  0  0  0  0
  7  8  1  0  0  0  0
  7 12  1  0  0  0  0
  8  9  1  0  0  0  0
  8 11  1  0  0  0  0
  8 13  1  0  0  0  0
  9 10  2  0  0  0  0
  9 17  1  0  0  0  0
 11 14  1  0  0  0  0
 11 15  1  0  0  0  0
 11 16  1  0  0  0  0
 17 18  1  0  0  0  0
 17 31  1  0  0  0  0
 18 19  1  0  0  0  0
 18 21  1  0  0  0  0
 18 32  1  0  0  0  0
 19 20  2  0  0  0  0
 19 41  1  0  0  0  0
 21 22  1  0  0  0  0
 21 33  1  0  0  0  0
 21 34  1  0  0  0  0
 22 23  2  0  0  0  0
 22 24  1  0  0  0  0
 23 25  1  0  0  0  0
 23 35  1  0  0  0  0
 24 26  2  0  0  0  0
 24 27  1  0  0  0  0
 25 26  1  0  0  0  0
 25 36  1  0  0  0  0
 26 28  1  0  0  0  0
 27 29  2  0  0  0  0
 27 37  1  0  0  0  0
 28 30  2  0  0  0  0
 28 38  1  0  0  0  0
 29 30  1  0  0  0  0
 29 39  1  0  0  0  0
 30 40  1  0  0  0  0
 41 42  1  0  0  0  0
 41 46  1  0  0  0  0
 42 43  1  0  0  0  0
 42 45  1  0  0  0  0
 42 47  1  0  0  0  0
 43 44  2  0  0  0  0
 43 51  1  0  0  0  0
 45 48  1  0  0  0  0
 45 49  1  0  0  0  0
 45 50  1  0  0  0  0
 51 52  1  0  0  0  0
 51 53  1  0  0  0  0
 52 54  1  0  0  0  0
 52 55  1  0  0  0  0
 52 56  1  0  0  0  0
M  END
$$$$

  -OEChem-02062319133D

 56 57  0     1  0  0  0  0  0999 V2000
   -2.8443   -1.0968    3.7254 C   0  0  0  0  0  0  0  0  0  0  0  0
   -3.9531   -1.1704    3.2195 O   0  0  0  0  0  0  0  0  0  0  0  0
   -2.6120   -1.6110    5.1336 C   0  0  0  0  0  0  0  0  0  0  0  0
   -3.5325   -2.0459    5.5325 H   0  0  0  0  0  0  0  0  0  0  0  0
   -1.8335   -2.3778    5.1283 H   0  0  0  0  0  0  0  0  0  0  0  0
   -2.3001   -0.7896    5.7830 H   0  0  0  0  0  0  0  0  0  0  0  0
   -1.7973   -0.5486    3.0160 N   0  0  0  0  0  0  0  0  0  0  0  0
   -1.8690   -0.1604    1.6016 C   0  0  2  0  0  0  0  0  0  0  0  0
   -0.4923   -0.2629    0.9122 C   0  0  0  0  0  0  0  0  0  0  0  0
    0.4984   -0.5704    1.5639 O   0  0  0  0  0  0  0  0  0  0  0  0
   -2.4035    1.2734    1.5169 C   0  0  0  0  0  0  0  0  0  0  0  0
   -0.8657   -0.6283    3.4232 H   0  0  0  0  0  0  0  0  0  0  0  0
   -2.5523   -0.8327    1.0706 H   0  0  0  0  0  0  0  0  0  0  0  0
   -1.7248    1.9658    2.0253 H   0  0  0  0  0  0  0  0  0  0  0  0
   -2.5060    1.5864    0.4737 H   0  0  0  0  0  0  0  0  0  0  0  0
   -3.3873    1.3400    1.9924 H   0  0  0  0  0  0  0  0  0  0  0  0
   -0.4021   -0.1756   -0.4658 N   0  0  0  0  0  0  0  0  0  0  0  0
    0.6467   -0.8553   -1.2521 C   0  0  2  0  0  0  0  0  0  0  0  0
    2.0854   -0.4363   -0.8958 C   0  0  0  0  0  0  0  0  0  0  0  0
    2.9799   -1.2715   -0.8507 O   0  0  0  0  0  0  0  0  0  0  0  0
    0.3974   -0.6196   -2.7528 C   0  0  0  0  0  0  0  0  0  0  0  0
   -1.0579   -0.8112   -3.1076 C   0  0  0  0  0  0  0  0  0  0  0  0
   -1.8873    0.1577   -3.6205 C   0  0  0  0  0  0  0  0  0  0  0  0
   -1.8515   -2.0231   -2.9326 C   0  0  0  0  0  0  0  0  0  0  0  0
   -3.1589   -0.3965   -3.7373 N   0  0  0  0  0  0  0  0  0  0  0  0
   -3.1506   -1.7184   -3.3235 C   0  0  0  0  0  0  0  0  0  0  0  0
   -1.5381   -3.3121   -2.4858 C   0  0  0  0  0  0  0  0  0  0  0  0
   -4.1642   -2.6745   -3.2622 C   0  0  0  0  0  0  0  0  0  0  0  0
   -2.5484   -4.2813   -2.4195 C   0  0  0  0  0  0  0  0  0  0  0  0
   -3.8596   -3.9635   -2.8036 C   0  0  0  0  0  0  0  0  0  0  0  0
   -1.3002   -0.0842   -0.9400 H   0  0  0  0  0  0  0  0  0  0  0  0
    0.5772   -1.9281   -1.0492 H   0  0  0  0  0  0  0  0  0  0  0  0
    1.0105   -1.3131   -3.3380 H   0  0  0  0  0  0  0  0  0  0  0  0
    0.7020    0.3973   -3.0206 H   0  0  0  0  0  0  0  0  0  0  0  0
   -1.5962    1.1763   -3.8700 H   0  0  0  0  0  0  0  0  0  0  0  0
   -3.9798    0.0808   -4.1072 H   0  0  0  0  0  0  0  0  0  0  0  0
   -0.5236   -3.5676   -2.1991 H   0  0  0  0  0  0  0  0  0  0  0  0
   -5.1745   -2.4235   -3.5664 H   0  0  0  0  0  0  0  0  0  0  0  0
   -2.3136   -5.2831   -2.0718 H   0  0  0  0  0  0  0  0  0  0  0  0
   -4.6381   -4.7190   -2.7494 H   0  0  0  0  0  0  0  0  0  0  0  0
    2.3950    0.9007   -0.7277 N   0  0  0  0  0  0  0  0  0  0  0  0
    3.7054    1.3702   -0.2550 C   0  0  2  0  0  0  0  0  0  0  0  0
    3.8913    1.1356    1.2647 C   0  0  0  0  0  0  0  0  0  0  0  0
    4.0014    2.0712    2.0496 O   0  0  0  0  0  0  0  0  0  0  0  0
    3.8299    2.8464   -0.6520 C   0  0  0  0  0  0  0  0  0  0  0  0
    1.5956    1.5084   -0.5740 H   0  0  0  0  0  0  0  0  0  0  0  0
    4.5014    0.8190   -0.7668 H   0  0  0  0  0  0  0  0  0  0  0  0
    3.0553    3.4439   -0.1606 H   0  0  0  0  0  0  0  0  0  0  0  0
    4.8084    3.2372   -0.3551 H   0  0  0  0  0  0  0  0  0  0  0  0
    3.7267    2.9605   -1.7353 H   0  0  0  0  0  0  0  0  0  0  0  0
    3.8968   -0.1584    1.7463 N   0  0  0  0  0  0  0  0  0  0  0  0
    3.8136   -0.4828    3.1626 C   0  0  0  0  0  0  0  0  0  0  0  0
    3.6448   -0.8789    1.0654 H   0  0  0  0  0  0  0  0  0  0  0  0
    2.8689   -0.1201    3.5803 H   0  0  0  0  0  0  0  0  0  0  0  0
    3.8622   -1.5666    3.3032 H   0  0  0  0  0  0  0  0  0  0  0  0
    4.6432   -0.0264    3.7121 H   0  0  0  0  0  0  0  0  0  0  0  0
  1  2  2  0  0  0  0
  1  3  1  0  0  0  0
  1  7  1  0  0  0  0
  3  4  1  0  0  0  0
  3  5  1  0  0  0  0
  3  6  1  0  0  0  0
  7  8  1  0  0  0  0
  7 12  1  0  0  0  0
  8  9  1  0  0  0  0
  8 11  1  0  0  0  0
  8 13  1  0  0  0  0
  9 10  2  0  0  0  0
  9 17  1  0  0  0  0
 11 14  1  0  0  0  0
 11 15  1  0  0  0  0
 11 16  1  0  0  0  0
 17 18  1  0  0  0  0
 17 31  1  0  0  0  0
 18 19  1  0  0  0  0
 18 21  1  0  0  0  0
 18 32  1  0  0  0  0
 19 20  2  0  0  0  0
 19 41  1  0  0  0  0
 21 22  1  0  0  0  0
 21 33  1  0  0  0  0
 21 34  1  0  0  0  0
 22 23  2  0  0  0  0
 22 24  1  0  0  0  0
 23 25  1  0  0  0  0
 23 35  1  0  0  0  0
 24 26  2  0  0  0  0
 24 27  1  0  0  0  0
 25 26  1  0  0  0  0
 25 36  1  0  0  0  0
 26 28  1  0  0  0  0
 27 29  2  0  0  0  0
 27 37  1  0  0  0  0
 28 30  2  0  0  0  0
 28 38  1  0  0  0  0
 29 30  1  0  0  0  0
 29 39  1  0  0  0  0
 30 40  1  0  0  0  0
 41 42  1  0  0  0  0
 41 46  1  0  0  0  0
 42 43  1  0  0  0  0
 42 45  1  0  0  0  0
 42 47  1  0  0  0  0
 43 44  2  0  0  0  0
 43 51  1  0  0  0  0
 45 48  1  0  0  0  0
 45 49  1  0  0  0  0
 45 50  1  0  0  0  0
 51 52  1  0  0  0  0
 51 53  1  0  0  0  0
 52 54  1  0  0  0  0
 52 55  1  0  0  0  0
 52 56  1  0  0  0  0
M  END
$$$$

  -OEChem-02062319133D

 56 57  0     1  0  0  0  0  0999 V2000
   -3.1006   -1.0856    3.6439 C   0  0  0  0  0  0  0  0  0  0  0  0
   -4.1894   -1.1559    3.0962 O   0  0  0  0  0  0  0  0  0  0  0  0
   -2.9172   -1.6251    5.0496 C   0  0  0  0  0  0  0  0  0  0  0  0
   -3.8638   -2.0203    5.4285 H   0  0  0  0  0  0  0  0  0  0  0  0
   -2.1760   -2.4279    5.0468 H   0  0  0  0  0  0  0  0  0  0  0  0
   -2.5774   -0.8269    5.7140 H   0  0  0  0  0  0  0  0  0  0  0  0
   -2.0286   -0.5266    2.9815 N   0  0  0  0  0  0  0  0  0  0  0  0
   -2.0437   -0.1451    1.5635 C   0  0  2  0  0  0  0  0  0  0  0  0
   -0.6415   -0.2582    0.9283 C   0  0  0  0  0  0  0  0  0  0  0  0
    0.3052   -0.6415    1.6044 O   0  0  0  0  0  0  0  0  0  0  0  0
   -2.5747    1.2875    1.4469 C   0  0  0  0  0  0  0  0  0  0  0  0
   -1.1121   -0.6238    3.4179 H   0  0  0  0  0  0  0  0  0  0  0  0
   -2.7058   -0.8202    1.0091 H   0  0  0  0  0  0  0  0  0  0  0  0
   -1.9194    1.9839    1.9799 H   0  0  0  0  0  0  0  0  0  0  0  0
   -2.6322    1.5930    0.3979 H   0  0  0  0  0  0  0  0  0  0  0  0
   -3.5785    1.3559    1.8783 H   0  0  0  0  0  0  0  0  0  0  0  0
   -0.5043   -0.1782   -0.4456 N   0  0  0  0  0  0  0  0  0  0  0  0
    0.3509   -1.1060   -1.2126 C   0  0  2  0  0  0  0  0  0  0  0  0
    1.8435   -1.0979   -0.8322 C   0  0  0  0  0  0  0  0  0  0  0  0
    2.4755   -2.1466   -0.8120 O   0  0  0  0  0  0  0  0  0  0  0  0
    0.2013   -0.8098   -2.7155 C   0  0  0  0  0  0  0  0  0  0  0  0
   -1.2474   -0.6203   -3.0976 C   0  0  0  0  0  0  0  0  0  0  0  0
   -1.7914    0.5317   -3.6140 C   0  0  0  0  0  0  0  0  0  0  0  0
   -2.3276   -1.5899   -2.9489 C   0  0  0  0  0  0  0  0  0  0  0  0
   -3.1595    0.3211   -3.7611 N   0  0  0  0  0  0  0  0  0  0  0  0
   -3.4974   -0.9612   -3.3609 C   0  0  0  0  0  0  0  0  0  0  0  0
   -2.3635   -2.9182   -2.5088 C   0  0  0  0  0  0  0  0  0  0  0  0
   -4.7227   -1.6265   -3.3284 C   0  0  0  0  0  0  0  0  0  0  0  0
   -3.5893   -3.5964   -2.4700 C   0  0  0  0  0  0  0  0  0  0  0  0
   -4.7674   -2.9521   -2.8755 C   0  0  0  0  0  0  0  0  0  0  0  0
   -1.3709    0.0669   -0.9238 H   0  0  0  0  0  0  0  0  0  0  0  0
   -0.0055   -2.1222   -1.0201 H   0  0  0  0  0  0  0  0  0  0  0  0
    0.6265   -1.6355   -3.2958 H   0  0  0  0  0  0  0  0  0  0  0  0
    0.7623    0.0956   -2.9686 H   0  0  0  0  0  0  0  0  0  0  0  0
   -1.2446    1.4436   -3.8461 H   0  0  0  0  0  0  0  0  0  0  0  0
   -3.8224    0.9924   -4.1467 H   0  0  0  0  0  0  0  0  0  0  0  0
   -1.4538   -3.4265   -2.2073 H   0  0  0  0  0  0  0  0  0  0  0  0
   -5.6285   -1.1244   -3.6502 H   0  0  0  0  0  0  0  0  0  0  0  0
   -3.6258   -4.6265   -2.1279 H   0  0  0  0  0  0  0  0  0  0  0  0
   -5.7140   -3.4835   -2.8422 H   0  0  0  0  0  0  0  0  0  0  0  0
    2.5096    0.0987   -0.6442 N   0  0  0  0  0  0  0  0  0  0  0  0
    3.9162    0.1816   -0.2220 C   0  0  2  0  0  0  0  0  0  0  0  0
    4.0946   -0.1238    1.2858 C   0  0  0  0  0  0  0  0  0  0  0  0
    4.5390    0.7139    2.0631 O   0  0  0  0  0  0  0  0  0  0  0  0
    4.4297    1.5719   -0.6161 C   0  0  0  0  0  0  0  0  0  0  0  0
    1.9099    0.8951   -0.4466 H   0  0  0  0  0  0  0  0  0  0  0  0
    4.5078   -0.5591   -0.7706 H   0  0  0  0  0  0  0  0  0  0  0  0
    3.8743    2.3521   -0.0859 H   0  0  0  0  0  0  0  0  0  0  0  0
    5.4903    1.6696   -0.3628 H   0  0  0  0  0  0  0  0  0  0  0  0
    4.3161    1.7296   -1.6929 H   0  0  0  0  0  0  0  0  0  0  0  0
    3.7299   -1.3664    1.7644 N   0  0  0  0  0  0  0  0  0  0  0  0
    3.6532   -1.6888    3.1815 C   0  0  0  0  0  0  0  0  0  0  0  0
    3.2511   -1.9728    1.0944 H   0  0  0  0  0  0  0  0  0  0  0  0
    2.9001   -1.0646    3.6735 H   0  0  0  0  0  0  0  0  0  0  0  0
    3.3753   -2.7388    3.3132 H   0  0  0  0  0  0  0  0  0  0  0  0
    4.6212   -1.5252    3.6665 H   0  0  0  0  0  0  0  0  0  0  0  0
  1  2  2  0  0  0  0
  1  3  1  0  0  0  0
  1  7  1  0  0  0  0
  3  4  1  0  0  0  0
  3  5  1  0  0  0  0
  3  6  1  0  0  0  0
  7  8  1  0  0  0  0
  7 12  1  0  0  0  0
  8  9  1  0  0  0  0
  8 11  1  0  0  0  0
  8 13  1  0  0  0  0
  9 10  2  0  0  0  0
  9 17  1  0  0  0  0
 11 14  1  0  0  0  0
 11 15  1  0  0  0  0
 11 16  1  0  0  0  0
 17 18  1  0  0  0  0
 17 31  1  0  0  0  0
 18 19  1  0  0  0  0
 18 21  1  0  0  0  0
 18 32  1  0  0  0  0
 19 20  2  0  0  0  0
 19 41  1  0  0  0  0
 21 22  1  0  0  0  0
 21 33  1  0  0  0  0
 21 34  1  0  0  0  0
 22 23  2  0  0  0  0
 22 24  1  0  0  0  0
 23 25  1  0  0  0  0
 23 35  1  0  0  0  0
 24 26  2  0  0  0  0
 24 27  1  0  0  0  0
 25 26  1  0  0  0  0
 25 36  1  0  0  0  0
 26 28  1  0  0  0  0
 27 29  2  0  0  0  0
 27 37  1  0  0  0  0
 28 30  2  0  0  0  0
 28 38  1  0  0  0  0
 29 30  1  0  0  0  0
 29 39  1  0  0  0  0
 30 40  1  0  0  0  0
 41 42  1  0  0  0  0
 41 46  1  0  0  0  0
 42 43  1  0  0  0  0
 42 45  1  0  0  0  0
 42 47  1  0  0  0  0
 43 44  2  0  0  0  0
 43 51  1  0  0  0  0
 45 48  1  0  0  0  0
 45 49  1  0  0  0  0
 45 50  1  0  0  0  0
 51 52  1  0  0  0  0
 51 53  1  0  0  0  0
 52 54  1  0  0  0  0
 52 55  1  0  0  0  0
 52 56  1  0  0  0  0
M  END
$$$$

  -OEChem-02062319133D

 56 57  0     1  0  0  0  0  0999 V2000
   -2.3326   -1.4193    3.4327 C   0  0  0  0  0  0  0  0  0  0  0  0
   -2.6292   -2.2622    2.6010 O   0  0  0  0  0  0  0  0  0  0  0  0
   -2.0029   -1.8344    4.8539 C   0  0  0  0  0  0  0  0  0  0  0  0
   -2.2200   -2.8968    4.9961 H   0  0  0  0  0  0  0  0  0  0  0  0
   -0.9428   -1.6610    5.0555 H   0  0  0  0  0  0  0  0  0  0  0  0
   -2.6013   -1.2557    5.5617 H   0  0  0  0  0  0  0  0  0  0  0  0
   -2.2440   -0.0916    3.0682 N   0  0  0  0  0  0  0  0  0  0  0  0
   -2.2585    0.3302    1.6605 C   0  0  2  0  0  0  0  0  0  0  0  0
   -0.8866    0.1086    0.9924 C   0  0  0  0  0  0  0  0  0  0  0  0
    0.1372    0.3995    1.5974 O   0  0  0  0  0  0  0  0  0  0  0  0
   -2.6665    1.8049    1.6138 C   0  0  0  0  0  0  0  0  0  0  0  0
   -1.7640    0.5125    3.7293 H   0  0  0  0  0  0  0  0  0  0  0  0
   -3.0014   -0.2503    1.1016 H   0  0  0  0  0  0  0  0  0  0  0  0
   -1.9352    2.4247    2.1424 H   0  0  0  0  0  0  0  0  0  0  0  0
   -2.7305    2.1484    0.5765 H   0  0  0  0  0  0  0  0  0  0  0  0
   -3.6458    1.9416    2.0828 H   0  0  0  0  0  0  0  0  0  0  0  0
   -0.7319    0.2129   -0.3676 N   0  0  0  0  0  0  0  0  0  0  0  0
   -0.2565   -0.9843   -1.0844 C   0  0  2  0  0  0  0  0  0  0  0  0
    1.1244   -1.5021   -0.6334 C   0  0  0  0  0  0  0  0  0  0  0  0
    1.3339   -2.7081   -0.6204 O   0  0  0  0  0  0  0  0  0  0  0  0
   -0.2243   -0.7102   -2.5963 C   0  0  0  0  0  0  0  0  0  0  0  0
   -1.5864   -0.3266   -3.1174 C   0  0  0  0  0  0  0  0  0  0  0  0
   -1.9337    0.8939   -3.6456 C   0  0  0  0  0  0  0  0  0  0  0  0
   -2.7685   -1.1799   -3.1718 C   0  0  0  0  0  0  0  0  0  0  0  0
   -3.2783    0.8327   -4.0032 N   0  0  0  0  0  0  0  0  0  0  0  0
   -3.7960   -0.4208   -3.7211 C   0  0  0  0  0  0  0  0  0  0  0  0
   -2.9990   -2.5098   -2.8014 C   0  0  0  0  0  0  0  0  0  0  0  0
   -5.0697   -0.9592   -3.9047 C   0  0  0  0  0  0  0  0  0  0  0  0
   -4.2758   -3.0610   -2.9793 C   0  0  0  0  0  0  0  0  0  0  0  0
   -5.3098   -2.2882   -3.5289 C   0  0  0  0  0  0  0  0  0  0  0  0
   -0.1878    1.0401   -0.5905 H   0  0  0  0  0  0  0  0  0  0  0  0
   -0.9670   -1.7958   -0.8962 H   0  0  0  0  0  0  0  0  0  0  0  0
    0.1154   -1.6078   -3.1243 H   0  0  0  0  0  0  0  0  0  0  0  0
    0.4917    0.0896   -2.8100 H   0  0  0  0  0  0  0  0  0  0  0  0
   -1.2697    1.7478   -3.7583 H   0  0  0  0  0  0  0  0  0  0  0  0
   -3.8094    1.5869   -4.4335 H   0  0  0  0  0  0  0  0  0  0  0  0
   -2.1991   -3.1124   -2.3830 H   0  0  0  0  0  0  0  0  0  0  0  0
   -5.8628   -0.3571   -4.3339 H   0  0  0  0  0  0  0  0  0  0  0  0
   -4.4630   -4.0908   -2.6904 H   0  0  0  0  0  0  0  0  0  0  0  0
   -6.2960   -2.7220   -3.6652 H   0  0  0  0  0  0  0  0  0  0  0  0
    2.1827   -0.6353   -0.4277 N   0  0  0  0  0  0  0  0  0  0  0  0
    3.5208   -1.0938   -0.0204 C   0  0  2  0  0  0  0  0  0  0  0  0
    3.5790   -1.5198    1.4690 C   0  0  0  0  0  0  0  0  0  0  0  0
    4.3243   -0.9661    2.2693 O   0  0  0  0  0  0  0  0  0  0  0  0
    4.5023    0.0356   -0.3556 C   0  0  0  0  0  0  0  0  0  0  0  0
    1.9052    0.2901   -0.1067 H   0  0  0  0  0  0  0  0  0  0  0  0
    3.8052   -1.9693   -0.6140 H   0  0  0  0  0  0  0  0  0  0  0  0
    4.2646    0.9357    0.2202 H   0  0  0  0  0  0  0  0  0  0  0  0
    5.5258   -0.2687   -0.1151 H   0  0  0  0  0  0  0  0  0  0  0  0
    4.4545    0.2779   -1.4215 H   0  0  0  0  0  0  0  0  0  0  0  0
    2.7815   -2.5600    1.9038 N   0  0  0  0  0  0  0  0  0  0  0  0
    2.6793   -2.9837    3.2925 C   0  0  0  0  0  0  0  0  0  0  0  0
    2.1425   -2.9566    1.2102 H   0  0  0  0  0  0  0  0  0  0  0  0
    3.6574   -3.2994    3.6698 H   0  0  0  0  0  0  0  0  0  0  0  0
    2.3070   -2.1639    3.9155 H   0  0  0  0  0  0  0  0  0  0  0  0
    1.9874   -3.8270    3.3781 H   0  0  0  0  0  0  0  0  0  0  0  0
  1  2  2  0  0  0  0
  1  3  1  0  0  0  0
  1  7  1  0  0  0  0
  3  4  1  0  0  0  0
  3  5  1  0  0  0  0
  3  6  1  0  0  0  0
  7  8  1  0  0  0  0
  7 12  1  0  0  0  0
  8  9  1  0  0  0  0
  8 11  1  0  0  0  0
  8 13  1  0  0  0  0
  9 10  2  0  0  0  0
  9 17  1  0  0  0  0
 11 14  1  0  0  0  0
 11 15  1  0  0  0  0
 11 16  1  0  0  0  0
 17 18  1  0  0  0  0
 17 31  1  0  0  0  0
 18 19  1  0  0  0  0
 18 21  1  0  0  0  0
 18 32  1  0  0  0  0
 19 20  2  0  0  0  0
 19 41  1  0  0  0  0
 21 22  1  0  0  0  0
 21 33  1  0  0  0  0
 21 34  1  0  0  0  0
 22 23  2  0  0  0  0
 22 24  1  0  0  0  0
 23 25  1  0  0  0  0
 23 35  1  0  0  0  0
 24 26  2  0  0  0  0
 24 27  1  0  0  0  0
 25 26  1  0  0  0  0
 25 36  1  0  0  0  0
 26 28  1  0  0  0  0
 27 29  2  0  0  0  0
 27 37  1  0  0  0  0
 28 30  2  0  0  0  0
 28 38  1  0  0  0  0
 29 30  1  0  0  0  0
 29 39  1  0  0  0  0
 30 40  1  0  0  0  0
 41 42  1  0  0  0  0
 41 46  1  0  0  0  0
 42 43  1  0  0  0  0
 42 45  1  0  0  0  0
 42 47  1  0  0  0  0
 43 44  2  0  0  0  0
 43 51  1  0  0  0  0
 45 48  1  0  0  0  0
 45 49  1  0  0  0  0
 45 50  1  0  0  0  0
 51 52  1  0  0  0  0
 51 53  1  0  0  0  0
 52 54  1  0  0  0  0
 52 55  1  0  0  0  0
 52 56  1  0  0  0  0
M  END
$$$$

  -OEChem-02062319133D

 56 57  0     1  0  0  0  0  0999 V2000
   -2.2121   -1.5845    3.2034 C   0  0  0  0  0  0  0  0  0  0  0  0
   -2.3555   -2.3540    2.2659 O   0  0  0  0  0  0  0  0  0  0  0  0
   -1.9228   -2.1196    4.5930 C   0  0  0  0  0  0  0  0  0  0  0  0
   -1.8842   -3.2124    4.5751 H   0  0  0  0  0  0  0  0  0  0  0  0
   -0.9612   -1.7390    4.9464 H   0  0  0  0  0  0  0  0  0  0  0  0
   -2.7081   -1.8062    5.2847 H   0  0  0  0  0  0  0  0  0  0  0  0
   -2.2552   -0.2224    2.9850 N   0  0  0  0  0  0  0  0  0  0  0  0
   -2.2323    0.3379    1.6268 C   0  0  2  0  0  0  0  0  0  0  0  0
   -0.8628    0.1114    0.9550 C   0  0  0  0  0  0  0  0  0  0  0  0
    0.1689    0.3838    1.5543 O   0  0  0  0  0  0  0  0  0  0  0  0
   -2.5643    1.8290    1.7210 C   0  0  0  0  0  0  0  0  0  0  0  0
   -1.8949    0.3565    3.7380 H   0  0  0  0  0  0  0  0  0  0  0  0
   -2.9961   -0.1513    1.0113 H   0  0  0  0  0  0  0  0  0  0  0  0
   -1.8123    2.3549    2.3180 H   0  0  0  0  0  0  0  0  0  0  0  0
   -2.5899    2.2752    0.7220 H   0  0  0  0  0  0  0  0  0  0  0  0
   -3.5441    1.9705    2.1872 H   0  0  0  0  0  0  0  0  0  0  0  0
   -0.6879    0.2180   -0.4001 N   0  0  0  0  0  0  0  0  0  0  0  0
   -0.5514   -1.0481   -1.1398 C   0  0  2  0  0  0  0  0  0  0  0  0
    0.6458   -1.9056   -0.6850 C   0  0  0  0  0  0  0  0  0  0  0  0
    0.5273   -3.1227   -0.6495 O   0  0  0  0  0  0  0  0  0  0  0  0
   -0.4423   -0.7748   -2.6481 C   0  0  0  0  0  0  0  0  0  0  0  0
   -1.6567   -0.0446   -3.1634 C   0  0  0  0  0  0  0  0  0  0  0  0
   -1.6719    1.2296   -3.6782 C   0  0  0  0  0  0  0  0  0  0  0  0
   -3.0212   -0.5585   -3.2223 C   0  0  0  0  0  0  0  0  0  0  0  0
   -2.9858    1.5275   -4.0307 N   0  0  0  0  0  0  0  0  0  0  0  0
   -3.8138    0.4508   -3.7580 C   0  0  0  0  0  0  0  0  0  0  0  0
   -3.5933   -1.7860   -2.8671 C   0  0  0  0  0  0  0  0  0  0  0  0
   -5.1851    0.2698   -3.9390 C   0  0  0  0  0  0  0  0  0  0  0  0
   -4.9708   -1.9788   -3.0431 C   0  0  0  0  0  0  0  0  0  0  0  0
   -5.7662   -0.9533   -3.5762 C   0  0  0  0  0  0  0  0  0  0  0  0
    0.0671    0.8686   -0.5928 H   0  0  0  0  0  0  0  0  0  0  0  0
   -1.4505   -1.6478   -0.9612 H   0  0  0  0  0  0  0  0  0  0  0  0
   -0.3469   -1.7240   -3.1864 H   0  0  0  0  0  0  0  0  0  0  0  0
    0.4582   -0.1867   -2.8525 H   0  0  0  0  0  0  0  0  0  0  0  0
   -0.8074    1.8807   -3.7838 H   0  0  0  0  0  0  0  0  0  0  0  0
   -3.3015    2.4006   -4.4483 H   0  0  0  0  0  0  0  0  0  0  0  0
   -2.9803   -2.5849   -2.4622 H   0  0  0  0  0  0  0  0  0  0  0  0
   -5.7918    1.0657   -4.3568 H   0  0  0  0  0  0  0  0  0  0  0  0
   -5.4215   -2.9272   -2.7662 H   0  0  0  0  0  0  0  0  0  0  0  0
   -6.8325   -1.1093   -3.7113 H   0  0  0  0  0  0  0  0  0  0  0  0
    1.8921   -1.3480   -0.4608 N   0  0  0  0  0  0  0  0  0  0  0  0
    3.0224   -2.1355    0.0607 C   0  0  2  0  0  0  0  0  0  0  0  0
    2.8654   -2.4767    1.5659 C   0  0  0  0  0  0  0  0  0  0  0  0
    3.7022   -2.1361    2.3943 O   0  0  0  0  0  0  0  0  0  0  0  0
    4.3019   -1.3458   -0.2407 C   0  0  0  0  0  0  0  0  0  0  0  0
    1.8712   -0.3642   -0.2019 H   0  0  0  0  0  0  0  0  0  0  0  0
    3.0854   -3.0873   -0.4773 H   0  0  0  0  0  0  0  0  0  0  0  0
    4.2979   -0.3883    0.2899 H   0  0  0  0  0  0  0  0  0  0  0  0
    5.1818   -1.9141    0.0774 H   0  0  0  0  0  0  0  0  0  0  0  0
    4.3864   -1.1528   -1.3141 H   0  0  0  0  0  0  0  0  0  0  0  0
    1.7596   -3.1898    1.9870 N   0  0  0  0  0  0  0  0  0  0  0  0
    1.4697   -3.5055    3.3771 C   0  0  0  0  0  0  0  0  0  0  0  0
    1.0773   -3.4359    1.2650 H   0  0  0  0  0  0  0  0  0  0  0  0
    2.2681   -4.1205    3.8048 H   0  0  0  0  0  0  0  0  0  0  0  0
    1.3760   -2.5867    3.9649 H   0  0  0  0  0  0  0  0  0  0  0  0
    0.5291   -4.0602    3.4471 H   0  0  0  0  0  0  0  0  0  0  0  0
  1  2  2  0  0  0  0
  1  3  1  0  0  0  0
  1  7  1  0  0  0  0
  3  4  1  0  0  0  0
  3  5  1  0  0  0  0
  3  6  1  0  0  0  0
  7  8  1  0  0  0  0
  7 12  1  0  0  0  0
  8  9  1  0  0  0  0
  8 11  1  0  0  0  0
  8 13  1  0  0  0  0
  9 10  2  0  0  0  0
  9 17  1  0  0  0  0
 11 14  1  0  0  0  0
 11 15  1  0  0  0  0
 11 16  1  0  0  0  0
 17 18  1  0  0  0  0
 17 31  1  0  0  0  0
 18 19  1  0  0  0  0
 18 21  1  0  0  0  0
 18 32  1  0  0  0  0
 19 20  2  0  0  0  0
 19 41  1  0  0  0  0
 21 22  1  0  0  0  0
 21 33  1  0  0  0  0
 21 34  1  0  0  0  0
 22 23  2  0  0  0  0
 22 24  1  0  0  0  0
 23 25  1  0  0  0  0
 23 35  1  0  0  0  0
 24 26  2  0  0  0  0
 24 27  1  0  0  0  0
 25 26  1  0  0  0  0
 25 36  1  0  0  0  0
 26 28  1  0  0  0  0
 27 29  2  0  0  0  0
 27 37  1  0  0  0  0
 28 30  2  0  0  0  0
 28 38  1  0  0  0  0
 29 30  1  0  0  0  0
 29 39  1  0  0  0  0
 30 40  1  0  0  0  0
 41 42  1  0  0  0  0
 41 46  1  0  0  0  0
 42 43  1  0  0  0  0
 42 45  1  0  0  0  0
 42 47  1  0  0  0  0
 43 44  2  0  0  0  0
 43 51  1  0  0  0  0
 45 48  1  0  0  0  0
 45 49  1  0  0  0  0
 45 50  1  0  0  0  0
 51 52  1  0  0  0  0
 51 53  1  0  0  0  0
 52 54  1  0  0  0  0
 52 55  1  0  0  0  0
 52 56  1  0  0  0  0
M  END
$$$$

  -OEChem-02062319133D

 56 57  0     1  0  0  0  0  0999 V2000
   -2.3980   -1.4781    3.3126 C   0  0  0  0  0  0  0  0  0  0  0  0
   -2.5862   -2.3083    2.4370 O   0  0  0  0  0  0  0  0  0  0  0  0
   -2.1431   -1.9190    4.7414 C   0  0  0  0  0  0  0  0  0  0  0  0
   -2.2421   -3.0049    4.8255 H   0  0  0  0  0  0  0  0  0  0  0  0
   -1.1324   -1.6327    5.0436 H   0  0  0  0  0  0  0  0  0  0  0  0
   -2.8648   -1.4477    5.4131 H   0  0  0  0  0  0  0  0  0  0  0  0
   -2.3620   -0.1365    2.9927 N   0  0  0  0  0  0  0  0  0  0  0  0
   -2.3010    0.3213    1.5981 C   0  0  2  0  0  0  0  0  0  0  0  0
   -0.9032    0.0870    0.9893 C   0  0  0  0  0  0  0  0  0  0  0  0
    0.1086    0.3150    1.6374 O   0  0  0  0  0  0  0  0  0  0  0  0
   -2.6698    1.8061    1.5645 C   0  0  0  0  0  0  0  0  0  0  0  0
   -1.9622    0.4718    3.7013 H   0  0  0  0  0  0  0  0  0  0  0  0
   -3.0317   -0.2288    0.9948 H   0  0  0  0  0  0  0  0  0  0  0  0
   -1.9422    2.3968    2.1300 H   0  0  0  0  0  0  0  0  0  0  0  0
   -2.6856    2.1693    0.5316 H   0  0  0  0  0  0  0  0  0  0  0  0
   -3.6617    1.9608    1.9999 H   0  0  0  0  0  0  0  0  0  0  0  0
   -0.6671    0.1879   -0.3565 N   0  0  0  0  0  0  0  0  0  0  0  0
   -0.8324   -1.0290   -1.1663 C   0  0  2  0  0  0  0  0  0  0  0  0
    0.0945   -2.1817   -0.7353 C   0  0  0  0  0  0  0  0  0  0  0  0
   -0.3260   -3.3297   -0.7676 O   0  0  0  0  0  0  0  0  0  0  0  0
   -0.6100   -0.7067   -2.6516 C   0  0  0  0  0  0  0  0  0  0  0  0
   -1.6075    0.3133   -3.1396 C   0  0  0  0  0  0  0  0  0  0  0  0
   -1.3206    1.5912   -3.5568 C   0  0  0  0  0  0  0  0  0  0  0  0
   -3.0484    0.1240   -3.2651 C   0  0  0  0  0  0  0  0  0  0  0  0
   -2.5218    2.1981   -3.9156 N   0  0  0  0  0  0  0  0  0  0  0  0
   -3.5776    1.3181   -3.7419 C   0  0  0  0  0  0  0  0  0  0  0  0
   -3.8893   -0.9661   -3.0124 C   0  0  0  0  0  0  0  0  0  0  0  0
   -4.9473    1.4596   -3.9652 C   0  0  0  0  0  0  0  0  0  0  0  0
   -5.2679   -0.8347   -3.2306 C   0  0  0  0  0  0  0  0  0  0  0  0
   -5.7971    0.3755   -3.7043 C   0  0  0  0  0  0  0  0  0  0  0  0
    0.2143    0.6669   -0.5134 H   0  0  0  0  0  0  0  0  0  0  0  0
   -1.8583   -1.3907   -1.0413 H   0  0  0  0  0  0  0  0  0  0  0  0
   -0.7175   -1.6200   -3.2465 H   0  0  0  0  0  0  0  0  0  0  0  0
    0.4080   -0.3329   -2.8008 H   0  0  0  0  0  0  0  0  0  0  0  0
   -0.3304    2.0395   -3.5924 H   0  0  0  0  0  0  0  0  0  0  0  0
   -2.6198    3.1457   -4.2751 H   0  0  0  0  0  0  0  0  0  0  0  0
   -3.4817   -1.9064   -2.6550 H   0  0  0  0  0  0  0  0  0  0  0  0
   -5.3471    2.3961   -4.3381 H   0  0  0  0  0  0  0  0  0  0  0  0
   -5.9268   -1.6755   -3.0345 H   0  0  0  0  0  0  0  0  0  0  0  0
   -6.8658    0.4704   -3.8726 H   0  0  0  0  0  0  0  0  0  0  0  0
    1.4321   -1.9655   -0.4552 N   0  0  0  0  0  0  0  0  0  0  0  0
    2.3243   -3.0349    0.0239 C   0  0  2  0  0  0  0  0  0  0  0  0
    2.0577   -3.4188    1.5032 C   0  0  0  0  0  0  0  0  0  0  0  0
    2.9406   -3.3628    2.3515 O   0  0  0  0  0  0  0  0  0  0  0  0
    3.7646   -2.5670   -0.2191 C   0  0  0  0  0  0  0  0  0  0  0  0
    1.6706   -1.0140   -0.1858 H   0  0  0  0  0  0  0  0  0  0  0  0
    2.1642   -3.9391   -0.5734 H   0  0  0  0  0  0  0  0  0  0  0  0
    3.9810   -1.6665    0.3648 H   0  0  0  0  0  0  0  0  0  0  0  0
    4.4715   -3.3490    0.0767 H   0  0  0  0  0  0  0  0  0  0  0  0
    3.9203   -2.3449   -1.2791 H   0  0  0  0  0  0  0  0  0  0  0  0
    0.7992   -3.8483    1.8771 N   0  0  0  0  0  0  0  0  0  0  0  0
    0.4284   -4.2217    3.2332 C   0  0  0  0  0  0  0  0  0  0  0  0
    0.0879   -3.8754    1.1419 H   0  0  0  0  0  0  0  0  0  0  0  0
    1.0152   -5.0836    3.5669 H   0  0  0  0  0  0  0  0  0  0  0  0
    0.6010   -3.3873    3.9202 H   0  0  0  0  0  0  0  0  0  0  0  0
   -0.6323   -4.4884    3.2709 H   0  0  0  0  0  0  0  0  0  0  0  0
  1  2  2  0  0  0  0
  1  3  1  0  0  0  0
  1  7  1  0  0  0  0
  3  4  1  0  0  0  0
  3  5  1  0  0  0  0
  3  6  1  0  0  0  0
  7  8  1  0  0  0  0
  7 12  1  0  0  0  0
  8  9  1  0  0  0  0
  8 11  1  0  0  0  0
  8 13  1  0  0  0  0
  9 10  2  0  0  0  0
  9 17  1  0  0  0  0
 11 14  1  0  0  0  0
 11 15  1  0  0  0  0
 11 16  1  0  0  0  0
 17 18  1  0  0  0  0
 17 31  1  0  0  0  0
 18 19  1  0  0  0  0
 18 21  1  0  0  0  0
 18 32  1  0  0  0  0
 19 20  2  0  0  0  0
 19 41  1  0  0  0  0
 21 22  1  0  0  0  0
 21 33  1  0  0  0  0
 21 34  1  0  0  0  0
 22 23  2  0  0  0  0
 22 24  1  0  0  0  0
 23 25  1  0  0  0  0
 23 35  1  0  0  0  0
 24 26  2  0  0  0  0
 24 27  1  0  0  0  0
 25 26  1  0  0  0  0
 25 36  1  0  0  0  0
 26 28  1  0  0  0  0
 27 29  2  0  0  0  0
 27 37  1  0  0  0  0
 28 30  2  0  0  0  0
 28 38  1  0  0  0  0
 29 30  1  0  0  0  0
 29 39  1  0  0  0  0
 30 40  1  0  0  0  0
 41 42  1  0  0  0  0
 41 46  1  0  0  0  0
 42 43  1  0  0  0  0
 42 45  1  0  0  0  0
 42 47  1  0  0  0  0
 43 44  2  0  0  0  0
 43 51  1  0  0  0  0
 45 48  1  0  0  0  0
 45 49  1  0  0  0  0
 45 50  1  0  0  0  0
 51 52  1  0  0  0  0
 51 53  1  0  0  0  0
 52 54  1  0  0  0  0
 52 55  1  0  0  0  0
 52 56  1  0  0  0  0
M  END
$$$$

  -OEChem-02062319133D

 56 57  0     1  0  0  0  0  0999 V2000
   -2.6510   -1.3205    3.3231 C   0  0  0  0  0  0  0  0  0  0  0  0
   -2.9280   -2.1582    2.4789 O   0  0  0  0  0  0  0  0  0  0  0  0
   -2.4501   -1.7325    4.7694 C   0  0  0  0  0  0  0  0  0  0  0  0
   -2.7512   -2.7742    4.9098 H   0  0  0  0  0  0  0  0  0  0  0  0
   -1.3968   -1.6289    5.0422 H   0  0  0  0  0  0  0  0  0  0  0  0
   -3.0537   -1.1017    5.4266 H   0  0  0  0  0  0  0  0  0  0  0  0
   -2.4759   -0.0028    2.9536 N   0  0  0  0  0  0  0  0  0  0  0  0
   -2.3754    0.3997    1.5443 C   0  0  2  0  0  0  0  0  0  0  0  0
   -0.9638    0.1312    0.9831 C   0  0  0  0  0  0  0  0  0  0  0  0
    0.0337    0.3490    1.6553 O   0  0  0  0  0  0  0  0  0  0  0  0
   -2.7281    1.8852    1.4414 C   0  0  0  0  0  0  0  0  0  0  0  0
   -2.0137    0.5875    3.6397 H   0  0  0  0  0  0  0  0  0  0  0  0
   -3.0980   -0.1627    0.9432 H   0  0  0  0  0  0  0  0  0  0  0  0
   -2.0147    2.4911    2.0092 H   0  0  0  0  0  0  0  0  0  0  0  0
   -2.7042    2.2079    0.3952 H   0  0  0  0  0  0  0  0  0  0  0  0
   -3.7335    2.0652    1.8348 H   0  0  0  0  0  0  0  0  0  0  0  0
   -0.6949    0.1403   -0.3610 N   0  0  0  0  0  0  0  0  0  0  0  0
   -1.1341   -0.9966   -1.1853 C   0  0  2  0  0  0  0  0  0  0  0  0
   -0.5257   -2.3400   -0.7421 C   0  0  0  0  0  0  0  0  0  0  0  0
   -1.2039   -3.3555   -0.7987 O   0  0  0  0  0  0  0  0  0  0  0  0
   -0.8067   -0.7316   -2.6627 C   0  0  0  0  0  0  0  0  0  0  0  0
   -1.4775    0.5305   -3.1434 C   0  0  0  0  0  0  0  0  0  0  0  0
   -0.8416    1.6878   -3.5249 C   0  0  0  0  0  0  0  0  0  0  0  0
   -2.9127    0.7515   -3.2825 C   0  0  0  0  0  0  0  0  0  0  0  0
   -1.8223    2.6131   -3.8732 N   0  0  0  0  0  0  0  0  0  0  0  0
   -3.0830    2.0573   -3.7286 C   0  0  0  0  0  0  0  0  0  0  0  0
   -4.0269   -0.0671   -3.0637 C   0  0  0  0  0  0  0  0  0  0  0  0
   -4.3563    2.5803   -3.9538 C   0  0  0  0  0  0  0  0  0  0  0  0
   -5.3118    0.4484   -3.2850 C   0  0  0  0  0  0  0  0  0  0  0  0
   -5.4773    1.7695   -3.7277 C   0  0  0  0  0  0  0  0  0  0  0  0
    0.2574    0.4499   -0.5300 H   0  0  0  0  0  0  0  0  0  0  0  0
   -2.2197   -1.0988   -1.0893 H   0  0  0  0  0  0  0  0  0  0  0  0
   -1.1499   -1.5732   -3.2740 H   0  0  0  0  0  0  0  0  0  0  0  0
    0.2770   -0.6486   -2.7925 H   0  0  0  0  0  0  0  0  0  0  0  0
    0.2344    1.8456   -3.5389 H   0  0  0  0  0  0  0  0  0  0  0  0
   -1.6487    3.5612   -4.2012 H   0  0  0  0  0  0  0  0  0  0  0  0
   -3.9015   -1.0924   -2.7309 H   0  0  0  0  0  0  0  0  0  0  0  0
   -4.4756    3.6005   -4.3015 H   0  0  0  0  0  0  0  0  0  0  0  0
   -6.1814   -0.1798   -3.1161 H   0  0  0  0  0  0  0  0  0  0  0  0
   -6.4750    2.1625   -3.9002 H   0  0  0  0  0  0  0  0  0  0  0  0
    0.8183   -2.4473   -0.4330 N   0  0  0  0  0  0  0  0  0  0  0  0
    1.4491   -3.7071   -0.0064 C   0  0  2  0  0  0  0  0  0  0  0  0
    1.1032   -4.0910    1.4557 C   0  0  0  0  0  0  0  0  0  0  0  0
    1.9778   -4.2742    2.2948 O   0  0  0  0  0  0  0  0  0  0  0  0
    2.9577   -3.5584   -0.2433 C   0  0  0  0  0  0  0  0  0  0  0  0
    1.2872   -1.5810   -0.1807 H   0  0  0  0  0  0  0  0  0  0  0  0
    1.0929   -4.5256   -0.6411 H   0  0  0  0  0  0  0  0  0  0  0  0
    3.3693   -2.7575    0.3796 H   0  0  0  0  0  0  0  0  0  0  0  0
    3.4741   -4.4907    0.0070 H   0  0  0  0  0  0  0  0  0  0  0  0
    3.1582   -3.3253   -1.2935 H   0  0  0  0  0  0  0  0  0  0  0  0
   -0.2182   -4.2501    1.8239 N   0  0  0  0  0  0  0  0  0  0  0  0
   -0.6558   -4.6147    3.1630 C   0  0  0  0  0  0  0  0  0  0  0  0
   -0.9224   -4.0639    1.1048 H   0  0  0  0  0  0  0  0  0  0  0  0
   -0.2452   -5.5888    3.4481 H   0  0  0  0  0  0  0  0  0  0  0  0
   -0.3276   -3.8652    3.8900 H   0  0  0  0  0  0  0  0  0  0  0  0
   -1.7480   -4.6761    3.1965 H   0  0  0  0  0  0  0  0  0  0  0  0
  1  2  2  0  0  0  0
  1  3  1  0  0  0  0
  1  7  1  0  0  0  0
  3  4  1  0  0  0  0
  3  5  1  0  0  0  0
  3  6  1  0  0  0  0
  7  8  1  0  0  0  0
  7 12  1  0  0  0  0
  8  9  1  0  0  0  0
  8 11  1  0  0  0  0
  8 13  1  0  0  0  0
  9 10  2  0  0  0  0
  9 17  1  0  0  0  0
 11 14  1  0  0  0  0
 11 15  1  0  0  0  0
 11 16  1  0  0  0  0
 17 18  1  0  0  0  0
 17 31  1  0  0  0  0
 18 19  1  0  0  0  0
 18 21  1  0  0  0  0
 18 32  1  0  0  0  0
 19 20  2  0  0  0  0
 19 41  1  0  0  0  0
 21 22  1  0  0  0  0
 21 33  1  0  0  0  0
 21 34  1  0  0  0  0
 22 23  2  0  0  0  0
 22 24  1  0  0  0  0
 23 25  1  0  0  0  0
 23 35  1  0  0  0  0
 24 26  2  0  0  0  0
 24 27  1  0  0  0  0
 25 26  1  0  0  0  0
 25 36  1  0  0  0  0
 26 28  1  0  0  0  0
 27 29  2  0  0  0  0
 27 37  1  0  0  0  0
 28 30  2  0  0  0  0
 28 38  1  0  0  0  0
 29 30  1  0  0  0  0
 29 39  1  0  0  0  0
 30 40  1  0  0  0  0
 41 42  1  0  0  0  0
 41 46  1  0  0  0  0
 42 43  1  0  0  0  0
 42 45  1  0  0  0  0
 42 47  1  0  0  0  0
 43 44  2  0  0  0  0
 43 51  1  0  0  0  0
 45 48  1  0  0  0  0
 45 49  1  0  0  0  0
 45 50  1  0  0  0  0
 51 52  1  0  0  0  0
 51 53  1  0  0  0  0
 52 54  1  0  0  0  0
 52 55  1  0  0  0  0
 52 56  1  0  0  0  0
M  END
$$$$

  -OEChem-02062319133D

 56 57  0     1  0  0  0  0  0999 V2000
   -2.9983   -0.9503    3.6681 C   0  0  0  0  0  0  0  0  0  0  0  0
   -3.7343   -1.7101    3.0593 O   0  0  0  0  0  0  0  0  0  0  0  0
   -2.7161   -1.1888    5.1398 C   0  0  0  0  0  0  0  0  0  0  0  0
   -3.3099   -2.0306    5.5069 H   0  0  0  0  0  0  0  0  0  0  0  0
   -1.6568   -1.4156    5.2847 H   0  0  0  0  0  0  0  0  0  0  0  0
   -2.9734   -0.2988    5.7189 H   0  0  0  0  0  0  0  0  0  0  0  0
   -2.3966    0.1104    3.0232 N   0  0  0  0  0  0  0  0  0  0  0  0
   -2.3637    0.2631    1.5608 C   0  0  2  0  0  0  0  0  0  0  0  0
   -0.9482   -0.0014    1.0026 C   0  0  0  0  0  0  0  0  0  0  0  0
    0.0430    0.1245    1.7068 O   0  0  0  0  0  0  0  0  0  0  0  0
   -2.8261    1.6829    1.2249 C   0  0  0  0  0  0  0  0  0  0  0  0
   -1.6464    0.5652    3.5391 H   0  0  0  0  0  0  0  0  0  0  0  0
   -3.0493   -0.4440    1.0823 H   0  0  0  0  0  0  0  0  0  0  0  0
   -2.1503    2.4217    1.6674 H   0  0  0  0  0  0  0  0  0  0  0  0
   -2.8452    1.8336    0.1403 H   0  0  0  0  0  0  0  0  0  0  0  0
   -3.8349    1.8533    1.6137 H   0  0  0  0  0  0  0  0  0  0  0  0
   -0.6545    0.0338   -0.3385 N   0  0  0  0  0  0  0  0  0  0  0  0
   -1.3339   -0.8723   -1.2767 C   0  0  2  0  0  0  0  0  0  0  0  0
   -1.1017   -2.3585   -0.9531 C   0  0  0  0  0  0  0  0  0  0  0  0
   -2.0423   -3.1376   -1.0013 O   0  0  0  0  0  0  0  0  0  0  0  0
   -0.8833   -0.5717   -2.7138 C   0  0  0  0  0  0  0  0  0  0  0  0
   -1.2395    0.8416   -3.0994 C   0  0  0  0  0  0  0  0  0  0  0  0
   -0.3521    1.8586   -3.3594 C   0  0  0  0  0  0  0  0  0  0  0  0
   -2.5860    1.3815   -3.2580 C   0  0  0  0  0  0  0  0  0  0  0  0
   -1.0942    3.0013   -3.6475 N   0  0  0  0  0  0  0  0  0  0  0  0
   -2.4504    2.7255   -3.5865 C   0  0  0  0  0  0  0  0  0  0  0  0
   -3.8596    0.8109   -3.1477 C   0  0  0  0  0  0  0  0  0  0  0  0
   -3.5695    3.5322   -3.7935 C   0  0  0  0  0  0  0  0  0  0  0  0
   -4.9916    1.6122   -3.3524 C   0  0  0  0  0  0  0  0  0  0  0  0
   -4.8482    2.9709   -3.6716 C   0  0  0  0  0  0  0  0  0  0  0  0
    0.3355    0.1939   -0.4998 H   0  0  0  0  0  0  0  0  0  0  0  0
   -2.4124   -0.6982   -1.2149 H   0  0  0  0  0  0  0  0  0  0  0  0
   -1.3734   -1.2635   -3.4070 H   0  0  0  0  0  0  0  0  0  0  0  0
    0.1970   -0.7229   -2.8037 H   0  0  0  0  0  0  0  0  0  0  0  0
    0.7323    1.7786   -3.3318 H   0  0  0  0  0  0  0  0  0  0  0  0
   -0.7057    3.9140   -3.8776 H   0  0  0  0  0  0  0  0  0  0  0  0
   -3.9744   -0.2422   -2.9113 H   0  0  0  0  0  0  0  0  0  0  0  0
   -3.4495    4.5797   -4.0474 H   0  0  0  0  0  0  0  0  0  0  0  0
   -5.9831    1.1777   -3.2664 H   0  0  0  0  0  0  0  0  0  0  0  0
   -5.7290    3.5865   -3.8293 H   0  0  0  0  0  0  0  0  0  0  0  0
    0.1567   -2.8358   -0.6345 N   0  0  0  0  0  0  0  0  0  0  0  0
    0.4075   -4.2238   -0.2150 C   0  0  2  0  0  0  0  0  0  0  0  0
   -0.0307   -4.4859    1.2477 C   0  0  0  0  0  0  0  0  0  0  0  0
    0.7770   -4.7991    2.1142 O   0  0  0  0  0  0  0  0  0  0  0  0
    1.8947   -4.5104   -0.4541 C   0  0  0  0  0  0  0  0  0  0  0  0
    0.8569   -2.1388   -0.3945 H   0  0  0  0  0  0  0  0  0  0  0  0
   -0.1675   -4.9076   -0.8485 H   0  0  0  0  0  0  0  0  0  0  0  0
    2.5184   -3.8590    0.1667 H   0  0  0  0  0  0  0  0  0  0  0  0
    2.1251   -5.5506   -0.2021 H   0  0  0  0  0  0  0  0  0  0  0  0
    2.1504   -4.3448   -1.5050 H   0  0  0  0  0  0  0  0  0  0  0  0
   -1.3620   -4.3484    1.5872 N   0  0  0  0  0  0  0  0  0  0  0  0
   -1.8804   -4.5065    2.9386 C   0  0  0  0  0  0  0  0  0  0  0  0
   -1.9946   -4.0387    0.8454 H   0  0  0  0  0  0  0  0  0  0  0  0
   -1.4353   -3.7636    3.6080 H   0  0  0  0  0  0  0  0  0  0  0  0
   -2.9663   -4.3714    2.9429 H   0  0  0  0  0  0  0  0  0  0  0  0
   -1.6557   -5.5071    3.3218 H   0  0  0  0  0  0  0  0  0  0  0  0
  1  2  2  0  0  0  0
  1  3  1  0  0  0  0
  1  7  1  0  0  0  0
  3  4  1  0  0  0  0
  3  5  1  0  0  0  0
  3  6  1  0  0  0  0
  7  8  1  0  0  0  0
  7 12  1  0  0  0  0
  8  9  1  0  0  0  0
  8 11  1  0  0  0  0
  8 13  1  0  0  0  0
  9 10  2  0  0  0  0
  9 17  1  0  0  0  0
 11 14  1  0  0  0  0
 11 15  1  0  0  0  0
 11 16  1  0  0  0  0
 17 18  1  0  0  0  0
 17 31  1  0  0  0  0
 18 19  1  0  0  0  0
 18 21  1  0  0  0  0
 18 32  1  0  0  0  0
 19 20  2  0  0  0  0
 19 41  1  0  0  0  0
 21 22  1  0  0  0  0
 21 33  1  0  0  0  0
 21 34  1  0  0  0  0
 22 23  2  0  0  0  0
 22 24  1  0  0  0  0
 23 25  1  0  0  0  0
 23 35  1  0  0  0  0
 24 26  2  0  0  0  0
 24 27  1  0  0  0  0
 25 26  1  0  0  0  0
 25 36  1  0  0  0  0
 26 28  1  0  0  0  0
 27 29  2  0  0  0  0
 27 37  1  0  0  0  0
 28 30  2  0  0  0  0
 28 38  1  0  0  0  0
 29 30  1  0  0  0  0
 29 39  1  0  0  0  0
 30 40  1  0  0  0  0
 41 42  1  0  0  0  0
 41 46  1  0  0  0  0
 42 43  1  0  0  0  0
 42 45  1  0  0  0  0
 42 47  1  0  0  0  0
 43 44  2  0  0  0  0
 43 51  1  0  0  0  0
 45 48  1  0  0  0  0
 45 49  1  0  0  0  0
 45 50  1  0  0  0  0
 51 52  1  0  0  0  0
 51 53  1  0  0  0  0
 52 54  1  0  0  0  0
 52 55  1  0  0  0  0
 52 56  1  0  0  0  0
M  END
$$$$

  -OEChem-02062319133D

 56 57  0     1  0  0  0  0  0999 V2000
   -3.2067   -0.4805    3.8016 C   0  0  0  0  0  0  0  0  0  0  0  0
   -4.2535   -0.8159    3.2709 O   0  0  0  0  0  0  0  0  0  0  0  0
   -2.9838   -0.7534    5.2769 C   0  0  0  0  0  0  0  0  0  0  0  0
   -2.7849    0.1830    5.8035 H   0  0  0  0  0  0  0  0  0  0  0  0
   -3.8716   -1.2210    5.7120 H   0  0  0  0  0  0  0  0  0  0  0  0
   -2.1320   -1.4253    5.4077 H   0  0  0  0  0  0  0  0  0  0  0  0
   -2.2128    0.1211    3.0597 N   0  0  0  0  0  0  0  0  0  0  0  0
   -2.2342    0.2506    1.5963 C   0  0  2  0  0  0  0  0  0  0  0  0
   -0.8470   -0.0584    0.9920 C   0  0  0  0  0  0  0  0  0  0  0  0
    0.1608   -0.0612    1.6839 O   0  0  0  0  0  0  0  0  0  0  0  0
   -2.6801    1.6739    1.2474 C   0  0  0  0  0  0  0  0  0  0  0  0
   -1.3084    0.2396    3.5146 H   0  0  0  0  0  0  0  0  0  0  0  0
   -2.9454   -0.4628    1.1660 H   0  0  0  0  0  0  0  0  0  0  0  0
   -1.9780    2.4070    1.6570 H   0  0  0  0  0  0  0  0  0  0  0  0
   -2.7292    1.8091    0.1623 H   0  0  0  0  0  0  0  0  0  0  0  0
   -3.6734    1.8701    1.6634 H   0  0  0  0  0  0  0  0  0  0  0  0
   -0.5838   -0.0565   -0.3573 N   0  0  0  0  0  0  0  0  0  0  0  0
   -1.4829   -0.6925   -1.3332 C   0  0  2  0  0  0  0  0  0  0  0  0
   -1.6650   -2.1985   -1.0835 C   0  0  0  0  0  0  0  0  0  0  0  0
   -2.7897   -2.6776   -1.1061 O   0  0  0  0  0  0  0  0  0  0  0  0
   -0.9619   -0.4528   -2.7574 C   0  0  0  0  0  0  0  0  0  0  0  0
   -0.9935    1.0173   -3.0848 C   0  0  0  0  0  0  0  0  0  0  0  0
    0.0957    1.8340   -3.2731 C   0  0  0  0  0  0  0  0  0  0  0  0
   -2.1903    1.8330   -3.2558 C   0  0  0  0  0  0  0  0  0  0  0  0
   -0.3807    3.1171   -3.5305 N   0  0  0  0  0  0  0  0  0  0  0  0
   -1.7661    3.1296   -3.5215 C   0  0  0  0  0  0  0  0  0  0  0  0
   -3.5575    1.5365   -3.2035 C   0  0  0  0  0  0  0  0  0  0  0  0
   -2.6854    4.1583   -3.7265 C   0  0  0  0  0  0  0  0  0  0  0  0
   -4.4906    2.5626   -3.4073 C   0  0  0  0  0  0  0  0  0  0  0  0
   -4.0565    3.8715   -3.6669 C   0  0  0  0  0  0  0  0  0  0  0  0
    0.4113   -0.0540   -0.5621 H   0  0  0  0  0  0  0  0  0  0  0  0
   -2.4739   -0.2349   -1.2525 H   0  0  0  0  0  0  0  0  0  0  0  0
   -1.5883   -0.9896   -3.4781 H   0  0  0  0  0  0  0  0  0  0  0  0
    0.0584   -0.8377   -2.8526 H   0  0  0  0  0  0  0  0  0  0  0  0
    1.1375    1.5265   -3.2183 H   0  0  0  0  0  0  0  0  0  0  0  0
    0.1975    3.9372   -3.7047 H   0  0  0  0  0  0  0  0  0  0  0  0
   -3.8956    0.5232   -3.0112 H   0  0  0  0  0  0  0  0  0  0  0  0
   -2.3416    5.1660   -3.9321 H   0  0  0  0  0  0  0  0  0  0  0  0
   -5.5533    2.3417   -3.3672 H   0  0  0  0  0  0  0  0  0  0  0  0
   -4.7839    4.6622   -3.8259 H   0  0  0  0  0  0  0  0  0  0  0  0
   -0.5847   -3.0144   -0.8017 N   0  0  0  0  0  0  0  0  0  0  0  0
   -0.7313   -4.4087   -0.3547 C   0  0  2  0  0  0  0  0  0  0  0  0
   -1.2123   -4.5036    1.1154 C   0  0  0  0  0  0  0  0  0  0  0  0
   -0.4958   -4.9575    1.9991 O   0  0  0  0  0  0  0  0  0  0  0  0
    0.6120   -5.1111   -0.5899 C   0  0  0  0  0  0  0  0  0  0  0  0
    0.2915   -2.5439   -0.5905 H   0  0  0  0  0  0  0  0  0  0  0  0
   -1.4814   -4.9151   -0.9714 H   0  0  0  0  0  0  0  0  0  0  0  0
    1.4042   -4.6392    0.0005 H   0  0  0  0  0  0  0  0  0  0  0  0
    0.5444   -6.1638   -0.2973 H   0  0  0  0  0  0  0  0  0  0  0  0
    0.8873   -5.0644   -1.6479 H   0  0  0  0  0  0  0  0  0  0  0  0
   -2.4701   -4.0368    1.4431 N   0  0  0  0  0  0  0  0  0  0  0  0
   -3.0086   -4.0139    2.7959 C   0  0  0  0  0  0  0  0  0  0  0  0
   -3.0110   -3.6135    0.6848 H   0  0  0  0  0  0  0  0  0  0  0  0
   -2.3895   -3.3845    3.4425 H   0  0  0  0  0  0  0  0  0  0  0  0
   -4.0258   -3.6096    2.7898 H   0  0  0  0  0  0  0  0  0  0  0  0
   -3.0415   -5.0257    3.2126 H   0  0  0  0  0  0  0  0  0  0  0  0
  1  2  2  0  0  0  0
  1  3  1  0  0  0  0
  1  7  1  0  0  0  0
  3  4  1  0  0  0  0
  3  5  1  0  0  0  0
  3  6  1  0  0  0  0
  7  8  1  0  0  0  0
  7 12  1  0  0  0  0
  8  9  1  0  0  0  0
  8 11  1  0  0  0  0
  8 13  1  0  0  0  0
  9 10  2  0  0  0  0
  9 17  1  0  0  0  0
 11 14  1  0  0  0  0
 11 15  1  0  0  0  0
 11 16  1  0  0  0  0
 17 18  1  0  0  0  0
 17 31  1  0  0  0  0
 18 19  1  0  0  0  0
 18 21  1  0  0  0  0
 18 32  1  0  0  0  0
 19 20  2  0  0  0  0
 19 41  1  0  0  0  0
 21 22  1  0  0  0  0
 21 33  1  0  0  0  0
 21 34  1  0  0  0  0
 22 23  2  0  0  0  0
 22 24  1  0  0  0  0
 23 25  1  0  0  0  0
 23 35  1  0  0  0  0
 24 26  2  0  0  0  0
 24 27  1  0  0  0  0
 25 26  1  0  0  0  0
 25 36  1  0  0  0  0
 26 28  1  0  0  0  0
 27 29  2  0  0  0  0
 27 37  1  0  0  0  0
 28 30  2  0  0  0  0
 28 38  1  0  0  0  0
 29 30  1  0  0  0  0
 29 39  1  0  0  0  0
 30 40  1  0  0  0  0
 41 42  1  0  0  0  0
 41 46  1  0  0  0  0
 42 43  1  0  0  0  0
 42 45  1  0  0  0  0
 42 47  1  0  0  0  0
 43 44  2  0  0  0  0
 43 51  1  0  0  0  0
 45 48  1  0  0  0  0
 45 49  1  0  0  0  0
 45 50  1  0  0  0  0
 51 52  1  0  0  0  0
 51 53  1  0  0  0  0
 52 54  1  0  0  0  0
 52 55  1  0  0  0  0
 52 56  1  0  0  0  0
M  END
$$$$

  -OEChem-02062319133D

 56 57  0     1  0  0  0  0  0999 V2000
   -3.4568   -0.2808    3.7723 C   0  0  0  0  0  0  0  0  0  0  0  0
   -4.5414   -0.4003    3.2251 O   0  0  0  0  0  0  0  0  0  0  0  0
   -3.2921   -0.6802    5.2262 C   0  0  0  0  0  0  0  0  0  0  0  0
   -2.9486    0.1758    5.8119 H   0  0  0  0  0  0  0  0  0  0  0  0
   -4.2469   -1.0254    5.6326 H   0  0  0  0  0  0  0  0  0  0  0  0
   -2.5610   -1.4883    5.3106 H   0  0  0  0  0  0  0  0  0  0  0  0
   -2.3720    0.1908    3.0651 N   0  0  0  0  0  0  0  0  0  0  0  0
   -2.3661    0.4316    1.6167 C   0  0  2  0  0  0  0  0  0  0  0  0
   -0.9660    0.1628    1.0216 C   0  0  0  0  0  0  0  0  0  0  0  0
    0.0339    0.1527    1.7252 O   0  0  0  0  0  0  0  0  0  0  0  0
   -2.7929    1.8801    1.3589 C   0  0  0  0  0  0  0  0  0  0  0  0
   -1.4663    0.1724    3.5325 H   0  0  0  0  0  0  0  0  0  0  0  0
   -3.0769   -0.2443    1.1303 H   0  0  0  0  0  0  0  0  0  0  0  0
   -2.1009    2.5755    1.8446 H   0  0  0  0  0  0  0  0  0  0  0  0
   -2.8043    2.0941    0.2857 H   0  0  0  0  0  0  0  0  0  0  0  0
   -3.7988    2.0542    1.7543 H   0  0  0  0  0  0  0  0  0  0  0  0
   -0.6982    0.0679   -0.3245 N   0  0  0  0  0  0  0  0  0  0  0  0
   -1.6601   -0.4123   -1.3290 C   0  0  2  0  0  0  0  0  0  0  0  0
   -2.1239   -1.8536   -1.0582 C   0  0  0  0  0  0  0  0  0  0  0  0
   -3.3104   -2.1358   -1.1432 O   0  0  0  0  0  0  0  0  0  0  0  0
   -1.0390   -0.3260   -2.7312 C   0  0  0  0  0  0  0  0  0  0  0  0
   -0.6962    1.0993   -3.0804 C   0  0  0  0  0  0  0  0  0  0  0  0
    0.5679    1.6116   -3.2513 C   0  0  0  0  0  0  0  0  0  0  0  0
   -1.6442    2.1849   -3.3038 C   0  0  0  0  0  0  0  0  0  0  0  0
    0.4368    2.9663   -3.5458 N   0  0  0  0  0  0  0  0  0  0  0  0
   -0.9005    3.3268   -3.5790 C   0  0  0  0  0  0  0  0  0  0  0  0
   -3.0425    2.2424   -3.2922 C   0  0  0  0  0  0  0  0  0  0  0  0
   -1.5251    4.5485   -3.8303 C   0  0  0  0  0  0  0  0  0  0  0  0
   -3.6812    3.4652   -3.5421 C   0  0  0  0  0  0  0  0  0  0  0  0
   -2.9250    4.6169   -3.8074 C   0  0  0  0  0  0  0  0  0  0  0  0
    0.2932    0.0392   -0.5458 H   0  0  0  0  0  0  0  0  0  0  0  0
   -2.5490    0.2256   -1.3066 H   0  0  0  0  0  0  0  0  0  0  0  0
   -1.7464   -0.7122   -3.4728 H   0  0  0  0  0  0  0  0  0  0  0  0
   -0.1387   -0.9469   -2.7772 H   0  0  0  0  0  0  0  0  0  0  0  0
    1.4978    1.0544   -3.1630 H   0  0  0  0  0  0  0  0  0  0  0  0
    1.2069    3.6090   -3.7218 H   0  0  0  0  0  0  0  0  0  0  0  0
   -3.6294    1.3507   -3.0970 H   0  0  0  0  0  0  0  0  0  0  0  0
   -0.9332    5.4321   -4.0424 H   0  0  0  0  0  0  0  0  0  0  0  0
   -4.7659    3.5204   -3.5333 H   0  0  0  0  0  0  0  0  0  0  0  0
   -3.4257    5.5613   -3.9997 H   0  0  0  0  0  0  0  0  0  0  0  0
   -1.2145   -2.8373   -0.7164 N   0  0  0  0  0  0  0  0  0  0  0  0
   -1.5985   -4.2079   -0.3454 C   0  0  2  0  0  0  0  0  0  0  0  0
   -2.1973   -4.2927    1.0812 C   0  0  0  0  0  0  0  0  0  0  0  0
   -1.6417   -4.9185    1.9761 O   0  0  0  0  0  0  0  0  0  0  0  0
   -0.3559   -5.0885   -0.5234 C   0  0  0  0  0  0  0  0  0  0  0  0
   -0.2775   -2.5247   -0.4749 H   0  0  0  0  0  0  0  0  0  0  0  0
   -2.3664   -4.5722   -1.0367 H   0  0  0  0  0  0  0  0  0  0  0  0
    0.4453   -4.7648    0.1490 H   0  0  0  0  0  0  0  0  0  0  0  0
   -0.5965   -6.1321   -0.2973 H   0  0  0  0  0  0  0  0  0  0  0  0
    0.0071   -5.0339   -1.5543 H   0  0  0  0  0  0  0  0  0  0  0  0
   -3.3854   -3.6438    1.3522 N   0  0  0  0  0  0  0  0  0  0  0  0
   -4.0649   -3.6824    2.6393 C   0  0  0  0  0  0  0  0  0  0  0  0
   -3.8001   -3.1088    0.5850 H   0  0  0  0  0  0  0  0  0  0  0  0
   -4.3497   -4.7090    2.8907 H   0  0  0  0  0  0  0  0  0  0  0  0
   -3.4149   -3.2933    3.4289 H   0  0  0  0  0  0  0  0  0  0  0  0
   -4.9716   -3.0706    2.6045 H   0  0  0  0  0  0  0  0  0  0  0  0
  1  2  2  0  0  0  0
  1  3  1  0  0  0  0
  1  7  1  0  0  0  0
  3  4  1  0  0  0  0
  3  5  1  0  0  0  0
  3  6  1  0  0  0  0
  7  8  1  0  0  0  0
  7 12  1  0  0  0  0
  8  9  1  0  0  0  0
  8 11  1  0  0  0  0
  8 13  1  0  0  0  0
  9 10  2  0  0  0  0
  9 17  1  0  0  0  0
 11 14  1  0  0  0  0
 11 15  1  0  0  0  0
 11 16  1  0  0  0  0
 17 18  1  0  0  0  0
 17 31  1  0  0  0  0
 18 19  1  0  0  0  0
 18 21  1  0  0  0  0
 18 32  1  0  0  0  0
 19 20  2  0  0  0  0
 19 41  1  0  0  0  0
 21 22  1  0  0  0  0
 21 33  1  0  0  0  0
 21 34  1  0  0  0  0
 22 23  2  0  0  0  0
 22 24  1  0  0  0  0
 23 25  1  0  0  0  0
 23 35  1  0  0  0  0
 24 26  2  0  0  0  0
 24 27  1  0  0  0  0
 25 26  1  0  0  0  0
 25 36  1  0  0  0  0
 26 28  1  0  0  0  0
 27 29  2  0  0  0  0
 27 37  1  0  0  0  0
 28 30  2  0  0  0  0
 28 38  1  0  0  0  0
 29 30  1  0  0  0  0
 29 39  1  0  0  0  0
 30 40  1  0  0  0  0
 41 42  1  0  0  0  0
 41 46  1  0  0  0  0
 42 43  1  0  0  0  0
 42 45  1  0  0  0  0
 42 47  1  0  0  0  0
 43 44  2  0  0  0  0
 43 51  1  0  0  0  0
 45 48  1  0  0  0  0
 45 49  1  0  0  0  0
 45 50  1  0  0  0  0
 51 52  1  0  0  0  0
 51 53  1  0  0  0  0
 52 54  1  0  0  0  0
 52 55  1  0  0  0  0
 52 56  1  0  0  0  0
M  END
$$$$

  -OEChem-02062319133D

 56 57  0     1  0  0  0  0  0999 V2000
   -2.3928   -0.8521    3.5190 C   0  0  0  0  0  0  0  0  0  0  0  0
   -2.3422   -1.6572    2.6028 O   0  0  0  0  0  0  0  0  0  0  0  0
   -2.3647   -1.3278    4.9585 C   0  0  0  0  0  0  0  0  0  0  0  0
   -3.2217   -0.9240    5.5030 H   0  0  0  0  0  0  0  0  0  0  0  0
   -2.4097   -2.4202    4.9935 H   0  0  0  0  0  0  0  0  0  0  0  0
   -1.4428   -0.9971    5.4433 H   0  0  0  0  0  0  0  0  0  0  0  0
   -2.4377    0.4971    3.2300 N   0  0  0  0  0  0  0  0  0  0  0  0
   -2.2766    0.9939    1.8566 C   0  0  2  0  0  0  0  0  0  0  0  0
   -0.8958    0.6221    1.2629 C   0  0  0  0  0  0  0  0  0  0  0  0
    0.1287    0.7454    1.9187 O   0  0  0  0  0  0  0  0  0  0  0  0
   -2.4567    2.5132    1.8665 C   0  0  0  0  0  0  0  0  0  0  0  0
   -2.2379    1.1303    3.9984 H   0  0  0  0  0  0  0  0  0  0  0  0
   -3.0629    0.5566    1.2349 H   0  0  0  0  0  0  0  0  0  0  0  0
   -1.6880    2.9872    2.4856 H   0  0  0  0  0  0  0  0  0  0  0  0
   -2.3763    2.9114    0.8498 H   0  0  0  0  0  0  0  0  0  0  0  0
   -3.4411    2.7783    2.2645 H   0  0  0  0  0  0  0  0  0  0  0  0
   -0.6718    0.3306   -0.0627 N   0  0  0  0  0  0  0  0  0  0  0  0
   -1.6842    0.0172   -1.0842 C   0  0  2  0  0  0  0  0  0  0  0  0
   -2.5621   -1.2200   -0.8085 C   0  0  0  0  0  0  0  0  0  0  0  0
   -3.7246   -1.2009   -1.1924 O   0  0  0  0  0  0  0  0  0  0  0  0
   -0.9822   -0.1668   -2.4388 C   0  0  0  0  0  0  0  0  0  0  0  0
   -0.3636    1.1289   -2.8953 C   0  0  0  0  0  0  0  0  0  0  0  0
    0.9778    1.4196   -2.9654 C   0  0  0  0  0  0  0  0  0  0  0  0
   -1.0924    2.3037   -3.3565 C   0  0  0  0  0  0  0  0  0  0  0  0
    1.1007    2.7278   -3.4277 N   0  0  0  0  0  0  0  0  0  0  0  0
   -0.1491    3.2749   -3.6699 C   0  0  0  0  0  0  0  0  0  0  0  0
   -2.4571    2.5665   -3.5205 C   0  0  0  0  0  0  0  0  0  0  0  0
   -0.5400    4.5291   -4.1390 C   0  0  0  0  0  0  0  0  0  0  0  0
   -2.8614    3.8232   -3.9931 C   0  0  0  0  0  0  0  0  0  0  0  0
   -1.9055    4.8037   -4.3000 C   0  0  0  0  0  0  0  0  0  0  0  0
    0.3108    0.2739   -0.3154 H   0  0  0  0  0  0  0  0  0  0  0  0
   -2.3644    0.8712   -1.1633 H   0  0  0  0  0  0  0  0  0  0  0  0
   -1.7058   -0.4956   -3.1928 H   0  0  0  0  0  0  0  0  0  0  0  0
   -0.2154   -0.9440   -2.3566 H   0  0  0  0  0  0  0  0  0  0  0  0
    1.7893    0.7461   -2.6990 H   0  0  0  0  0  0  0  0  0  0  0  0
    1.9796    3.2203   -3.5760 H   0  0  0  0  0  0  0  0  0  0  0  0
   -3.1948    1.8044   -3.2892 H   0  0  0  0  0  0  0  0  0  0  0  0
    0.2052    5.2795   -4.3785 H   0  0  0  0  0  0  0  0  0  0  0  0
   -3.9182    4.0360   -4.1251 H   0  0  0  0  0  0  0  0  0  0  0  0
   -2.2237    5.7750   -4.6669 H   0  0  0  0  0  0  0  0  0  0  0  0
   -2.0209   -2.4096   -0.3593 N   0  0  0  0  0  0  0  0  0  0  0  0
   -2.7460   -3.6933   -0.3325 C   0  0  2  0  0  0  0  0  0  0  0  0
   -3.8005   -3.8171    0.7996 C   0  0  0  0  0  0  0  0  0  0  0  0
   -3.8149   -4.7744    1.5668 O   0  0  0  0  0  0  0  0  0  0  0  0
   -1.6814   -4.7953   -0.2644 C   0  0  0  0  0  0  0  0  0  0  0  0
   -1.1963   -2.3235    0.2318 H   0  0  0  0  0  0  0  0  0  0  0  0
   -3.2893   -3.8120   -1.2755 H   0  0  0  0  0  0  0  0  0  0  0  0
   -1.1312   -4.7371    0.6804 H   0  0  0  0  0  0  0  0  0  0  0  0
   -2.1503   -5.7821   -0.3316 H   0  0  0  0  0  0  0  0  0  0  0  0
   -0.9723   -4.6951   -1.0916 H   0  0  0  0  0  0  0  0  0  0  0  0
   -4.8164   -2.8853    0.8800 N   0  0  0  0  0  0  0  0  0  0  0  0
   -5.8061   -2.8534    1.9457 C   0  0  0  0  0  0  0  0  0  0  0  0
   -4.7429   -2.0940    0.2375 H   0  0  0  0  0  0  0  0  0  0  0  0
   -6.4054   -3.7698    1.9396 H   0  0  0  0  0  0  0  0  0  0  0  0
   -5.3143   -2.7577    2.9192 H   0  0  0  0  0  0  0  0  0  0  0  0
   -6.4770   -2.0001    1.8098 H   0  0  0  0  0  0  0  0  0  0  0  0
  1  2  2  0  0  0  0
  1  3  1  0  0  0  0
  1  7  1  0  0  0  0
  3  4  1  0  0  0  0
  3  5  1  0  0  0  0
  3  6  1  0  0  0  0
  7  8  1  0  0  0  0
  7 12  1  0  0  0  0
  8  9  1  0  0  0  0
  8 11  1  0  0  0  0
  8 13  1  0  0  0  0
  9 10  2  0  0  0  0
  9 17  1  0  0  0  0
 11 14  1  0  0  0  0
 11 15  1  0  0  0  0
 11 16  1  0  0  0  0
 17 18  1  0  0  0  0
 17 31  1  0  0  0  0
 18 19  1  0  0  0  0
 18 21  1  0  0  0  0
 18 32  1  0  0  0  0
 19 20  2  0  0  0  0
 19 41  1  0  0  0  0
 21 22  1  0  0  0  0
 21 33  1  0  0  0  0
 21 34  1  0  0  0  0
 22 23  2  0  0  0  0
 22 24  1  0  0  0  0
 23 25  1  0  0  0  0
 23 35  1  0  0  0  0
 24 26  2  0  0  0  0
 24 27  1  0  0  0  0
 25 26  1  0  0  0  0
 25 36  1  0  0  0  0
 26 28  1  0  0  0  0
 27 29  2  0  0  0  0
 27 37  1  0  0  0  0
 28 30  2  0  0  0  0
 28 38  1  0  0  0  0
 29 30  1  0  0  0  0
 29 39  1  0  0  0  0
 30 40  1  0  0  0  0
 41 42  1  0  0  0  0
 41 46  1  0  0  0  0
 42 43  1  0  0  0  0
 42 45  1  0  0  0  0
 42 47  1  0  0  0  0
 43 44  2  0  0  0  0
 43 51  1  0  0  0  0
 45 48  1  0  0  0  0
 45 49  1  0  0  0  0
 45 50  1  0  0  0  0
 51 52  1  0  0  0  0
 51 53  1  0  0  0  0
 52 54  1  0  0  0  0
 52 55  1  0  0  0  0
 52 56  1  0  0  0  0
M  END
$$$$

  -OEChem-02062319133D

 56 57  0     1  0  0  0  0  0999 V2000
   -2.3354   -1.0049    3.2272 C   0  0  0  0  0  0  0  0  0  0  0  0
   -1.9384   -1.6831    2.2911 O   0  0  0  0  0  0  0  0  0  0  0  0
   -2.5865   -1.6528    4.5754 C   0  0  0  0  0  0  0  0  0  0  0  0
   -2.3887   -2.7272    4.5190 H   0  0  0  0  0  0  0  0  0  0  0  0
   -1.9309   -1.2133    5.3307 H   0  0  0  0  0  0  0  0  0  0  0  0
   -3.6275   -1.5055    4.8728 H   0  0  0  0  0  0  0  0  0  0  0  0
   -2.5537    0.3516    3.0620 N   0  0  0  0  0  0  0  0  0  0  0  0
   -2.3341    1.0749    1.7979 C   0  0  2  0  0  0  0  0  0  0  0  0
   -0.9477    0.7797    1.1688 C   0  0  0  0  0  0  0  0  0  0  0  0
    0.0830    0.9794    1.7950 O   0  0  0  0  0  0  0  0  0  0  0  0
   -2.4750    2.5735    2.0759 C   0  0  0  0  0  0  0  0  0  0  0  0
   -2.7639    0.8864    3.8985 H   0  0  0  0  0  0  0  0  0  0  0  0
   -3.1183    0.7846    1.0967 H   0  0  0  0  0  0  0  0  0  0  0  0
   -1.7269    2.9028    2.8047 H   0  0  0  0  0  0  0  0  0  0  0  0
   -2.3327    3.1447    1.1529 H   0  0  0  0  0  0  0  0  0  0  0  0
   -3.4712    2.7962    2.4701 H   0  0  0  0  0  0  0  0  0  0  0  0
   -0.7354    0.4320   -0.1472 N   0  0  0  0  0  0  0  0  0  0  0  0
   -1.7411    0.2737   -1.2118 C   0  0  2  0  0  0  0  0  0  0  0  0
   -2.8333   -0.7876   -0.9763 C   0  0  0  0  0  0  0  0  0  0  0  0
   -3.9743   -0.5248   -1.3376 O   0  0  0  0  0  0  0  0  0  0  0  0
   -1.0159   -0.0671   -2.5237 C   0  0  0  0  0  0  0  0  0  0  0  0
   -0.0664    1.0359   -2.9134 C   0  0  0  0  0  0  0  0  0  0  0  0
    1.3056    0.9584   -2.9307 C   0  0  0  0  0  0  0  0  0  0  0  0
   -0.4385    2.3794   -3.3397 C   0  0  0  0  0  0  0  0  0  0  0  0
    1.7902    2.2029   -3.3250 N   0  0  0  0  0  0  0  0  0  0  0  0
    0.7420    3.0743   -3.5753 C   0  0  0  0  0  0  0  0  0  0  0  0
   -1.6756    3.0045   -3.5335 C   0  0  0  0  0  0  0  0  0  0  0  0
    0.7200    4.4059   -3.9905 C   0  0  0  0  0  0  0  0  0  0  0  0
   -1.7099    4.3428   -3.9502 C   0  0  0  0  0  0  0  0  0  0  0  0
   -0.5150    5.0436   -4.1760 C   0  0  0  0  0  0  0  0  0  0  0  0
    0.2431    0.4770   -0.4210 H   0  0  0  0  0  0  0  0  0  0  0  0
   -2.2539    1.2323   -1.3366 H   0  0  0  0  0  0  0  0  0  0  0  0
   -1.7462   -0.2061   -3.3282 H   0  0  0  0  0  0  0  0  0  0  0  0
   -0.4683   -1.0087   -2.4086 H   0  0  0  0  0  0  0  0  0  0  0  0
    1.8963    0.0819   -2.6716 H   0  0  0  0  0  0  0  0  0  0  0  0
    2.7739    2.4481   -3.4205 H   0  0  0  0  0  0  0  0  0  0  0  0
   -2.5991    2.4588   -3.3681 H   0  0  0  0  0  0  0  0  0  0  0  0
    1.6477    4.9387   -4.1684 H   0  0  0  0  0  0  0  0  0  0  0  0
   -2.6650    4.8371   -4.1010 H   0  0  0  0  0  0  0  0  0  0  0  0
   -0.5469    6.0799   -4.4996 H   0  0  0  0  0  0  0  0  0  0  0  0
   -2.5557   -2.0514   -0.4928 N   0  0  0  0  0  0  0  0  0  0  0  0
   -3.5918   -3.0807   -0.2831 C   0  0  2  0  0  0  0  0  0  0  0  0
   -4.5161   -2.8031    0.9350 C   0  0  0  0  0  0  0  0  0  0  0  0
   -4.7170   -3.6395    1.8094 O   0  0  0  0  0  0  0  0  0  0  0  0
   -2.8589   -4.4225   -0.1663 C   0  0  0  0  0  0  0  0  0  0  0  0
   -1.7509   -2.0919    0.1372 H   0  0  0  0  0  0  0  0  0  0  0  0
   -4.2373   -3.1266   -1.1662 H   0  0  0  0  0  0  0  0  0  0  0  0
   -2.2115   -4.4291    0.7168 H   0  0  0  0  0  0  0  0  0  0  0  0
   -3.5782   -5.2424   -0.0751 H   0  0  0  0  0  0  0  0  0  0  0  0
   -2.2442   -4.6007   -1.0537 H   0  0  0  0  0  0  0  0  0  0  0  0
   -5.1888   -1.5986    1.0182 N   0  0  0  0  0  0  0  0  0  0  0  0
   -6.1352   -1.2585    2.0705 C   0  0  0  0  0  0  0  0  0  0  0  0
   -5.0682   -0.9672    0.2232 H   0  0  0  0  0  0  0  0  0  0  0  0
   -7.0007   -1.9281    2.0376 H   0  0  0  0  0  0  0  0  0  0  0  0
   -5.6605   -1.3431    3.0533 H   0  0  0  0  0  0  0  0  0  0  0  0
   -6.4862   -0.2301    1.9433 H   0  0  0  0  0  0  0  0  0  0  0  0
  1  2  2  0  0  0  0
  1  3  1  0  0  0  0
  1  7  1  0  0  0  0
  3  4  1  0  0  0  0
  3  5  1  0  0  0  0
  3  6  1  0  0  0  0
  7  8  1  0  0  0  0
  7 12  1  0  0  0  0
  8  9  1  0  0  0  0
  8 11  1  0  0  0  0
  8 13  1  0  0  0  0
  9 10  2  0  0  0  0
  9 17  1  0  0  0  0
 11 14  1  0  0  0  0
 11 15  1  0  0  0  0
 11 16  1  0  0  0  0
 17 18  1  0  0  0  0
 17 31  1  0  0  0  0
 18 19  1  0  0  0  0
 18 21  1  0  0  0  0
 18 32  1  0  0  0  0
 19 20  2  0  0  0  0
 19 41  1  0  0  0  0
 21 22  1  0  0  0  0
 21 33  1  0  0  0  0
 21 34  1  0  0  0  0
 22 23  2  0  0  0  0
 22 24  1  0  0  0  0
 23 25  1  0  0  0  0
 23 35  1  0  0  0  0
 24 26  2  0  0  0  0
 24 27  1  0  0  0  0
 25 26  1  0  0  0  0
 25 36  1  0  0  0  0
 26 28  1  0  0  0  0
 27 29  2  0  0  0  0
 27 37  1  0  0  0  0
 28 30  2  0  0  0  0
 28 38  1  0  0  0  0
 29 30  1  0  0  0  0
 29 39  1  0  0  0  0
 30 40  1  0  0  0  0
 41 42  1  0  0  0  0
 41 46  1  0  0  0  0
 42 43  1  0  0  0  0
 42 45  1  0  0  0  0
 42 47  1  0  0  0  0
 43 44  2  0  0  0  0
 43 51  1  0  0  0  0
 45 48  1  0  0  0  0
 45 49  1  0  0  0  0
 45 50  1  0  0  0  0
 51 52  1  0  0  0  0
 51 53  1  0  0  0  0
 52 54  1  0  0  0  0
 52 55  1  0  0  0  0
 52 56  1  0  0  0  0
M  END
$$$$

  -OEChem-02062319133D

 56 57  0     1  0  0  0  0  0999 V2000
   -2.4067   -1.0094    3.0489 C   0  0  0  0  0  0  0  0  0  0  0  0
   -1.9767   -1.6064    2.0718 O   0  0  0  0  0  0  0  0  0  0  0  0
   -2.7741   -1.7809    4.3015 C   0  0  0  0  0  0  0  0  0  0  0  0
   -2.5713   -2.8463    4.1603 H   0  0  0  0  0  0  0  0  0  0  0  0
   -2.1906   -1.4196    5.1515 H   0  0  0  0  0  0  0  0  0  0  0  0
   -3.8389   -1.6551    4.5145 H   0  0  0  0  0  0  0  0  0  0  0  0
   -2.5689    0.3649    3.0188 N   0  0  0  0  0  0  0  0  0  0  0  0
   -2.2954    1.2193    1.8500 C   0  0  2  0  0  0  0  0  0  0  0  0
   -0.9180    0.9345    1.1946 C   0  0  0  0  0  0  0  0  0  0  0  0
    0.1189    1.0858    1.8240 O   0  0  0  0  0  0  0  0  0  0  0  0
   -2.3626    2.6775    2.3108 C   0  0  0  0  0  0  0  0  0  0  0  0
   -2.8664    0.8062    3.8829 H   0  0  0  0  0  0  0  0  0  0  0  0
   -3.0872    1.0667    1.1181 H   0  0  0  0  0  0  0  0  0  0  0  0
   -1.6090    2.8746    3.0806 H   0  0  0  0  0  0  0  0  0  0  0  0
   -2.1788    3.3493    1.4663 H   0  0  0  0  0  0  0  0  0  0  0  0
   -3.3511    2.9028    2.7222 H   0  0  0  0  0  0  0  0  0  0  0  0
   -0.7165    0.5257   -0.1074 N   0  0  0  0  0  0  0  0  0  0  0  0
   -1.6735    0.5610   -1.2286 C   0  0  2  0  0  0  0  0  0  0  0  0
   -2.9783   -0.2405   -1.0597 C   0  0  0  0  0  0  0  0  0  0  0  0
   -4.0236    0.2659   -1.4510 O   0  0  0  0  0  0  0  0  0  0  0  0
   -0.9619    0.0419   -2.4881 C   0  0  0  0  0  0  0  0  0  0  0  0
    0.2383    0.8895   -2.8199 C   0  0  0  0  0  0  0  0  0  0  0  0
    1.5537    0.4996   -2.7405 C   0  0  0  0  0  0  0  0  0  0  0  0
    0.2144    2.2703   -3.2849 C   0  0  0  0  0  0  0  0  0  0  0  0
    2.3366    1.5890   -3.1141 N   0  0  0  0  0  0  0  0  0  0  0  0
    1.5357    2.6698   -3.4472 C   0  0  0  0  0  0  0  0  0  0  0  0
   -0.8305    3.1568   -3.5687 C   0  0  0  0  0  0  0  0  0  0  0  0
    1.8473    3.9590   -3.8794 C   0  0  0  0  0  0  0  0  0  0  0  0
   -0.5291    4.4553   -4.0028 C   0  0  0  0  0  0  0  0  0  0  0  0
    0.8068    4.8570   -4.1560 C   0  0  0  0  0  0  0  0  0  0  0  0
    0.2714    0.5081   -0.3513 H   0  0  0  0  0  0  0  0  0  0  0  0
   -1.9614    1.6037   -1.3936 H   0  0  0  0  0  0  0  0  0  0  0  0
   -1.6518    0.0566   -3.3387 H   0  0  0  0  0  0  0  0  0  0  0  0
   -0.6511   -0.9965   -2.3319 H   0  0  0  0  0  0  0  0  0  0  0  0
    1.9087   -0.4813   -2.4306 H   0  0  0  0  0  0  0  0  0  0  0  0
    3.3545    1.5998   -3.1437 H   0  0  0  0  0  0  0  0  0  0  0  0
   -1.8635    2.8429   -3.4578 H   0  0  0  0  0  0  0  0  0  0  0  0
    2.8821    4.2598   -4.0004 H   0  0  0  0  0  0  0  0  0  0  0  0
   -1.3330    5.1512   -4.2234 H   0  0  0  0  0  0  0  0  0  0  0  0
    1.0350    5.8639   -4.4927 H   0  0  0  0  0  0  0  0  0  0  0  0
   -3.0013   -1.5262   -0.5562 N   0  0  0  0  0  0  0  0  0  0  0  0
   -4.2499   -2.2671   -0.3045 C   0  0  2  0  0  0  0  0  0  0  0  0
   -5.0512   -1.7167    0.9060 C   0  0  0  0  0  0  0  0  0  0  0  0
   -5.2557   -2.3775    1.9190 O   0  0  0  0  0  0  0  0  0  0  0  0
   -3.8652   -3.7410   -0.1301 C   0  0  0  0  0  0  0  0  0  0  0  0
   -2.2171   -1.7502    0.0652 H   0  0  0  0  0  0  0  0  0  0  0  0
   -4.9006   -2.1916   -1.1820 H   0  0  0  0  0  0  0  0  0  0  0  0
   -3.2184   -3.8682    0.7444 H   0  0  0  0  0  0  0  0  0  0  0  0
   -4.7608   -4.3542    0.0099 H   0  0  0  0  0  0  0  0  0  0  0  0
   -3.3321   -4.1036   -1.0139 H   0  0  0  0  0  0  0  0  0  0  0  0
   -5.5677   -0.4368    0.8451 N   0  0  0  0  0  0  0  0  0  0  0  0
   -6.3120    0.2012    1.9208 C   0  0  0  0  0  0  0  0  0  0  0  0
   -5.3493    0.0934   -0.0024 H   0  0  0  0  0  0  0  0  0  0  0  0
   -7.1756   -0.4098    2.2041 H   0  0  0  0  0  0  0  0  0  0  0  0
   -5.6717    0.3380    2.7976 H   0  0  0  0  0  0  0  0  0  0  0  0
   -6.6746    1.1819    1.5980 H   0  0  0  0  0  0  0  0  0  0  0  0
  1  2  2  0  0  0  0
  1  3  1  0  0  0  0
  1  7  1  0  0  0  0
  3  4  1  0  0  0  0
  3  5  1  0  0  0  0
  3  6  1  0  0  0  0
  7  8  1  0  0  0  0
  7 12  1  0  0  0  0
  8  9  1  0  0  0  0
  8 11  1  0  0  0  0
  8 13  1  0  0  0  0
  9 10  2  0  0  0  0
  9 17  1  0  0  0  0
 11 14  1  0  0  0  0
 11 15  1  0  0  0  0
 11 16  1  0  0  0  0
 17 18  1  0  0  0  0
 17 31  1  0  0  0  0
 18 19  1  0  0  0  0
 18 21  1  0  0  0  0
 18 32  1  0  0  0  0
 19 20  2  0  0  0  0
 19 41  1  0  0  0  0
 21 22  1  0  0  0  0
 21 33  1  0  0  0  0
 21 34  1  0  0  0  0
 22 23  2  0  0  0  0
 22 24  1  0  0  0  0
 23 25  1  0  0  0  0
 23 35  1  0  0  0  0
 24 26  2  0  0  0  0
 24 27  1  0  0  0  0
 25 26  1  0  0  0  0
 25 36  1  0  0  0  0
 26 28  1  0  0  0  0
 27 29  2  0  0  0  0
 27 37  1  0  0  0  0
 28 30  2  0  0  0  0
 28 38  1  0  0  0  0
 29 30  1  0  0  0  0
 29 39  1  0  0  0  0
 30 40  1  0  0  0  0
 41 42  1  0  0  0  0
 41 46  1  0  0  0  0
 42 43  1  0  0  0  0
 42 45  1  0  0  0  0
 42 47  1  0  0  0  0
 43 44  2  0  0  0  0
 43 51  1  0  0  0  0
 45 48  1  0  0  0  0
 45 49  1  0  0  0  0
 45 50  1  0  0  0  0
 51 52  1  0  0  0  0
 51 53  1  0  0  0  0
 52 54  1  0  0  0  0
 52 55  1  0  0  0  0
 52 56  1  0  0  0  0
M  END
$$$$

  -OEChem-02062319133D

 56 57  0     1  0  0  0  0  0999 V2000
   -2.4618   -0.9015    2.8923 C   0  0  0  0  0  0  0  0  0  0  0  0
   -2.1030   -1.4452    1.8569 O   0  0  0  0  0  0  0  0  0  0  0  0
   -2.8661   -1.7473    4.0844 C   0  0  0  0  0  0  0  0  0  0  0  0
   -2.7106   -2.8072    3.8645 H   0  0  0  0  0  0  0  0  0  0  0  0
   -2.2679   -1.4772    4.9576 H   0  0  0  0  0  0  0  0  0  0  0  0
   -3.9241   -1.5880    4.3091 H   0  0  0  0  0  0  0  0  0  0  0  0
   -2.5045    0.4776    2.9856 N   0  0  0  0  0  0  0  0  0  0  0  0
   -2.2133    1.4092    1.8827 C   0  0  2  0  0  0  0  0  0  0  0  0
   -0.8575    1.1312    1.1793 C   0  0  0  0  0  0  0  0  0  0  0  0
    0.1926    1.2226    1.7983 O   0  0  0  0  0  0  0  0  0  0  0  0
   -2.2222    2.8260    2.4637 C   0  0  0  0  0  0  0  0  0  0  0  0
   -2.7848    0.8615    3.8821 H   0  0  0  0  0  0  0  0  0  0  0  0
   -3.0208    1.3511    1.1570 H   0  0  0  0  0  0  0  0  0  0  0  0
   -1.4456    2.9344    3.2284 H   0  0  0  0  0  0  0  0  0  0  0  0
   -2.0353    3.5606    1.6740 H   0  0  0  0  0  0  0  0  0  0  0  0
   -3.1934    3.0468    2.9169 H   0  0  0  0  0  0  0  0  0  0  0  0
   -0.6931    0.6550   -0.1064 N   0  0  0  0  0  0  0  0  0  0  0  0
   -1.5825    0.8621   -1.2657 C   0  0  2  0  0  0  0  0  0  0  0  0
   -3.0303    0.3513   -1.1366 C   0  0  0  0  0  0  0  0  0  0  0  0
   -3.9468    1.0636   -1.5294 O   0  0  0  0  0  0  0  0  0  0  0  0
   -0.9532    0.1711   -2.4867 C   0  0  0  0  0  0  0  0  0  0  0  0
    0.4468    0.6682   -2.7409 C   0  0  0  0  0  0  0  0  0  0  0  0
    1.5985   -0.0657   -2.5860 C   0  0  0  0  0  0  0  0  0  0  0  0
    0.8296    2.0012   -3.1902 C   0  0  0  0  0  0  0  0  0  0  0  0
    2.6705    0.7651   -2.8998 N   0  0  0  0  0  0  0  0  0  0  0  0
    2.2177    2.0217   -3.2677 C   0  0  0  0  0  0  0  0  0  0  0  0
    0.0894    3.1404   -3.5251 C   0  0  0  0  0  0  0  0  0  0  0  0
    2.8987    3.1728   -3.6630 C   0  0  0  0  0  0  0  0  0  0  0  0
    0.7632    4.3034   -3.9247 C   0  0  0  0  0  0  0  0  0  0  0  0
    2.1649    4.3211   -3.9916 C   0  0  0  0  0  0  0  0  0  0  0  0
    0.2945    0.5399   -0.3277 H   0  0  0  0  0  0  0  0  0  0  0  0
   -1.6381    1.9376   -1.4608 H   0  0  0  0  0  0  0  0  0  0  0  0
   -1.5642    0.3590   -3.3761 H   0  0  0  0  0  0  0  0  0  0  0  0
   -0.9326   -0.9117   -2.3221 H   0  0  0  0  0  0  0  0  0  0  0  0
    1.6517   -1.1042   -2.2646 H   0  0  0  0  0  0  0  0  0  0  0  0
    3.6525    0.4978   -2.8644 H   0  0  0  0  0  0  0  0  0  0  0  0
   -0.9946    3.1243   -3.4799 H   0  0  0  0  0  0  0  0  0  0  0  0
    3.9817    3.1759   -3.7152 H   0  0  0  0  0  0  0  0  0  0  0  0
    0.1980    5.1932   -4.1847 H   0  0  0  0  0  0  0  0  0  0  0  0
    2.6827    5.2247   -4.3000 H   0  0  0  0  0  0  0  0  0  0  0  0
   -3.3242   -0.8934   -0.6148 N   0  0  0  0  0  0  0  0  0  0  0  0
   -4.6966   -1.3568   -0.3528 C   0  0  2  0  0  0  0  0  0  0  0  0
   -5.3538   -0.6308    0.8502 C   0  0  0  0  0  0  0  0  0  0  0  0
   -5.5715   -1.1907    1.9197 O   0  0  0  0  0  0  0  0  0  0  0  0
   -4.6328   -2.8764   -0.1577 C   0  0  0  0  0  0  0  0  0  0  0  0
   -2.5896   -1.2950   -0.0209 H   0  0  0  0  0  0  0  0  0  0  0  0
   -5.3205   -1.1600   -1.2308 H   0  0  0  0  0  0  0  0  0  0  0  0
   -4.0170   -3.1289    0.7115 H   0  0  0  0  0  0  0  0  0  0  0  0
   -5.6369   -3.2818    0.0010 H   0  0  0  0  0  0  0  0  0  0  0  0
   -4.2010   -3.3563   -1.0407 H   0  0  0  0  0  0  0  0  0  0  0  0
   -5.6927    0.7028    0.7254 N   0  0  0  0  0  0  0  0  0  0  0  0
   -6.2384    1.5119    1.8066 C   0  0  0  0  0  0  0  0  0  0  0  0
   -5.4007    1.1572   -0.1441 H   0  0  0  0  0  0  0  0  0  0  0  0
   -7.1821    1.0869    2.1646 H   0  0  0  0  0  0  0  0  0  0  0  0
   -5.5328    1.5602    2.6424 H   0  0  0  0  0  0  0  0  0  0  0  0
   -6.4310    2.5299    1.4547 H   0  0  0  0  0  0  0  0  0  0  0  0
  1  2  2  0  0  0  0
  1  3  1  0  0  0  0
  1  7  1  0  0  0  0
  3  4  1  0  0  0  0
  3  5  1  0  0  0  0
  3  6  1  0  0  0  0
  7  8  1  0  0  0  0
  7 12  1  0  0  0  0
  8  9  1  0  0  0  0
  8 11  1  0  0  0  0
  8 13  1  0  0  0  0
  9 10  2  0  0  0  0
  9 17  1  0  0  0  0
 11 14  1  0  0  0  0
 11 15  1  0  0  0  0
 11 16  1  0  0  0  0
 17 18  1  0  0  0  0
 17 31  1  0  0  0  0
 18 19  1  0  0  0  0
 18 21  1  0  0  0  0
 18 32  1  0  0  0  0
 19 20  2  0  0  0  0
 19 41  1  0  0  0  0
 21 22  1  0  0  0  0
 21 33  1  0  0  0  0
 21 34  1  0  0  0  0
 22 23  2  0  0  0  0
 22 24  1  0  0  0  0
 23 25  1  0  0  0  0
 23 35  1  0  0  0  0
 24 26  2  0  0  0  0
 24 27  1  0  0  0  0
 25 26  1  0  0  0  0
 25 36  1  0  0  0  0
 26 28  1  0  0  0  0
 27 29  2  0  0  0  0
 27 37  1  0  0  0  0
 28 30  2  0  0  0  0
 28 38  1  0  0  0  0
 29 30  1  0  0  0  0
 29 39  1  0  0  0  0
 30 40  1  0  0  0  0
 41 42  1  0  0  0  0
 41 46  1  0  0  0  0
 42 43  1  0  0  0  0
 42 45  1  0  0  0  0
 42 47  1  0  0  0  0
 43 44  2  0  0  0  0
 43 51  1  0  0  0  0
 45 48  1  0  0  0  0
 45 49  1  0  0  0  0
 45 50  1  0  0  0  0
 51 52  1  0  0  0  0
 51 53  1  0  0  0  0
 52 54  1  0  0  0  0
 52 55  1  0  0  0  0
 52 56  1  0  0  0  0
M  END
$$$$

  -OEChem-02062319133D

 56 57  0     1  0  0  0  0  0999 V2000
   -2.5253   -0.7780    2.7483 C   0  0  0  0  0  0  0  0  0  0  0  0
   -2.2618   -1.2687    1.6595 O   0  0  0  0  0  0  0  0  0  0  0  0
   -3.0707   -1.6582    3.8559 C   0  0  0  0  0  0  0  0  0  0  0  0
   -3.0722   -2.7050    3.5401 H   0  0  0  0  0  0  0  0  0  0  0  0
   -2.4528   -1.5618    4.7516 H   0  0  0  0  0  0  0  0  0  0  0  0
   -4.0958   -1.3602    4.0922 H   0  0  0  0  0  0  0  0  0  0  0  0
   -2.3472    0.5726    2.9772 N   0  0  0  0  0  0  0  0  0  0  0  0
   -1.9851    1.5632    1.9509 C   0  0  2  0  0  0  0  0  0  0  0  0
   -0.6688    1.2439    1.1932 C   0  0  0  0  0  0  0  0  0  0  0  0
    0.3989    1.2522    1.7880 O   0  0  0  0  0  0  0  0  0  0  0  0
   -1.8630    2.9184    2.6554 C   0  0  0  0  0  0  0  0  0  0  0  0
   -2.6133    0.9108    3.8962 H   0  0  0  0  0  0  0  0  0  0  0  0
   -2.8016    1.6435    1.2389 H   0  0  0  0  0  0  0  0  0  0  0  0
   -1.0679    2.8923    3.4081 H   0  0  0  0  0  0  0  0  0  0  0  0
   -1.6256    3.7028    1.9300 H   0  0  0  0  0  0  0  0  0  0  0  0
   -2.8033    3.1792    3.1501 H   0  0  0  0  0  0  0  0  0  0  0  0
   -0.5698    0.6960   -0.0701 N   0  0  0  0  0  0  0  0  0  0  0  0
   -1.3511    1.0848   -1.2609 C   0  0  2  0  0  0  0  0  0  0  0  0
   -2.8820    0.9368   -1.1721 C   0  0  0  0  0  0  0  0  0  0  0  0
   -3.6032    1.8517   -1.5520 O   0  0  0  0  0  0  0  0  0  0  0  0
   -0.8640    0.2385   -2.4483 C   0  0  0  0  0  0  0  0  0  0  0  0
    0.6224    0.3857   -2.6487 C   0  0  0  0  0  0  0  0  0  0  0  0
    1.5652   -0.5850   -2.4080 C   0  0  0  0  0  0  0  0  0  0  0  0
    1.3220    1.5750   -3.1178 C   0  0  0  0  0  0  0  0  0  0  0  0
    2.8131   -0.0365   -2.6921 N   0  0  0  0  0  0  0  0  0  0  0  0
    2.6791    1.2729   -3.1247 C   0  0  0  0  0  0  0  0  0  0  0  0
    0.8796    2.8398   -3.5211 C   0  0  0  0  0  0  0  0  0  0  0  0
    3.6236    2.2192   -3.5221 C   0  0  0  0  0  0  0  0  0  0  0  0
    1.8203    3.7995   -3.9217 C   0  0  0  0  0  0  0  0  0  0  0  0
    3.1895    3.4910   -3.9215 C   0  0  0  0  0  0  0  0  0  0  0  0
    0.3976    0.4428   -0.2647 H   0  0  0  0  0  0  0  0  0  0  0  0
   -1.1443    2.1387   -1.4724 H   0  0  0  0  0  0  0  0  0  0  0  0
   -1.3814    0.5471   -3.3627 H   0  0  0  0  0  0  0  0  0  0  0  0
   -1.1050   -0.8149   -2.2701 H   0  0  0  0  0  0  0  0  0  0  0  0
    1.3621   -1.5910   -2.0455 H   0  0  0  0  0  0  0  0  0  0  0  0
    3.7049   -0.5171   -2.5886 H   0  0  0  0  0  0  0  0  0  0  0  0
   -0.1795    3.0754   -3.5267 H   0  0  0  0  0  0  0  0  0  0  0  0
    4.6793    1.9719   -3.5216 H   0  0  0  0  0  0  0  0  0  0  0  0
    1.4877    4.7847   -4.2344 H   0  0  0  0  0  0  0  0  0  0  0  0
    3.9139    4.2378   -4.2330 H   0  0  0  0  0  0  0  0  0  0  0  0
   -3.4628   -0.1990   -0.6419 N   0  0  0  0  0  0  0  0  0  0  0  0
   -4.9050   -0.3447   -0.3969 C   0  0  2  0  0  0  0  0  0  0  0  0
   -5.3844    0.4898    0.8157 C   0  0  0  0  0  0  0  0  0  0  0  0
   -5.6653   -0.0190    1.8959 O   0  0  0  0  0  0  0  0  0  0  0  0
   -5.1952   -1.8413   -0.2323 C   0  0  0  0  0  0  0  0  0  0  0  0
   -2.8363   -0.7916   -0.0842 H   0  0  0  0  0  0  0  0  0  0  0  0
   -5.4603    0.0068   -1.2727 H   0  0  0  0  0  0  0  0  0  0  0  0
   -4.6464   -2.2502    0.6224 H   0  0  0  0  0  0  0  0  0  0  0  0
   -6.2648   -2.0048   -0.0664 H   0  0  0  0  0  0  0  0  0  0  0  0
   -4.8964   -2.3881   -1.1316 H   0  0  0  0  0  0  0  0  0  0  0  0
   -5.4679    1.8619    0.6840 N   0  0  0  0  0  0  0  0  0  0  0  0
   -5.8598    2.7618    1.7593 C   0  0  0  0  0  0  0  0  0  0  0  0
   -5.0931    2.2503   -0.1857 H   0  0  0  0  0  0  0  0  0  0  0  0
   -6.8828    2.5447    2.0840 H   0  0  0  0  0  0  0  0  0  0  0  0
   -5.1871    2.6527    2.6158 H   0  0  0  0  0  0  0  0  0  0  0  0
   -5.8193    3.7997    1.4155 H   0  0  0  0  0  0  0  0  0  0  0  0
  1  2  2  0  0  0  0
  1  3  1  0  0  0  0
  1  7  1  0  0  0  0
  3  4  1  0  0  0  0
  3  5  1  0  0  0  0
  3  6  1  0  0  0  0
  7  8  1  0  0  0  0
  7 12  1  0  0  0  0
  8  9  1  0  0  0  0
  8 11  1  0  0  0  0
  8 13  1  0  0  0  0
  9 10  2  0  0  0  0
  9 17  1  0  0  0  0
 11 14  1  0  0  0  0
 11 15  1  0  0  0  0
 11 16  1  0  0  0  0
 17 18  1  0  0  0  0
 17 31  1  0  0  0  0
 18 19  1  0  0  0  0
 18 21  1  0  0  0  0
 18 32  1  0  0  0  0
 19 20  2  0  0  0  0
 19 41  1  0  0  0  0
 21 22  1  0  0  0  0
 21 33  1  0  0  0  0
 21 34  1  0  0  0  0
 22 23  2  0  0  0  0
 22 24  1  0  0  0  0
 23 25  1  0  0  0  0
 23 35  1  0  0  0  0
 24 26  2  0  0  0  0
 24 27  1  0  0  0  0
 25 26  1  0  0  0  0
 25 36  1  0  0  0  0
 26 28  1  0  0  0  0
 27 29  2  0  0  0  0
 27 37  1  0  0  0  0
 28 30  2  0  0  0  0
 28 38  1  0  0  0  0
 29 30  1  0  0  0  0
 29 39  1  0  0  0  0
 30 40  1  0  0  0  0
 41 42  1  0  0  0  0
 41 46  1  0  0  0  0
 42 43  1  0  0  0  0
 42 45  1  0  0  0  0
 42 47  1  0  0  0  0
 43 44  2  0  0  0  0
 43 51  1  0  0  0  0
 45 48  1  0  0  0  0
 45 49  1  0  0  0  0
 45 50  1  0  0  0  0
 51 52  1  0  0  0  0
 51 53  1  0  0  0  0
 52 54  1  0  0  0  0
 52 55  1  0  0  0  0
 52 56  1  0  0  0  0
M  END
$$$$

  -OEChem-02062319133D

 56 57  0     1  0  0  0  0  0999 V2000
   -2.5602   -0.6694    2.6996 C   0  0  0  0  0  0  0  0  0  0  0  0
   -2.6390   -1.0141    1.5290 O   0  0  0  0  0  0  0  0  0  0  0  0
   -2.8900   -1.6576    3.8016 C   0  0  0  0  0  0  0  0  0  0  0  0
   -3.1867   -2.6179    3.3706 H   0  0  0  0  0  0  0  0  0  0  0  0
   -2.0162   -1.8129    4.4391 H   0  0  0  0  0  0  0  0  0  0  0  0
   -3.7144   -1.2760    4.4094 H   0  0  0  0  0  0  0  0  0  0  0  0
   -2.1531    0.6084    3.0251 N   0  0  0  0  0  0  0  0  0  0  0  0
   -1.7962    1.6379    2.0395 C   0  0  2  0  0  0  0  0  0  0  0  0
   -0.5048    1.2962    1.2539 C   0  0  0  0  0  0  0  0  0  0  0  0
    0.5564    1.2111    1.8538 O   0  0  0  0  0  0  0  0  0  0  0  0
   -1.6386    2.9631    2.7902 C   0  0  0  0  0  0  0  0  0  0  0  0
   -2.0084    0.8100    4.0095 H   0  0  0  0  0  0  0  0  0  0  0  0
   -2.6224    1.7610    1.3459 H   0  0  0  0  0  0  0  0  0  0  0  0
   -0.8289    2.8989    3.5243 H   0  0  0  0  0  0  0  0  0  0  0  0
   -2.5657    3.2151    3.3139 H   0  0  0  0  0  0  0  0  0  0  0  0
   -1.4074    3.7707    2.0885 H   0  0  0  0  0  0  0  0  0  0  0  0
   -0.4589    0.6913    0.0149 N   0  0  0  0  0  0  0  0  0  0  0  0
   -1.0705    1.2371   -1.2126 C   0  0  2  0  0  0  0  0  0  0  0  0
   -2.5947    1.4606   -1.2070 C   0  0  0  0  0  0  0  0  0  0  0  0
   -3.0521    2.5125   -1.6369 O   0  0  0  0  0  0  0  0  0  0  0  0
   -0.7459    0.2783   -2.3700 C   0  0  0  0  0  0  0  0  0  0  0  0
    0.7396    0.0655   -2.5049 C   0  0  0  0  0  0  0  0  0  0  0  0
    1.4118   -1.1016   -2.2323 C   0  0  0  0  0  0  0  0  0  0  0  0
    1.7214    1.0507   -2.9386 C   0  0  0  0  0  0  0  0  0  0  0  0
    2.7652   -0.8684   -2.4611 N   0  0  0  0  0  0  0  0  0  0  0  0
    2.9664    0.4341   -2.8898 C   0  0  0  0  0  0  0  0  0  0  0  0
    1.6099    2.3813   -3.3566 C   0  0  0  0  0  0  0  0  0  0  0  0
    4.1248    1.1271   -3.2412 C   0  0  0  0  0  0  0  0  0  0  0  0
    2.7677    3.0877   -3.7122 C   0  0  0  0  0  0  0  0  0  0  0  0
    4.0231    2.4635   -3.6525 C   0  0  0  0  0  0  0  0  0  0  0  0
    0.4706    0.3008   -0.1358 H   0  0  0  0  0  0  0  0  0  0  0  0
   -0.6078    2.2079   -1.4184 H   0  0  0  0  0  0  0  0  0  0  0  0
   -1.1344    0.6832   -3.3105 H   0  0  0  0  0  0  0  0  0  0  0  0
   -1.2381   -0.6843   -2.1950 H   0  0  0  0  0  0  0  0  0  0  0  0
    0.9586   -2.0292   -1.8878 H   0  0  0  0  0  0  0  0  0  0  0  0
    3.5098   -1.5519   -2.3364 H   0  0  0  0  0  0  0  0  0  0  0  0
    0.6387    2.8624   -3.4082 H   0  0  0  0  0  0  0  0  0  0  0  0
    5.0905    0.6358   -3.1957 H   0  0  0  0  0  0  0  0  0  0  0  0
    2.6916    4.1218   -4.0349 H   0  0  0  0  0  0  0  0  0  0  0  0
    4.9167    3.0161   -3.9273 H   0  0  0  0  0  0  0  0  0  0  0  0
   -3.4624    0.5073   -0.7091 N   0  0  0  0  0  0  0  0  0  0  0  0
   -4.9169    0.6901   -0.5933 C   0  0  2  0  0  0  0  0  0  0  0  0
   -5.3082    1.6305    0.5733 C   0  0  0  0  0  0  0  0  0  0  0  0
   -5.9038    1.2307    1.5672 O   0  0  0  0  0  0  0  0  0  0  0  0
   -5.5424   -0.7041   -0.4626 C   0  0  0  0  0  0  0  0  0  0  0  0
   -3.0364   -0.2338   -0.1399 H   0  0  0  0  0  0  0  0  0  0  0  0
   -5.2992    1.1417   -1.5146 H   0  0  0  0  0  0  0  0  0  0  0  0
   -5.1981   -1.1976    0.4519 H   0  0  0  0  0  0  0  0  0  0  0  0
   -6.6333   -0.6283   -0.4243 H   0  0  0  0  0  0  0  0  0  0  0  0
   -5.2685   -1.3273   -1.3188 H   0  0  0  0  0  0  0  0  0  0  0  0
   -4.9616    2.9656    0.4983 N   0  0  0  0  0  0  0  0  0  0  0  0
   -5.2809    3.9541    1.5187 C   0  0  0  0  0  0  0  0  0  0  0  0
   -4.4179    3.2440   -0.3229 H   0  0  0  0  0  0  0  0  0  0  0  0
   -6.3640    4.1031    1.5791 H   0  0  0  0  0  0  0  0  0  0  0  0
   -4.9148    3.6292    2.4980 H   0  0  0  0  0  0  0  0  0  0  0  0
   -4.8118    4.9120    1.2749 H   0  0  0  0  0  0  0  0  0  0  0  0
  1  2  2  0  0  0  0
  1  3  1  0  0  0  0
  1  7  1  0  0  0  0
  3  4  1  0  0  0  0
  3  5  1  0  0  0  0
  3  6  1  0  0  0  0
  7  8  1  0  0  0  0
  7 12  1  0  0  0  0
  8  9  1  0  0  0  0
  8 11  1  0  0  0  0
  8 13  1  0  0  0  0
  9 10  2  0  0  0  0
  9 17  1  0  0  0  0
 11 14  1  0  0  0  0
 11 15  1  0  0  0  0
 11 16  1  0  0  0  0
 17 18  1  0  0  0  0
 17 31  1  0  0  0  0
 18 19  1  0  0  0  0
 18 21  1  0  0  0  0
 18 32  1  0  0  0  0
 19 20  2  0  0  0  0
 19 41  1  0  0  0  0
 21 22  1  0  0  0  0
 21 33  1  0  0  0  0
 21 34  1  0  0  0  0
 22 23  2  0  0  0  0
 22 24  1  0  0  0  0
 23 25  1  0  0  0  0
 23 35  1  0  0  0  0
 24 26  2  0  0  0  0
 24 27  1  0  0  0  0
 25 26  1  0  0  0  0
 25 36  1  0  0  0  0
 26 28  1  0  0  0  0
 27 29  2  0  0  0  0
 27 37  1  0  0  0  0
 28 30  2  0  0  0  0
 28 38  1  0  0  0  0
 29 30  1  0  0  0  0
 29 39  1  0  0  0  0
 30 40  1  0  0  0  0
 41 42  1  0  0  0  0
 41 46  1  0  0  0  0
 42 43  1  0  0  0  0
 42 45  1  0  0  0  0
 42 47  1  0  0  0  0
 43 44  2  0  0  0  0
 43 51  1  0  0  0  0
 45 48  1  0  0  0  0
 45 49  1  0  0  0  0
 45 50  1  0  0  0  0
 51 52  1  0  0  0  0
 51 53  1  0  0  0  0
 52 54  1  0  0  0  0
 52 55  1  0  0  0  0
 52 56  1  0  0  0  0
M  END
$$$$

  -OEChem-02062319133D

 56 57  0     1  0  0  0  0  0999 V2000
   -2.8818   -0.6506    2.3132 C   0  0  0  0  0  0  0  0  0  0  0  0
   -3.1269   -0.6409    1.1151 O   0  0  0  0  0  0  0  0  0  0  0  0
   -3.3134   -1.8292    3.1644 C   0  0  0  0  0  0  0  0  0  0  0  0
   -3.8633   -2.5530    2.5564 H   0  0  0  0  0  0  0  0  0  0  0  0
   -2.4366   -2.3215    3.5923 H   0  0  0  0  0  0  0  0  0  0  0  0
   -3.9623   -1.4862    3.9738 H   0  0  0  0  0  0  0  0  0  0  0  0
   -2.1774    0.3871    2.8881 N   0  0  0  0  0  0  0  0  0  0  0  0
   -1.6212    1.5163    2.1310 C   0  0  2  0  0  0  0  0  0  0  0  0
   -0.3717    1.1076    1.3122 C   0  0  0  0  0  0  0  0  0  0  0  0
    0.6560    0.8158    1.9052 O   0  0  0  0  0  0  0  0  0  0  0  0
   -1.2910    2.6298    3.1295 C   0  0  0  0  0  0  0  0  0  0  0  0
   -1.8737    0.2601    3.8490 H   0  0  0  0  0  0  0  0  0  0  0  0
   -2.3808    1.9082    1.4595 H   0  0  0  0  0  0  0  0  0  0  0  0
   -0.8883    3.5019    2.6048 H   0  0  0  0  0  0  0  0  0  0  0  0
   -2.1932    2.9365    3.6677 H   0  0  0  0  0  0  0  0  0  0  0  0
   -0.5483    2.2903    3.8587 H   0  0  0  0  0  0  0  0  0  0  0  0
   -0.4172    0.5632    0.0467 N   0  0  0  0  0  0  0  0  0  0  0  0
   -0.7194    1.3647   -1.1538 C   0  0  2  0  0  0  0  0  0  0  0  0
   -2.0835    2.0780   -1.2017 C   0  0  0  0  0  0  0  0  0  0  0  0
   -2.1356    3.2511   -1.5500 O   0  0  0  0  0  0  0  0  0  0  0  0
   -0.6308    0.4434   -2.3815 C   0  0  0  0  0  0  0  0  0  0  0  0
    0.7015   -0.2584   -2.4481 C   0  0  0  0  0  0  0  0  0  0  0  0
    0.9027   -1.6083   -2.2893 C   0  0  0  0  0  0  0  0  0  0  0  0
    2.0019    0.3584   -2.6787 C   0  0  0  0  0  0  0  0  0  0  0  0
    2.2708   -1.8438   -2.3945 N   0  0  0  0  0  0  0  0  0  0  0  0
    2.9488   -0.6586   -2.6301 C   0  0  0  0  0  0  0  0  0  0  0  0
    2.3996    1.6782   -2.9192 C   0  0  0  0  0  0  0  0  0  0  0  0
    4.3056   -0.3869   -2.8067 C   0  0  0  0  0  0  0  0  0  0  0  0
    3.7606    1.9635   -3.0973 C   0  0  0  0  0  0  0  0  0  0  0  0
    4.7125    0.9341   -3.0397 C   0  0  0  0  0  0  0  0  0  0  0  0
    0.3976   -0.0358   -0.0836 H   0  0  0  0  0  0  0  0  0  0  0  0
    0.0468    2.1416   -1.2412 H   0  0  0  0  0  0  0  0  0  0  0  0
   -0.7726    1.0293   -3.2960 H   0  0  0  0  0  0  0  0  0  0  0  0
   -1.4335   -0.3006   -2.3364 H   0  0  0  0  0  0  0  0  0  0  0  0
    0.1259   -2.3471   -2.1020 H   0  0  0  0  0  0  0  0  0  0  0  0
    2.7198   -2.7542   -2.3145 H   0  0  0  0  0  0  0  0  0  0  0  0
    1.6643    2.4742   -2.9700 H   0  0  0  0  0  0  0  0  0  0  0  0
    5.0344   -1.1888   -2.7645 H   0  0  0  0  0  0  0  0  0  0  0  0
    4.0787    2.9853   -3.2814 H   0  0  0  0  0  0  0  0  0  0  0  0
    5.7657    1.1608   -3.1774 H   0  0  0  0  0  0  0  0  0  0  0  0
   -3.2524    1.4364   -0.8386 N   0  0  0  0  0  0  0  0  0  0  0  0
   -4.5728    2.0831   -0.7888 C   0  0  2  0  0  0  0  0  0  0  0  0
   -4.7338    3.0196    0.4348 C   0  0  0  0  0  0  0  0  0  0  0  0
   -5.5506    2.8035    1.3223 O   0  0  0  0  0  0  0  0  0  0  0  0
   -5.6252    0.9685   -0.8243 C   0  0  0  0  0  0  0  0  0  0  0  0
   -3.1471    0.5346   -0.3583 H   0  0  0  0  0  0  0  0  0  0  0  0
   -4.7089    2.6979   -1.6847 H   0  0  0  0  0  0  0  0  0  0  0  0
   -5.5363    0.3256    0.0572 H   0  0  0  0  0  0  0  0  0  0  0  0
   -6.6322    1.3973   -0.8385 H   0  0  0  0  0  0  0  0  0  0  0  0
   -5.4978    0.3522   -1.7192 H   0  0  0  0  0  0  0  0  0  0  0  0
   -3.9186    4.1296    0.5406 N   0  0  0  0  0  0  0  0  0  0  0  0
   -3.9792    5.0914    1.6322 C   0  0  0  0  0  0  0  0  0  0  0  0
   -3.2301    4.2552   -0.2064 H   0  0  0  0  0  0  0  0  0  0  0  0
   -3.8052    4.5956    2.5924 H   0  0  0  0  0  0  0  0  0  0  0  0
   -3.2151    5.8629    1.4968 H   0  0  0  0  0  0  0  0  0  0  0  0
   -4.9604    5.5761    1.6594 H   0  0  0  0  0  0  0  0  0  0  0  0
  1  2  2  0  0  0  0
  1  3  1  0  0  0  0
  1  7  1  0  0  0  0
  3  4  1  0  0  0  0
  3  5  1  0  0  0  0
  3  6  1  0  0  0  0
  7  8  1  0  0  0  0
  7 12  1  0  0  0  0
  8  9  1  0  0  0  0
  8 11  1  0  0  0  0
  8 13  1  0  0  0  0
  9 10  2  0  0  0  0
  9 17  1  0  0  0  0
 11 14  1  0  0  0  0
 11 15  1  0  0  0  0
 11 16  1  0  0  0  0
 17 18  1  0  0  0  0
 17 31  1  0  0  0  0
 18 19  1  0  0  0  0
 18 21  1  0  0  0  0
 18 32  1  0  0  0  0
 19 20  2  0  0  0  0
 19 41  1  0  0  0  0
 21 22  1  0  0  0  0
 21 33  1  0  0  0  0
 21 34  1  0  0  0  0
 22 23  2  0  0  0  0
 22 24  1  0  0  0  0
 23 25  1  0  0  0  0
 23 35  1  0  0  0  0
 24 26  2  0  0  0  0
 24 27  1  0  0  0  0
 25 26  1  0  0  0  0
 25 36  1  0  0  0  0
 26 28  1  0  0  0  0
 27 29  2  0  0  0  0
 27 37  1  0  0  0  0
 28 30  2  0  0  0  0
 28 38  1  0  0  0  0
 29 30  1  0  0  0  0
 29 39  1  0  0  0  0
 30 40  1  0  0  0  0
 41 42  1  0  0  0  0
 41 46  1  0  0  0  0
 42 43  1  0  0  0  0
 42 45  1  0  0  0  0
 42 47  1  0  0  0  0
 43 44  2  0  0  0  0
 43 51  1  0  0  0  0
 45 48  1  0  0  0  0
 45 49  1  0  0  0  0
 45 50  1  0  0  0  0
 51 52  1  0  0  0  0
 51 53  1  0  0  0  0
 52 54  1  0  0  0  0
 52 55  1  0  0  0  0
 52 56  1  0  0  0  0
M  END
$$$$

  -OEChem-02062319133D

 56 57  0     1  0  0  0  0  0999 V2000
   -2.9867   -0.5050    2.1162 C   0  0  0  0  0  0  0  0  0  0  0  0
   -2.9295   -0.4790    0.8941 O   0  0  0  0  0  0  0  0  0  0  0  0
   -3.8903   -1.5020    2.8154 C   0  0  0  0  0  0  0  0  0  0  0  0
   -4.4848   -2.0528    2.0811 H   0  0  0  0  0  0  0  0  0  0  0  0
   -3.2900   -2.2131    3.3883 H   0  0  0  0  0  0  0  0  0  0  0  0
   -4.5688   -0.9791    3.4941 H   0  0  0  0  0  0  0  0  0  0  0  0
   -2.1878    0.3404    2.8581 N   0  0  0  0  0  0  0  0  0  0  0  0
   -1.4173    1.4695    2.3092 C   0  0  2  0  0  0  0  0  0  0  0  0
   -0.1641    1.0256    1.5038 C   0  0  0  0  0  0  0  0  0  0  0  0
    0.8885    1.6245    1.6711 O   0  0  0  0  0  0  0  0  0  0  0  0
   -1.0729    2.3768    3.4978 C   0  0  0  0  0  0  0  0  0  0  0  0
   -2.2991    0.2962    3.8677 H   0  0  0  0  0  0  0  0  0  0  0  0
   -2.0555    2.0513    1.6479 H   0  0  0  0  0  0  0  0  0  0  0  0
   -0.4176    1.8573    4.2039 H   0  0  0  0  0  0  0  0  0  0  0  0
   -0.5604    3.2797    3.1509 H   0  0  0  0  0  0  0  0  0  0  0  0
   -1.9843    2.6831    4.0209 H   0  0  0  0  0  0  0  0  0  0  0  0
   -0.2891    0.3850    0.2828 N   0  0  0  0  0  0  0  0  0  0  0  0
   -0.3262    1.1738   -0.9676 C   0  0  2  0  0  0  0  0  0  0  0  0
   -1.4750    2.1931   -1.0973 C   0  0  0  0  0  0  0  0  0  0  0  0
   -1.2546    3.3320   -1.4896 O   0  0  0  0  0  0  0  0  0  0  0  0
   -0.4168    0.2084   -2.1615 C   0  0  0  0  0  0  0  0  0  0  0  0
    0.8090   -0.6604   -2.2740 C   0  0  0  0  0  0  0  0  0  0  0  0
    0.8761   -2.0101   -2.0242 C   0  0  0  0  0  0  0  0  0  0  0  0
    2.1337   -0.2271   -2.6981 C   0  0  0  0  0  0  0  0  0  0  0  0
    2.1850   -2.4205   -2.2681 N   0  0  0  0  0  0  0  0  0  0  0  0
    2.9583   -1.3460   -2.6770 C   0  0  0  0  0  0  0  0  0  0  0  0
    2.6436    1.0174   -3.0823 C   0  0  0  0  0  0  0  0  0  0  0  0
    4.3042   -1.2527   -3.0310 C   0  0  0  0  0  0  0  0  0  0  0  0
    3.9950    1.1233   -3.4404 C   0  0  0  0  0  0  0  0  0  0  0  0
    4.8245   -0.0085   -3.4141 C   0  0  0  0  0  0  0  0  0  0  0  0
   -1.0564   -0.2866    0.3224 H   0  0  0  0  0  0  0  0  0  0  0  0
    0.6101    1.7380   -1.0417 H   0  0  0  0  0  0  0  0  0  0  0  0
   -0.5239    0.7786   -3.0905 H   0  0  0  0  0  0  0  0  0  0  0  0
   -1.3067   -0.4208   -2.0568 H   0  0  0  0  0  0  0  0  0  0  0  0
    0.0495   -2.6340   -1.6930 H   0  0  0  0  0  0  0  0  0  0  0  0
    2.5377   -3.3677   -2.1518 H   0  0  0  0  0  0  0  0  0  0  0  0
    2.0006    1.8915   -3.0995 H   0  0  0  0  0  0  0  0  0  0  0  0
    4.9379   -2.1321   -3.0082 H   0  0  0  0  0  0  0  0  0  0  0  0
    4.3996    2.0862   -3.7362 H   0  0  0  0  0  0  0  0  0  0  0  0
    5.8709    0.0802   -3.6897 H   0  0  0  0  0  0  0  0  0  0  0  0
   -2.7720    1.8528   -0.7590 N   0  0  0  0  0  0  0  0  0  0  0  0
   -3.8933    2.8012   -0.7242 C   0  0  2  0  0  0  0  0  0  0  0  0
   -3.8116    3.7520    0.4943 C   0  0  0  0  0  0  0  0  0  0  0  0
   -4.5348    3.6104    1.4743 O   0  0  0  0  0  0  0  0  0  0  0  0
   -5.1864    1.9775   -0.7474 C   0  0  0  0  0  0  0  0  0  0  0  0
   -2.9097    0.9338   -0.3296 H   0  0  0  0  0  0  0  0  0  0  0  0
   -3.8749    3.4233   -1.6254 H   0  0  0  0  0  0  0  0  0  0  0  0
   -5.2455    1.3266    0.1309 H   0  0  0  0  0  0  0  0  0  0  0  0
   -6.0577    2.6399   -0.7476 H   0  0  0  0  0  0  0  0  0  0  0  0
   -5.2249    1.3546   -1.6460 H   0  0  0  0  0  0  0  0  0  0  0  0
   -2.8336    4.7265    0.5161 N   0  0  0  0  0  0  0  0  0  0  0  0
   -2.5767    5.5967    1.6551 C   0  0  0  0  0  0  0  0  0  0  0  0
   -2.1420    4.6782   -0.2379 H   0  0  0  0  0  0  0  0  0  0  0  0
   -2.2529    5.0116    2.5211 H   0  0  0  0  0  0  0  0  0  0  0  0
   -1.7901    6.3165    1.4085 H   0  0  0  0  0  0  0  0  0  0  0  0
   -3.4808    6.1531    1.9236 H   0  0  0  0  0  0  0  0  0  0  0  0
  1  2  2  0  0  0  0
  1  3  1  0  0  0  0
  1  7  1  0  0  0  0
  3  4  1  0  0  0  0
  3  5  1  0  0  0  0
  3  6  1  0  0  0  0
  7  8  1  0  0  0  0
  7 12  1  0  0  0  0
  8  9  1  0  0  0  0
  8 11  1  0  0  0  0
  8 13  1  0  0  0  0
  9 10  2  0  0  0  0
  9 17  1  0  0  0  0
 11 14  1  0  0  0  0
 11 15  1  0  0  0  0
 11 16  1  0  0  0  0
 17 18  1  0  0  0  0
 17 31  1  0  0  0  0
 18 19  1  0  0  0  0
 18 21  1  0  0  0  0
 18 32  1  0  0  0  0
 19 20  2  0  0  0  0
 19 41  1  0  0  0  0
 21 22  1  0  0  0  0
 21 33  1  0  0  0  0
 21 34  1  0  0  0  0
 22 23  2  0  0  0  0
 22 24  1  0  0  0  0
 23 25  1  0  0  0  0
 23 35  1  0  0  0  0
 24 26  2  0  0  0  0
 24 27  1  0  0  0  0
 25 26  1  0  0  0  0
 25 36  1  0  0  0  0
 26 28  1  0  0  0  0
 27 29  2  0  0  0  0
 27 37  1  0  0  0  0
 28 30  2  0  0  0  0
 28 38  1  0  0  0  0
 29 30  1  0  0  0  0
 29 39  1  0  0  0  0
 30 40  1  0  0  0  0
 41 42  1  0  0  0  0
 41 46  1  0  0  0  0
 42 43  1  0  0  0  0
 42 45  1  0  0  0  0
 42 47  1  0  0  0  0
 43 44  2  0  0  0  0
 43 51  1  0  0  0  0
 45 48  1  0  0  0  0
 45 49  1  0  0  0  0
 45 50  1  0  0  0  0
 51 52  1  0  0  0  0
 51 53  1  0  0  0  0
 52 54  1  0  0  0  0
 52 55  1  0  0  0  0
 52 56  1  0  0  0  0
M  END
$$$$

  -OEChem-02062319133D

 56 57  0     1  0  0  0  0  0999 V2000
   -2.7687   -0.2750    2.1200 C   0  0  0  0  0  0  0  0  0  0  0  0
   -2.8680   -0.0801    0.9161 O   0  0  0  0  0  0  0  0  0  0  0  0
   -3.6651   -1.2865    2.8079 C   0  0  0  0  0  0  0  0  0  0  0  0
   -4.3480   -1.7415    2.0849 H   0  0  0  0  0  0  0  0  0  0  0  0
   -3.0598   -2.0742    3.2634 H   0  0  0  0  0  0  0  0  0  0  0  0
   -4.2544   -0.7943    3.5858 H   0  0  0  0  0  0  0  0  0  0  0  0
   -1.7949    0.3848    2.8407 N   0  0  0  0  0  0  0  0  0  0  0  0
   -1.0092    1.5255    2.3382 C   0  0  2  0  0  0  0  0  0  0  0  0
    0.1361    1.1205    1.3700 C   0  0  0  0  0  0  0  0  0  0  0  0
    1.1829    1.7530    1.3818 O   0  0  0  0  0  0  0  0  0  0  0  0
   -0.4943    2.2774    3.5726 C   0  0  0  0  0  0  0  0  0  0  0  0
   -1.7814    0.2124    3.8425 H   0  0  0  0  0  0  0  0  0  0  0  0
   -1.6718    2.2051    1.7996 H   0  0  0  0  0  0  0  0  0  0  0  0
    0.1990    1.6511    4.1431 H   0  0  0  0  0  0  0  0  0  0  0  0
    0.0319    3.1890    3.2722 H   0  0  0  0  0  0  0  0  0  0  0  0
   -1.3277    2.5653    4.2208 H   0  0  0  0  0  0  0  0  0  0  0  0
   -0.1651    0.4424    0.2023 N   0  0  0  0  0  0  0  0  0  0  0  0
   -0.1143    1.1547   -1.0904 C   0  0  2  0  0  0  0  0  0  0  0  0
   -1.0765    2.3540   -1.1810 C   0  0  0  0  0  0  0  0  0  0  0  0
   -0.7028    3.4222   -1.6495 O   0  0  0  0  0  0  0  0  0  0  0  0
   -0.4493    0.1825   -2.2334 C   0  0  0  0  0  0  0  0  0  0  0  0
    0.5103   -0.9784   -2.2949 C   0  0  0  0  0  0  0  0  0  0  0  0
    0.1940   -2.2951   -2.0613 C   0  0  0  0  0  0  0  0  0  0  0  0
    1.9251   -0.9224   -2.6424 C   0  0  0  0  0  0  0  0  0  0  0  0
    1.3533   -3.0469   -2.2381 N   0  0  0  0  0  0  0  0  0  0  0  0
    2.4109   -2.2243   -2.5914 C   0  0  0  0  0  0  0  0  0  0  0  0
    2.7768    0.1331   -2.9854 C   0  0  0  0  0  0  0  0  0  0  0  0
    3.7483   -2.5038   -2.8735 C   0  0  0  0  0  0  0  0  0  0  0  0
    4.1233   -0.1355   -3.2690 C   0  0  0  0  0  0  0  0  0  0  0  0
    4.6091   -1.4507   -3.2132 C   0  0  0  0  0  0  0  0  0  0  0  0
   -1.0107   -0.1177    0.3118 H   0  0  0  0  0  0  0  0  0  0  0  0
    0.9010    1.5377   -1.2385 H   0  0  0  0  0  0  0  0  0  0  0  0
   -0.4127    0.7176   -3.1881 H   0  0  0  0  0  0  0  0  0  0  0  0
   -1.4693   -0.1942   -2.1051 H   0  0  0  0  0  0  0  0  0  0  0  0
   -0.7902   -2.6695   -1.7891 H   0  0  0  0  0  0  0  0  0  0  0  0
    1.4256   -4.0556   -2.1270 H   0  0  0  0  0  0  0  0  0  0  0  0
    2.4008    1.1500   -3.0291 H   0  0  0  0  0  0  0  0  0  0  0  0
    4.1155   -3.5230   -2.8296 H   0  0  0  0  0  0  0  0  0  0  0  0
    4.7912    0.6796   -3.5302 H   0  0  0  0  0  0  0  0  0  0  0  0
    5.6533   -1.6521   -3.4326 H   0  0  0  0  0  0  0  0  0  0  0  0
   -2.3830    2.2436   -0.7395 N   0  0  0  0  0  0  0  0  0  0  0  0
   -3.3069    3.3790   -0.6228 C   0  0  2  0  0  0  0  0  0  0  0  0
   -2.9298    4.3078    0.5558 C   0  0  0  0  0  0  0  0  0  0  0  0
   -3.5537    4.2961    1.6115 O   0  0  0  0  0  0  0  0  0  0  0  0
   -4.7222    2.8052   -0.4925 C   0  0  0  0  0  0  0  0  0  0  0  0
   -2.6361    1.3722   -0.2653 H   0  0  0  0  0  0  0  0  0  0  0  0
   -3.2698    3.9790   -1.5381 H   0  0  0  0  0  0  0  0  0  0  0  0
   -4.8009    2.1716    0.3969 H   0  0  0  0  0  0  0  0  0  0  0  0
   -5.4529    3.6156   -0.4069 H   0  0  0  0  0  0  0  0  0  0  0  0
   -4.9718    2.2048   -1.3725 H   0  0  0  0  0  0  0  0  0  0  0  0
   -1.8062    5.1020    0.4455 N   0  0  0  0  0  0  0  0  0  0  0  0
   -1.2656    5.8985    1.5376 C   0  0  0  0  0  0  0  0  0  0  0  0
   -1.2127    4.9141   -0.3680 H   0  0  0  0  0  0  0  0  0  0  0  0
   -0.4204    6.4960    1.1831 H   0  0  0  0  0  0  0  0  0  0  0  0
   -2.0281    6.5792    1.9297 H   0  0  0  0  0  0  0  0  0  0  0  0
   -0.9185    5.2521    2.3490 H   0  0  0  0  0  0  0  0  0  0  0  0
  1  2  2  0  0  0  0
  1  3  1  0  0  0  0
  1  7  1  0  0  0  0
  3  4  1  0  0  0  0
  3  5  1  0  0  0  0
  3  6  1  0  0  0  0
  7  8  1  0  0  0  0
  7 12  1  0  0  0  0
  8  9  1  0  0  0  0
  8 11  1  0  0  0  0
  8 13  1  0  0  0  0
  9 10  2  0  0  0  0
  9 17  1  0  0  0  0
 11 14  1  0  0  0  0
 11 15  1  0  0  0  0
 11 16  1  0  0  0  0
 17 18  1  0  0  0  0
 17 31  1  0  0  0  0
 18 19  1  0  0  0  0
 18 21  1  0  0  0  0
 18 32  1  0  0  0  0
 19 20  2  0  0  0  0
 19 41  1  0  0  0  0
 21 22  1  0  0  0  0
 21 33  1  0  0  0  0
 21 34  1  0  0  0  0
 22 23  2  0  0  0  0
 22 24  1  0  0  0  0
 23 25  1  0  0  0  0
 23 35  1  0  0  0  0
 24 26  2  0  0  0  0
 24 27  1  0  0  0  0
 25 26  1  0  0  0  0
 25 36  1  0  0  0  0
 26 28  1  0  0  0  0
 27 29  2  0  0  0  0
 27 37  1  0  0  0  0
 28 30  2  0  0  0  0
 28 38  1  0  0  0  0
 29 30  1  0  0  0  0
 29 39  1  0  0  0  0
 30 40  1  0  0  0  0
 41 42  1  0  0  0  0
 41 46  1  0  0  0  0
 42 43  1  0  0  0  0
 42 45  1  0  0  0  0
 42 47  1  0  0  0  0
 43 44  2  0  0  0  0
 43 51  1  0  0  0  0
 45 48  1  0  0  0  0
 45 49  1  0  0  0  0
 45 50  1  0  0  0  0
 51 52  1  0  0  0  0
 51 53  1  0  0  0  0
 52 54  1  0  0  0  0
 52 55  1  0  0  0  0
 52 56  1  0  0  0  0
M  END
$$$$

  -OEChem-02062319133D

 56 57  0     1  0  0  0  0  0999 V2000
   -2.6989   -0.0600    1.8343 C   0  0  0  0  0  0  0  0  0  0  0  0
   -2.7830    0.3517    0.6854 O   0  0  0  0  0  0  0  0  0  0  0  0
   -3.7090   -1.0609    2.3612 C   0  0  0  0  0  0  0  0  0  0  0  0
   -4.4747   -1.2581    1.6055 H   0  0  0  0  0  0  0  0  0  0  0  0
   -3.2108   -2.0010    2.6114 H   0  0  0  0  0  0  0  0  0  0  0  0
   -4.1948   -0.6646    3.2565 H   0  0  0  0  0  0  0  0  0  0  0  0
   -1.6405    0.3364    2.6261 N   0  0  0  0  0  0  0  0  0  0  0  0
   -0.7462    1.4678    2.3184 C   0  0  2  0  0  0  0  0  0  0  0  0
    0.3488    1.1512    1.2657 C   0  0  0  0  0  0  0  0  0  0  0  0
    1.3976    1.7811    1.2690 O   0  0  0  0  0  0  0  0  0  0  0  0
   -0.1462    1.9243    3.6547 C   0  0  0  0  0  0  0  0  0  0  0  0
   -1.6337   -0.0190    3.5784 H   0  0  0  0  0  0  0  0  0  0  0  0
   -1.3418    2.2960    1.9220 H   0  0  0  0  0  0  0  0  0  0  0  0
    0.4879    1.1400    4.0800 H   0  0  0  0  0  0  0  0  0  0  0  0
    0.4644    2.8218    3.5143 H   0  0  0  0  0  0  0  0  0  0  0  0
   -0.9403    2.1632    4.3687 H   0  0  0  0  0  0  0  0  0  0  0  0
   -0.0107    0.5008    0.1001 N   0  0  0  0  0  0  0  0  0  0  0  0
    0.2209    1.1367   -1.2095 C   0  0  2  0  0  0  0  0  0  0  0  0
   -0.5263    2.4764   -1.3443 C   0  0  0  0  0  0  0  0  0  0  0  0
    0.0345    3.4685   -1.7930 O   0  0  0  0  0  0  0  0  0  0  0  0
   -0.2416    0.2034   -2.3418 C   0  0  0  0  0  0  0  0  0  0  0  0
    0.3455   -1.1811   -2.2314 C   0  0  0  0  0  0  0  0  0  0  0  0
   -0.3750   -2.3358   -2.0416 C   0  0  0  0  0  0  0  0  0  0  0  0
    1.7525   -1.5521   -2.3282 C   0  0  0  0  0  0  0  0  0  0  0  0
    0.5270   -3.3963   -2.0049 N   0  0  0  0  0  0  0  0  0  0  0  0
    1.8209   -2.9328   -2.1783 C   0  0  0  0  0  0  0  0  0  0  0  0
    2.9213   -0.8103   -2.5315 C   0  0  0  0  0  0  0  0  0  0  0  0
    3.0437   -3.6024   -2.2211 C   0  0  0  0  0  0  0  0  0  0  0  0
    4.1568   -1.4720   -2.5742 C   0  0  0  0  0  0  0  0  0  0  0  0
    4.2192   -2.8651   -2.4192 C   0  0  0  0  0  0  0  0  0  0  0  0
   -0.9160    0.0397    0.1829 H   0  0  0  0  0  0  0  0  0  0  0  0
    1.2915    1.3342   -1.3240 H   0  0  0  0  0  0  0  0  0  0  0  0
    0.0475    0.6354   -3.3054 H   0  0  0  0  0  0  0  0  0  0  0  0
   -1.3338    0.1277   -2.3289 H   0  0  0  0  0  0  0  0  0  0  0  0
   -1.4564   -2.3952   -1.9418 H   0  0  0  0  0  0  0  0  0  0  0  0
    0.2824   -4.3766   -1.8846 H   0  0  0  0  0  0  0  0  0  0  0  0
    2.8745    0.2665   -2.6541 H   0  0  0  0  0  0  0  0  0  0  0  0
    3.0815   -4.6792   -2.1014 H   0  0  0  0  0  0  0  0  0  0  0  0
    5.0677   -0.9010   -2.7264 H   0  0  0  0  0  0  0  0  0  0  0  0
    5.1791   -3.3717   -2.4527 H   0  0  0  0  0  0  0  0  0  0  0  0
   -1.8452    2.5801   -0.9380 N   0  0  0  0  0  0  0  0  0  0  0  0
   -2.5463    3.8594   -0.7768 C   0  0  2  0  0  0  0  0  0  0  0  0
   -2.0419    4.6277    0.4686 C   0  0  0  0  0  0  0  0  0  0  0  0
   -2.7107    4.7080    1.4934 O   0  0  0  0  0  0  0  0  0  0  0  0
   -4.0467    3.5505   -0.7192 C   0  0  0  0  0  0  0  0  0  0  0  0
   -2.2406    1.7630   -0.4646 H   0  0  0  0  0  0  0  0  0  0  0  0
   -2.3658    4.4932   -1.6515 H   0  0  0  0  0  0  0  0  0  0  0  0
   -4.2747    2.9027    0.1335 H   0  0  0  0  0  0  0  0  0  0  0  0
   -4.6202    4.4767   -0.6142 H   0  0  0  0  0  0  0  0  0  0  0  0
   -4.3668    3.0456   -1.6357 H   0  0  0  0  0  0  0  0  0  0  0  0
   -0.7631    5.1478    0.4571 N   0  0  0  0  0  0  0  0  0  0  0  0
   -0.1081    5.7147    1.6274 C   0  0  0  0  0  0  0  0  0  0  0  0
   -0.1871    4.8800   -0.3465 H   0  0  0  0  0  0  0  0  0  0  0  0
   -0.7170    6.5157    2.0591 H   0  0  0  0  0  0  0  0  0  0  0  0
    0.0521    4.9440    2.3874 H   0  0  0  0  0  0  0  0  0  0  0  0
    0.8629    6.1345    1.3474 H   0  0  0  0  0  0  0  0  0  0  0  0
  1  2  2  0  0  0  0
  1  3  1  0  0  0  0
  1  7  1  0  0  0  0
  3  4  1  0  0  0  0
  3  5  1  0  0  0  0
  3  6  1  0  0  0  0
  7  8  1  0  0  0  0
  7 12  1  0  0  0  0
  8  9  1  0  0  0  0
  8 11  1  0  0  0  0
  8 13  1  0  0  0  0
  9 10  2  0  0  0  0
  9 17  1  0  0  0  0
 11 14  1  0  0  0  0
 11 15  1  0  0  0  0
 11 16  1  0  0  0  0
 17 18  1  0  0  0  0
 17 31  1  0  0  0  0
 18 19  1  0  0  0  0
 18 21  1  0  0  0  0
 18 32  1  0  0  0  0
 19 20  2  0  0  0  0
 19 41  1  0  0  0  0
 21 22  1  0  0  0  0
 21 33  1  0  0  0  0
 21 34  1  0  0  0  0
 22 23  2  0  0  0  0
 22 24  1  0  0  0  0
 23 25  1  0  0  0  0
 23 35  1  0  0  0  0
 24 26  2  0  0  0  0
 24 27  1  0  0  0  0
 25 26  1  0  0  0  0
 25 36  1  0  0  0  0
 26 28  1  0  0  0  0
 27 29  2  0  0  0  0
 27 37  1  0  0  0  0
 28 30  2  0  0  0  0
 28 38  1  0  0  0  0
 29 30  1  0  0  0  0
 29 39  1  0  0  0  0
 30 40  1  0  0  0  0
 41 42  1  0  0  0  0
 41 46  1  0  0  0  0
 42 43  1  0  0  0  0
 42 45  1  0  0  0  0
 42 47  1  0  0  0  0
 43 44  2  0  0  0  0
 43 51  1  0  0  0  0
 45 48  1  0  0  0  0
 45 49  1  0  0  0  0
 45 50  1  0  0  0  0
 51 52  1  0  0  0  0
 51 53  1  0  0  0  0
 52 54  1  0  0  0  0
 52 55  1  0  0  0  0
 52 56  1  0  0  0  0
M  END
$$$$

  -OEChem-02062319133D

 56 57  0     1  0  0  0  0  0999 V2000
   -2.1280   -1.1658    3.5892 C   0  0  0  0  0  0  0  0  0  0  0  0
   -2.7499   -1.8376    2.7807 O   0  0  0  0  0  0  0  0  0  0  0  0
   -1.7551   -1.7460    4.9404 C   0  0  0  0  0  0  0  0  0  0  0  0
   -2.1155   -2.7751    5.0213 H   0  0  0  0  0  0  0  0  0  0  0  0
   -0.6689   -1.7435    5.0608 H   0  0  0  0  0  0  0  0  0  0  0  0
   -2.2047   -1.1511    5.7391 H   0  0  0  0  0  0  0  0  0  0  0  0
   -1.7379    0.1163    3.2634 N   0  0  0  0  0  0  0  0  0  0  0  0
   -1.8366    0.6583    1.9026 C   0  0  2  0  0  0  0  0  0  0  0  0
   -0.5455    0.3768    1.1007 C   0  0  0  0  0  0  0  0  0  0  0  0
    0.5275    0.6827    1.6060 O   0  0  0  0  0  0  0  0  0  0  0  0
   -2.1296    2.1543    2.0345 C   0  0  0  0  0  0  0  0  0  0  0  0
   -1.0523    0.5444    3.8810 H   0  0  0  0  0  0  0  0  0  0  0  0
   -2.6755    0.1964    1.3719 H   0  0  0  0  0  0  0  0  0  0  0  0
   -1.2852    2.6743    2.4970 H   0  0  0  0  0  0  0  0  0  0  0  0
   -2.3190    2.5974    1.0550 H   0  0  0  0  0  0  0  0  0  0  0  0
   -3.0168    2.3148    2.6549 H   0  0  0  0  0  0  0  0  0  0  0  0
   -0.5961    0.2416   -0.2764 N   0  0  0  0  0  0  0  0  0  0  0  0
    0.3741    0.8781   -1.1906 C   0  0  2  0  0  0  0  0  0  0  0  0
    0.4203    2.4144   -1.1085 C   0  0  0  0  0  0  0  0  0  0  0  0
    1.4938    3.0019   -1.1388 O   0  0  0  0  0  0  0  0  0  0  0  0
    0.0697    0.4756   -2.6447 C   0  0  0  0  0  0  0  0  0  0  0  0
    0.0587   -1.0209   -2.8280 C   0  0  0  0  0  0  0  0  0  0  0  0
   -1.0305   -1.7837   -3.1781 C   0  0  0  0  0  0  0  0  0  0  0  0
    1.1991   -1.9210   -2.6946 C   0  0  0  0  0  0  0  0  0  0  0  0
   -0.6150   -3.1109   -3.2404 N   0  0  0  0  0  0  0  0  0  0  0  0
    0.7360   -3.2069   -2.9505 C   0  0  0  0  0  0  0  0  0  0  0  0
    2.5486   -1.7096   -2.3884 C   0  0  0  0  0  0  0  0  0  0  0  0
    1.5930   -4.3057   -2.8952 C   0  0  0  0  0  0  0  0  0  0  0  0
    3.4202   -2.8067   -2.3308 C   0  0  0  0  0  0  0  0  0  0  0  0
    2.9438   -4.1025   -2.5814 C   0  0  0  0  0  0  0  0  0  0  0  0
   -1.4752   -0.0834   -0.6669 H   0  0  0  0  0  0  0  0  0  0  0  0
    1.3733    0.5145   -0.9293 H   0  0  0  0  0  0  0  0  0  0  0  0
    0.8291    0.9047   -3.3072 H   0  0  0  0  0  0  0  0  0  0  0  0
   -0.8992    0.8862   -2.9455 H   0  0  0  0  0  0  0  0  0  0  0  0
   -2.0335   -1.4102   -3.3700 H   0  0  0  0  0  0  0  0  0  0  0  0
   -1.2078   -3.9064   -3.4700 H   0  0  0  0  0  0  0  0  0  0  0  0
    2.9201   -0.7079   -2.1980 H   0  0  0  0  0  0  0  0  0  0  0  0
    1.2169   -5.3030   -3.0934 H   0  0  0  0  0  0  0  0  0  0  0  0
    4.4676   -2.6509   -2.0902 H   0  0  0  0  0  0  0  0  0  0  0  0
    3.6226   -4.9486   -2.5331 H   0  0  0  0  0  0  0  0  0  0  0  0
   -0.7421    3.1633   -1.0700 N   0  0  0  0  0  0  0  0  0  0  0  0
   -0.7560    4.6169   -0.8438 C   0  0  2  0  0  0  0  0  0  0  0  0
   -0.4453    4.9759    0.6301 C   0  0  0  0  0  0  0  0  0  0  0  0
   -1.3073    5.4305    1.3736 O   0  0  0  0  0  0  0  0  0  0  0  0
   -2.1162    5.1465   -1.3131 C   0  0  0  0  0  0  0  0  0  0  0  0
   -1.6068    2.6506   -0.9362 H   0  0  0  0  0  0  0  0  0  0  0  0
    0.0142    5.0923   -1.4605 H   0  0  0  0  0  0  0  0  0  0  0  0
   -2.9286    4.7004   -0.7305 H   0  0  0  0  0  0  0  0  0  0  0  0
   -2.1602    6.2337   -1.1902 H   0  0  0  0  0  0  0  0  0  0  0  0
   -2.2723    4.9118   -2.3705 H   0  0  0  0  0  0  0  0  0  0  0  0
    0.8108    4.7064    1.1355 N   0  0  0  0  0  0  0  0  0  0  0  0
    1.1660    4.8369    2.5417 C   0  0  0  0  0  0  0  0  0  0  0  0
    1.4353    4.1815    0.5166 H   0  0  0  0  0  0  0  0  0  0  0  0
    0.9240    5.8395    2.9091 H   0  0  0  0  0  0  0  0  0  0  0  0
    0.6261    4.0996    3.1438 H   0  0  0  0  0  0  0  0  0  0  0  0
    2.2397    4.6733    2.6741 H   0  0  0  0  0  0  0  0  0  0  0  0
  1  2  2  0  0  0  0
  1  3  1  0  0  0  0
  1  7  1  0  0  0  0
  3  4  1  0  0  0  0
  3  5  1  0  0  0  0
  3  6  1  0  0  0  0
  7  8  1  0  0  0  0
  7 12  1  0  0  0  0
  8  9  1  0  0  0  0
  8 11  1  0  0  0  0
  8 13  1  0  0  0  0
  9 10  2  0  0  0  0
  9 17  1  0  0  0  0
 11 14  1  0  0  0  0
 11 15  1  0  0  0  0
 11 16  1  0  0  0  0
 17 18  1  0  0  0  0
 17 31  1  0  0  0  0
 18 19  1  0  0  0  0
 18 21  1  0  0  0  0
 18 32  1  0  0  0  0
 19 20  2  0  0  0  0
 19 41  1  0  0  0  0
 21 22  1  0  0  0  0
 21 33  1  0  0  0  0
 21 34  1  0  0  0  0
 22 23  2  0  0  0  0
 22 24  1  0  0  0  0
 23 25  1  0  0  0  0
 23 35  1  0  0  0  0
 24 26  2  0  0  0  0
 24 27  1  0  0  0  0
 25 26  1  0  0  0  0
 25 36  1  0  0  0  0
 26 28  1  0  0  0  0
 27 29  2  0  0  0  0
 27 37  1  0  0  0  0
 28 30  2  0  0  0  0
 28 38  1  0  0  0  0
 29 30  1  0  0  0  0
 29 39  1  0  0  0  0
 30 40  1  0  0  0  0
 41 42  1  0  0  0  0
 41 46  1  0  0  0  0
 42 43  1  0  0  0  0
 42 45  1  0  0  0  0
 42 47  1  0  0  0  0
 43 44  2  0  0  0  0
 43 51  1  0  0  0  0
 45 48  1  0  0  0  0
 45 49  1  0  0  0  0
 45 50  1  0  0  0  0
 51 52  1  0  0  0  0
 51 53  1  0  0  0  0
 52 54  1  0  0  0  0
 52 55  1  0  0  0  0
 52 56  1  0  0  0  0
M  END
$$$$

  -OEChem-02062319133D

 56 57  0     1  0  0  0  0  0999 V2000
   -2.1873   -0.8502    3.8718 C   0  0  0  0  0  0  0  0  0  0  0  0
   -3.1933   -1.2968    3.3434 O   0  0  0  0  0  0  0  0  0  0  0  0
   -1.7979   -1.3017    5.2668 C   0  0  0  0  0  0  0  0  0  0  0  0
   -2.5610   -1.9716    5.6726 H   0  0  0  0  0  0  0  0  0  0  0  0
   -0.8434   -1.8327    5.2353 H   0  0  0  0  0  0  0  0  0  0  0  0
   -1.7044   -0.4358    5.9267 H   0  0  0  0  0  0  0  0  0  0  0  0
   -1.3998    0.0634    3.2030 N   0  0  0  0  0  0  0  0  0  0  0  0
   -1.5929    0.4589    1.8017 C   0  0  2  0  0  0  0  0  0  0  0  0
   -0.3056    0.2585    0.9767 C   0  0  0  0  0  0  0  0  0  0  0  0
    0.7805    0.4698    1.5023 O   0  0  0  0  0  0  0  0  0  0  0  0
   -2.0275    1.9270    1.7931 C   0  0  0  0  0  0  0  0  0  0  0  0
   -0.5016    0.2930    3.6251 H   0  0  0  0  0  0  0  0  0  0  0  0
   -2.3775   -0.1457    1.3353 H   0  0  0  0  0  0  0  0  0  0  0  0
   -1.2542    2.5582    2.2423 H   0  0  0  0  0  0  0  0  0  0  0  0
   -2.2093    2.2712    0.7714 H   0  0  0  0  0  0  0  0  0  0  0  0
   -2.9512    2.0505    2.3672 H   0  0  0  0  0  0  0  0  0  0  0  0
   -0.3739    0.1896   -0.4036 N   0  0  0  0  0  0  0  0  0  0  0  0
    0.7119    0.6211   -1.3045 C   0  0  2  0  0  0  0  0  0  0  0  0
    1.0745    2.1076   -1.1461 C   0  0  0  0  0  0  0  0  0  0  0  0
    2.2450    2.4623   -1.1037 O   0  0  0  0  0  0  0  0  0  0  0  0
    0.3180    0.3604   -2.7691 C   0  0  0  0  0  0  0  0  0  0  0  0
   -0.1360   -1.0613   -2.9836 C   0  0  0  0  0  0  0  0  0  0  0  0
   -1.3921   -1.4546   -3.3816 C   0  0  0  0  0  0  0  0  0  0  0  0
    0.6694   -2.2657   -2.8161 C   0  0  0  0  0  0  0  0  0  0  0  0
   -1.4001   -2.8454   -3.4373 N   0  0  0  0  0  0  0  0  0  0  0  0
   -0.1548   -3.3490   -3.0988 C   0  0  0  0  0  0  0  0  0  0  0  0
    2.0068   -2.4761   -2.4603 C   0  0  0  0  0  0  0  0  0  0  0  0
    0.3230   -4.6570   -3.0219 C   0  0  0  0  0  0  0  0  0  0  0  0
    2.4984   -3.7866   -2.3786 C   0  0  0  0  0  0  0  0  0  0  0  0
    1.6584   -4.8756   -2.6566 C   0  0  0  0  0  0  0  0  0  0  0  0
   -1.2542   -0.1083   -0.8148 H   0  0  0  0  0  0  0  0  0  0  0  0
    1.6085    0.0394   -1.0676 H   0  0  0  0  0  0  0  0  0  0  0  0
    1.1766    0.5632   -3.4182 H   0  0  0  0  0  0  0  0  0  0  0  0
   -0.4849    1.0442   -3.0625 H   0  0  0  0  0  0  0  0  0  0  0  0
   -2.2255   -0.7924   -3.6060 H   0  0  0  0  0  0  0  0  0  0  0  0
   -2.1948   -3.4225   -3.7074 H   0  0  0  0  0  0  0  0  0  0  0  0
    2.6613   -1.6362   -2.2515 H   0  0  0  0  0  0  0  0  0  0  0  0
   -0.3315   -5.4928   -3.2428 H   0  0  0  0  0  0  0  0  0  0  0  0
    3.5340   -3.9577   -2.0997 H   0  0  0  0  0  0  0  0  0  0  0  0
    2.0445   -5.8886   -2.5923 H   0  0  0  0  0  0  0  0  0  0  0  0
    0.0793    3.0649   -1.0639 N   0  0  0  0  0  0  0  0  0  0  0  0
    0.3421    4.4512   -0.6527 C   0  0  2  0  0  0  0  0  0  0  0  0
    0.5733    4.5462    0.8746 C   0  0  0  0  0  0  0  0  0  0  0  0
   -0.2457    5.0830    1.6116 O   0  0  0  0  0  0  0  0  0  0  0  0
   -0.8327    5.3069   -1.1414 C   0  0  0  0  0  0  0  0  0  0  0  0
   -0.8649    2.7113   -0.9503 H   0  0  0  0  0  0  0  0  0  0  0  0
    1.2494    4.8213   -1.1427 H   0  0  0  0  0  0  0  0  0  0  0  0
   -1.7720    4.9701   -0.6913 H   0  0  0  0  0  0  0  0  0  0  0  0
   -0.6758    6.3556   -0.8697 H   0  0  0  0  0  0  0  0  0  0  0  0
   -0.9220    5.2420   -2.2301 H   0  0  0  0  0  0  0  0  0  0  0  0
    1.6738    3.9188    1.4244 N   0  0  0  0  0  0  0  0  0  0  0  0
    1.8545    3.7183    2.8551 C   0  0  0  0  0  0  0  0  0  0  0  0
    2.2238    3.3453    0.7790 H   0  0  0  0  0  0  0  0  0  0  0  0
    1.7885    4.6714    3.3901 H   0  0  0  0  0  0  0  0  0  0  0  0
    1.0897    3.0389    3.2447 H   0  0  0  0  0  0  0  0  0  0  0  0
    2.8386    3.2819    3.0505 H   0  0  0  0  0  0  0  0  0  0  0  0
  1  2  2  0  0  0  0
  1  3  1  0  0  0  0
  1  7  1  0  0  0  0
  3  4  1  0  0  0  0
  3  5  1  0  0  0  0
  3  6  1  0  0  0  0
  7  8  1  0  0  0  0
  7 12  1  0  0  0  0
  8  9  1  0  0  0  0
  8 11  1  0  0  0  0
  8 13  1  0  0  0  0
  9 10  2  0  0  0  0
  9 17  1  0  0  0  0
 11 14  1  0  0  0  0
 11 15  1  0  0  0  0
 11 16  1  0  0  0  0
 17 18  1  0  0  0  0
 17 31  1  0  0  0  0
 18 19  1  0  0  0  0
 18 21  1  0  0  0  0
 18 32  1  0  0  0  0
 19 20  2  0  0  0  0
 19 41  1  0  0  0  0
 21 22  1  0  0  0  0
 21 33  1  0  0  0  0
 21 34  1  0  0  0  0
 22 23  2  0  0  0  0
 22 24  1  0  0  0  0
 23 25  1  0  0  0  0
 23 35  1  0  0  0  0
 24 26  2  0  0  0  0
 24 27  1  0  0  0  0
 25 26  1  0  0  0  0
 25 36  1  0  0  0  0
 26 28  1  0  0  0  0
 27 29  2  0  0  0  0
 27 37  1  0  0  0  0
 28 30  2  0  0  0  0
 28 38  1  0  0  0  0
 29 30  1  0  0  0  0
 29 39  1  0  0  0  0
 30 40  1  0  0  0  0
 41 42  1  0  0  0  0
 41 46  1  0  0  0  0
 42 43  1  0  0  0  0
 42 45  1  0  0  0  0
 42 47  1  0  0  0  0
 43 44  2  0  0  0  0
 43 51  1  0  0  0  0
 45 48  1  0  0  0  0
 45 49  1  0  0  0  0
 45 50  1  0  0  0  0
 51 52  1  0  0  0  0
 51 53  1  0  0  0  0
 52 54  1  0  0  0  0
 52 55  1  0  0  0  0
 52 56  1  0  0  0  0
M  END
$$$$

  -OEChem-02062319133D

 56 57  0     1  0  0  0  0  0999 V2000
   -2.1954   -0.8444    3.8999 C   0  0  0  0  0  0  0  0  0  0  0  0
   -3.3000   -1.1074    3.4509 O   0  0  0  0  0  0  0  0  0  0  0  0
   -1.8211   -1.2766    5.3050 C   0  0  0  0  0  0  0  0  0  0  0  0
   -2.6618   -1.7922    5.7776 H   0  0  0  0  0  0  0  0  0  0  0  0
   -0.9653   -1.9551    5.2714 H   0  0  0  0  0  0  0  0  0  0  0  0
   -1.5611   -0.4025    5.9068 H   0  0  0  0  0  0  0  0  0  0  0  0
   -1.2829   -0.1587    3.1269 N   0  0  0  0  0  0  0  0  0  0  0  0
   -1.4956    0.2131    1.7229 C   0  0  2  0  0  0  0  0  0  0  0  0
   -0.1998    0.0862    0.8987 C   0  0  0  0  0  0  0  0  0  0  0  0
    0.8886    0.1701    1.4546 O   0  0  0  0  0  0  0  0  0  0  0  0
   -2.0115    1.6558    1.6883 C   0  0  0  0  0  0  0  0  0  0  0  0
   -0.3407   -0.0454    3.4983 H   0  0  0  0  0  0  0  0  0  0  0  0
   -2.2391   -0.4498    1.2679 H   0  0  0  0  0  0  0  0  0  0  0  0
   -1.2718    2.3391    2.1202 H   0  0  0  0  0  0  0  0  0  0  0  0
   -2.2158    1.9692    0.6603 H   0  0  0  0  0  0  0  0  0  0  0  0
   -2.9391    1.7391    2.2639 H   0  0  0  0  0  0  0  0  0  0  0  0
   -0.2521    0.0820   -0.4838 N   0  0  0  0  0  0  0  0  0  0  0  0
    0.9223    0.2813   -1.3531 C   0  0  2  0  0  0  0  0  0  0  0  0
    1.6023    1.6427   -1.1229 C   0  0  0  0  0  0  0  0  0  0  0  0
    2.8203    1.7298   -1.0372 O   0  0  0  0  0  0  0  0  0  0  0  0
    0.5165    0.1538   -2.8324 C   0  0  0  0  0  0  0  0  0  0  0  0
   -0.3368   -1.0664   -3.0771 C   0  0  0  0  0  0  0  0  0  0  0  0
   -1.6297   -1.0571   -3.5450 C   0  0  0  0  0  0  0  0  0  0  0  0
    0.0418   -2.4581   -2.8566 C   0  0  0  0  0  0  0  0  0  0  0  0
   -2.0687   -2.3770   -3.5949 N   0  0  0  0  0  0  0  0  0  0  0  0
   -1.0636   -3.2362   -3.1821 C   0  0  0  0  0  0  0  0  0  0  0  0
    1.2239   -3.0682   -2.4203 C   0  0  0  0  0  0  0  0  0  0  0  0
   -1.0247   -4.6260   -3.0705 C   0  0  0  0  0  0  0  0  0  0  0  0
    1.2740   -4.4641   -2.3009 C   0  0  0  0  0  0  0  0  0  0  0  0
    0.1522   -5.2423   -2.6235 C   0  0  0  0  0  0  0  0  0  0  0  0
   -1.1272   -0.2054   -0.9168 H   0  0  0  0  0  0  0  0  0  0  0  0
    1.6593   -0.4932   -1.1190 H   0  0  0  0  0  0  0  0  0  0  0  0
    1.4180    0.0938   -3.4515 H   0  0  0  0  0  0  0  0  0  0  0  0
   -0.0365    1.0466   -3.1417 H   0  0  0  0  0  0  0  0  0  0  0  0
   -2.2016   -0.1726   -3.8178 H   0  0  0  0  0  0  0  0  0  0  0  0
   -2.9859   -2.6836   -3.9157 H   0  0  0  0  0  0  0  0  0  0  0  0
    2.0975   -2.4722   -2.1787 H   0  0  0  0  0  0  0  0  0  0  0  0
   -1.8943   -5.2210   -3.3272 H   0  0  0  0  0  0  0  0  0  0  0  0
    2.1862   -4.9441   -1.9587 H   0  0  0  0  0  0  0  0  0  0  0  0
    0.1972   -6.3234   -2.5295 H   0  0  0  0  0  0  0  0  0  0  0  0
    0.8312    2.7863   -1.0160 N   0  0  0  0  0  0  0  0  0  0  0  0
    1.3625    4.0483   -0.4843 C   0  0  2  0  0  0  0  0  0  0  0  0
    1.5283    3.9766    1.0525 C   0  0  0  0  0  0  0  0  0  0  0  0
    0.7638    4.5690    1.8060 O   0  0  0  0  0  0  0  0  0  0  0  0
    0.4254    5.1749   -0.9346 C   0  0  0  0  0  0  0  0  0  0  0  0
   -0.1668    2.6263   -0.9223 H   0  0  0  0  0  0  0  0  0  0  0  0
    2.3513    4.2474   -0.9117 H   0  0  0  0  0  0  0  0  0  0  0  0
   -0.5834    5.0224   -0.5377 H   0  0  0  0  0  0  0  0  0  0  0  0
    0.7956    6.1407   -0.5756 H   0  0  0  0  0  0  0  0  0  0  0  0
    0.3710    5.2099   -2.0269 H   0  0  0  0  0  0  0  0  0  0  0  0
    2.5027    3.1524    1.5787 N   0  0  0  0  0  0  0  0  0  0  0  0
    2.5823    2.8131    2.9921 C   0  0  0  0  0  0  0  0  0  0  0  0
    2.9598    2.5315    0.9059 H   0  0  0  0  0  0  0  0  0  0  0  0
    2.6809    3.7184    3.6000 H   0  0  0  0  0  0  0  0  0  0  0  0
    1.6843    2.2712    3.3061 H   0  0  0  0  0  0  0  0  0  0  0  0
    3.4538    2.1775    3.1762 H   0  0  0  0  0  0  0  0  0  0  0  0
  1  2  2  0  0  0  0
  1  3  1  0  0  0  0
  1  7  1  0  0  0  0
  3  4  1  0  0  0  0
  3  5  1  0  0  0  0
  3  6  1  0  0  0  0
  7  8  1  0  0  0  0
  7 12  1  0  0  0  0
  8  9  1  0  0  0  0
  8 11  1  0  0  0  0
  8 13  1  0  0  0  0
  9 10  2  0  0  0  0
  9 17  1  0  0  0  0
 11 14  1  0  0  0  0
 11 15  1  0  0  0  0
 11 16  1  0  0  0  0
 17 18  1  0  0  0  0
 17 31  1  0  0  0  0
 18 19  1  0  0  0  0
 18 21  1  0  0  0  0
 18 32  1  0  0  0  0
 19 20  2  0  0  0  0
 19 41  1  0  0  0  0
 21 22  1  0  0  0  0
 21 33  1  0  0  0  0
 21 34  1  0  0  0  0
 22 23  2  0  0  0  0
 22 24  1  0  0  0  0
 23 25  1  0  0  0  0
 23 35  1  0  0  0  0
 24 26  2  0  0  0  0
 24 27  1  0  0  0  0
 25 26  1  0  0  0  0
 25 36  1  0  0  0  0
 26 28  1  0  0  0  0
 27 29  2  0  0  0  0
 27 37  1  0  0  0  0
 28 30  2  0  0  0  0
 28 38  1  0  0  0  0
 29 30  1  0  0  0  0
 29 39  1  0  0  0  0
 30 40  1  0  0  0  0
 41 42  1  0  0  0  0
 41 46  1  0  0  0  0
 42 43  1  0  0  0  0
 42 45  1  0  0  0  0
 42 47  1  0  0  0  0
 43 44  2  0  0  0  0
 43 51  1  0  0  0  0
 45 48  1  0  0  0  0
 45 49  1  0  0  0  0
 45 50  1  0  0  0  0
 51 52  1  0  0  0  0
 51 53  1  0  0  0  0
 52 54  1  0  0  0  0
 52 55  1  0  0  0  0
 52 56  1  0  0  0  0
M  END
$$$$
