
  -OEChem-02062319033D

 56 57  0     1  0  0  0  0  0999 V2000
   -2.2900    0.3401    4.1553 C   0  0  0  0  0  0  0  0  0  0  0  0
   -1.3426   -0.2746    3.6796 O   0  0  0  0  0  0  0  0  0  0  0  0
   -2.7219    0.0577    5.5560 C   0  0  0  0  0  0  0  0  0  0  0  0
   -3.4815   -0.7386    5.6094 H   0  0  0  0  0  0  0  0  0  0  0  0
   -1.8906   -0.2899    6.1903 H   0  0  0  0  0  0  0  0  0  0  0  0
   -3.1599    0.9126    6.0956 H   0  0  0  0  0  0  0  0  0  0  0  0
   -3.0397    1.3125    3.5142 N   0  0  0  0  0  0  0  0  0  0  0  0
   -2.7928    1.7385    2.1618 C   0  0  2  0  0  0  0  0  0  0  0  0
   -1.4579    1.1532    1.7206 C   0  0  0  0  0  0  0  0  0  0  0  0
   -0.5858    0.8004    2.5118 O   0  0  0  0  0  0  0  0  0  0  0  0
   -2.7841    3.2553    2.0523 C   0  0  0  0  0  0  0  0  0  0  0  0
   -3.8047    1.7484    4.0260 H   0  0  0  0  0  0  0  0  0  0  0  0
   -3.5969    1.3201    1.5466 H   0  0  0  0  0  0  0  0  0  0  0  0
   -1.9850    3.6926    2.6620 H   0  0  0  0  0  0  0  0  0  0  0  0
   -2.6246    3.5776    1.0180 H   0  0  0  0  0  0  0  0  0  0  0  0
   -3.7342    3.6765    2.3981 H   0  0  0  0  0  0  0  0  0  0  0  0
   -1.3352    1.1101    0.3372 N   0  0  0  0  0  0  0  0  0  0  0  0
   -0.1627    0.5982   -0.3266 C   0  0  2  0  0  0  0  0  0  0  0  0
    1.0180    1.4523    0.1212 C   0  0  0  0  0  0  0  0  0  0  0  0
    2.1121    0.9778    0.4194 O   0  0  0  0  0  0  0  0  0  0  0  0
   -0.2989    0.6355   -1.8531 C   0  0  0  0  0  0  0  0  0  0  0  0
   -1.3530   -0.3137   -2.3684 C   0  0  0  0  0  0  0  0  0  0  0  0
   -2.6502    0.0202   -2.6826 C   0  0  0  0  0  0  0  0  0  0  0  0
   -1.1912   -1.7052   -2.6185 C   0  0  0  0  0  0  0  0  0  0  0  0
   -3.2845   -1.1139   -3.1138 N   0  0  0  0  0  0  0  0  0  0  0  0
   -2.4176   -2.1830   -3.0853 C   0  0  0  0  0  0  0  0  0  0  0  0
   -0.1157   -2.6067   -2.4922 C   0  0  0  0  0  0  0  0  0  0  0  0
   -2.6232   -3.5227   -3.4335 C   0  0  0  0  0  0  0  0  0  0  0  0
   -0.3067   -3.9498   -2.8368 C   0  0  0  0  0  0  0  0  0  0  0  0
   -1.5420   -4.3985   -3.3000 C   0  0  0  0  0  0  0  0  0  0  0  0
   -2.1152    1.4151   -0.2401 H   0  0  0  0  0  0  0  0  0  0  0  0
   -0.0216   -0.4271    0.0351 H   0  0  0  0  0  0  0  0  0  0  0  0
    0.6659    0.4085   -2.3267 H   0  0  0  0  0  0  0  0  0  0  0  0
   -0.5540    1.6487   -2.1907 H   0  0  0  0  0  0  0  0  0  0  0  0
   -3.1799    0.9618   -2.6369 H   0  0  0  0  0  0  0  0  0  0  0  0
   -4.2496   -1.1604   -3.4105 H   0  0  0  0  0  0  0  0  0  0  0  0
    0.8530   -2.2727   -2.1318 H   0  0  0  0  0  0  0  0  0  0  0  0
   -3.5841   -3.8727   -3.7951 H   0  0  0  0  0  0  0  0  0  0  0  0
    0.5188   -4.6499   -2.7410 H   0  0  0  0  0  0  0  0  0  0  0  0
   -1.6681   -5.4458   -3.5620 H   0  0  0  0  0  0  0  0  0  0  0  0
    0.7173    2.8071    0.0991 N   0  0  0  0  0  0  0  0  0  0  0  0
    1.6669    3.8367    0.4555 C   0  0  2  0  0  0  0  0  0  0  0  0
    2.2838    3.4635    1.7970 C   0  0  0  0  0  0  0  0  0  0  0  0
    1.7385    2.7084    2.5992 O   0  0  0  0  0  0  0  0  0  0  0  0
    1.0021    5.2027    0.5241 C   0  0  0  0  0  0  0  0  0  0  0  0
   -0.2172    3.0892   -0.1817 H   0  0  0  0  0  0  0  0  0  0  0  0
    2.4429    3.8326   -0.3177 H   0  0  0  0  0  0  0  0  0  0  0  0
    0.2217    5.2261    1.2934 H   0  0  0  0  0  0  0  0  0  0  0  0
    1.7284    5.9857    0.7662 H   0  0  0  0  0  0  0  0  0  0  0  0
    0.5333    5.4565   -0.4328 H   0  0  0  0  0  0  0  0  0  0  0  0
    3.4947    4.1068    2.0116 N   0  0  0  0  0  0  0  0  0  0  0  0
    4.2701    3.9272    3.2168 C   0  0  0  0  0  0  0  0  0  0  0  0
    3.8808    4.7009    1.2838 H   0  0  0  0  0  0  0  0  0  0  0  0
    3.9995    4.7045    3.9467 H   0  0  0  0  0  0  0  0  0  0  0  0
    4.0604    2.9351    3.6431 H   0  0  0  0  0  0  0  0  0  0  0  0
    5.3411    4.0051    2.9786 H   0  0  0  0  0  0  0  0  0  0  0  0
 29 30  2  0  0  0  0
 27 29  1  0  0  0  0
 28 30  1  0  0  0  0
 24 27  2  0  0  0  0
 26 28  2  0  0  0  0
 22 23  2  0  0  0  0
 23 25  1  0  0  0  0
 22 24  1  0  0  0  0
 24 26  1  0  0  0  0
 21 22  1  0  0  0  0
 25 26  1  0  0  0  0
  1  3  1  0  0  0  0
  1  7  1  0  0  0  0
  1  2  2  0  0  0  0
 42 43  1  0  0  0  0
 43 51  1  0  0  0  0
 43 44  2  0  0  0  0
  8  9  1  0  0  0  0
  9 17  1  0  0  0  0
  9 10  2  0  0  0  0
 18 19  1  0  0  0  0
 19 41  1  0  0  0  0
 19 20  2  0  0  0  0
 42 45  1  0  0  0  0
  8 11  1  0  0  0  0
 51 52  1  0  0  0  0
 18 21  1  0  0  0  0
 41 42  1  0  0  0  0
  7  8  1  0  0  0  0
 17 18  1  0  0  0  0
 29 39  1  0  0  0  0
 30 40  1  0  0  0  0
 27 37  1  0  0  0  0
 28 38  1  0  0  0  0
 23 35  1  0  0  0  0
  3  4  1  0  0  0  0
  3  5  1  0  0  0  0
  3  6  1  0  0  0  0
 45 48  1  0  0  0  0
 45 49  1  0  0  0  0
 45 50  1  0  0  0  0
 11 14  1  0  0  0  0
 11 15  1  0  0  0  0
 11 16  1  0  0  0  0
 52 54  1  0  0  0  0
 52 55  1  0  0  0  0
 52 56  1  0  0  0  0
 21 33  1  0  0  0  0
 21 34  1  0  0  0  0
 42 47  1  0  0  0  0
  8 13  1  0  0  0  0
 18 32  1  0  0  0  0
 25 36  1  0  0  0  0
 51 53  1  0  0  0  0
  7 12  1  0  0  0  0
 41 46  1  0  0  0  0
 17 31  1  0  0  0  0
M  END
$$$$

  -OEChem-02062319033D

 56 57  0     1  0  0  0  0  0999 V2000
   -2.2900    0.3401    4.1553 C   0  0  0  0  0  0  0  0  0  0  0  0
   -1.3426   -0.2746    3.6796 O   0  0  0  0  0  0  0  0  0  0  0  0
   -2.7219    0.0577    5.5560 C   0  0  0  0  0  0  0  0  0  0  0  0
   -3.4815   -0.7386    5.6094 H   0  0  0  0  0  0  0  0  0  0  0  0
   -1.8906   -0.2899    6.1903 H   0  0  0  0  0  0  0  0  0  0  0  0
   -3.1599    0.9126    6.0956 H   0  0  0  0  0  0  0  0  0  0  0  0
   -3.0397    1.3125    3.5142 N   0  0  0  0  0  0  0  0  0  0  0  0
   -2.7928    1.7385    2.1618 C   0  0  2  0  0  0  0  0  0  0  0  0
   -1.4579    1.1532    1.7206 C   0  0  0  0  0  0  0  0  0  0  0  0
   -0.5858    0.8004    2.5118 O   0  0  0  0  0  0  0  0  0  0  0  0
   -2.7841    3.2553    2.0523 C   0  0  0  0  0  0  0  0  0  0  0  0
   -3.8047    1.7484    4.0260 H   0  0  0  0  0  0  0  0  0  0  0  0
   -3.5969    1.3201    1.5466 H   0  0  0  0  0  0  0  0  0  0  0  0
   -1.9850    3.6926    2.6620 H   0  0  0  0  0  0  0  0  0  0  0  0
   -2.6246    3.5776    1.0180 H   0  0  0  0  0  0  0  0  0  0  0  0
   -3.7342    3.6765    2.3981 H   0  0  0  0  0  0  0  0  0  0  0  0
   -1.3352    1.1101    0.3372 N   0  0  0  0  0  0  0  0  0  0  0  0
   -0.3269    0.3279   -0.3327 C   0  0  2  0  0  0  0  0  0  0  0  0
    1.0290    0.8387    0.1413 C   0  0  0  0  0  0  0  0  0  0  0  0
    1.9606    0.0919    0.4336 O   0  0  0  0  0  0  0  0  0  0  0  0
   -0.4320    0.4323   -1.8585 C   0  0  0  0  0  0  0  0  0  0  0  0
   -1.6893   -0.2017   -2.4017 C   0  0  0  0  0  0  0  0  0  0  0  0
   -2.8532    0.4621   -2.7143 C   0  0  0  0  0  0  0  0  0  0  0  0
   -1.8887   -1.5820   -2.6842 C   0  0  0  0  0  0  0  0  0  0  0  0
   -3.7535   -0.4605   -3.1757 N   0  0  0  0  0  0  0  0  0  0  0  0
   -3.1916   -1.7172   -3.1684 C   0  0  0  0  0  0  0  0  0  0  0  0
   -1.0832   -2.7329   -2.5740 C   0  0  0  0  0  0  0  0  0  0  0  0
   -3.7314   -2.9508   -3.5495 C   0  0  0  0  0  0  0  0  0  0  0  0
   -1.6099   -3.9735   -2.9516 C   0  0  0  0  0  0  0  0  0  0  0  0
   -2.9139   -4.0784   -3.4316 C   0  0  0  0  0  0  0  0  0  0  0  0
   -2.0039    1.6183   -0.2366 H   0  0  0  0  0  0  0  0  0  0  0  0
   -0.4586   -0.7068    0.0051 H   0  0  0  0  0  0  0  0  0  0  0  0
    0.4469   -0.0254   -2.3326 H   0  0  0  0  0  0  0  0  0  0  0  0
   -0.4138    1.4841   -2.1732 H   0  0  0  0  0  0  0  0  0  0  0  0
   -3.1229    1.5072   -2.6489 H   0  0  0  0  0  0  0  0  0  0  0  0
   -4.6946   -0.2501   -3.4783 H   0  0  0  0  0  0  0  0  0  0  0  0
   -0.0651   -2.6678   -2.2009 H   0  0  0  0  0  0  0  0  0  0  0  0
   -4.7460   -3.0333   -3.9243 H   0  0  0  0  0  0  0  0  0  0  0  0
   -0.9936   -4.8646   -2.8684 H   0  0  0  0  0  0  0  0  0  0  0  0
   -3.3026   -5.0519   -3.7192 H   0  0  0  0  0  0  0  0  0  0  0  0
    1.0877    2.2254    0.1501 N   0  0  0  0  0  0  0  0  0  0  0  0
    2.2664    2.9674    0.5357 C   0  0  2  0  0  0  0  0  0  0  0  0
    2.7515    2.4187    1.8711 C   0  0  0  0  0  0  0  0  0  0  0  0
    2.0213    1.8124    2.6522 O   0  0  0  0  0  0  0  0  0  0  0  0
    1.9753    4.4568    0.6336 C   0  0  0  0  0  0  0  0  0  0  0  0
    0.2605    2.7449   -0.1286 H   0  0  0  0  0  0  0  0  0  0  0  0
    3.0236    2.7803   -0.2334 H   0  0  0  0  0  0  0  0  0  0  0  0
    1.2188    4.6638    1.3993 H   0  0  0  0  0  0  0  0  0  0  0  0
    2.8760    5.0207    0.8980 H   0  0  0  0  0  0  0  0  0  0  0  0
    1.5982    4.8437   -0.3193 H   0  0  0  0  0  0  0  0  0  0  0  0
    4.0849    2.7233    2.1071 N   0  0  0  0  0  0  0  0  0  0  0  0
    4.7745    2.3237    3.3115 C   0  0  0  0  0  0  0  0  0  0  0  0
    4.6190    3.2134    1.3956 H   0  0  0  0  0  0  0  0  0  0  0  0
    4.7052    3.1283    4.0584 H   0  0  0  0  0  0  0  0  0  0  0  0
    4.3116    1.4101    3.7130 H   0  0  0  0  0  0  0  0  0  0  0  0
    5.8320    2.1280    3.0806 H   0  0  0  0  0  0  0  0  0  0  0  0
 29 30  2  0  0  0  0
 27 29  1  0  0  0  0
 28 30  1  0  0  0  0
 24 27  2  0  0  0  0
 26 28  2  0  0  0  0
 22 23  2  0  0  0  0
 23 25  1  0  0  0  0
 22 24  1  0  0  0  0
 24 26  1  0  0  0  0
 21 22  1  0  0  0  0
 25 26  1  0  0  0  0
  1  3  1  0  0  0  0
  1  7  1  0  0  0  0
  1  2  2  0  0  0  0
 42 43  1  0  0  0  0
 43 51  1  0  0  0  0
 43 44  2  0  0  0  0
  8  9  1  0  0  0  0
  9 17  1  0  0  0  0
  9 10  2  0  0  0  0
 18 19  1  0  0  0  0
 19 41  1  0  0  0  0
 19 20  2  0  0  0  0
 42 45  1  0  0  0  0
  8 11  1  0  0  0  0
 51 52  1  0  0  0  0
 18 21  1  0  0  0  0
 41 42  1  0  0  0  0
  7  8  1  0  0  0  0
 17 18  1  0  0  0  0
 29 39  1  0  0  0  0
 30 40  1  0  0  0  0
 27 37  1  0  0  0  0
 28 38  1  0  0  0  0
 23 35  1  0  0  0  0
  3  4  1  0  0  0  0
  3  5  1  0  0  0  0
  3  6  1  0  0  0  0
 45 48  1  0  0  0  0
 45 49  1  0  0  0  0
 45 50  1  0  0  0  0
 11 14  1  0  0  0  0
 11 15  1  0  0  0  0
 11 16  1  0  0  0  0
 52 54  1  0  0  0  0
 52 55  1  0  0  0  0
 52 56  1  0  0  0  0
 21 33  1  0  0  0  0
 21 34  1  0  0  0  0
 42 47  1  0  0  0  0
  8 13  1  0  0  0  0
 18 32  1  0  0  0  0
 25 36  1  0  0  0  0
 51 53  1  0  0  0  0
  7 12  1  0  0  0  0
 41 46  1  0  0  0  0
 17 31  1  0  0  0  0
M  END
$$$$

  -OEChem-02062319033D

 56 57  0     1  0  0  0  0  0999 V2000
   -2.2900    0.3401    4.1553 C   0  0  0  0  0  0  0  0  0  0  0  0
   -1.3426   -0.2746    3.6796 O   0  0  0  0  0  0  0  0  0  0  0  0
   -2.7219    0.0577    5.5560 C   0  0  0  0  0  0  0  0  0  0  0  0
   -3.4815   -0.7386    5.6094 H   0  0  0  0  0  0  0  0  0  0  0  0
   -1.8906   -0.2899    6.1903 H   0  0  0  0  0  0  0  0  0  0  0  0
   -3.1599    0.9126    6.0956 H   0  0  0  0  0  0  0  0  0  0  0  0
   -3.0397    1.3125    3.5142 N   0  0  0  0  0  0  0  0  0  0  0  0
   -2.7928    1.7385    2.1618 C   0  0  2  0  0  0  0  0  0  0  0  0
   -1.4579    1.1532    1.7206 C   0  0  0  0  0  0  0  0  0  0  0  0
   -0.5858    0.8004    2.5118 O   0  0  0  0  0  0  0  0  0  0  0  0
   -2.7841    3.2553    2.0523 C   0  0  0  0  0  0  0  0  0  0  0  0
   -3.8047    1.7484    4.0260 H   0  0  0  0  0  0  0  0  0  0  0  0
   -3.5969    1.3201    1.5466 H   0  0  0  0  0  0  0  0  0  0  0  0
   -1.9850    3.6926    2.6620 H   0  0  0  0  0  0  0  0  0  0  0  0
   -2.6246    3.5776    1.0180 H   0  0  0  0  0  0  0  0  0  0  0  0
   -3.7342    3.6765    2.3981 H   0  0  0  0  0  0  0  0  0  0  0  0
   -1.3352    1.1101    0.3372 N   0  0  0  0  0  0  0  0  0  0  0  0
   -0.5551    0.1092   -0.3461 C   0  0  2  0  0  0  0  0  0  0  0  0
    0.8813    0.2428    0.1468 C   0  0  0  0  0  0  0  0  0  0  0  0
    1.5858   -0.7251    0.4258 O   0  0  0  0  0  0  0  0  0  0  0  0
   -0.6129    0.2704   -1.8695 C   0  0  0  0  0  0  0  0  0  0  0  0
   -1.9851   -0.0060   -2.4340 C   0  0  0  0  0  0  0  0  0  0  0  0
   -2.9352    0.9420   -2.7366 C   0  0  0  0  0  0  0  0  0  0  0  0
   -2.5301   -1.2819   -2.7504 C   0  0  0  0  0  0  0  0  0  0  0  0
   -4.0375    0.2929   -3.2244 N   0  0  0  0  0  0  0  0  0  0  0  0
   -3.8184   -1.0661   -3.2443 C   0  0  0  0  0  0  0  0  0  0  0  0
   -2.0495   -2.6036   -2.6637 C   0  0  0  0  0  0  0  0  0  0  0  0
   -4.6536   -2.1101   -3.6575 C   0  0  0  0  0  0  0  0  0  0  0  0
   -2.8738   -3.6579   -3.0735 C   0  0  0  0  0  0  0  0  0  0  0  0
   -4.1554   -3.4127   -3.5624 C   0  0  0  0  0  0  0  0  0  0  0  0
   -1.8440    1.7859   -0.2276 H   0  0  0  0  0  0  0  0  0  0  0  0
   -0.9526   -0.8637   -0.0338 H   0  0  0  0  0  0  0  0  0  0  0  0
    0.1236   -0.3879   -2.3500 H   0  0  0  0  0  0  0  0  0  0  0  0
   -0.3209    1.2886   -2.1589 H   0  0  0  0  0  0  0  0  0  0  0  0
   -2.9273    2.0196   -2.6475 H   0  0  0  0  0  0  0  0  0  0  0  0
   -4.8893    0.7453   -3.5266 H   0  0  0  0  0  0  0  0  0  0  0  0
   -1.0532   -2.8113   -2.2840 H   0  0  0  0  0  0  0  0  0  0  0  0
   -5.6510   -1.9201   -4.0392 H   0  0  0  0  0  0  0  0  0  0  0  0
   -2.5089   -4.6794   -3.0086 H   0  0  0  0  0  0  0  0  0  0  0  0
   -4.7786   -4.2466   -3.8752 H   0  0  0  0  0  0  0  0  0  0  0  0
    1.2951    1.5670    0.1890 N   0  0  0  0  0  0  0  0  0  0  0  0
    2.6209    1.9715    0.5982 C   0  0  2  0  0  0  0  0  0  0  0  0
    2.9336    1.2873    1.9225 C   0  0  0  0  0  0  0  0  0  0  0  0
    2.0632    0.8728    2.6852 O   0  0  0  0  0  0  0  0  0  0  0  0
    2.7222    3.4831    0.7302 C   0  0  0  0  0  0  0  0  0  0  0  0
    0.6328    2.2881   -0.0814 H   0  0  0  0  0  0  0  0  0  0  0  0
    3.3128    1.6123   -0.1714 H   0  0  0  0  0  0  0  0  0  0  0  0
    2.0361    3.8614    1.4968 H   0  0  0  0  0  0  0  0  0  0  0  0
    3.7347    3.7898    1.0125 H   0  0  0  0  0  0  0  0  0  0  0  0
    2.4680    3.9747   -0.2151 H   0  0  0  0  0  0  0  0  0  0  0  0
    4.2976    1.2326    2.1724 N   0  0  0  0  0  0  0  0  0  0  0  0
    4.8477    0.6426    3.3704 C   0  0  0  0  0  0  0  0  0  0  0  0
    4.9478    1.5839    1.4755 H   0  0  0  0  0  0  0  0  0  0  0  0
    4.9798    1.4214    4.1360 H   0  0  0  0  0  0  0  0  0  0  0  0
    4.1608   -0.1293    3.7476 H   0  0  0  0  0  0  0  0  0  0  0  0
    5.8216    0.1860    3.1402 H   0  0  0  0  0  0  0  0  0  0  0  0
 29 30  2  0  0  0  0
 27 29  1  0  0  0  0
 28 30  1  0  0  0  0
 24 27  2  0  0  0  0
 26 28  2  0  0  0  0
 22 23  2  0  0  0  0
 23 25  1  0  0  0  0
 22 24  1  0  0  0  0
 24 26  1  0  0  0  0
 21 22  1  0  0  0  0
 25 26  1  0  0  0  0
  1  3  1  0  0  0  0
  1  7  1  0  0  0  0
  1  2  2  0  0  0  0
 42 43  1  0  0  0  0
 43 51  1  0  0  0  0
 43 44  2  0  0  0  0
  8  9  1  0  0  0  0
  9 17  1  0  0  0  0
  9 10  2  0  0  0  0
 18 19  1  0  0  0  0
 19 41  1  0  0  0  0
 19 20  2  0  0  0  0
 42 45  1  0  0  0  0
  8 11  1  0  0  0  0
 51 52  1  0  0  0  0
 18 21  1  0  0  0  0
 41 42  1  0  0  0  0
  7  8  1  0  0  0  0
 17 18  1  0  0  0  0
 29 39  1  0  0  0  0
 30 40  1  0  0  0  0
 27 37  1  0  0  0  0
 28 38  1  0  0  0  0
 23 35  1  0  0  0  0
  3  4  1  0  0  0  0
  3  5  1  0  0  0  0
  3  6  1  0  0  0  0
 45 48  1  0  0  0  0
 45 49  1  0  0  0  0
 45 50  1  0  0  0  0
 11 14  1  0  0  0  0
 11 15  1  0  0  0  0
 11 16  1  0  0  0  0
 52 54  1  0  0  0  0
 52 55  1  0  0  0  0
 52 56  1  0  0  0  0
 21 33  1  0  0  0  0
 21 34  1  0  0  0  0
 42 47  1  0  0  0  0
  8 13  1  0  0  0  0
 18 32  1  0  0  0  0
 25 36  1  0  0  0  0
 51 53  1  0  0  0  0
  7 12  1  0  0  0  0
 41 46  1  0  0  0  0
 17 31  1  0  0  0  0
M  END
$$$$

  -OEChem-02062319033D

 56 57  0     1  0  0  0  0  0999 V2000
   -2.2900    0.3401    4.1553 C   0  0  0  0  0  0  0  0  0  0  0  0
   -1.3426   -0.2746    3.6796 O   0  0  0  0  0  0  0  0  0  0  0  0
   -2.7219    0.0577    5.5560 C   0  0  0  0  0  0  0  0  0  0  0  0
   -3.4815   -0.7386    5.6094 H   0  0  0  0  0  0  0  0  0  0  0  0
   -1.8906   -0.2899    6.1903 H   0  0  0  0  0  0  0  0  0  0  0  0
   -3.1599    0.9126    6.0956 H   0  0  0  0  0  0  0  0  0  0  0  0
   -3.0397    1.3125    3.5142 N   0  0  0  0  0  0  0  0  0  0  0  0
   -2.7928    1.7385    2.1618 C   0  0  2  0  0  0  0  0  0  0  0  0
   -1.4579    1.1532    1.7206 C   0  0  0  0  0  0  0  0  0  0  0  0
   -0.5858    0.8004    2.5118 O   0  0  0  0  0  0  0  0  0  0  0  0
   -2.7841    3.2553    2.0523 C   0  0  0  0  0  0  0  0  0  0  0  0
   -3.8047    1.7484    4.0260 H   0  0  0  0  0  0  0  0  0  0  0  0
   -3.5969    1.3201    1.5466 H   0  0  0  0  0  0  0  0  0  0  0  0
   -1.9850    3.6926    2.6620 H   0  0  0  0  0  0  0  0  0  0  0  0
   -2.6246    3.5776    1.0180 H   0  0  0  0  0  0  0  0  0  0  0  0
   -3.7342    3.6765    2.3981 H   0  0  0  0  0  0  0  0  0  0  0  0
   -1.3352    1.1101    0.3372 N   0  0  0  0  0  0  0  0  0  0  0  0
   -0.8318   -0.0430   -0.3659 C   0  0  2  0  0  0  0  0  0  0  0  0
    0.5851   -0.2949    0.1373 C   0  0  0  0  0  0  0  0  0  0  0  0
    1.0133   -1.4175    0.3966 O   0  0  0  0  0  0  0  0  0  0  0  0
   -0.8293    0.1609   -1.8853 C   0  0  0  0  0  0  0  0  0  0  0  0
   -2.2200    0.2599   -2.4631 C   0  0  0  0  0  0  0  0  0  0  0  0
   -2.8905    1.4271   -2.7477 C   0  0  0  0  0  0  0  0  0  0  0  0
   -3.0718   -0.8251   -2.8127 C   0  0  0  0  0  0  0  0  0  0  0  0
   -4.1174    1.0950   -3.2565 N   0  0  0  0  0  0  0  0  0  0  0  0
   -4.2556   -0.2738   -3.3077 C   0  0  0  0  0  0  0  0  0  0  0  0
   -2.9489   -2.2276   -2.7552 C   0  0  0  0  0  0  0  0  0  0  0  0
   -5.3269   -1.0580   -3.7500 C   0  0  0  0  0  0  0  0  0  0  0  0
   -4.0124   -3.0247   -3.1942 C   0  0  0  0  0  0  0  0  0  0  0  0
   -5.1821   -2.4468   -3.6836 C   0  0  0  0  0  0  0  0  0  0  0  0
   -1.6465    1.9064   -0.2139 H   0  0  0  0  0  0  0  0  0  0  0  0
   -1.4699   -0.8870   -0.0790 H   0  0  0  0  0  0  0  0  0  0  0  0
   -0.2820   -0.6544   -2.3776 H   0  0  0  0  0  0  0  0  0  0  0  0
   -0.2817    1.0754   -2.1487 H   0  0  0  0  0  0  0  0  0  0  0  0
   -2.6063    2.4641   -2.6329 H   0  0  0  0  0  0  0  0  0  0  0  0
   -4.8205    1.7581   -3.5520 H   0  0  0  0  0  0  0  0  0  0  0  0
   -2.0440   -2.6934   -2.3755 H   0  0  0  0  0  0  0  0  0  0  0  0
   -6.2374   -0.6091   -4.1321 H   0  0  0  0  0  0  0  0  0  0  0  0
   -3.9236   -4.1069   -3.1518 H   0  0  0  0  0  0  0  0  0  0  0  0
   -5.9956   -3.0848   -4.0193 H   0  0  0  0  0  0  0  0  0  0  0  0
    1.3255    0.8766    0.2132 N   0  0  0  0  0  0  0  0  0  0  0  0
    2.7062    0.9167    0.6386 C   0  0  2  0  0  0  0  0  0  0  0  0
    2.8174    0.1463    1.9477 C   0  0  0  0  0  0  0  0  0  0  0  0
    1.8613   -0.0463    2.6960 O   0  0  0  0  0  0  0  0  0  0  0  0
    3.1919    2.3478    0.8072 C   0  0  0  0  0  0  0  0  0  0  0  0
    0.8743    1.7498   -0.0432 H   0  0  0  0  0  0  0  0  0  0  0  0
    3.2906    0.4081   -0.1358 H   0  0  0  0  0  0  0  0  0  0  0  0
    2.6180    2.8734    1.5792 H   0  0  0  0  0  0  0  0  0  0  0  0
    4.2461    2.3769    1.1019 H   0  0  0  0  0  0  0  0  0  0  0  0
    3.0835    2.9089   -0.1273 H   0  0  0  0  0  0  0  0  0  0  0  0
    4.1185   -0.2636    2.2031 N   0  0  0  0  0  0  0  0  0  0  0  0
    4.4848   -1.0014    3.3895 C   0  0  0  0  0  0  0  0  0  0  0  0
    4.8449   -0.0766    1.5181 H   0  0  0  0  0  0  0  0  0  0  0  0
    4.8046   -0.2998    4.1741 H   0  0  0  0  0  0  0  0  0  0  0  0
    3.6181   -1.5782    3.7446 H   0  0  0  0  0  0  0  0  0  0  0  0
    5.3107   -1.6885    3.1534 H   0  0  0  0  0  0  0  0  0  0  0  0
 29 30  2  0  0  0  0
 27 29  1  0  0  0  0
 28 30  1  0  0  0  0
 24 27  2  0  0  0  0
 26 28  2  0  0  0  0
 22 23  2  0  0  0  0
 23 25  1  0  0  0  0
 22 24  1  0  0  0  0
 24 26  1  0  0  0  0
 21 22  1  0  0  0  0
 25 26  1  0  0  0  0
  1  3  1  0  0  0  0
  1  7  1  0  0  0  0
  1  2  2  0  0  0  0
 42 43  1  0  0  0  0
 43 51  1  0  0  0  0
 43 44  2  0  0  0  0
  8  9  1  0  0  0  0
  9 17  1  0  0  0  0
  9 10  2  0  0  0  0
 18 19  1  0  0  0  0
 19 41  1  0  0  0  0
 19 20  2  0  0  0  0
 42 45  1  0  0  0  0
  8 11  1  0  0  0  0
 51 52  1  0  0  0  0
 18 21  1  0  0  0  0
 41 42  1  0  0  0  0
  7  8  1  0  0  0  0
 17 18  1  0  0  0  0
 29 39  1  0  0  0  0
 30 40  1  0  0  0  0
 27 37  1  0  0  0  0
 28 38  1  0  0  0  0
 23 35  1  0  0  0  0
  3  4  1  0  0  0  0
  3  5  1  0  0  0  0
  3  6  1  0  0  0  0
 45 48  1  0  0  0  0
 45 49  1  0  0  0  0
 45 50  1  0  0  0  0
 11 14  1  0  0  0  0
 11 15  1  0  0  0  0
 11 16  1  0  0  0  0
 52 54  1  0  0  0  0
 52 55  1  0  0  0  0
 52 56  1  0  0  0  0
 21 33  1  0  0  0  0
 21 34  1  0  0  0  0
 42 47  1  0  0  0  0
  8 13  1  0  0  0  0
 18 32  1  0  0  0  0
 25 36  1  0  0  0  0
 51 53  1  0  0  0  0
  7 12  1  0  0  0  0
 41 46  1  0  0  0  0
 17 31  1  0  0  0  0
M  END
$$$$

  -OEChem-02062319033D

 56 57  0     1  0  0  0  0  0999 V2000
   -2.2900    0.3401    4.1553 C   0  0  0  0  0  0  0  0  0  0  0  0
   -1.3426   -0.2746    3.6796 O   0  0  0  0  0  0  0  0  0  0  0  0
   -2.7219    0.0577    5.5560 C   0  0  0  0  0  0  0  0  0  0  0  0
   -3.4815   -0.7386    5.6094 H   0  0  0  0  0  0  0  0  0  0  0  0
   -1.8906   -0.2899    6.1903 H   0  0  0  0  0  0  0  0  0  0  0  0
   -3.1599    0.9126    6.0956 H   0  0  0  0  0  0  0  0  0  0  0  0
   -3.0397    1.3125    3.5142 N   0  0  0  0  0  0  0  0  0  0  0  0
   -2.7928    1.7385    2.1618 C   0  0  2  0  0  0  0  0  0  0  0  0
   -1.4579    1.1532    1.7206 C   0  0  0  0  0  0  0  0  0  0  0  0
   -0.5858    0.8004    2.5118 O   0  0  0  0  0  0  0  0  0  0  0  0
   -2.7841    3.2553    2.0523 C   0  0  0  0  0  0  0  0  0  0  0  0
   -3.8047    1.7484    4.0260 H   0  0  0  0  0  0  0  0  0  0  0  0
   -3.5969    1.3201    1.5466 H   0  0  0  0  0  0  0  0  0  0  0  0
   -1.9850    3.6926    2.6620 H   0  0  0  0  0  0  0  0  0  0  0  0
   -2.6246    3.5776    1.0180 H   0  0  0  0  0  0  0  0  0  0  0  0
   -3.7342    3.6765    2.3981 H   0  0  0  0  0  0  0  0  0  0  0  0
   -1.3352    1.1101    0.3372 N   0  0  0  0  0  0  0  0  0  0  0  0
   -1.1381   -0.1182   -0.3907 C   0  0  2  0  0  0  0  0  0  0  0  0
    0.1605   -0.7377    0.1134 C   0  0  0  0  0  0  0  0  0  0  0  0
    0.2822   -1.9382    0.3480 O   0  0  0  0  0  0  0  0  0  0  0  0
   -1.0664    0.1112   -1.9048 C   0  0  0  0  0  0  0  0  0  0  0  0
   -2.3782    0.5779   -2.4871 C   0  0  0  0  0  0  0  0  0  0  0  0
   -2.7222    1.8845   -2.7471 C   0  0  0  0  0  0  0  0  0  0  0  0
   -3.4769   -0.2429   -2.8667 C   0  0  0  0  0  0  0  0  0  0  0  0
   -3.9876    1.8910   -3.2698 N   0  0  0  0  0  0  0  0  0  0  0  0
   -4.4731    0.6055   -3.3544 C   0  0  0  0  0  0  0  0  0  0  0  0
   -3.7200   -1.6306   -2.8422 C   0  0  0  0  0  0  0  0  0  0  0  0
   -5.7053    0.1338   -3.8207 C   0  0  0  0  0  0  0  0  0  0  0  0
   -4.9480   -2.1168   -3.3054 C   0  0  0  0  0  0  0  0  0  0  0  0
   -5.9239   -1.2464   -3.7868 C   0  0  0  0  0  0  0  0  0  0  0  0
   -1.4248    1.9715   -0.1962 H   0  0  0  0  0  0  0  0  0  0  0  0
   -1.9752   -0.7753   -0.1272 H   0  0  0  0  0  0  0  0  0  0  0  0
   -0.7422   -0.8067   -2.4137 H   0  0  0  0  0  0  0  0  0  0  0  0
   -0.2988    0.8592   -2.1435 H   0  0  0  0  0  0  0  0  0  0  0  0
   -2.1818    2.8104   -2.6060 H   0  0  0  0  0  0  0  0  0  0  0  0
   -4.4929    2.7192   -3.5530 H   0  0  0  0  0  0  0  0  0  0  0  0
   -2.9698   -2.3221   -2.4692 H   0  0  0  0  0  0  0  0  0  0  0  0
   -6.4652    0.8105   -4.1965 H   0  0  0  0  0  0  0  0  0  0  0  0
   -5.1415   -3.1860   -3.2885 H   0  0  0  0  0  0  0  0  0  0  0  0
   -6.8705   -1.6457   -4.1417 H   0  0  0  0  0  0  0  0  0  0  0  0
    1.1768    0.2014    0.2210 N   0  0  0  0  0  0  0  0  0  0  0  0
    2.5164   -0.1251    0.6543 C   0  0  2  0  0  0  0  0  0  0  0  0
    2.4110   -0.9264    1.9451 C   0  0  0  0  0  0  0  0  0  0  0  0
    1.4294   -0.8824    2.6837 O   0  0  0  0  0  0  0  0  0  0  0  0
    3.3525    1.1285    0.8595 C   0  0  0  0  0  0  0  0  0  0  0  0
    0.9686    1.1668   -0.0167 H   0  0  0  0  0  0  0  0  0  0  0  0
    2.9586   -0.7501   -0.1292 H   0  0  0  0  0  0  0  0  0  0  0  0
    2.9249    1.7673    1.6408 H   0  0  0  0  0  0  0  0  0  0  0  0
    4.3753    0.8784    1.1600 H   0  0  0  0  0  0  0  0  0  0  0  0
    3.4025    1.7187   -0.0619 H   0  0  0  0  0  0  0  0  0  0  0  0
    3.5597   -1.6633    2.1972 N   0  0  0  0  0  0  0  0  0  0  0  0
    3.7105   -2.4963    3.3674 C   0  0  0  0  0  0  0  0  0  0  0  0
    4.3172   -1.6550    1.5205 H   0  0  0  0  0  0  0  0  0  0  0  0
    4.1915   -1.9182    4.1701 H   0  0  0  0  0  0  0  0  0  0  0  0
    2.7206   -2.8378    3.7043 H   0  0  0  0  0  0  0  0  0  0  0  0
    4.3341   -3.3678    3.1191 H   0  0  0  0  0  0  0  0  0  0  0  0
 29 30  2  0  0  0  0
 27 29  1  0  0  0  0
 28 30  1  0  0  0  0
 24 27  2  0  0  0  0
 26 28  2  0  0  0  0
 22 23  2  0  0  0  0
 23 25  1  0  0  0  0
 22 24  1  0  0  0  0
 24 26  1  0  0  0  0
 21 22  1  0  0  0  0
 25 26  1  0  0  0  0
  1  3  1  0  0  0  0
  1  7  1  0  0  0  0
  1  2  2  0  0  0  0
 42 43  1  0  0  0  0
 43 51  1  0  0  0  0
 43 44  2  0  0  0  0
  8  9  1  0  0  0  0
  9 17  1  0  0  0  0
  9 10  2  0  0  0  0
 18 19  1  0  0  0  0
 19 41  1  0  0  0  0
 19 20  2  0  0  0  0
 42 45  1  0  0  0  0
  8 11  1  0  0  0  0
 51 52  1  0  0  0  0
 18 21  1  0  0  0  0
 41 42  1  0  0  0  0
  7  8  1  0  0  0  0
 17 18  1  0  0  0  0
 29 39  1  0  0  0  0
 30 40  1  0  0  0  0
 27 37  1  0  0  0  0
 28 38  1  0  0  0  0
 23 35  1  0  0  0  0
  3  4  1  0  0  0  0
  3  5  1  0  0  0  0
  3  6  1  0  0  0  0
 45 48  1  0  0  0  0
 45 49  1  0  0  0  0
 45 50  1  0  0  0  0
 11 14  1  0  0  0  0
 11 15  1  0  0  0  0
 11 16  1  0  0  0  0
 52 54  1  0  0  0  0
 52 55  1  0  0  0  0
 52 56  1  0  0  0  0
 21 33  1  0  0  0  0
 21 34  1  0  0  0  0
 42 47  1  0  0  0  0
  8 13  1  0  0  0  0
 18 32  1  0  0  0  0
 25 36  1  0  0  0  0
 51 53  1  0  0  0  0
  7 12  1  0  0  0  0
 41 46  1  0  0  0  0
 17 31  1  0  0  0  0
M  END
$$$$

  -OEChem-02062319033D

 56 57  0     1  0  0  0  0  0999 V2000
   -2.2900    0.3401    4.1553 C   0  0  0  0  0  0  0  0  0  0  0  0
   -1.3426   -0.2746    3.6796 O   0  0  0  0  0  0  0  0  0  0  0  0
   -2.7219    0.0577    5.5560 C   0  0  0  0  0  0  0  0  0  0  0  0
   -3.4815   -0.7386    5.6094 H   0  0  0  0  0  0  0  0  0  0  0  0
   -1.8906   -0.2899    6.1903 H   0  0  0  0  0  0  0  0  0  0  0  0
   -3.1599    0.9126    6.0956 H   0  0  0  0  0  0  0  0  0  0  0  0
   -3.0397    1.3125    3.5142 N   0  0  0  0  0  0  0  0  0  0  0  0
   -2.7928    1.7385    2.1618 C   0  0  2  0  0  0  0  0  0  0  0  0
   -1.4579    1.1532    1.7206 C   0  0  0  0  0  0  0  0  0  0  0  0
   -0.5858    0.8004    2.5118 O   0  0  0  0  0  0  0  0  0  0  0  0
   -2.7841    3.2553    2.0523 C   0  0  0  0  0  0  0  0  0  0  0  0
   -3.8047    1.7484    4.0260 H   0  0  0  0  0  0  0  0  0  0  0  0
   -3.5969    1.3201    1.5466 H   0  0  0  0  0  0  0  0  0  0  0  0
   -1.9850    3.6926    2.6620 H   0  0  0  0  0  0  0  0  0  0  0  0
   -2.6246    3.5776    1.0180 H   0  0  0  0  0  0  0  0  0  0  0  0
   -3.7342    3.6765    2.3981 H   0  0  0  0  0  0  0  0  0  0  0  0
   -1.3352    1.1101    0.3372 N   0  0  0  0  0  0  0  0  0  0  0  0
   -1.4531   -0.1113   -0.4189 C   0  0  2  0  0  0  0  0  0  0  0  0
   -0.3636   -1.0555    0.0769 C   0  0  0  0  0  0  0  0  0  0  0  0
   -0.5578   -2.2516    0.2833 O   0  0  0  0  0  0  0  0  0  0  0  0
   -1.3081    0.1248   -1.9266 C   0  0  0  0  0  0  0  0  0  0  0  0
   -2.4489    0.9265   -2.5042 C   0  0  0  0  0  0  0  0  0  0  0  0
   -2.4419    2.2829   -2.7346 C   0  0  0  0  0  0  0  0  0  0  0  0
   -3.7177    0.4250   -2.9089 C   0  0  0  0  0  0  0  0  0  0  0  0
   -3.6570    2.6267   -3.2634 N   0  0  0  0  0  0  0  0  0  0  0  0
   -4.4563    1.5121   -3.3812 C   0  0  0  0  0  0  0  0  0  0  0  0
   -4.3103   -0.8533   -2.9187 C   0  0  0  0  0  0  0  0  0  0  0  0
   -5.7632    1.3842   -3.8648 C   0  0  0  0  0  0  0  0  0  0  0  0
   -5.6169   -0.9963   -3.3997 C   0  0  0  0  0  0  0  0  0  0  0  0
   -6.3303    0.1066   -3.8649 C   0  0  0  0  0  0  0  0  0  0  0  0
   -1.1940    1.9769   -0.1759 H   0  0  0  0  0  0  0  0  0  0  0  0
   -2.4341   -0.5360   -0.1754 H   0  0  0  0  0  0  0  0  0  0  0  0
   -1.2256   -0.8343   -2.4557 H   0  0  0  0  0  0  0  0  0  0  0  0
   -0.3711    0.6547   -2.1436 H   0  0  0  0  0  0  0  0  0  0  0  0
   -1.6827    3.0349   -2.5688 H   0  0  0  0  0  0  0  0  0  0  0  0
   -3.9288    3.5632   -3.5292 H   0  0  0  0  0  0  0  0  0  0  0  0
   -3.7677   -1.7227   -2.5586 H   0  0  0  0  0  0  0  0  0  0  0  0
   -6.3189    2.2419   -4.2282 H   0  0  0  0  0  0  0  0  0  0  0  0
   -6.0795   -1.9796   -3.4093 H   0  0  0  0  0  0  0  0  0  0  0  0
   -7.3439   -0.0274   -4.2341 H   0  0  0  0  0  0  0  0  0  0  0  0
    0.8591   -0.4127    0.2120 N   0  0  0  0  0  0  0  0  0  0  0  0
    2.0645   -1.0828    0.6441 C   0  0  2  0  0  0  0  0  0  0  0  0
    1.7420   -1.8578    1.9148 C   0  0  0  0  0  0  0  0  0  0  0  0
    0.7968   -1.5783    2.6493 O   0  0  0  0  0  0  0  0  0  0  0  0
    3.1930   -0.0919    0.8833 C   0  0  0  0  0  0  0  0  0  0  0  0
    0.9092    0.5787   -0.0036 H   0  0  0  0  0  0  0  0  0  0  0  0
    2.3394   -1.7835   -0.1519 H   0  0  0  0  0  0  0  0  0  0  0  0
    2.9358    0.6183    1.6776 H   0  0  0  0  0  0  0  0  0  0  0  0
    4.1135   -0.6037    1.1830 H   0  0  0  0  0  0  0  0  0  0  0  0
    3.4035    0.4854   -0.0234 H   0  0  0  0  0  0  0  0  0  0  0  0
    2.6593   -2.8712    2.1550 N   0  0  0  0  0  0  0  0  0  0  0  0
    2.5775   -3.7402    3.3057 C   0  0  0  0  0  0  0  0  0  0  0  0
    3.4008   -3.0438    1.4826 H   0  0  0  0  0  0  0  0  0  0  0  0
    3.1824   -3.3233    4.1245 H   0  0  0  0  0  0  0  0  0  0  0  0
    1.5294   -3.8223    3.6293 H   0  0  0  0  0  0  0  0  0  0  0  0
    2.9583   -4.7374    3.0398 H   0  0  0  0  0  0  0  0  0  0  0  0
 29 30  2  0  0  0  0
 27 29  1  0  0  0  0
 28 30  1  0  0  0  0
 24 27  2  0  0  0  0
 26 28  2  0  0  0  0
 22 23  2  0  0  0  0
 23 25  1  0  0  0  0
 22 24  1  0  0  0  0
 24 26  1  0  0  0  0
 21 22  1  0  0  0  0
 25 26  1  0  0  0  0
  1  3  1  0  0  0  0
  1  7  1  0  0  0  0
  1  2  2  0  0  0  0
 42 43  1  0  0  0  0
 43 51  1  0  0  0  0
 43 44  2  0  0  0  0
  8  9  1  0  0  0  0
  9 17  1  0  0  0  0
  9 10  2  0  0  0  0
 18 19  1  0  0  0  0
 19 41  1  0  0  0  0
 19 20  2  0  0  0  0
 42 45  1  0  0  0  0
  8 11  1  0  0  0  0
 51 52  1  0  0  0  0
 18 21  1  0  0  0  0
 41 42  1  0  0  0  0
  7  8  1  0  0  0  0
 17 18  1  0  0  0  0
 29 39  1  0  0  0  0
 30 40  1  0  0  0  0
 27 37  1  0  0  0  0
 28 38  1  0  0  0  0
 23 35  1  0  0  0  0
  3  4  1  0  0  0  0
  3  5  1  0  0  0  0
  3  6  1  0  0  0  0
 45 48  1  0  0  0  0
 45 49  1  0  0  0  0
 45 50  1  0  0  0  0
 11 14  1  0  0  0  0
 11 15  1  0  0  0  0
 11 16  1  0  0  0  0
 52 54  1  0  0  0  0
 52 55  1  0  0  0  0
 52 56  1  0  0  0  0
 21 33  1  0  0  0  0
 21 34  1  0  0  0  0
 42 47  1  0  0  0  0
  8 13  1  0  0  0  0
 18 32  1  0  0  0  0
 25 36  1  0  0  0  0
 51 53  1  0  0  0  0
  7 12  1  0  0  0  0
 41 46  1  0  0  0  0
 17 31  1  0  0  0  0
M  END
$$$$

  -OEChem-02062319033D

 56 57  0     1  0  0  0  0  0999 V2000
   -2.2900    0.3401    4.1553 C   0  0  0  0  0  0  0  0  0  0  0  0
   -1.3426   -0.2746    3.6796 O   0  0  0  0  0  0  0  0  0  0  0  0
   -2.7219    0.0577    5.5560 C   0  0  0  0  0  0  0  0  0  0  0  0
   -3.4815   -0.7386    5.6094 H   0  0  0  0  0  0  0  0  0  0  0  0
   -1.8906   -0.2899    6.1903 H   0  0  0  0  0  0  0  0  0  0  0  0
   -3.1599    0.9126    6.0956 H   0  0  0  0  0  0  0  0  0  0  0  0
   -3.0397    1.3125    3.5142 N   0  0  0  0  0  0  0  0  0  0  0  0
   -2.7928    1.7385    2.1618 C   0  0  2  0  0  0  0  0  0  0  0  0
   -1.4579    1.1532    1.7206 C   0  0  0  0  0  0  0  0  0  0  0  0
   -0.5858    0.8004    2.5118 O   0  0  0  0  0  0  0  0  0  0  0  0
   -2.7841    3.2553    2.0523 C   0  0  0  0  0  0  0  0  0  0  0  0
   -3.8047    1.7484    4.0260 H   0  0  0  0  0  0  0  0  0  0  0  0
   -3.5969    1.3201    1.5466 H   0  0  0  0  0  0  0  0  0  0  0  0
   -1.9850    3.6926    2.6620 H   0  0  0  0  0  0  0  0  0  0  0  0
   -2.6246    3.5776    1.0180 H   0  0  0  0  0  0  0  0  0  0  0  0
   -3.7342    3.6765    2.3981 H   0  0  0  0  0  0  0  0  0  0  0  0
   -1.3352    1.1101    0.3372 N   0  0  0  0  0  0  0  0  0  0  0  0
   -1.7554   -0.0229   -0.4484 C   0  0  2  0  0  0  0  0  0  0  0  0
   -0.9514   -1.2266    0.0301 C   0  0  0  0  0  0  0  0  0  0  0  0
   -1.4494   -2.3363    0.2069 O   0  0  0  0  0  0  0  0  0  0  0  0
   -1.5379    0.2007   -1.9494 C   0  0  0  0  0  0  0  0  0  0  0  0
   -2.4272    1.2818   -2.5133 C   0  0  0  0  0  0  0  0  0  0  0  0
   -2.0685    2.5952   -2.7112 C   0  0  0  0  0  0  0  0  0  0  0  0
   -3.7778    1.1332   -2.9363 C   0  0  0  0  0  0  0  0  0  0  0  0
   -3.1482    3.2521   -3.2378 N   0  0  0  0  0  0  0  0  0  0  0  0
   -4.2062    2.3840   -3.3862 C   0  0  0  0  0  0  0  0  0  0  0  0
   -4.6796    0.0514   -2.9797 C   0  0  0  0  0  0  0  0  0  0  0  0
   -5.4966    2.6079   -3.8793 C   0  0  0  0  0  0  0  0  0  0  0  0
   -5.9736    0.2606   -3.4705 C   0  0  0  0  0  0  0  0  0  0  0  0
   -6.3736    1.5199   -3.9128 C   0  0  0  0  0  0  0  0  0  0  0  0
   -0.9698    1.9222   -0.1544 H   0  0  0  0  0  0  0  0  0  0  0  0
   -2.8153   -0.1855   -0.2201 H   0  0  0  0  0  0  0  0  0  0  0  0
   -1.6994   -0.7355   -2.5008 H   0  0  0  0  0  0  0  0  0  0  0  0
   -0.4937    0.4757   -2.1488 H   0  0  0  0  0  0  0  0  0  0  0  0
   -1.1432    3.1223   -2.5237 H   0  0  0  0  0  0  0  0  0  0  0  0
   -3.1665    4.2325   -3.4825 H   0  0  0  0  0  0  0  0  0  0  0  0
   -4.3833   -0.9361   -2.6377 H   0  0  0  0  0  0  0  0  0  0  0  0
   -5.8086    3.5876   -4.2248 H   0  0  0  0  0  0  0  0  0  0  0  0
   -6.6736   -0.5698   -3.5059 H   0  0  0  0  0  0  0  0  0  0  0  0
   -7.3833    1.6599   -4.2902 H   0  0  0  0  0  0  0  0  0  0  0  0
    0.3940   -0.9237    0.1867 N   0  0  0  0  0  0  0  0  0  0  0  0
    1.3813   -1.8912    0.6087 C   0  0  2  0  0  0  0  0  0  0  0  0
    0.8561   -2.5844    1.8589 C   0  0  0  0  0  0  0  0  0  0  0  0
    0.0067   -2.0868    2.5951 O   0  0  0  0  0  0  0  0  0  0  0  0
    2.7243   -1.2302    0.8773 C   0  0  0  0  0  0  0  0  0  0  0  0
    0.7002    0.0256   -0.0049 H   0  0  0  0  0  0  0  0  0  0  0  0
    1.4753   -2.6215   -0.2024 H   0  0  0  0  0  0  0  0  0  0  0  0
    2.6499   -0.4951    1.6870 H   0  0  0  0  0  0  0  0  0  0  0  0
    3.4785   -1.9684    1.1692 H   0  0  0  0  0  0  0  0  0  0  0  0
    3.0864   -0.7070   -0.0143 H   0  0  0  0  0  0  0  0  0  0  0  0
    1.4787   -3.8050    2.0794 N   0  0  0  0  0  0  0  0  0  0  0  0
    1.1631   -4.6484    3.2086 C   0  0  0  0  0  0  0  0  0  0  0  0
    2.1581   -4.1482    1.4068 H   0  0  0  0  0  0  0  0  0  0  0  0
    1.8459   -4.4194    4.0401 H   0  0  0  0  0  0  0  0  0  0  0  0
    0.1258   -4.4646    3.5249 H   0  0  0  0  0  0  0  0  0  0  0  0
    1.2771   -5.7040    2.9209 H   0  0  0  0  0  0  0  0  0  0  0  0
 29 30  2  0  0  0  0
 27 29  1  0  0  0  0
 28 30  1  0  0  0  0
 24 27  2  0  0  0  0
 26 28  2  0  0  0  0
 22 23  2  0  0  0  0
 23 25  1  0  0  0  0
 22 24  1  0  0  0  0
 24 26  1  0  0  0  0
 21 22  1  0  0  0  0
 25 26  1  0  0  0  0
  1  3  1  0  0  0  0
  1  7  1  0  0  0  0
  1  2  2  0  0  0  0
 42 43  1  0  0  0  0
 43 51  1  0  0  0  0
 43 44  2  0  0  0  0
  8  9  1  0  0  0  0
  9 17  1  0  0  0  0
  9 10  2  0  0  0  0
 18 19  1  0  0  0  0
 19 41  1  0  0  0  0
 19 20  2  0  0  0  0
 42 45  1  0  0  0  0
  8 11  1  0  0  0  0
 51 52  1  0  0  0  0
 18 21  1  0  0  0  0
 41 42  1  0  0  0  0
  7  8  1  0  0  0  0
 17 18  1  0  0  0  0
 29 39  1  0  0  0  0
 30 40  1  0  0  0  0
 27 37  1  0  0  0  0
 28 38  1  0  0  0  0
 23 35  1  0  0  0  0
  3  4  1  0  0  0  0
  3  5  1  0  0  0  0
  3  6  1  0  0  0  0
 45 48  1  0  0  0  0
 45 49  1  0  0  0  0
 45 50  1  0  0  0  0
 11 14  1  0  0  0  0
 11 15  1  0  0  0  0
 11 16  1  0  0  0  0
 52 54  1  0  0  0  0
 52 55  1  0  0  0  0
 52 56  1  0  0  0  0
 21 33  1  0  0  0  0
 21 34  1  0  0  0  0
 42 47  1  0  0  0  0
  8 13  1  0  0  0  0
 18 32  1  0  0  0  0
 25 36  1  0  0  0  0
 51 53  1  0  0  0  0
  7 12  1  0  0  0  0
 41 46  1  0  0  0  0
 17 31  1  0  0  0  0
M  END
$$$$

  -OEChem-02062319033D

 56 57  0     1  0  0  0  0  0999 V2000
   -2.2900    0.3401    4.1553 C   0  0  0  0  0  0  0  0  0  0  0  0
   -1.3426   -0.2746    3.6796 O   0  0  0  0  0  0  0  0  0  0  0  0
   -2.7219    0.0577    5.5560 C   0  0  0  0  0  0  0  0  0  0  0  0
   -3.4815   -0.7386    5.6094 H   0  0  0  0  0  0  0  0  0  0  0  0
   -1.8906   -0.2899    6.1903 H   0  0  0  0  0  0  0  0  0  0  0  0
   -3.1599    0.9126    6.0956 H   0  0  0  0  0  0  0  0  0  0  0  0
   -3.0397    1.3125    3.5142 N   0  0  0  0  0  0  0  0  0  0  0  0
   -2.7928    1.7385    2.1618 C   0  0  2  0  0  0  0  0  0  0  0  0
   -1.4579    1.1532    1.7206 C   0  0  0  0  0  0  0  0  0  0  0  0
   -0.5858    0.8004    2.5118 O   0  0  0  0  0  0  0  0  0  0  0  0
   -2.7841    3.2553    2.0523 C   0  0  0  0  0  0  0  0  0  0  0  0
   -3.8047    1.7484    4.0260 H   0  0  0  0  0  0  0  0  0  0  0  0
   -3.5969    1.3201    1.5466 H   0  0  0  0  0  0  0  0  0  0  0  0
   -1.9850    3.6926    2.6620 H   0  0  0  0  0  0  0  0  0  0  0  0
   -2.6246    3.5776    1.0180 H   0  0  0  0  0  0  0  0  0  0  0  0
   -3.7342    3.6765    2.3981 H   0  0  0  0  0  0  0  0  0  0  0  0
   -1.3352    1.1101    0.3372 N   0  0  0  0  0  0  0  0  0  0  0  0
   -2.0243    0.1411   -0.4774 C   0  0  2  0  0  0  0  0  0  0  0  0
   -1.5629   -1.2392   -0.0237 C   0  0  0  0  0  0  0  0  0  0  0  0
   -2.3319   -2.1867    0.1240 O   0  0  0  0  0  0  0  0  0  0  0  0
   -1.7401    0.3337   -1.9714 C   0  0  0  0  0  0  0  0  0  0  0  0
   -2.3147    1.6195   -2.5139 C   0  0  0  0  0  0  0  0  0  0  0  0
   -1.6276    2.8001   -2.6785 C   0  0  0  0  0  0  0  0  0  0  0  0
   -3.6532    1.8334   -2.9471 C   0  0  0  0  0  0  0  0  0  0  0  0
   -2.4957    3.7244   -3.1946 N   0  0  0  0  0  0  0  0  0  0  0  0
   -3.7400    3.1618   -3.3691 C   0  0  0  0  0  0  0  0  0  0  0  0
   -4.8027    1.0219   -3.0208 C   0  0  0  0  0  0  0  0  0  0  0  0
   -4.9236    3.7215   -3.8632 C   0  0  0  0  0  0  0  0  0  0  0  0
   -5.9936    1.5681   -3.5130 C   0  0  0  0  0  0  0  0  0  0  0  0
   -6.0509    2.8974   -3.9271 C   0  0  0  0  0  0  0  0  0  0  0  0
   -0.7676    1.8111   -0.1330 H   0  0  0  0  0  0  0  0  0  0  0  0
   -3.0928    0.2523   -0.2584 H   0  0  0  0  0  0  0  0  0  0  0  0
   -2.1312   -0.5170   -2.5458 H   0  0  0  0  0  0  0  0  0  0  0  0
   -0.6582    0.3346   -2.1590 H   0  0  0  0  0  0  0  0  0  0  0  0
   -0.5998    3.0666   -2.4738 H   0  0  0  0  0  0  0  0  0  0  0  0
   -2.2582    4.6816   -3.4160 H   0  0  0  0  0  0  0  0  0  0  0  0
   -4.7745   -0.0159   -2.7010 H   0  0  0  0  0  0  0  0  0  0  0  0
   -4.9689    4.7558   -4.1868 H   0  0  0  0  0  0  0  0  0  0  0  0
   -6.8835    0.9473   -3.5718 H   0  0  0  0  0  0  0  0  0  0  0  0
   -6.9862    3.3011   -4.3061 H   0  0  0  0  0  0  0  0  0  0  0  0
   -0.1867   -1.2970    0.1469 N   0  0  0  0  0  0  0  0  0  0  0  0
    0.5134   -2.4952    0.5506 C   0  0  2  0  0  0  0  0  0  0  0  0
   -0.1865   -3.0567    1.7812 C   0  0  0  0  0  0  0  0  0  0  0  0
   -0.8870   -2.3731    2.5248 O   0  0  0  0  0  0  0  0  0  0  0  0
    1.9783   -2.2087    0.8416 C   0  0  0  0  0  0  0  0  0  0  0  0
    0.3558   -0.4547   -0.0205 H   0  0  0  0  0  0  0  0  0  0  0  0
    0.4250   -3.2072   -0.2772 H   0  0  0  0  0  0  0  0  0  0  0  0
    2.0868   -1.4972    1.6683 H   0  0  0  0  0  0  0  0  0  0  0  0
    2.5136   -3.1226    1.1197 H   0  0  0  0  0  0  0  0  0  0  0  0
    2.4727   -1.7773   -0.0354 H   0  0  0  0  0  0  0  0  0  0  0  0
    0.0982   -4.4010    1.9756 N   0  0  0  0  0  0  0  0  0  0  0  0
   -0.4363   -5.1590    3.0827 C   0  0  0  0  0  0  0  0  0  0  0  0
    0.6737   -4.8929    1.2984 H   0  0  0  0  0  0  0  0  0  0  0  0
    0.2732   -5.1319    3.9229 H   0  0  0  0  0  0  0  0  0  0  0  0
   -1.3948   -4.7209    3.3981 H   0  0  0  0  0  0  0  0  0  0  0  0
   -0.5950   -6.2017    2.7704 H   0  0  0  0  0  0  0  0  0  0  0  0
 29 30  2  0  0  0  0
 27 29  1  0  0  0  0
 28 30  1  0  0  0  0
 24 27  2  0  0  0  0
 26 28  2  0  0  0  0
 22 23  2  0  0  0  0
 23 25  1  0  0  0  0
 22 24  1  0  0  0  0
 24 26  1  0  0  0  0
 21 22  1  0  0  0  0
 25 26  1  0  0  0  0
  1  3  1  0  0  0  0
  1  7  1  0  0  0  0
  1  2  2  0  0  0  0
 42 43  1  0  0  0  0
 43 51  1  0  0  0  0
 43 44  2  0  0  0  0
  8  9  1  0  0  0  0
  9 17  1  0  0  0  0
  9 10  2  0  0  0  0
 18 19  1  0  0  0  0
 19 41  1  0  0  0  0
 19 20  2  0  0  0  0
 42 45  1  0  0  0  0
  8 11  1  0  0  0  0
 51 52  1  0  0  0  0
 18 21  1  0  0  0  0
 41 42  1  0  0  0  0
  7  8  1  0  0  0  0
 17 18  1  0  0  0  0
 29 39  1  0  0  0  0
 30 40  1  0  0  0  0
 27 37  1  0  0  0  0
 28 38  1  0  0  0  0
 23 35  1  0  0  0  0
  3  4  1  0  0  0  0
  3  5  1  0  0  0  0
  3  6  1  0  0  0  0
 45 48  1  0  0  0  0
 45 49  1  0  0  0  0
 45 50  1  0  0  0  0
 11 14  1  0  0  0  0
 11 15  1  0  0  0  0
 11 16  1  0  0  0  0
 52 54  1  0  0  0  0
 52 55  1  0  0  0  0
 52 56  1  0  0  0  0
 21 33  1  0  0  0  0
 21 34  1  0  0  0  0
 42 47  1  0  0  0  0
  8 13  1  0  0  0  0
 18 32  1  0  0  0  0
 25 36  1  0  0  0  0
 51 53  1  0  0  0  0
  7 12  1  0  0  0  0
 41 46  1  0  0  0  0
 17 31  1  0  0  0  0
M  END
$$$$

  -OEChem-02062319033D

 56 57  0     1  0  0  0  0  0999 V2000
   -2.2900    0.3401    4.1553 C   0  0  0  0  0  0  0  0  0  0  0  0
   -1.3426   -0.2746    3.6796 O   0  0  0  0  0  0  0  0  0  0  0  0
   -2.7219    0.0577    5.5560 C   0  0  0  0  0  0  0  0  0  0  0  0
   -3.4815   -0.7386    5.6094 H   0  0  0  0  0  0  0  0  0  0  0  0
   -1.8906   -0.2899    6.1903 H   0  0  0  0  0  0  0  0  0  0  0  0
   -3.1599    0.9126    6.0956 H   0  0  0  0  0  0  0  0  0  0  0  0
   -3.0397    1.3125    3.5142 N   0  0  0  0  0  0  0  0  0  0  0  0
   -2.7928    1.7385    2.1618 C   0  0  2  0  0  0  0  0  0  0  0  0
   -1.4579    1.1532    1.7206 C   0  0  0  0  0  0  0  0  0  0  0  0
   -0.5858    0.8004    2.5118 O   0  0  0  0  0  0  0  0  0  0  0  0
   -2.7841    3.2553    2.0523 C   0  0  0  0  0  0  0  0  0  0  0  0
   -3.8047    1.7484    4.0260 H   0  0  0  0  0  0  0  0  0  0  0  0
   -3.5969    1.3201    1.5466 H   0  0  0  0  0  0  0  0  0  0  0  0
   -1.9850    3.6926    2.6620 H   0  0  0  0  0  0  0  0  0  0  0  0
   -2.6246    3.5776    1.0180 H   0  0  0  0  0  0  0  0  0  0  0  0
   -3.7342    3.6765    2.3981 H   0  0  0  0  0  0  0  0  0  0  0  0
   -1.3352    1.1101    0.3372 N   0  0  0  0  0  0  0  0  0  0  0  0
   -2.2417    0.3695   -0.5038 C   0  0  2  0  0  0  0  0  0  0  0  0
   -2.1564   -1.0927   -0.0809 C   0  0  0  0  0  0  0  0  0  0  0  0
   -3.1451   -1.8129    0.0403 O   0  0  0  0  0  0  0  0  0  0  0  0
   -1.9009    0.5148   -1.9914 C   0  0  0  0  0  0  0  0  0  0  0  0
   -2.1189    1.9168   -2.5058 C   0  0  0  0  0  0  0  0  0  0  0  0
   -1.1491    2.8836   -2.6387 C   0  0  0  0  0  0  0  0  0  0  0  0
   -3.3523    2.4779   -2.9405 C   0  0  0  0  0  0  0  0  0  0  0  0
   -1.7441    4.0116   -3.1369 N   0  0  0  0  0  0  0  0  0  0  0  0
   -3.0893    3.7927   -3.3311 C   0  0  0  0  0  0  0  0  0  0  0  0
   -4.6711    1.9919   -3.0394 C   0  0  0  0  0  0  0  0  0  0  0  0
   -4.0833    4.6491   -3.8176 C   0  0  0  0  0  0  0  0  0  0  0  0
   -5.6757    2.8373   -3.5243 C   0  0  0  0  0  0  0  0  0  0  0  0
   -5.3840    4.1451   -3.9069 C   0  0  0  0  0  0  0  0  0  0  0  0
   -0.6010    1.6511   -0.1132 H   0  0  0  0  0  0  0  0  0  0  0  0
   -3.2478    0.7475   -0.2875 H   0  0  0  0  0  0  0  0  0  0  0  0
   -2.4916   -0.1936   -2.5879 H   0  0  0  0  0  0  0  0  0  0  0  0
   -0.8533    0.2408   -2.1734 H   0  0  0  0  0  0  0  0  0  0  0  0
   -0.0897    2.8717   -2.4225 H   0  0  0  0  0  0  0  0  0  0  0  0
   -1.2656    4.8797   -3.3341 H   0  0  0  0  0  0  0  0  0  0  0  0
   -4.9148    0.9752   -2.7444 H   0  0  0  0  0  0  0  0  0  0  0  0
   -3.8570    5.6670   -4.1166 H   0  0  0  0  0  0  0  0  0  0  0  0
   -6.6948    2.4682   -3.6024 H   0  0  0  0  0  0  0  0  0  0  0  0
   -6.1796    4.7844   -4.2809 H   0  0  0  0  0  0  0  0  0  0  0  0
   -0.8434   -1.5069    0.0952 N   0  0  0  0  0  0  0  0  0  0  0  0
   -0.4802   -2.8536    0.4736 C   0  0  2  0  0  0  0  0  0  0  0  0
   -1.3145   -3.2424    1.6870 C   0  0  0  0  0  0  0  0  0  0  0  0
   -1.8235   -2.4177    2.4432 O   0  0  0  0  0  0  0  0  0  0  0  0
    1.0058   -2.9609    0.7788 C   0  0  0  0  0  0  0  0  0  0  0  0
   -0.1005   -0.8295   -0.0492 H   0  0  0  0  0  0  0  0  0  0  0  0
   -0.7399   -3.5006   -0.3714 H   0  0  0  0  0  0  0  0  0  0  0  0
    1.2849   -2.3195    1.6228 H   0  0  0  0  0  0  0  0  0  0  0  0
    1.2846   -3.9877    1.0377 H   0  0  0  0  0  0  0  0  0  0  0  0
    1.6043   -2.6524   -0.0851 H   0  0  0  0  0  0  0  0  0  0  0  0
   -1.3879   -4.6186    1.8506 N   0  0  0  0  0  0  0  0  0  0  0  0
   -2.1119   -5.2371    2.9366 C   0  0  0  0  0  0  0  0  0  0  0  0
   -0.9512   -5.2274    1.1648 H   0  0  0  0  0  0  0  0  0  0  0  0
   -1.4286   -5.4122    3.7807 H   0  0  0  0  0  0  0  0  0  0  0  0
   -2.9285   -4.5737    3.2575 H   0  0  0  0  0  0  0  0  0  0  0  0
   -2.5303   -6.1967    2.5987 H   0  0  0  0  0  0  0  0  0  0  0  0
 29 30  2  0  0  0  0
 27 29  1  0  0  0  0
 28 30  1  0  0  0  0
 24 27  2  0  0  0  0
 26 28  2  0  0  0  0
 22 23  2  0  0  0  0
 23 25  1  0  0  0  0
 22 24  1  0  0  0  0
 24 26  1  0  0  0  0
 21 22  1  0  0  0  0
 25 26  1  0  0  0  0
  1  3  1  0  0  0  0
  1  7  1  0  0  0  0
  1  2  2  0  0  0  0
 42 43  1  0  0  0  0
 43 51  1  0  0  0  0
 43 44  2  0  0  0  0
  8  9  1  0  0  0  0
  9 17  1  0  0  0  0
  9 10  2  0  0  0  0
 18 19  1  0  0  0  0
 19 41  1  0  0  0  0
 19 20  2  0  0  0  0
 42 45  1  0  0  0  0
  8 11  1  0  0  0  0
 51 52  1  0  0  0  0
 18 21  1  0  0  0  0
 41 42  1  0  0  0  0
  7  8  1  0  0  0  0
 17 18  1  0  0  0  0
 29 39  1  0  0  0  0
 30 40  1  0  0  0  0
 27 37  1  0  0  0  0
 28 38  1  0  0  0  0
 23 35  1  0  0  0  0
  3  4  1  0  0  0  0
  3  5  1  0  0  0  0
  3  6  1  0  0  0  0
 45 48  1  0  0  0  0
 45 49  1  0  0  0  0
 45 50  1  0  0  0  0
 11 14  1  0  0  0  0
 11 15  1  0  0  0  0
 11 16  1  0  0  0  0
 52 54  1  0  0  0  0
 52 55  1  0  0  0  0
 52 56  1  0  0  0  0
 21 33  1  0  0  0  0
 21 34  1  0  0  0  0
 42 47  1  0  0  0  0
  8 13  1  0  0  0  0
 18 32  1  0  0  0  0
 25 36  1  0  0  0  0
 51 53  1  0  0  0  0
  7 12  1  0  0  0  0
 41 46  1  0  0  0  0
 17 31  1  0  0  0  0
M  END
$$$$

  -OEChem-02062319033D

 56 57  0     1  0  0  0  0  0999 V2000
   -2.2900    0.3401    4.1553 C   0  0  0  0  0  0  0  0  0  0  0  0
   -1.3426   -0.2746    3.6796 O   0  0  0  0  0  0  0  0  0  0  0  0
   -2.7219    0.0577    5.5560 C   0  0  0  0  0  0  0  0  0  0  0  0
   -3.4815   -0.7386    5.6094 H   0  0  0  0  0  0  0  0  0  0  0  0
   -1.8906   -0.2899    6.1903 H   0  0  0  0  0  0  0  0  0  0  0  0
   -3.1599    0.9126    6.0956 H   0  0  0  0  0  0  0  0  0  0  0  0
   -3.0397    1.3125    3.5142 N   0  0  0  0  0  0  0  0  0  0  0  0
   -2.7928    1.7385    2.1618 C   0  0  2  0  0  0  0  0  0  0  0  0
   -1.4579    1.1532    1.7206 C   0  0  0  0  0  0  0  0  0  0  0  0
   -0.5858    0.8004    2.5118 O   0  0  0  0  0  0  0  0  0  0  0  0
   -2.7841    3.2553    2.0523 C   0  0  0  0  0  0  0  0  0  0  0  0
   -3.8047    1.7484    4.0260 H   0  0  0  0  0  0  0  0  0  0  0  0
   -3.5969    1.3201    1.5466 H   0  0  0  0  0  0  0  0  0  0  0  0
   -1.9850    3.6926    2.6620 H   0  0  0  0  0  0  0  0  0  0  0  0
   -2.6246    3.5776    1.0180 H   0  0  0  0  0  0  0  0  0  0  0  0
   -3.7342    3.6765    2.3981 H   0  0  0  0  0  0  0  0  0  0  0  0
   -1.3352    1.1101    0.3372 N   0  0  0  0  0  0  0  0  0  0  0  0
   -2.3925    0.6467   -0.5258 C   0  0  2  0  0  0  0  0  0  0  0  0
   -2.6914   -0.7969   -0.1376 C   0  0  0  0  0  0  0  0  0  0  0  0
   -3.8336   -1.2404   -0.0386 O   0  0  0  0  0  0  0  0  0  0  0  0
   -2.0094    0.7317   -2.0077 C   0  0  0  0  0  0  0  0  0  0  0  0
   -1.8532    2.1533   -2.4896 C   0  0  0  0  0  0  0  0  0  0  0  0
   -0.6657    2.8401   -2.5945 C   0  0  0  0  0  0  0  0  0  0  0  0
   -2.8956    3.0227   -2.9169 C   0  0  0  0  0  0  0  0  0  0  0  0
   -0.9446    4.0939   -3.0686 N   0  0  0  0  0  0  0  0  0  0  0  0
   -2.2986    4.2335   -3.2747 C   0  0  0  0  0  0  0  0  0  0  0  0
   -4.2940    2.8954   -3.0341 C   0  0  0  0  0  0  0  0  0  0  0  0
   -3.0330    5.3276   -3.7456 C   0  0  0  0  0  0  0  0  0  0  0  0
   -5.0414    3.9815   -3.5038 C   0  0  0  0  0  0  0  0  0  0  0  0
   -4.4185    5.1780   -3.8535 C   0  0  0  0  0  0  0  0  0  0  0  0
   -0.4815    1.4533   -0.0964 H   0  0  0  0  0  0  0  0  0  0  0  0
   -3.2697    1.2665   -0.3056 H   0  0  0  0  0  0  0  0  0  0  0  0
   -2.7561    0.2127   -2.6240 H   0  0  0  0  0  0  0  0  0  0  0  0
   -1.0658    0.2009   -2.1910 H   0  0  0  0  0  0  0  0  0  0  0  0
    0.3524    2.5508   -2.3733 H   0  0  0  0  0  0  0  0  0  0  0  0
   -0.2565    4.8135   -3.2426 H   0  0  0  0  0  0  0  0  0  0  0  0
   -4.7945    1.9697   -2.7647 H   0  0  0  0  0  0  0  0  0  0  0  0
   -2.5489    6.2590   -4.0191 H   0  0  0  0  0  0  0  0  0  0  0  0
   -6.1203    3.8894   -3.5958 H   0  0  0  0  0  0  0  0  0  0  0  0
   -5.0184    6.0087   -4.2161 H   0  0  0  0  0  0  0  0  0  0  0  0
   -1.5315   -1.5393    0.0352 N   0  0  0  0  0  0  0  0  0  0  0  0
   -1.5316   -2.9421    0.3832 C   0  0  2  0  0  0  0  0  0  0  0  0
   -2.4513   -3.1290    1.5827 C   0  0  0  0  0  0  0  0  0  0  0  0
   -2.7390   -2.2176    2.3558 O   0  0  0  0  0  0  0  0  0  0  0  0
   -0.1269   -3.4354    0.6932 C   0  0  0  0  0  0  0  0  0  0  0  0
   -0.6376   -1.0733   -0.0893 H   0  0  0  0  0  0  0  0  0  0  0  0
   -1.9399   -3.4816   -0.4784 H   0  0  0  0  0  0  0  0  0  0  0  0
    0.2987   -2.9062    1.5536 H   0  0  0  0  0  0  0  0  0  0  0  0
   -0.1248   -4.5047    0.9288 H   0  0  0  0  0  0  0  0  0  0  0  0
    0.5404   -3.2729   -0.1601 H   0  0  0  0  0  0  0  0  0  0  0  0
   -2.8785   -4.4430    1.7130 N   0  0  0  0  0  0  0  0  0  0  0  0
   -3.7492   -4.8775    2.7802 C   0  0  0  0  0  0  0  0  0  0  0  0
   -2.6057   -5.1287    1.0150 H   0  0  0  0  0  0  0  0  0  0  0  0
   -3.1435   -5.2411    3.6234 H   0  0  0  0  0  0  0  0  0  0  0  0
   -4.3709   -4.0332    3.1128 H   0  0  0  0  0  0  0  0  0  0  0  0
   -4.3969   -5.6892    2.4173 H   0  0  0  0  0  0  0  0  0  0  0  0
 29 30  2  0  0  0  0
 27 29  1  0  0  0  0
 28 30  1  0  0  0  0
 24 27  2  0  0  0  0
 26 28  2  0  0  0  0
 22 23  2  0  0  0  0
 23 25  1  0  0  0  0
 22 24  1  0  0  0  0
 24 26  1  0  0  0  0
 21 22  1  0  0  0  0
 25 26  1  0  0  0  0
  1  3  1  0  0  0  0
  1  7  1  0  0  0  0
  1  2  2  0  0  0  0
 42 43  1  0  0  0  0
 43 51  1  0  0  0  0
 43 44  2  0  0  0  0
  8  9  1  0  0  0  0
  9 17  1  0  0  0  0
  9 10  2  0  0  0  0
 18 19  1  0  0  0  0
 19 41  1  0  0  0  0
 19 20  2  0  0  0  0
 42 45  1  0  0  0  0
  8 11  1  0  0  0  0
 51 52  1  0  0  0  0
 18 21  1  0  0  0  0
 41 42  1  0  0  0  0
  7  8  1  0  0  0  0
 17 18  1  0  0  0  0
 29 39  1  0  0  0  0
 30 40  1  0  0  0  0
 27 37  1  0  0  0  0
 28 38  1  0  0  0  0
 23 35  1  0  0  0  0
  3  4  1  0  0  0  0
  3  5  1  0  0  0  0
  3  6  1  0  0  0  0
 45 48  1  0  0  0  0
 45 49  1  0  0  0  0
 45 50  1  0  0  0  0
 11 14  1  0  0  0  0
 11 15  1  0  0  0  0
 11 16  1  0  0  0  0
 52 54  1  0  0  0  0
 52 55  1  0  0  0  0
 52 56  1  0  0  0  0
 21 33  1  0  0  0  0
 21 34  1  0  0  0  0
 42 47  1  0  0  0  0
  8 13  1  0  0  0  0
 18 32  1  0  0  0  0
 25 36  1  0  0  0  0
 51 53  1  0  0  0  0
  7 12  1  0  0  0  0
 41 46  1  0  0  0  0
 17 31  1  0  0  0  0
M  END
$$$$

  -OEChem-02062319033D

 56 57  0     1  0  0  0  0  0999 V2000
   -2.2900    0.3401    4.1553 C   0  0  0  0  0  0  0  0  0  0  0  0
   -1.3426   -0.2746    3.6796 O   0  0  0  0  0  0  0  0  0  0  0  0
   -2.7219    0.0577    5.5560 C   0  0  0  0  0  0  0  0  0  0  0  0
   -3.4815   -0.7386    5.6094 H   0  0  0  0  0  0  0  0  0  0  0  0
   -1.8906   -0.2899    6.1903 H   0  0  0  0  0  0  0  0  0  0  0  0
   -3.1599    0.9126    6.0956 H   0  0  0  0  0  0  0  0  0  0  0  0
   -3.0397    1.3125    3.5142 N   0  0  0  0  0  0  0  0  0  0  0  0
   -2.7928    1.7385    2.1618 C   0  0  2  0  0  0  0  0  0  0  0  0
   -1.4579    1.1532    1.7206 C   0  0  0  0  0  0  0  0  0  0  0  0
   -0.5858    0.8004    2.5118 O   0  0  0  0  0  0  0  0  0  0  0  0
   -2.7841    3.2553    2.0523 C   0  0  0  0  0  0  0  0  0  0  0  0
   -3.8047    1.7484    4.0260 H   0  0  0  0  0  0  0  0  0  0  0  0
   -3.5969    1.3201    1.5466 H   0  0  0  0  0  0  0  0  0  0  0  0
   -1.9850    3.6926    2.6620 H   0  0  0  0  0  0  0  0  0  0  0  0
   -2.6246    3.5776    1.0180 H   0  0  0  0  0  0  0  0  0  0  0  0
   -3.7342    3.6765    2.3981 H   0  0  0  0  0  0  0  0  0  0  0  0
   -1.3352    1.1101    0.3372 N   0  0  0  0  0  0  0  0  0  0  0  0
   -2.4666    0.9539   -0.5419 C   0  0  2  0  0  0  0  0  0  0  0  0
   -3.1316   -0.3720   -0.1898 C   0  0  0  0  0  0  0  0  0  0  0  0
   -4.3504   -0.5082   -0.1073 O   0  0  0  0  0  0  0  0  0  0  0  0
   -2.0583    0.9695   -2.0195 C   0  0  0  0  0  0  0  0  0  0  0  0
   -1.5358    2.3130   -2.4664 C   0  0  0  0  0  0  0  0  0  0  0  0
   -0.2104    2.6726   -2.5489 C   0  0  0  0  0  0  0  0  0  0  0  0
   -2.3143    3.4308   -2.8781 C   0  0  0  0  0  0  0  0  0  0  0  0
   -0.1516    3.9659   -2.9943 N   0  0  0  0  0  0  0  0  0  0  0  0
   -1.4216    4.4542   -3.2038 C   0  0  0  0  0  0  0  0  0  0  0  0
   -3.6969    3.6708   -3.0053 C   0  0  0  0  0  0  0  0  0  0  0  0
   -1.8442    5.7107   -3.6521 C   0  0  0  0  0  0  0  0  0  0  0  0
   -4.1341    4.9229   -3.4527 C   0  0  0  0  0  0  0  0  0  0  0  0
   -3.2203    5.9256   -3.7706 C   0  0  0  0  0  0  0  0  0  0  0  0
   -0.4172    1.2310   -0.0838 H   0  0  0  0  0  0  0  0  0  0  0  0
   -3.1569    1.7739   -0.3115 H   0  0  0  0  0  0  0  0  0  0  0  0
   -2.9066    0.6740   -2.6517 H   0  0  0  0  0  0  0  0  0  0  0  0
   -1.2812    0.2175   -2.2106 H   0  0  0  0  0  0  0  0  0  0  0  0
    0.6964    2.1258   -2.3295 H   0  0  0  0  0  0  0  0  0  0  0  0
    0.7005    4.4874   -3.1476 H   0  0  0  0  0  0  0  0  0  0  0  0
   -4.4220    2.8998   -2.7607 H   0  0  0  0  0  0  0  0  0  0  0  0
   -1.1335    6.4915   -3.9008 H   0  0  0  0  0  0  0  0  0  0  0  0
   -5.1992    5.1140   -3.5523 H   0  0  0  0  0  0  0  0  0  0  0  0
   -3.5819    6.8907   -4.1162 H   0  0  0  0  0  0  0  0  0  0  0  0
   -2.2040   -1.3920   -0.0290 N   0  0  0  0  0  0  0  0  0  0  0  0
   -2.5693   -2.7545    0.2853 C   0  0  2  0  0  0  0  0  0  0  0  0
   -3.5192   -2.7241    1.4754 C   0  0  0  0  0  0  0  0  0  0  0  0
   -3.5710   -1.7865    2.2686 O   0  0  0  0  0  0  0  0  0  0  0  0
   -1.3425   -3.5999    0.5905 C   0  0  0  0  0  0  0  0  0  0  0  0
   -1.2189   -1.1696   -0.1378 H   0  0  0  0  0  0  0  0  0  0  0  0
   -3.0932   -3.1517   -0.5909 H   0  0  0  0  0  0  0  0  0  0  0  0
   -0.8045   -3.2172    1.4655 H   0  0  0  0  0  0  0  0  0  0  0  0
   -1.6186   -4.6385    0.8005 H   0  0  0  0  0  0  0  0  0  0  0  0
   -0.6465   -3.5963   -0.2553 H   0  0  0  0  0  0  0  0  0  0  0  0
   -4.2719   -3.8862    1.5721 N   0  0  0  0  0  0  0  0  0  0  0  0
   -5.2369   -4.1047    2.6242 C   0  0  0  0  0  0  0  0  0  0  0  0
   -4.1773   -4.6036    0.8593 H   0  0  0  0  0  0  0  0  0  0  0  0
   -4.7546   -4.6304    3.4615 H   0  0  0  0  0  0  0  0  0  0  0  0
   -5.6237   -3.1360    2.9737 H   0  0  0  0  0  0  0  0  0  0  0  0
   -6.0678   -4.7138    2.2388 H   0  0  0  0  0  0  0  0  0  0  0  0
 29 30  2  0  0  0  0
 27 29  1  0  0  0  0
 28 30  1  0  0  0  0
 24 27  2  0  0  0  0
 26 28  2  0  0  0  0
 22 23  2  0  0  0  0
 23 25  1  0  0  0  0
 22 24  1  0  0  0  0
 24 26  1  0  0  0  0
 21 22  1  0  0  0  0
 25 26  1  0  0  0  0
  1  3  1  0  0  0  0
  1  7  1  0  0  0  0
  1  2  2  0  0  0  0
 42 43  1  0  0  0  0
 43 51  1  0  0  0  0
 43 44  2  0  0  0  0
  8  9  1  0  0  0  0
  9 17  1  0  0  0  0
  9 10  2  0  0  0  0
 18 19  1  0  0  0  0
 19 41  1  0  0  0  0
 19 20  2  0  0  0  0
 42 45  1  0  0  0  0
  8 11  1  0  0  0  0
 51 52  1  0  0  0  0
 18 21  1  0  0  0  0
 41 42  1  0  0  0  0
  7  8  1  0  0  0  0
 17 18  1  0  0  0  0
 29 39  1  0  0  0  0
 30 40  1  0  0  0  0
 27 37  1  0  0  0  0
 28 38  1  0  0  0  0
 23 35  1  0  0  0  0
  3  4  1  0  0  0  0
  3  5  1  0  0  0  0
  3  6  1  0  0  0  0
 45 48  1  0  0  0  0
 45 49  1  0  0  0  0
 45 50  1  0  0  0  0
 11 14  1  0  0  0  0
 11 15  1  0  0  0  0
 11 16  1  0  0  0  0
 52 54  1  0  0  0  0
 52 55  1  0  0  0  0
 52 56  1  0  0  0  0
 21 33  1  0  0  0  0
 21 34  1  0  0  0  0
 42 47  1  0  0  0  0
  8 13  1  0  0  0  0
 18 32  1  0  0  0  0
 25 36  1  0  0  0  0
 51 53  1  0  0  0  0
  7 12  1  0  0  0  0
 41 46  1  0  0  0  0
 17 31  1  0  0  0  0
M  END
$$$$

  -OEChem-02062319033D

 56 57  0     1  0  0  0  0  0999 V2000
   -2.2900    0.3401    4.1553 C   0  0  0  0  0  0  0  0  0  0  0  0
   -1.3426   -0.2746    3.6796 O   0  0  0  0  0  0  0  0  0  0  0  0
   -2.7219    0.0577    5.5560 C   0  0  0  0  0  0  0  0  0  0  0  0
   -3.4815   -0.7386    5.6094 H   0  0  0  0  0  0  0  0  0  0  0  0
   -1.8906   -0.2899    6.1903 H   0  0  0  0  0  0  0  0  0  0  0  0
   -3.1599    0.9126    6.0956 H   0  0  0  0  0  0  0  0  0  0  0  0
   -3.0397    1.3125    3.5142 N   0  0  0  0  0  0  0  0  0  0  0  0
   -2.7928    1.7385    2.1618 C   0  0  2  0  0  0  0  0  0  0  0  0
   -1.4579    1.1532    1.7206 C   0  0  0  0  0  0  0  0  0  0  0  0
   -0.5858    0.8004    2.5118 O   0  0  0  0  0  0  0  0  0  0  0  0
   -2.7841    3.2553    2.0523 C   0  0  0  0  0  0  0  0  0  0  0  0
   -3.8047    1.7484    4.0260 H   0  0  0  0  0  0  0  0  0  0  0  0
   -3.5969    1.3201    1.5466 H   0  0  0  0  0  0  0  0  0  0  0  0
   -1.9850    3.6926    2.6620 H   0  0  0  0  0  0  0  0  0  0  0  0
   -2.6246    3.5776    1.0180 H   0  0  0  0  0  0  0  0  0  0  0  0
   -3.7342    3.6765    2.3981 H   0  0  0  0  0  0  0  0  0  0  0  0
   -1.3352    1.1101    0.3372 N   0  0  0  0  0  0  0  0  0  0  0  0
   -2.4589    1.2700   -0.5511 C   0  0  2  0  0  0  0  0  0  0  0  0
   -3.4468    0.1530   -0.2342 C   0  0  0  0  0  0  0  0  0  0  0  0
   -4.6604    0.3338   -0.1610 O   0  0  0  0  0  0  0  0  0  0  0  0
   -2.0441    1.2120   -2.0258 C   0  0  0  0  0  0  0  0  0  0  0  0
   -1.1883    2.3848   -2.4379 C   0  0  0  0  0  0  0  0  0  0  0  0
    0.1859    2.3923   -2.5050 C   0  0  0  0  0  0  0  0  0  0  0  0
   -1.6479    3.6742   -2.8266 C   0  0  0  0  0  0  0  0  0  0  0  0
    0.5807    3.6362   -2.9191 N   0  0  0  0  0  0  0  0  0  0  0  0
   -0.5183    4.4398   -3.1233 C   0  0  0  0  0  0  0  0  0  0  0  0
   -2.9206    4.2653   -2.9550 C   0  0  0  0  0  0  0  0  0  0  0  0
   -0.5979    5.7722   -3.5436 C   0  0  0  0  0  0  0  0  0  0  0  0
   -3.0156    5.5972   -3.3745 C   0  0  0  0  0  0  0  0  0  0  0  0
   -1.8708    6.3372   -3.6637 C   0  0  0  0  0  0  0  0  0  0  0  0
   -0.4124    0.9994   -0.0762 H   0  0  0  0  0  0  0  0  0  0  0  0
   -2.9172    2.2350   -0.3046 H   0  0  0  0  0  0  0  0  0  0  0  0
   -2.9328    1.1591   -2.6692 H   0  0  0  0  0  0  0  0  0  0  0  0
   -1.4849    0.2895   -2.2309 H   0  0  0  0  0  0  0  0  0  0  0  0
    0.9187    1.6257   -2.2942 H   0  0  0  0  0  0  0  0  0  0  0  0
    1.5400    3.9236   -3.0556 H   0  0  0  0  0  0  0  0  0  0  0  0
   -3.8224    3.7020   -2.7325 H   0  0  0  0  0  0  0  0  0  0  0  0
    0.2926    6.3487   -3.7700 H   0  0  0  0  0  0  0  0  0  0  0  0
   -3.9943    6.0585   -3.4749 H   0  0  0  0  0  0  0  0  0  0  0  0
   -1.9678    7.3701   -3.9880 H   0  0  0  0  0  0  0  0  0  0  0  0
   -2.8151   -1.0748   -0.0931 N   0  0  0  0  0  0  0  0  0  0  0  0
   -3.5225   -2.3037    0.1868 C   0  0  2  0  0  0  0  0  0  0  0  0
   -4.4456   -2.0554    1.3724 C   0  0  0  0  0  0  0  0  0  0  0  0
   -4.2628   -1.1536    2.1875 O   0  0  0  0  0  0  0  0  0  0  0  0
   -2.5583   -3.4432    0.4779 C   0  0  0  0  0  0  0  0  0  0  0  0
   -1.8048   -1.1116   -0.1916 H   0  0  0  0  0  0  0  0  0  0  0  0
   -4.1213   -2.5332   -0.7013 H   0  0  0  0  0  0  0  0  0  0  0  0
   -1.9496   -3.2312    1.3644 H   0  0  0  0  0  0  0  0  0  0  0  0
   -3.0949   -4.3798    0.6616 H   0  0  0  0  0  0  0  0  0  0  0  0
   -1.8756   -3.6007   -0.3641 H   0  0  0  0  0  0  0  0  0  0  0  0
   -5.4732   -2.9860    1.4375 N   0  0  0  0  0  0  0  0  0  0  0  0
   -6.4735   -2.9712    2.4793 C   0  0  0  0  0  0  0  0  0  0  0  0
   -5.5588   -3.6878    0.7083 H   0  0  0  0  0  0  0  0  0  0  0  0
   -6.1521   -3.6216    3.3061 H   0  0  0  0  0  0  0  0  0  0  0  0
   -6.6016   -1.9435    2.8499 H   0  0  0  0  0  0  0  0  0  0  0  0
   -7.4289   -3.3370    2.0752 H   0  0  0  0  0  0  0  0  0  0  0  0
 29 30  2  0  0  0  0
 27 29  1  0  0  0  0
 28 30  1  0  0  0  0
 24 27  2  0  0  0  0
 26 28  2  0  0  0  0
 22 23  2  0  0  0  0
 23 25  1  0  0  0  0
 22 24  1  0  0  0  0
 24 26  1  0  0  0  0
 21 22  1  0  0  0  0
 25 26  1  0  0  0  0
  1  3  1  0  0  0  0
  1  7  1  0  0  0  0
  1  2  2  0  0  0  0
 42 43  1  0  0  0  0
 43 51  1  0  0  0  0
 43 44  2  0  0  0  0
  8  9  1  0  0  0  0
  9 17  1  0  0  0  0
  9 10  2  0  0  0  0
 18 19  1  0  0  0  0
 19 41  1  0  0  0  0
 19 20  2  0  0  0  0
 42 45  1  0  0  0  0
  8 11  1  0  0  0  0
 51 52  1  0  0  0  0
 18 21  1  0  0  0  0
 41 42  1  0  0  0  0
  7  8  1  0  0  0  0
 17 18  1  0  0  0  0
 29 39  1  0  0  0  0
 30 40  1  0  0  0  0
 27 37  1  0  0  0  0
 28 38  1  0  0  0  0
 23 35  1  0  0  0  0
  3  4  1  0  0  0  0
  3  5  1  0  0  0  0
  3  6  1  0  0  0  0
 45 48  1  0  0  0  0
 45 49  1  0  0  0  0
 45 50  1  0  0  0  0
 11 14  1  0  0  0  0
 11 15  1  0  0  0  0
 11 16  1  0  0  0  0
 52 54  1  0  0  0  0
 52 55  1  0  0  0  0
 52 56  1  0  0  0  0
 21 33  1  0  0  0  0
 21 34  1  0  0  0  0
 42 47  1  0  0  0  0
  8 13  1  0  0  0  0
 18 32  1  0  0  0  0
 25 36  1  0  0  0  0
 51 53  1  0  0  0  0
  7 12  1  0  0  0  0
 41 46  1  0  0  0  0
 17 31  1  0  0  0  0
M  END
$$$$

  -OEChem-02062319033D

 56 57  0     1  0  0  0  0  0999 V2000
   -2.2900    0.3401    4.1553 C   0  0  0  0  0  0  0  0  0  0  0  0
   -1.3426   -0.2746    3.6796 O   0  0  0  0  0  0  0  0  0  0  0  0
   -2.7219    0.0577    5.5560 C   0  0  0  0  0  0  0  0  0  0  0  0
   -3.4815   -0.7386    5.6094 H   0  0  0  0  0  0  0  0  0  0  0  0
   -1.8906   -0.2899    6.1903 H   0  0  0  0  0  0  0  0  0  0  0  0
   -3.1599    0.9126    6.0956 H   0  0  0  0  0  0  0  0  0  0  0  0
   -3.0397    1.3125    3.5142 N   0  0  0  0  0  0  0  0  0  0  0  0
   -2.7928    1.7385    2.1618 C   0  0  2  0  0  0  0  0  0  0  0  0
   -1.4579    1.1532    1.7206 C   0  0  0  0  0  0  0  0  0  0  0  0
   -0.5858    0.8004    2.5118 O   0  0  0  0  0  0  0  0  0  0  0  0
   -2.7841    3.2553    2.0523 C   0  0  0  0  0  0  0  0  0  0  0  0
   -3.8047    1.7484    4.0260 H   0  0  0  0  0  0  0  0  0  0  0  0
   -3.5969    1.3201    1.5466 H   0  0  0  0  0  0  0  0  0  0  0  0
   -1.9850    3.6926    2.6620 H   0  0  0  0  0  0  0  0  0  0  0  0
   -2.6246    3.5776    1.0180 H   0  0  0  0  0  0  0  0  0  0  0  0
   -3.7342    3.6765    2.3981 H   0  0  0  0  0  0  0  0  0  0  0  0
   -1.3352    1.1101    0.3372 N   0  0  0  0  0  0  0  0  0  0  0  0
   -2.3699    1.5736   -0.5527 C   0  0  2  0  0  0  0  0  0  0  0  0
   -3.6157    0.7423   -0.2675 C   0  0  0  0  0  0  0  0  0  0  0  0
   -4.7425    1.2283   -0.1962 O   0  0  0  0  0  0  0  0  0  0  0  0
   -1.9678    1.4428   -2.0262 C   0  0  0  0  0  0  0  0  0  0  0  0
   -0.8343    2.3641   -2.4058 C   0  0  0  0  0  0  0  0  0  0  0  0
    0.4961    2.0185   -2.4659 C   0  0  0  0  0  0  0  0  0  0  0  0
   -0.9420    3.7365   -2.7660 C   0  0  0  0  0  0  0  0  0  0  0  0
    1.2025    3.1273   -2.8481 N   0  0  0  0  0  0  0  0  0  0  0  0
    0.3500    4.1913   -3.0385 C   0  0  0  0  0  0  0  0  0  0  0  0
   -2.0180    4.6383   -2.8866 C   0  0  0  0  0  0  0  0  0  0  0  0
    0.6209    5.5080   -3.4273 C   0  0  0  0  0  0  0  0  0  0  0  0
   -1.7620    5.9585   -3.2746 C   0  0  0  0  0  0  0  0  0  0  0  0
   -0.4621    6.3845   -3.5403 C   0  0  0  0  0  0  0  0  0  0  0  0
   -0.4676    0.7743   -0.0741 H   0  0  0  0  0  0  0  0  0  0  0  0
   -2.5668    2.6185   -0.2855 H   0  0  0  0  0  0  0  0  0  0  0  0
   -2.8330    1.6347   -2.6751 H   0  0  0  0  0  0  0  0  0  0  0  0
   -1.6629    0.4120   -2.2505 H   0  0  0  0  0  0  0  0  0  0  0  0
    1.0043    1.0845   -2.2698 H   0  0  0  0  0  0  0  0  0  0  0  0
    2.2049    3.1606   -2.9729 H   0  0  0  0  0  0  0  0  0  0  0  0
   -3.0368    4.3219   -2.6822 H   0  0  0  0  0  0  0  0  0  0  0  0
    1.6323    5.8403   -3.6353 H   0  0  0  0  0  0  0  0  0  0  0  0
   -2.5877    6.6586   -3.3689 H   0  0  0  0  0  0  0  0  0  0  0  0
   -0.2862    7.4143   -3.8403 H   0  0  0  0  0  0  0  0  0  0  0  0
   -3.3232   -0.6096   -0.1527 N   0  0  0  0  0  0  0  0  0  0  0  0
   -4.3262   -1.6204    0.0942 C   0  0  2  0  0  0  0  0  0  0  0  0
   -5.1673   -1.1684    1.2808 C   0  0  0  0  0  0  0  0  0  0  0  0
   -4.7673   -0.3622    2.1181 O   0  0  0  0  0  0  0  0  0  0  0  0
   -3.6914   -2.9759    0.3628 C   0  0  0  0  0  0  0  0  0  0  0  0
   -2.3554   -0.9034   -0.2469 H   0  0  0  0  0  0  0  0  0  0  0  0
   -4.9542   -1.6684   -0.8021 H   0  0  0  0  0  0  0  0  0  0  0  0
   -3.0584   -2.9475    1.2573 H   0  0  0  0  0  0  0  0  0  0  0  0
   -4.4531   -3.7464    0.5214 H   0  0  0  0  0  0  0  0  0  0  0  0
   -3.0631   -3.2858   -0.4792 H   0  0  0  0  0  0  0  0  0  0  0  0
   -6.4005   -1.8038    1.3185 N   0  0  0  0  0  0  0  0  0  0  0  0
   -7.3747   -1.5544    2.3552 C   0  0  0  0  0  0  0  0  0  0  0  0
   -6.6559   -2.4438    0.5722 H   0  0  0  0  0  0  0  0  0  0  0  0
   -7.2409   -2.2836    3.1679 H   0  0  0  0  0  0  0  0  0  0  0  0
   -7.2378   -0.5367    2.7496 H   0  0  0  0  0  0  0  0  0  0  0  0
   -8.3876   -1.6527    1.9377 H   0  0  0  0  0  0  0  0  0  0  0  0
 29 30  2  0  0  0  0
 27 29  1  0  0  0  0
 28 30  1  0  0  0  0
 24 27  2  0  0  0  0
 26 28  2  0  0  0  0
 22 23  2  0  0  0  0
 23 25  1  0  0  0  0
 22 24  1  0  0  0  0
 24 26  1  0  0  0  0
 21 22  1  0  0  0  0
 25 26  1  0  0  0  0
  1  3  1  0  0  0  0
  1  7  1  0  0  0  0
  1  2  2  0  0  0  0
 42 43  1  0  0  0  0
 43 51  1  0  0  0  0
 43 44  2  0  0  0  0
  8  9  1  0  0  0  0
  9 17  1  0  0  0  0
  9 10  2  0  0  0  0
 18 19  1  0  0  0  0
 19 41  1  0  0  0  0
 19 20  2  0  0  0  0
 42 45  1  0  0  0  0
  8 11  1  0  0  0  0
 51 52  1  0  0  0  0
 18 21  1  0  0  0  0
 41 42  1  0  0  0  0
  7  8  1  0  0  0  0
 17 18  1  0  0  0  0
 29 39  1  0  0  0  0
 30 40  1  0  0  0  0
 27 37  1  0  0  0  0
 28 38  1  0  0  0  0
 23 35  1  0  0  0  0
  3  4  1  0  0  0  0
  3  5  1  0  0  0  0
  3  6  1  0  0  0  0
 45 48  1  0  0  0  0
 45 49  1  0  0  0  0
 45 50  1  0  0  0  0
 11 14  1  0  0  0  0
 11 15  1  0  0  0  0
 11 16  1  0  0  0  0
 52 54  1  0  0  0  0
 52 55  1  0  0  0  0
 52 56  1  0  0  0  0
 21 33  1  0  0  0  0
 21 34  1  0  0  0  0
 42 47  1  0  0  0  0
  8 13  1  0  0  0  0
 18 32  1  0  0  0  0
 25 36  1  0  0  0  0
 51 53  1  0  0  0  0
  7 12  1  0  0  0  0
 41 46  1  0  0  0  0
 17 31  1  0  0  0  0
M  END
$$$$

  -OEChem-02062319033D

 56 57  0     1  0  0  0  0  0999 V2000
   -2.2900    0.3401    4.1553 C   0  0  0  0  0  0  0  0  0  0  0  0
   -1.3426   -0.2746    3.6796 O   0  0  0  0  0  0  0  0  0  0  0  0
   -2.7219    0.0577    5.5560 C   0  0  0  0  0  0  0  0  0  0  0  0
   -3.4815   -0.7386    5.6094 H   0  0  0  0  0  0  0  0  0  0  0  0
   -1.8906   -0.2899    6.1903 H   0  0  0  0  0  0  0  0  0  0  0  0
   -3.1599    0.9126    6.0956 H   0  0  0  0  0  0  0  0  0  0  0  0
   -3.0397    1.3125    3.5142 N   0  0  0  0  0  0  0  0  0  0  0  0
   -2.7928    1.7385    2.1618 C   0  0  2  0  0  0  0  0  0  0  0  0
   -1.4579    1.1532    1.7206 C   0  0  0  0  0  0  0  0  0  0  0  0
   -0.5858    0.8004    2.5118 O   0  0  0  0  0  0  0  0  0  0  0  0
   -2.7841    3.2553    2.0523 C   0  0  0  0  0  0  0  0  0  0  0  0
   -3.8047    1.7484    4.0260 H   0  0  0  0  0  0  0  0  0  0  0  0
   -3.5969    1.3201    1.5466 H   0  0  0  0  0  0  0  0  0  0  0  0
   -1.9850    3.6926    2.6620 H   0  0  0  0  0  0  0  0  0  0  0  0
   -2.6246    3.5776    1.0180 H   0  0  0  0  0  0  0  0  0  0  0  0
   -3.7342    3.6765    2.3981 H   0  0  0  0  0  0  0  0  0  0  0  0
   -1.3352    1.1101    0.3372 N   0  0  0  0  0  0  0  0  0  0  0  0
   -2.2057    1.8439   -0.5465 C   0  0  2  0  0  0  0  0  0  0  0  0
   -3.6267    1.3559   -0.2876 C   0  0  0  0  0  0  0  0  0  0  0  0
   -4.5909    2.1142   -0.2103 O   0  0  0  0  0  0  0  0  0  0  0  0
   -1.8347    1.6460   -2.0207 C   0  0  0  0  0  0  0  0  0  0  0  0
   -0.4980    2.2520   -2.3725 C   0  0  0  0  0  0  0  0  0  0  0  0
    0.6991    1.5766   -2.4341 C   0  0  0  0  0  0  0  0  0  0  0  0
   -0.2445    3.6134   -2.7003 C   0  0  0  0  0  0  0  0  0  0  0  0
    1.6715    2.4738   -2.7862 N   0  0  0  0  0  0  0  0  0  0  0  0
    1.1239    3.7256   -2.9554 C   0  0  0  0  0  0  0  0  0  0  0  0
   -1.0505    4.7644   -2.8048 C   0  0  0  0  0  0  0  0  0  0  0  0
    1.7291    4.9361   -3.3112 C   0  0  0  0  0  0  0  0  0  0  0  0
   -0.4589    5.9822   -3.1598 C   0  0  0  0  0  0  0  0  0  0  0  0
    0.9097    6.0644   -3.4087 C   0  0  0  0  0  0  0  0  0  0  0  0
   -0.5789    0.5710   -0.0776 H   0  0  0  0  0  0  0  0  0  0  0  0
   -2.1298    2.8982   -0.2554 H   0  0  0  0  0  0  0  0  0  0  0  0
   -2.6140    2.0686   -2.6692 H   0  0  0  0  0  0  0  0  0  0  0  0
   -1.8031    0.5766   -2.2681 H   0  0  0  0  0  0  0  0  0  0  0  0
    0.9474    0.5391   -2.2578 H   0  0  0  0  0  0  0  0  0  0  0  0
    2.6499    2.2504   -2.9050 H   0  0  0  0  0  0  0  0  0  0  0  0
   -2.1187    4.7170   -2.6131 H   0  0  0  0  0  0  0  0  0  0  0  0
    2.7942    5.0009   -3.5062 H   0  0  0  0  0  0  0  0  0  0  0  0
   -1.0753    6.8734   -3.2415 H   0  0  0  0  0  0  0  0  0  0  0  0
    1.3483    7.0203   -3.6831 H   0  0  0  0  0  0  0  0  0  0  0  0
   -3.6935   -0.0279   -0.2036 N   0  0  0  0  0  0  0  0  0  0  0  0
   -4.9258   -0.7511    0.0140 C   0  0  2  0  0  0  0  0  0  0  0  0
   -5.6350   -0.1236    1.2067 C   0  0  0  0  0  0  0  0  0  0  0  0
   -5.0502    0.5338    2.0651 O   0  0  0  0  0  0  0  0  0  0  0  0
   -4.6645   -2.2300    0.2533 C   0  0  0  0  0  0  0  0  0  0  0  0
   -2.8331   -0.5591   -0.2999 H   0  0  0  0  0  0  0  0  0  0  0  0
   -5.5350   -0.6161   -0.8864 H   0  0  0  0  0  0  0  0  0  0  0  0
   -4.0555   -2.3852    1.1514 H   0  0  0  0  0  0  0  0  0  0  0  0
   -5.6007   -2.7814    0.3896 H   0  0  0  0  0  0  0  0  0  0  0  0
   -4.1280   -2.6729   -0.5927 H   0  0  0  0  0  0  0  0  0  0  0  0
   -6.9907   -0.4203    1.2230 N   0  0  0  0  0  0  0  0  0  0  0  0
   -7.8791    0.0491    2.2605 C   0  0  0  0  0  0  0  0  0  0  0  0
   -7.3941   -0.9564    0.4604 H   0  0  0  0  0  0  0  0  0  0  0  0
   -7.9466   -0.7074    3.0562 H   0  0  0  0  0  0  0  0  0  0  0  0
   -7.4890    0.9883    2.6798 H   0  0  0  0  0  0  0  0  0  0  0  0
   -8.8785    0.2244    1.8357 H   0  0  0  0  0  0  0  0  0  0  0  0
 29 30  2  0  0  0  0
 27 29  1  0  0  0  0
 28 30  1  0  0  0  0
 24 27  2  0  0  0  0
 26 28  2  0  0  0  0
 22 23  2  0  0  0  0
 23 25  1  0  0  0  0
 22 24  1  0  0  0  0
 24 26  1  0  0  0  0
 21 22  1  0  0  0  0
 25 26  1  0  0  0  0
  1  3  1  0  0  0  0
  1  7  1  0  0  0  0
  1  2  2  0  0  0  0
 42 43  1  0  0  0  0
 43 51  1  0  0  0  0
 43 44  2  0  0  0  0
  8  9  1  0  0  0  0
  9 17  1  0  0  0  0
  9 10  2  0  0  0  0
 18 19  1  0  0  0  0
 19 41  1  0  0  0  0
 19 20  2  0  0  0  0
 42 45  1  0  0  0  0
  8 11  1  0  0  0  0
 51 52  1  0  0  0  0
 18 21  1  0  0  0  0
 41 42  1  0  0  0  0
  7  8  1  0  0  0  0
 17 18  1  0  0  0  0
 29 39  1  0  0  0  0
 30 40  1  0  0  0  0
 27 37  1  0  0  0  0
 28 38  1  0  0  0  0
 23 35  1  0  0  0  0
  3  4  1  0  0  0  0
  3  5  1  0  0  0  0
  3  6  1  0  0  0  0
 45 48  1  0  0  0  0
 45 49  1  0  0  0  0
 45 50  1  0  0  0  0
 11 14  1  0  0  0  0
 11 15  1  0  0  0  0
 11 16  1  0  0  0  0
 52 54  1  0  0  0  0
 52 55  1  0  0  0  0
 52 56  1  0  0  0  0
 21 33  1  0  0  0  0
 21 34  1  0  0  0  0
 42 47  1  0  0  0  0
  8 13  1  0  0  0  0
 18 32  1  0  0  0  0
 25 36  1  0  0  0  0
 51 53  1  0  0  0  0
  7 12  1  0  0  0  0
 41 46  1  0  0  0  0
 17 31  1  0  0  0  0
M  END
$$$$

  -OEChem-02062319033D

 56 57  0     1  0  0  0  0  0999 V2000
   -2.2900    0.3401    4.1553 C   0  0  0  0  0  0  0  0  0  0  0  0
   -1.3426   -0.2746    3.6796 O   0  0  0  0  0  0  0  0  0  0  0  0
   -2.7219    0.0577    5.5560 C   0  0  0  0  0  0  0  0  0  0  0  0
   -3.4815   -0.7386    5.6094 H   0  0  0  0  0  0  0  0  0  0  0  0
   -1.8906   -0.2899    6.1903 H   0  0  0  0  0  0  0  0  0  0  0  0
   -3.1599    0.9126    6.0956 H   0  0  0  0  0  0  0  0  0  0  0  0
   -3.0397    1.3125    3.5142 N   0  0  0  0  0  0  0  0  0  0  0  0
   -2.7928    1.7385    2.1618 C   0  0  2  0  0  0  0  0  0  0  0  0
   -1.4579    1.1532    1.7206 C   0  0  0  0  0  0  0  0  0  0  0  0
   -0.5858    0.8004    2.5118 O   0  0  0  0  0  0  0  0  0  0  0  0
   -2.7841    3.2553    2.0523 C   0  0  0  0  0  0  0  0  0  0  0  0
   -3.8047    1.7484    4.0260 H   0  0  0  0  0  0  0  0  0  0  0  0
   -3.5969    1.3201    1.5466 H   0  0  0  0  0  0  0  0  0  0  0  0
   -1.9850    3.6926    2.6620 H   0  0  0  0  0  0  0  0  0  0  0  0
   -2.6246    3.5776    1.0180 H   0  0  0  0  0  0  0  0  0  0  0  0
   -3.7342    3.6765    2.3981 H   0  0  0  0  0  0  0  0  0  0  0  0
   -1.3352    1.1101    0.3372 N   0  0  0  0  0  0  0  0  0  0  0  0
   -1.9775    2.0626   -0.5331 C   0  0  2  0  0  0  0  0  0  0  0  0
   -3.4790    1.9518   -0.2931 C   0  0  0  0  0  0  0  0  0  0  0  0
   -4.2162    2.9312   -0.2026 O   0  0  0  0  0  0  0  0  0  0  0  0
   -1.6537    1.8079   -2.0097 C   0  0  0  0  0  0  0  0  0  0  0  0
   -0.2023    2.0564   -2.3402 C   0  0  0  0  0  0  0  0  0  0  0  0
    0.7810    1.0968   -2.4119 C   0  0  0  0  0  0  0  0  0  0  0  0
    0.3969    3.3132   -2.6341 C   0  0  0  0  0  0  0  0  0  0  0  0
    1.9555    1.7204   -2.7375 N   0  0  0  0  0  0  0  0  0  0  0  0
    1.7508    3.0744   -2.8795 C   0  0  0  0  0  0  0  0  0  0  0  0
   -0.0842    4.6351   -2.7151 C   0  0  0  0  0  0  0  0  0  0  0  0
    2.6513    4.0955   -3.2032 C   0  0  0  0  0  0  0  0  0  0  0  0
    0.8050    5.6666   -3.0379 C   0  0  0  0  0  0  0  0  0  0  0  0
    2.1513    5.3987   -3.2779 C   0  0  0  0  0  0  0  0  0  0  0  0
   -0.7387    0.4035   -0.0865 H   0  0  0  0  0  0  0  0  0  0  0  0
   -1.6358    3.0551   -0.2165 H   0  0  0  0  0  0  0  0  0  0  0  0
   -2.2907    2.4312   -2.6519 H   0  0  0  0  0  0  0  0  0  0  0  0
   -1.8960    0.7722   -2.2824 H   0  0  0  0  0  0  0  0  0  0  0  0
    0.7517    0.0267   -2.2592 H   0  0  0  0  0  0  0  0  0  0  0  0
    2.8447    1.2549   -2.8568 H   0  0  0  0  0  0  0  0  0  0  0  0
   -1.1306    4.8605   -2.5299 H   0  0  0  0  0  0  0  0  0  0  0  0
    3.6992    3.8877   -3.3912 H   0  0  0  0  0  0  0  0  0  0  0  0
    0.4400    6.6882   -3.1014 H   0  0  0  0  0  0  0  0  0  0  0  0
    2.8243    6.2150   -3.5271 H   0  0  0  0  0  0  0  0  0  0  0  0
   -3.9010    0.6305   -0.2425 N   0  0  0  0  0  0  0  0  0  0  0  0
   -5.2802    0.2448   -0.0485 C   0  0  2  0  0  0  0  0  0  0  0  0
   -5.8170    1.0078    1.1553 C   0  0  0  0  0  0  0  0  0  0  0  0
   -5.0921    1.4734    2.0321 O   0  0  0  0  0  0  0  0  0  0  0  0
   -5.4114   -1.2563    0.1568 C   0  0  0  0  0  0  0  0  0  0  0  0
   -3.2054   -0.1023   -0.3472 H   0  0  0  0  0  0  0  0  0  0  0  0
   -5.8241    0.5520   -0.9484 H   0  0  0  0  0  0  0  0  0  0  0  0
   -4.8729   -1.5827    1.0539 H   0  0  0  0  0  0  0  0  0  0  0  0
   -6.4595   -1.5505    0.2751 H   0  0  0  0  0  0  0  0  0  0  0  0
   -4.9978   -1.8040   -0.6969 H   0  0  0  0  0  0  0  0  0  0  0  0
   -7.2035    1.0703    1.1577 N   0  0  0  0  0  0  0  0  0  0  0  0
   -7.9524    1.7302    2.2016 C   0  0  0  0  0  0  0  0  0  0  0  0
   -7.7229    0.6731    0.3805 H   0  0  0  0  0  0  0  0  0  0  0  0
   -8.2212    0.9995    2.9787 H   0  0  0  0  0  0  0  0  0  0  0  0
   -7.3382    2.5277    2.6452 H   0  0  0  0  0  0  0  0  0  0  0  0
   -8.8681    2.1664    1.7761 H   0  0  0  0  0  0  0  0  0  0  0  0
 29 30  2  0  0  0  0
 27 29  1  0  0  0  0
 28 30  1  0  0  0  0
 24 27  2  0  0  0  0
 26 28  2  0  0  0  0
 22 23  2  0  0  0  0
 23 25  1  0  0  0  0
 22 24  1  0  0  0  0
 24 26  1  0  0  0  0
 21 22  1  0  0  0  0
 25 26  1  0  0  0  0
  1  3  1  0  0  0  0
  1  7  1  0  0  0  0
  1  2  2  0  0  0  0
 42 43  1  0  0  0  0
 43 51  1  0  0  0  0
 43 44  2  0  0  0  0
  8  9  1  0  0  0  0
  9 17  1  0  0  0  0
  9 10  2  0  0  0  0
 18 19  1  0  0  0  0
 19 41  1  0  0  0  0
 19 20  2  0  0  0  0
 42 45  1  0  0  0  0
  8 11  1  0  0  0  0
 51 52  1  0  0  0  0
 18 21  1  0  0  0  0
 41 42  1  0  0  0  0
  7  8  1  0  0  0  0
 17 18  1  0  0  0  0
 29 39  1  0  0  0  0
 30 40  1  0  0  0  0
 27 37  1  0  0  0  0
 28 38  1  0  0  0  0
 23 35  1  0  0  0  0
  3  4  1  0  0  0  0
  3  5  1  0  0  0  0
  3  6  1  0  0  0  0
 45 48  1  0  0  0  0
 45 49  1  0  0  0  0
 45 50  1  0  0  0  0
 11 14  1  0  0  0  0
 11 15  1  0  0  0  0
 11 16  1  0  0  0  0
 52 54  1  0  0  0  0
 52 55  1  0  0  0  0
 52 56  1  0  0  0  0
 21 33  1  0  0  0  0
 21 34  1  0  0  0  0
 42 47  1  0  0  0  0
  8 13  1  0  0  0  0
 18 32  1  0  0  0  0
 25 36  1  0  0  0  0
 51 53  1  0  0  0  0
  7 12  1  0  0  0  0
 41 46  1  0  0  0  0
 17 31  1  0  0  0  0
M  END
$$$$

  -OEChem-02062319033D

 56 57  0     1  0  0  0  0  0999 V2000
   -2.2900    0.3401    4.1553 C   0  0  0  0  0  0  0  0  0  0  0  0
   -1.3426   -0.2746    3.6796 O   0  0  0  0  0  0  0  0  0  0  0  0
   -2.7219    0.0577    5.5560 C   0  0  0  0  0  0  0  0  0  0  0  0
   -3.4815   -0.7386    5.6094 H   0  0  0  0  0  0  0  0  0  0  0  0
   -1.8906   -0.2899    6.1903 H   0  0  0  0  0  0  0  0  0  0  0  0
   -3.1599    0.9126    6.0956 H   0  0  0  0  0  0  0  0  0  0  0  0
   -3.0397    1.3125    3.5142 N   0  0  0  0  0  0  0  0  0  0  0  0
   -2.7928    1.7385    2.1618 C   0  0  2  0  0  0  0  0  0  0  0  0
   -1.4579    1.1532    1.7206 C   0  0  0  0  0  0  0  0  0  0  0  0
   -0.5858    0.8004    2.5118 O   0  0  0  0  0  0  0  0  0  0  0  0
   -2.7841    3.2553    2.0523 C   0  0  0  0  0  0  0  0  0  0  0  0
   -3.8047    1.7484    4.0260 H   0  0  0  0  0  0  0  0  0  0  0  0
   -3.5969    1.3201    1.5466 H   0  0  0  0  0  0  0  0  0  0  0  0
   -1.9850    3.6926    2.6620 H   0  0  0  0  0  0  0  0  0  0  0  0
   -2.6246    3.5776    1.0180 H   0  0  0  0  0  0  0  0  0  0  0  0
   -3.7342    3.6765    2.3981 H   0  0  0  0  0  0  0  0  0  0  0  0
   -1.3352    1.1101    0.3372 N   0  0  0  0  0  0  0  0  0  0  0  0
   -1.7009    2.2147   -0.5133 C   0  0  2  0  0  0  0  0  0  0  0  0
   -3.1827    2.4895   -0.2836 C   0  0  0  0  0  0  0  0  0  0  0  0
   -3.6437    3.6236   -0.1734 O   0  0  0  0  0  0  0  0  0  0  0  0
   -1.4373    1.9174   -1.9940 C   0  0  0  0  0  0  0  0  0  0  0  0
    0.0327    1.7905   -2.3111 C   0  0  0  0  0  0  0  0  0  0  0  0
    0.7364    0.6116   -2.4007 C   0  0  0  0  0  0  0  0  0  0  0  0
    0.9386    2.8565   -2.5718 C   0  0  0  0  0  0  0  0  0  0  0  0
    2.0354    0.9184   -2.7055 N   0  0  0  0  0  0  0  0  0  0  0  0
    2.1879    2.2821   -2.8161 C   0  0  0  0  0  0  0  0  0  0  0  0
    0.8152    4.2592   -2.6236 C   0  0  0  0  0  0  0  0  0  0  0  0
    3.3245    3.0434   -3.1108 C   0  0  0  0  0  0  0  0  0  0  0  0
    1.9436    5.0334   -2.9172 C   0  0  0  0  0  0  0  0  0  0  0  0
    3.1780    4.4327   -3.1568 C   0  0  0  0  0  0  0  0  0  0  0  0
   -0.9362    0.2830   -0.1003 H   0  0  0  0  0  0  0  0  0  0  0  0
   -1.1185    3.0784   -0.1714 H   0  0  0  0  0  0  0  0  0  0  0  0
   -1.8852    2.6977   -2.6242 H   0  0  0  0  0  0  0  0  0  0  0  0
   -1.9352    0.9853   -2.2925 H   0  0  0  0  0  0  0  0  0  0  0  0
    0.4307   -0.4178   -2.2738 H   0  0  0  0  0  0  0  0  0  0  0  0
    2.7759    0.2421   -2.8313 H   0  0  0  0  0  0  0  0  0  0  0  0
   -0.1398    4.7425   -2.4384 H   0  0  0  0  0  0  0  0  0  0  0  0
    4.2856    2.5767   -3.2984 H   0  0  0  0  0  0  0  0  0  0  0  0
    1.8547    6.1156   -2.9581 H   0  0  0  0  0  0  0  0  0  0  0  0
    4.0413    5.0532   -3.3830 H   0  0  0  0  0  0  0  0  0  0  0  0
   -3.9314    1.3209   -0.2667 N   0  0  0  0  0  0  0  0  0  0  0  0
   -5.3655    1.2996   -0.0889 C   0  0  2  0  0  0  0  0  0  0  0  0
   -5.7009    2.1488    1.1301 C   0  0  0  0  0  0  0  0  0  0  0  0
   -4.8902    2.3925    2.0214 O   0  0  0  0  0  0  0  0  0  0  0  0
   -5.8812   -0.1210    0.0797 C   0  0  0  0  0  0  0  0  0  0  0  0
   -3.4469    0.4360   -0.3854 H   0  0  0  0  0  0  0  0  0  0  0  0
   -5.8020    1.7561   -0.9840 H   0  0  0  0  0  0  0  0  0  0  0  0
   -5.4548   -0.5947    0.9715 H   0  0  0  0  0  0  0  0  0  0  0  0
   -6.9709   -0.1376    0.1857 H   0  0  0  0  0  0  0  0  0  0  0  0
   -5.6132   -0.7381   -0.7847 H   0  0  0  0  0  0  0  0  0  0  0  0
   -7.0244    2.5665    1.1270 N   0  0  0  0  0  0  0  0  0  0  0  0
   -7.5895    3.3742    2.1826 C   0  0  0  0  0  0  0  0  0  0  0  0
   -7.6200    2.3336    0.3378 H   0  0  0  0  0  0  0  0  0  0  0  0
   -8.0460    2.7207    2.9406 H   0  0  0  0  0  0  0  0  0  0  0  0
   -6.7955    3.9766    2.6482 H   0  0  0  0  0  0  0  0  0  0  0  0
   -8.3572    4.0409    1.7630 H   0  0  0  0  0  0  0  0  0  0  0  0
 29 30  2  0  0  0  0
 27 29  1  0  0  0  0
 28 30  1  0  0  0  0
 24 27  2  0  0  0  0
 26 28  2  0  0  0  0
 22 23  2  0  0  0  0
 23 25  1  0  0  0  0
 22 24  1  0  0  0  0
 24 26  1  0  0  0  0
 21 22  1  0  0  0  0
 25 26  1  0  0  0  0
  1  3  1  0  0  0  0
  1  7  1  0  0  0  0
  1  2  2  0  0  0  0
 42 43  1  0  0  0  0
 43 51  1  0  0  0  0
 43 44  2  0  0  0  0
  8  9  1  0  0  0  0
  9 17  1  0  0  0  0
  9 10  2  0  0  0  0
 18 19  1  0  0  0  0
 19 41  1  0  0  0  0
 19 20  2  0  0  0  0
 42 45  1  0  0  0  0
  8 11  1  0  0  0  0
 51 52  1  0  0  0  0
 18 21  1  0  0  0  0
 41 42  1  0  0  0  0
  7  8  1  0  0  0  0
 17 18  1  0  0  0  0
 29 39  1  0  0  0  0
 30 40  1  0  0  0  0
 27 37  1  0  0  0  0
 28 38  1  0  0  0  0
 23 35  1  0  0  0  0
  3  4  1  0  0  0  0
  3  5  1  0  0  0  0
  3  6  1  0  0  0  0
 45 48  1  0  0  0  0
 45 49  1  0  0  0  0
 45 50  1  0  0  0  0
 11 14  1  0  0  0  0
 11 15  1  0  0  0  0
 11 16  1  0  0  0  0
 52 54  1  0  0  0  0
 52 55  1  0  0  0  0
 52 56  1  0  0  0  0
 21 33  1  0  0  0  0
 21 34  1  0  0  0  0
 42 47  1  0  0  0  0
  8 13  1  0  0  0  0
 18 32  1  0  0  0  0
 25 36  1  0  0  0  0
 51 53  1  0  0  0  0
  7 12  1  0  0  0  0
 41 46  1  0  0  0  0
 17 31  1  0  0  0  0
M  END
$$$$

  -OEChem-02062319033D

 56 57  0     1  0  0  0  0  0999 V2000
   -2.2900    0.3401    4.1553 C   0  0  0  0  0  0  0  0  0  0  0  0
   -1.3426   -0.2746    3.6796 O   0  0  0  0  0  0  0  0  0  0  0  0
   -2.7219    0.0577    5.5560 C   0  0  0  0  0  0  0  0  0  0  0  0
   -3.4815   -0.7386    5.6094 H   0  0  0  0  0  0  0  0  0  0  0  0
   -1.8906   -0.2899    6.1903 H   0  0  0  0  0  0  0  0  0  0  0  0
   -3.1599    0.9126    6.0956 H   0  0  0  0  0  0  0  0  0  0  0  0
   -3.0397    1.3125    3.5142 N   0  0  0  0  0  0  0  0  0  0  0  0
   -2.7928    1.7385    2.1618 C   0  0  2  0  0  0  0  0  0  0  0  0
   -1.4579    1.1532    1.7206 C   0  0  0  0  0  0  0  0  0  0  0  0
   -0.5858    0.8004    2.5118 O   0  0  0  0  0  0  0  0  0  0  0  0
   -2.7841    3.2553    2.0523 C   0  0  0  0  0  0  0  0  0  0  0  0
   -3.8047    1.7484    4.0260 H   0  0  0  0  0  0  0  0  0  0  0  0
   -3.5969    1.3201    1.5466 H   0  0  0  0  0  0  0  0  0  0  0  0
   -1.9850    3.6926    2.6620 H   0  0  0  0  0  0  0  0  0  0  0  0
   -2.6246    3.5776    1.0180 H   0  0  0  0  0  0  0  0  0  0  0  0
   -3.7342    3.6765    2.3981 H   0  0  0  0  0  0  0  0  0  0  0  0
   -1.3352    1.1101    0.3372 N   0  0  0  0  0  0  0  0  0  0  0  0
   -1.3946    2.2899   -0.4885 C   0  0  2  0  0  0  0  0  0  0  0  0
   -2.7581    2.9323   -0.2597 C   0  0  0  0  0  0  0  0  0  0  0  0
   -2.9126    4.1443   -0.1248 O   0  0  0  0  0  0  0  0  0  0  0  0
   -1.2002    1.9671   -1.9745 C   0  0  0  0  0  0  0  0  0  0  0  0
    0.1909    1.4724   -2.2871 C   0  0  0  0  0  0  0  0  0  0  0  0
    0.5681    0.1543   -2.4014 C   0  0  0  0  0  0  0  0  0  0  0  0
    1.3437    2.2743   -2.5178 C   0  0  0  0  0  0  0  0  0  0  0  0
    1.9056    0.1224   -2.6922 N   0  0  0  0  0  0  0  0  0  0  0  0
    2.4055    1.4028   -2.7694 C   0  0  0  0  0  0  0  0  0  0  0  0
    1.5863    3.6622   -2.5367 C   0  0  0  0  0  0  0  0  0  0  0  0
    3.7030    1.8516   -3.0401 C   0  0  0  0  0  0  0  0  0  0  0  0
    2.8792    4.1255   -2.8060 C   0  0  0  0  0  0  0  0  0  0  0  0
    3.9198    3.2324   -3.0536 C   0  0  0  0  0  0  0  0  0  0  0  0
   -1.1580    0.2179   -0.1179 H   0  0  0  0  0  0  0  0  0  0  0  0
   -0.6132    2.9666   -0.1231 H   0  0  0  0  0  0  0  0  0  0  0  0
   -1.4250    2.8500   -2.5882 H   0  0  0  0  0  0  0  0  0  0  0  0
   -1.9180    1.2016   -2.2977 H   0  0  0  0  0  0  0  0  0  0  0  0
    0.0062   -0.7641   -2.3007 H   0  0  0  0  0  0  0  0  0  0  0  0
    2.4483   -0.7190   -2.8304 H   0  0  0  0  0  0  0  0  0  0  0  0
    0.7860    4.3712   -2.3448 H   0  0  0  0  0  0  0  0  0  0  0  0
    4.5134    1.1571   -3.2339 H   0  0  0  0  0  0  0  0  0  0  0  0
    3.0726    5.1948   -2.8214 H   0  0  0  0  0  0  0  0  0  0  0  0
    4.9162    3.6142   -3.2606 H   0  0  0  0  0  0  0  0  0  0  0  0
   -3.7826    1.9961   -0.2746 N   0  0  0  0  0  0  0  0  0  0  0  0
   -5.1757    2.3414   -0.1046 C   0  0  2  0  0  0  0  0  0  0  0  0
   -5.2945    3.2215    1.1327 C   0  0  0  0  0  0  0  0  0  0  0  0
   -4.4582    3.2286    2.0336 O   0  0  0  0  0  0  0  0  0  0  0  0
   -6.0418    1.0983    0.0275 C   0  0  0  0  0  0  0  0  0  0  0  0
   -3.5412    1.0191   -0.4119 H   0  0  0  0  0  0  0  0  0  0  0  0
   -5.4700    2.9144   -0.9907 H   0  0  0  0  0  0  0  0  0  0  0  0
   -5.7617    0.5114    0.9098 H   0  0  0  0  0  0  0  0  0  0  0  0
   -7.1001    1.3609    0.1276 H   0  0  0  0  0  0  0  0  0  0  0  0
   -5.9323    0.4520   -0.8501 H   0  0  0  0  0  0  0  0  0  0  0  0
   -6.4656    3.9663    1.1329 N   0  0  0  0  0  0  0  0  0  0  0  0
   -6.8151    4.8691    2.2047 C   0  0  0  0  0  0  0  0  0  0  0  0
   -7.0924    3.9121    0.3354 H   0  0  0  0  0  0  0  0  0  0  0  0
   -7.4329    4.3391    2.9445 H   0  0  0  0  0  0  0  0  0  0  0  0
   -5.8980    5.2362    2.6885 H   0  0  0  0  0  0  0  0  0  0  0  0
   -7.3806    5.7202    1.7972 H   0  0  0  0  0  0  0  0  0  0  0  0
 29 30  2  0  0  0  0
 27 29  1  0  0  0  0
 28 30  1  0  0  0  0
 24 27  2  0  0  0  0
 26 28  2  0  0  0  0
 22 23  2  0  0  0  0
 23 25  1  0  0  0  0
 22 24  1  0  0  0  0
 24 26  1  0  0  0  0
 21 22  1  0  0  0  0
 25 26  1  0  0  0  0
  1  3  1  0  0  0  0
  1  7  1  0  0  0  0
  1  2  2  0  0  0  0
 42 43  1  0  0  0  0
 43 51  1  0  0  0  0
 43 44  2  0  0  0  0
  8  9  1  0  0  0  0
  9 17  1  0  0  0  0
  9 10  2  0  0  0  0
 18 19  1  0  0  0  0
 19 41  1  0  0  0  0
 19 20  2  0  0  0  0
 42 45  1  0  0  0  0
  8 11  1  0  0  0  0
 51 52  1  0  0  0  0
 18 21  1  0  0  0  0
 41 42  1  0  0  0  0
  7  8  1  0  0  0  0
 17 18  1  0  0  0  0
 29 39  1  0  0  0  0
 30 40  1  0  0  0  0
 27 37  1  0  0  0  0
 28 38  1  0  0  0  0
 23 35  1  0  0  0  0
  3  4  1  0  0  0  0
  3  5  1  0  0  0  0
  3  6  1  0  0  0  0
 45 48  1  0  0  0  0
 45 49  1  0  0  0  0
 45 50  1  0  0  0  0
 11 14  1  0  0  0  0
 11 15  1  0  0  0  0
 11 16  1  0  0  0  0
 52 54  1  0  0  0  0
 52 55  1  0  0  0  0
 52 56  1  0  0  0  0
 21 33  1  0  0  0  0
 21 34  1  0  0  0  0
 42 47  1  0  0  0  0
  8 13  1  0  0  0  0
 18 32  1  0  0  0  0
 25 36  1  0  0  0  0
 51 53  1  0  0  0  0
  7 12  1  0  0  0  0
 41 46  1  0  0  0  0
 17 31  1  0  0  0  0
M  END
$$$$

  -OEChem-02062319033D

 56 57  0     1  0  0  0  0  0999 V2000
   -2.2900    0.3401    4.1553 C   0  0  0  0  0  0  0  0  0  0  0  0
   -1.3426   -0.2746    3.6796 O   0  0  0  0  0  0  0  0  0  0  0  0
   -2.7219    0.0577    5.5560 C   0  0  0  0  0  0  0  0  0  0  0  0
   -3.4815   -0.7386    5.6094 H   0  0  0  0  0  0  0  0  0  0  0  0
   -1.8906   -0.2899    6.1903 H   0  0  0  0  0  0  0  0  0  0  0  0
   -3.1599    0.9126    6.0956 H   0  0  0  0  0  0  0  0  0  0  0  0
   -3.0397    1.3125    3.5142 N   0  0  0  0  0  0  0  0  0  0  0  0
   -2.7928    1.7385    2.1618 C   0  0  2  0  0  0  0  0  0  0  0  0
   -1.4579    1.1532    1.7206 C   0  0  0  0  0  0  0  0  0  0  0  0
   -0.5858    0.8004    2.5118 O   0  0  0  0  0  0  0  0  0  0  0  0
   -2.7841    3.2553    2.0523 C   0  0  0  0  0  0  0  0  0  0  0  0
   -3.8047    1.7484    4.0260 H   0  0  0  0  0  0  0  0  0  0  0  0
   -3.5969    1.3201    1.5466 H   0  0  0  0  0  0  0  0  0  0  0  0
   -1.9850    3.6926    2.6620 H   0  0  0  0  0  0  0  0  0  0  0  0
   -2.6246    3.5776    1.0180 H   0  0  0  0  0  0  0  0  0  0  0  0
   -3.7342    3.6765    2.3981 H   0  0  0  0  0  0  0  0  0  0  0  0
   -1.3352    1.1101    0.3372 N   0  0  0  0  0  0  0  0  0  0  0  0
   -1.0796    2.2831   -0.4604 C   0  0  2  0  0  0  0  0  0  0  0  0
   -2.2340    3.2501   -0.2231 C   0  0  0  0  0  0  0  0  0  0  0  0
   -2.0726    4.4577   -0.0601 O   0  0  0  0  0  0  0  0  0  0  0  0
   -0.9586    1.9535   -1.9526 C   0  0  0  0  0  0  0  0  0  0  0  0
    0.2616    1.1239   -2.2700 C   0  0  0  0  0  0  0  0  0  0  0  0
    0.2877   -0.2442   -2.4138 C   0  0  0  0  0  0  0  0  0  0  0  0
    1.5845    1.6063   -2.4756 C   0  0  0  0  0  0  0  0  0  0  0  0
    1.5750   -0.6134   -2.6985 N   0  0  0  0  0  0  0  0  0  0  0  0
    2.3886    0.4963   -2.7426 C   0  0  0  0  0  0  0  0  0  0  0  0
    2.1766    2.8848   -2.4601 C   0  0  0  0  0  0  0  0  0  0  0  0
    3.7609    0.6012   -2.9960 C   0  0  0  0  0  0  0  0  0  0  0  0
    3.5482    3.0050   -2.7118 C   0  0  0  0  0  0  0  0  0  0  0  0
    4.3262    1.8794   -2.9754 C   0  0  0  0  0  0  0  0  0  0  0  0
   -1.3888    0.2125   -0.1382 H   0  0  0  0  0  0  0  0  0  0  0  0
   -0.1543    2.7273   -0.0750 H   0  0  0  0  0  0  0  0  0  0  0  0
   -0.9415    2.8776   -2.5462 H   0  0  0  0  0  0  0  0  0  0  0  0
   -1.8457    1.4061   -2.2977 H   0  0  0  0  0  0  0  0  0  0  0  0
   -0.4928   -0.9886   -2.3379 H   0  0  0  0  0  0  0  0  0  0  0  0
    1.8841   -1.5630   -2.8541 H   0  0  0  0  0  0  0  0  0  0  0  0
    1.5839    3.7719   -2.2553 H   0  0  0  0  0  0  0  0  0  0  0  0
    4.3671   -0.2743   -3.2023 H   0  0  0  0  0  0  0  0  0  0  0  0
    4.0106    3.9883   -2.7007 H   0  0  0  0  0  0  0  0  0  0  0  0
    5.3896    1.9959   -3.1682 H   0  0  0  0  0  0  0  0  0  0  0  0
   -3.4649    2.6102   -0.2656 N   0  0  0  0  0  0  0  0  0  0  0  0
   -4.7238    3.2991   -0.0944 C   0  0  2  0  0  0  0  0  0  0  0  0
   -4.6255    4.1529    1.1630 C   0  0  0  0  0  0  0  0  0  0  0  0
   -3.8256    3.9245    2.0680 O   0  0  0  0  0  0  0  0  0  0  0  0
   -5.8823    2.3187    0.0036 C   0  0  0  0  0  0  0  0  0  0  0  0
   -3.4818    1.6071   -0.4250 H   0  0  0  0  0  0  0  0  0  0  0  0
   -4.8508    3.9477   -0.9680 H   0  0  0  0  0  0  0  0  0  0  0  0
   -5.7725    1.6603    0.8731 H   0  0  0  0  0  0  0  0  0  0  0  0
   -6.8383    2.8430    0.1046 H   0  0  0  0  0  0  0  0  0  0  0  0
   -5.9333    1.6853   -0.8886 H   0  0  0  0  0  0  0  0  0  0  0  0
   -5.5652    5.1742    1.1751 N   0  0  0  0  0  0  0  0  0  0  0  0
   -5.6822    6.1131    2.2663 C   0  0  0  0  0  0  0  0  0  0  0  0
   -6.1760    5.3008    0.3734 H   0  0  0  0  0  0  0  0  0  0  0  0
   -6.4238    5.7442    2.9902 H   0  0  0  0  0  0  0  0  0  0  0  0
   -4.7068    6.2207    2.7634 H   0  0  0  0  0  0  0  0  0  0  0  0
   -6.0048    7.0898    1.8765 H   0  0  0  0  0  0  0  0  0  0  0  0
 29 30  2  0  0  0  0
 27 29  1  0  0  0  0
 28 30  1  0  0  0  0
 24 27  2  0  0  0  0
 26 28  2  0  0  0  0
 22 23  2  0  0  0  0
 23 25  1  0  0  0  0
 22 24  1  0  0  0  0
 24 26  1  0  0  0  0
 21 22  1  0  0  0  0
 25 26  1  0  0  0  0
  1  3  1  0  0  0  0
  1  7  1  0  0  0  0
  1  2  2  0  0  0  0
 42 43  1  0  0  0  0
 43 51  1  0  0  0  0
 43 44  2  0  0  0  0
  8  9  1  0  0  0  0
  9 17  1  0  0  0  0
  9 10  2  0  0  0  0
 18 19  1  0  0  0  0
 19 41  1  0  0  0  0
 19 20  2  0  0  0  0
 42 45  1  0  0  0  0
  8 11  1  0  0  0  0
 51 52  1  0  0  0  0
 18 21  1  0  0  0  0
 41 42  1  0  0  0  0
  7  8  1  0  0  0  0
 17 18  1  0  0  0  0
 29 39  1  0  0  0  0
 30 40  1  0  0  0  0
 27 37  1  0  0  0  0
 28 38  1  0  0  0  0
 23 35  1  0  0  0  0
  3  4  1  0  0  0  0
  3  5  1  0  0  0  0
  3  6  1  0  0  0  0
 45 48  1  0  0  0  0
 45 49  1  0  0  0  0
 45 50  1  0  0  0  0
 11 14  1  0  0  0  0
 11 15  1  0  0  0  0
 11 16  1  0  0  0  0
 52 54  1  0  0  0  0
 52 55  1  0  0  0  0
 52 56  1  0  0  0  0
 21 33  1  0  0  0  0
 21 34  1  0  0  0  0
 42 47  1  0  0  0  0
  8 13  1  0  0  0  0
 18 32  1  0  0  0  0
 25 36  1  0  0  0  0
 51 53  1  0  0  0  0
  7 12  1  0  0  0  0
 41 46  1  0  0  0  0
 17 31  1  0  0  0  0
M  END
$$$$

  -OEChem-02062319033D

 56 57  0     1  0  0  0  0  0999 V2000
   -2.2900    0.3401    4.1553 C   0  0  0  0  0  0  0  0  0  0  0  0
   -1.3426   -0.2746    3.6796 O   0  0  0  0  0  0  0  0  0  0  0  0
   -2.7219    0.0577    5.5560 C   0  0  0  0  0  0  0  0  0  0  0  0
   -3.4815   -0.7386    5.6094 H   0  0  0  0  0  0  0  0  0  0  0  0
   -1.8906   -0.2899    6.1903 H   0  0  0  0  0  0  0  0  0  0  0  0
   -3.1599    0.9126    6.0956 H   0  0  0  0  0  0  0  0  0  0  0  0
   -3.0397    1.3125    3.5142 N   0  0  0  0  0  0  0  0  0  0  0  0
   -2.7928    1.7385    2.1618 C   0  0  2  0  0  0  0  0  0  0  0  0
   -1.4579    1.1532    1.7206 C   0  0  0  0  0  0  0  0  0  0  0  0
   -0.5858    0.8004    2.5118 O   0  0  0  0  0  0  0  0  0  0  0  0
   -2.7841    3.2553    2.0523 C   0  0  0  0  0  0  0  0  0  0  0  0
   -3.8047    1.7484    4.0260 H   0  0  0  0  0  0  0  0  0  0  0  0
   -3.5969    1.3201    1.5466 H   0  0  0  0  0  0  0  0  0  0  0  0
   -1.9850    3.6926    2.6620 H   0  0  0  0  0  0  0  0  0  0  0  0
   -2.6246    3.5776    1.0180 H   0  0  0  0  0  0  0  0  0  0  0  0
   -3.7342    3.6765    2.3981 H   0  0  0  0  0  0  0  0  0  0  0  0
   -1.3352    1.1101    0.3372 N   0  0  0  0  0  0  0  0  0  0  0  0
   -0.7773    2.1946   -0.4308 C   0  0  2  0  0  0  0  0  0  0  0  0
   -1.6462    3.4212   -0.1764 C   0  0  0  0  0  0  0  0  0  0  0  0
   -1.1810    4.5425    0.0163 O   0  0  0  0  0  0  0  0  0  0  0  0
   -0.7288    1.8776   -1.9299 C   0  0  0  0  0  0  0  0  0  0  0  0
    0.2399    0.7686   -2.2609 C   0  0  0  0  0  0  0  0  0  0  0  0
   -0.0856   -0.5565   -2.4372 C   0  0  0  0  0  0  0  0  0  0  0  0
    1.6446    0.8981   -2.4482 C   0  0  0  0  0  0  0  0  0  0  0  0
    1.0661   -1.2387   -2.7242 N   0  0  0  0  0  0  0  0  0  0  0  0
    2.1386   -0.3756   -2.7376 C   0  0  0  0  0  0  0  0  0  0  0  0
    2.5459    1.9801   -2.3992 C   0  0  0  0  0  0  0  0  0  0  0  0
    3.4943   -0.6225   -2.9815 C   0  0  0  0  0  0  0  0  0  0  0  0
    3.9048    1.7481   -2.6410 C   0  0  0  0  0  0  0  0  0  0  0  0
    4.3695    0.4660   -2.9275 C   0  0  0  0  0  0  0  0  0  0  0  0
   -1.6129    0.2672   -0.1598 H   0  0  0  0  0  0  0  0  0  0  0  0
    0.2269    2.3769   -0.0302 H   0  0  0  0  0  0  0  0  0  0  0  0
   -0.4677    2.7788   -2.5011 H   0  0  0  0  0  0  0  0  0  0  0  0
   -1.7231    1.5850   -2.2924 H   0  0  0  0  0  0  0  0  0  0  0  0
   -1.0324   -1.0760   -2.3830 H   0  0  0  0  0  0  0  0  0  0  0  0
    1.1219   -2.2323   -2.9008 H   0  0  0  0  0  0  0  0  0  0  0  0
    2.1995    2.9853   -2.1763 H   0  0  0  0  0  0  0  0  0  0  0  0
    3.8568   -1.6200   -3.2056 H   0  0  0  0  0  0  0  0  0  0  0  0
    4.6047    2.5786   -2.6041 H   0  0  0  0  0  0  0  0  0  0  0  0
    5.4290    0.3086   -3.1121 H   0  0  0  0  0  0  0  0  0  0  0  0
   -2.9999    3.1212   -0.2403 N   0  0  0  0  0  0  0  0  0  0  0  0
   -4.0406    4.1075   -0.0590 C   0  0  2  0  0  0  0  0  0  0  0  0
   -3.7396    4.8795    1.2189 C   0  0  0  0  0  0  0  0  0  0  0  0
   -3.0356    4.4330    2.1222 O   0  0  0  0  0  0  0  0  0  0  0  0
   -5.4135    3.4570    0.0097 C   0  0  0  0  0  0  0  0  0  0  0  0
   -3.2728    2.1602   -0.4237 H   0  0  0  0  0  0  0  0  0  0  0  0
   -3.9866    4.7858   -0.9175 H   0  0  0  0  0  0  0  0  0  0  0  0
   -5.4867    2.7738    0.8637 H   0  0  0  0  0  0  0  0  0  0  0  0
   -6.2033    4.2077    0.1184 H   0  0  0  0  0  0  0  0  0  0  0  0
   -5.6161    2.8777   -0.8976 H   0  0  0  0  0  0  0  0  0  0  0  0
   -4.3845    6.1080    1.2507 N   0  0  0  0  0  0  0  0  0  0  0  0
   -4.2678    7.0213    2.3634 C   0  0  0  0  0  0  0  0  0  0  0  0
   -4.9332    6.4052    0.4492 H   0  0  0  0  0  0  0  0  0  0  0  0
   -5.0873    6.8403    3.0745 H   0  0  0  0  0  0  0  0  0  0  0  0
   -3.3032    6.8630    2.8679 H   0  0  0  0  0  0  0  0  0  0  0  0
   -4.3236    8.0564    1.9955 H   0  0  0  0  0  0  0  0  0  0  0  0
 29 30  2  0  0  0  0
 27 29  1  0  0  0  0
 28 30  1  0  0  0  0
 24 27  2  0  0  0  0
 26 28  2  0  0  0  0
 22 23  2  0  0  0  0
 23 25  1  0  0  0  0
 22 24  1  0  0  0  0
 24 26  1  0  0  0  0
 21 22  1  0  0  0  0
 25 26  1  0  0  0  0
  1  3  1  0  0  0  0
  1  7  1  0  0  0  0
  1  2  2  0  0  0  0
 42 43  1  0  0  0  0
 43 51  1  0  0  0  0
 43 44  2  0  0  0  0
  8  9  1  0  0  0  0
  9 17  1  0  0  0  0
  9 10  2  0  0  0  0
 18 19  1  0  0  0  0
 19 41  1  0  0  0  0
 19 20  2  0  0  0  0
 42 45  1  0  0  0  0
  8 11  1  0  0  0  0
 51 52  1  0  0  0  0
 18 21  1  0  0  0  0
 41 42  1  0  0  0  0
  7  8  1  0  0  0  0
 17 18  1  0  0  0  0
 29 39  1  0  0  0  0
 30 40  1  0  0  0  0
 27 37  1  0  0  0  0
 28 38  1  0  0  0  0
 23 35  1  0  0  0  0
  3  4  1  0  0  0  0
  3  5  1  0  0  0  0
  3  6  1  0  0  0  0
 45 48  1  0  0  0  0
 45 49  1  0  0  0  0
 45 50  1  0  0  0  0
 11 14  1  0  0  0  0
 11 15  1  0  0  0  0
 11 16  1  0  0  0  0
 52 54  1  0  0  0  0
 52 55  1  0  0  0  0
 52 56  1  0  0  0  0
 21 33  1  0  0  0  0
 21 34  1  0  0  0  0
 42 47  1  0  0  0  0
  8 13  1  0  0  0  0
 18 32  1  0  0  0  0
 25 36  1  0  0  0  0
 51 53  1  0  0  0  0
  7 12  1  0  0  0  0
 41 46  1  0  0  0  0
 17 31  1  0  0  0  0
M  END
$$$$

  -OEChem-02062319033D

 56 57  0     1  0  0  0  0  0999 V2000
   -2.2900    0.3401    4.1553 C   0  0  0  0  0  0  0  0  0  0  0  0
   -1.3426   -0.2746    3.6796 O   0  0  0  0  0  0  0  0  0  0  0  0
   -2.7219    0.0577    5.5560 C   0  0  0  0  0  0  0  0  0  0  0  0
   -3.4815   -0.7386    5.6094 H   0  0  0  0  0  0  0  0  0  0  0  0
   -1.8906   -0.2899    6.1903 H   0  0  0  0  0  0  0  0  0  0  0  0
   -3.1599    0.9126    6.0956 H   0  0  0  0  0  0  0  0  0  0  0  0
   -3.0397    1.3125    3.5142 N   0  0  0  0  0  0  0  0  0  0  0  0
   -2.7928    1.7385    2.1618 C   0  0  2  0  0  0  0  0  0  0  0  0
   -1.4579    1.1532    1.7206 C   0  0  0  0  0  0  0  0  0  0  0  0
   -0.5858    0.8004    2.5118 O   0  0  0  0  0  0  0  0  0  0  0  0
   -2.7841    3.2553    2.0523 C   0  0  0  0  0  0  0  0  0  0  0  0
   -3.8047    1.7484    4.0260 H   0  0  0  0  0  0  0  0  0  0  0  0
   -3.5969    1.3201    1.5466 H   0  0  0  0  0  0  0  0  0  0  0  0
   -1.9850    3.6926    2.6620 H   0  0  0  0  0  0  0  0  0  0  0  0
   -2.6246    3.5776    1.0180 H   0  0  0  0  0  0  0  0  0  0  0  0
   -3.7342    3.6765    2.3981 H   0  0  0  0  0  0  0  0  0  0  0  0
   -1.3352    1.1101    0.3372 N   0  0  0  0  0  0  0  0  0  0  0  0
   -0.5083    2.0306   -0.4019 C   0  0  2  0  0  0  0  0  0  0  0  0
   -1.0347    3.4339   -0.1225 C   0  0  0  0  0  0  0  0  0  0  0  0
   -0.2985    4.3929    0.0992 O   0  0  0  0  0  0  0  0  0  0  0  0
   -0.5266    1.7446   -1.9078 C   0  0  0  0  0  0  0  0  0  0  0  0
    0.1273    0.4308   -2.2603 C   0  0  0  0  0  0  0  0  0  0  0  0
   -0.5266   -0.7614   -2.4699 C   0  0  0  0  0  0  0  0  0  0  0  0
    1.5199    0.1979   -2.4374 C   0  0  0  0  0  0  0  0  0  0  0  0
    0.4137   -1.7111   -2.7673 N   0  0  0  0  0  0  0  0  0  0  0  0
    1.6723   -1.1535   -2.7547 C   0  0  0  0  0  0  0  0  0  0  0  0
    2.6689    1.0097   -2.3580 C   0  0  0  0  0  0  0  0  0  0  0  0
    2.9213   -1.7361   -2.9976 C   0  0  0  0  0  0  0  0  0  0  0  0
    3.9248    0.4406   -2.5985 C   0  0  0  0  0  0  0  0  0  0  0  0
    4.0467   -0.9114   -2.9132 C   0  0  0  0  0  0  0  0  0  0  0  0
   -1.8152    0.3783   -0.1812 H   0  0  0  0  0  0  0  0  0  0  0  0
    0.5044    1.9391    0.0080 H   0  0  0  0  0  0  0  0  0  0  0  0
   -0.0359    2.5603   -2.4560 H   0  0  0  0  0  0  0  0  0  0  0  0
   -1.5587    1.7262   -2.2822 H   0  0  0  0  0  0  0  0  0  0  0  0
   -1.5758   -1.0204   -2.4329 H   0  0  0  0  0  0  0  0  0  0  0  0
    0.2135   -2.6813   -2.9674 H   0  0  0  0  0  0  0  0  0  0  0  0
    2.5907    2.0651   -2.1129 H   0  0  0  0  0  0  0  0  0  0  0  0
    3.0171   -2.7882   -3.2437 H   0  0  0  0  0  0  0  0  0  0  0  0
    4.8146    1.0615   -2.5382 H   0  0  0  0  0  0  0  0  0  0  0  0
    5.0319   -1.3326   -3.0962 H   0  0  0  0  0  0  0  0  0  0  0  0
   -2.4192    3.4945   -0.2004 N   0  0  0  0  0  0  0  0  0  0  0  0
   -3.1727    4.7115   -0.0008 C   0  0  2  0  0  0  0  0  0  0  0  0
   -2.6970    5.3518    1.2966 C   0  0  0  0  0  0  0  0  0  0  0  0
   -2.1418    4.7193    2.1925 O   0  0  0  0  0  0  0  0  0  0  0  0
   -4.6675    4.4355    0.0453 C   0  0  0  0  0  0  0  0  0  0  0  0
   -2.9284    2.6405   -0.4081 H   0  0  0  0  0  0  0  0  0  0  0  0
   -2.9363    5.3715   -0.8426 H   0  0  0  0  0  0  0  0  0  0  0  0
   -4.9236    3.7758    0.8824 H   0  0  0  0  0  0  0  0  0  0  0  0
   -5.2384    5.3619    0.1679 H   0  0  0  0  0  0  0  0  0  0  0  0
   -5.0025    3.9480   -0.8766 H   0  0  0  0  0  0  0  0  0  0  0  0
   -3.0041    6.7040    1.3545 N   0  0  0  0  0  0  0  0  0  0  0  0
   -2.6683    7.5318    2.4893 C   0  0  0  0  0  0  0  0  0  0  0  0
   -3.4488    7.1500    0.5576 H   0  0  0  0  0  0  0  0  0  0  0  0
   -3.5146    7.5528    3.1917 H   0  0  0  0  0  0  0  0  0  0  0  0
   -1.7826    7.1193    2.9947 H   0  0  0  0  0  0  0  0  0  0  0  0
   -2.4515    8.5541    2.1459 H   0  0  0  0  0  0  0  0  0  0  0  0
 29 30  2  0  0  0  0
 27 29  1  0  0  0  0
 28 30  1  0  0  0  0
 24 27  2  0  0  0  0
 26 28  2  0  0  0  0
 22 23  2  0  0  0  0
 23 25  1  0  0  0  0
 22 24  1  0  0  0  0
 24 26  1  0  0  0  0
 21 22  1  0  0  0  0
 25 26  1  0  0  0  0
  1  3  1  0  0  0  0
  1  7  1  0  0  0  0
  1  2  2  0  0  0  0
 42 43  1  0  0  0  0
 43 51  1  0  0  0  0
 43 44  2  0  0  0  0
  8  9  1  0  0  0  0
  9 17  1  0  0  0  0
  9 10  2  0  0  0  0
 18 19  1  0  0  0  0
 19 41  1  0  0  0  0
 19 20  2  0  0  0  0
 42 45  1  0  0  0  0
  8 11  1  0  0  0  0
 51 52  1  0  0  0  0
 18 21  1  0  0  0  0
 41 42  1  0  0  0  0
  7  8  1  0  0  0  0
 17 18  1  0  0  0  0
 29 39  1  0  0  0  0
 30 40  1  0  0  0  0
 27 37  1  0  0  0  0
 28 38  1  0  0  0  0
 23 35  1  0  0  0  0
  3  4  1  0  0  0  0
  3  5  1  0  0  0  0
  3  6  1  0  0  0  0
 45 48  1  0  0  0  0
 45 49  1  0  0  0  0
 45 50  1  0  0  0  0
 11 14  1  0  0  0  0
 11 15  1  0  0  0  0
 11 16  1  0  0  0  0
 52 54  1  0  0  0  0
 52 55  1  0  0  0  0
 52 56  1  0  0  0  0
 21 33  1  0  0  0  0
 21 34  1  0  0  0  0
 42 47  1  0  0  0  0
  8 13  1  0  0  0  0
 18 32  1  0  0  0  0
 25 36  1  0  0  0  0
 51 53  1  0  0  0  0
  7 12  1  0  0  0  0
 41 46  1  0  0  0  0
 17 31  1  0  0  0  0
M  END
$$$$

  -OEChem-02062319033D

 56 57  0     1  0  0  0  0  0999 V2000
   -2.2900    0.3401    4.1553 C   0  0  0  0  0  0  0  0  0  0  0  0
   -1.3426   -0.2746    3.6796 O   0  0  0  0  0  0  0  0  0  0  0  0
   -2.7219    0.0577    5.5560 C   0  0  0  0  0  0  0  0  0  0  0  0
   -3.4815   -0.7386    5.6094 H   0  0  0  0  0  0  0  0  0  0  0  0
   -1.8906   -0.2899    6.1903 H   0  0  0  0  0  0  0  0  0  0  0  0
   -3.1599    0.9126    6.0956 H   0  0  0  0  0  0  0  0  0  0  0  0
   -3.0397    1.3125    3.5142 N   0  0  0  0  0  0  0  0  0  0  0  0
   -2.7928    1.7385    2.1618 C   0  0  2  0  0  0  0  0  0  0  0  0
   -1.4579    1.1532    1.7206 C   0  0  0  0  0  0  0  0  0  0  0  0
   -0.5858    0.8004    2.5118 O   0  0  0  0  0  0  0  0  0  0  0  0
   -2.7841    3.2553    2.0523 C   0  0  0  0  0  0  0  0  0  0  0  0
   -3.8047    1.7484    4.0260 H   0  0  0  0  0  0  0  0  0  0  0  0
   -3.5969    1.3201    1.5466 H   0  0  0  0  0  0  0  0  0  0  0  0
   -1.9850    3.6926    2.6620 H   0  0  0  0  0  0  0  0  0  0  0  0
   -2.6246    3.5776    1.0180 H   0  0  0  0  0  0  0  0  0  0  0  0
   -3.7342    3.6765    2.3981 H   0  0  0  0  0  0  0  0  0  0  0  0
   -1.3352    1.1101    0.3372 N   0  0  0  0  0  0  0  0  0  0  0  0
   -0.2910    1.8022   -0.3755 C   0  0  2  0  0  0  0  0  0  0  0  0
   -0.4412    3.2873   -0.0654 C   0  0  0  0  0  0  0  0  0  0  0  0
    0.5147    4.0191    0.1830 O   0  0  0  0  0  0  0  0  0  0  0  0
   -0.3658    1.5634   -1.8879 C   0  0  0  0  0  0  0  0  0  0  0  0
   -0.0684    0.1336   -2.2684 C   0  0  0  0  0  0  0  0  0  0  0  0
   -1.0050   -0.8449   -2.5097 C   0  0  0  0  0  0  0  0  0  0  0  0
    1.2190   -0.4465   -2.4440 C   0  0  0  0  0  0  0  0  0  0  0  0
   -0.3379   -1.9982   -2.8250 N   0  0  0  0  0  0  0  0  0  0  0  0
    1.0217   -1.7843   -2.7928 C   0  0  0  0  0  0  0  0  0  0  0  0
    2.5374    0.0397   -2.3394 C   0  0  0  0  0  0  0  0  0  0  0  0
    2.0810   -2.6638   -3.0431 C   0  0  0  0  0  0  0  0  0  0  0  0
    3.6069   -0.8286   -2.5871 C   0  0  0  0  0  0  0  0  0  0  0  0
    3.3799   -2.1591   -2.9334 C   0  0  0  0  0  0  0  0  0  0  0  0
   -1.9817    0.5382   -0.2009 H   0  0  0  0  0  0  0  0  0  0  0  0
    0.6594    1.4438    0.0372 H   0  0  0  0  0  0  0  0  0  0  0  0
    0.3245    2.2368   -2.4139 H   0  0  0  0  0  0  0  0  0  0  0  0
   -1.3635    1.8199   -2.2679 H   0  0  0  0  0  0  0  0  0  0  0  0
   -2.0859   -0.8255   -2.4842 H   0  0  0  0  0  0  0  0  0  0  0  0
   -0.7790   -2.8795   -3.0492 H   0  0  0  0  0  0  0  0  0  0  0  0
    2.7310    1.0739   -2.0696 H   0  0  0  0  0  0  0  0  0  0  0  0
    1.9052   -3.6994   -3.3138 H   0  0  0  0  0  0  0  0  0  0  0  0
    4.6259   -0.4595   -2.5075 H   0  0  0  0  0  0  0  0  0  0  0  0
    4.2253   -2.8159   -3.1215 H   0  0  0  0  0  0  0  0  0  0  0  0
   -1.7624    3.7044   -0.1487 N   0  0  0  0  0  0  0  0  0  0  0  0
   -2.1792    5.0699    0.0761 C   0  0  2  0  0  0  0  0  0  0  0  0
   -1.5689    5.5375    1.3908 C   0  0  0  0  0  0  0  0  0  0  0  0
   -1.2053    4.7639    2.2742 O   0  0  0  0  0  0  0  0  0  0  0  0
   -3.6950    5.1877    0.1081 C   0  0  0  0  0  0  0  0  0  0  0  0
   -2.4721    3.0153   -0.3793 H   0  0  0  0  0  0  0  0  0  0  0  0
   -1.7714    5.6649   -0.7485 H   0  0  0  0  0  0  0  0  0  0  0  0
   -4.1216    4.5982    0.9279 H   0  0  0  0  0  0  0  0  0  0  0  0
   -4.0093    6.2270    0.2500 H   0  0  0  0  0  0  0  0  0  0  0  0
   -4.1341    4.8232   -0.8269 H   0  0  0  0  0  0  0  0  0  0  0  0
   -1.5180    6.9216    1.4795 N   0  0  0  0  0  0  0  0  0  0  0  0
   -0.9928    7.6100    2.6355 C   0  0  0  0  0  0  0  0  0  0  0  0
   -1.8240    7.4844    0.6912 H   0  0  0  0  0  0  0  0  0  0  0  0
   -1.8128    7.8331    3.3339 H   0  0  0  0  0  0  0  0  0  0  0  0
   -0.2489    6.9721    3.1353 H   0  0  0  0  0  0  0  0  0  0  0  0
   -0.5162    8.5491    2.3177 H   0  0  0  0  0  0  0  0  0  0  0  0
 29 30  2  0  0  0  0
 27 29  1  0  0  0  0
 28 30  1  0  0  0  0
 24 27  2  0  0  0  0
 26 28  2  0  0  0  0
 22 23  2  0  0  0  0
 23 25  1  0  0  0  0
 22 24  1  0  0  0  0
 24 26  1  0  0  0  0
 21 22  1  0  0  0  0
 25 26  1  0  0  0  0
  1  3  1  0  0  0  0
  1  7  1  0  0  0  0
  1  2  2  0  0  0  0
 42 43  1  0  0  0  0
 43 51  1  0  0  0  0
 43 44  2  0  0  0  0
  8  9  1  0  0  0  0
  9 17  1  0  0  0  0
  9 10  2  0  0  0  0
 18 19  1  0  0  0  0
 19 41  1  0  0  0  0
 19 20  2  0  0  0  0
 42 45  1  0  0  0  0
  8 11  1  0  0  0  0
 51 52  1  0  0  0  0
 18 21  1  0  0  0  0
 41 42  1  0  0  0  0
  7  8  1  0  0  0  0
 17 18  1  0  0  0  0
 29 39  1  0  0  0  0
 30 40  1  0  0  0  0
 27 37  1  0  0  0  0
 28 38  1  0  0  0  0
 23 35  1  0  0  0  0
  3  4  1  0  0  0  0
  3  5  1  0  0  0  0
  3  6  1  0  0  0  0
 45 48  1  0  0  0  0
 45 49  1  0  0  0  0
 45 50  1  0  0  0  0
 11 14  1  0  0  0  0
 11 15  1  0  0  0  0
 11 16  1  0  0  0  0
 52 54  1  0  0  0  0
 52 55  1  0  0  0  0
 52 56  1  0  0  0  0
 21 33  1  0  0  0  0
 21 34  1  0  0  0  0
 42 47  1  0  0  0  0
  8 13  1  0  0  0  0
 18 32  1  0  0  0  0
 25 36  1  0  0  0  0
 51 53  1  0  0  0  0
  7 12  1  0  0  0  0
 41 46  1  0  0  0  0
 17 31  1  0  0  0  0
M  END
$$$$

  -OEChem-02062319033D

 56 57  0     1  0  0  0  0  0999 V2000
   -2.2900    0.3401    4.1553 C   0  0  0  0  0  0  0  0  0  0  0  0
   -1.3426   -0.2746    3.6796 O   0  0  0  0  0  0  0  0  0  0  0  0
   -2.7219    0.0577    5.5560 C   0  0  0  0  0  0  0  0  0  0  0  0
   -3.4815   -0.7386    5.6094 H   0  0  0  0  0  0  0  0  0  0  0  0
   -1.8906   -0.2899    6.1903 H   0  0  0  0  0  0  0  0  0  0  0  0
   -3.1599    0.9126    6.0956 H   0  0  0  0  0  0  0  0  0  0  0  0
   -3.0397    1.3125    3.5142 N   0  0  0  0  0  0  0  0  0  0  0  0
   -2.7928    1.7385    2.1618 C   0  0  2  0  0  0  0  0  0  0  0  0
   -1.4579    1.1532    1.7206 C   0  0  0  0  0  0  0  0  0  0  0  0
   -0.5858    0.8004    2.5118 O   0  0  0  0  0  0  0  0  0  0  0  0
   -2.7841    3.2553    2.0523 C   0  0  0  0  0  0  0  0  0  0  0  0
   -3.8047    1.7484    4.0260 H   0  0  0  0  0  0  0  0  0  0  0  0
   -3.5969    1.3201    1.5466 H   0  0  0  0  0  0  0  0  0  0  0  0
   -1.9850    3.6926    2.6620 H   0  0  0  0  0  0  0  0  0  0  0  0
   -2.6246    3.5776    1.0180 H   0  0  0  0  0  0  0  0  0  0  0  0
   -3.7342    3.6765    2.3981 H   0  0  0  0  0  0  0  0  0  0  0  0
   -1.3352    1.1101    0.3372 N   0  0  0  0  0  0  0  0  0  0  0  0
   -0.1401    1.5250   -0.3535 C   0  0  2  0  0  0  0  0  0  0  0  0
    0.0938    2.9915   -0.0087 C   0  0  0  0  0  0  0  0  0  0  0  0
    1.2032    3.4465    0.2619 O   0  0  0  0  0  0  0  0  0  0  0  0
   -0.2572    1.3466   -1.8715 C   0  0  0  0  0  0  0  0  0  0  0  0
   -0.3341   -0.1029   -2.2846 C   0  0  0  0  0  0  0  0  0  0  0  0
   -1.4884   -0.8014   -2.5540 C   0  0  0  0  0  0  0  0  0  0  0  0
    0.7624   -0.9914   -2.4675 C   0  0  0  0  0  0  0  0  0  0  0  0
   -1.1375   -2.0805   -2.8933 N   0  0  0  0  0  0  0  0  0  0  0  0
    0.2309   -2.2251   -2.8491 C   0  0  0  0  0  0  0  0  0  0  0  0
    2.1603   -0.8638   -2.3447 C   0  0  0  0  0  0  0  0  0  0  0  0
    1.0306   -3.3423   -3.1151 C   0  0  0  0  0  0  0  0  0  0  0  0
    2.9727   -1.9728   -2.6077 C   0  0  0  0  0  0  0  0  0  0  0  0
    2.4144   -3.1920   -2.9868 C   0  0  0  0  0  0  0  0  0  0  0  0
   -2.1013    0.7361   -0.2177 H   0  0  0  0  0  0  0  0  0  0  0  0
    0.6813    0.9248    0.0553 H   0  0  0  0  0  0  0  0  0  0  0  0
    0.5889    1.8306   -2.3778 H   0  0  0  0  0  0  0  0  0  0  0  0
   -1.1510    1.8598   -2.2503 H   0  0  0  0  0  0  0  0  0  0  0  0
   -2.5280   -0.5046   -2.5334 H   0  0  0  0  0  0  0  0  0  0  0  0
   -1.7882   -2.8132   -3.1407 H   0  0  0  0  0  0  0  0  0  0  0  0
    2.6107    0.0795   -2.0492 H   0  0  0  0  0  0  0  0  0  0  0  0
    0.5971   -4.2914   -3.4114 H   0  0  0  0  0  0  0  0  0  0  0  0
    4.0514   -1.8807   -2.5141 H   0  0  0  0  0  0  0  0  0  0  0  0
    3.0641   -4.0402   -3.1863 H   0  0  0  0  0  0  0  0  0  0  0  0
   -1.0743    3.7368   -0.0887 N   0  0  0  0  0  0  0  0  0  0  0  0
   -1.1277    5.1584    0.1665 C   0  0  2  0  0  0  0  0  0  0  0  0
   -0.4322    5.4241    1.4951 C   0  0  0  0  0  0  0  0  0  0  0  0
   -0.2899    4.5638    2.3616 O   0  0  0  0  0  0  0  0  0  0  0  0
   -2.5624    5.6622    0.1937 C   0  0  0  0  0  0  0  0  0  0  0  0
   -1.9350    3.2592   -0.3393 H   0  0  0  0  0  0  0  0  0  0  0  0
   -0.5715    5.6459   -0.6415 H   0  0  0  0  0  0  0  0  0  0  0  0
   -3.1354    5.1849    0.9970 H   0  0  0  0  0  0  0  0  0  0  0  0
   -2.5999    6.7440    0.3588 H   0  0  0  0  0  0  0  0  0  0  0  0
   -3.0702    5.4436   -0.7519 H   0  0  0  0  0  0  0  0  0  0  0  0
   -0.0274    6.7460    1.6171 N   0  0  0  0  0  0  0  0  0  0  0  0
    0.6446    7.2503    2.7918 C   0  0  0  0  0  0  0  0  0  0  0  0
   -0.1694    7.3857    0.8410 H   0  0  0  0  0  0  0  0  0  0  0  0
   -0.0979    7.6620    3.4913 H   0  0  0  0  0  0  0  0  0  0  0  0
    1.1935    6.4316    3.2800 H   0  0  0  0  0  0  0  0  0  0  0  0
    1.3505    8.0416    2.4990 H   0  0  0  0  0  0  0  0  0  0  0  0
 29 30  2  0  0  0  0
 27 29  1  0  0  0  0
 28 30  1  0  0  0  0
 24 27  2  0  0  0  0
 26 28  2  0  0  0  0
 22 23  2  0  0  0  0
 23 25  1  0  0  0  0
 22 24  1  0  0  0  0
 24 26  1  0  0  0  0
 21 22  1  0  0  0  0
 25 26  1  0  0  0  0
  1  3  1  0  0  0  0
  1  7  1  0  0  0  0
  1  2  2  0  0  0  0
 42 43  1  0  0  0  0
 43 51  1  0  0  0  0
 43 44  2  0  0  0  0
  8  9  1  0  0  0  0
  9 17  1  0  0  0  0
  9 10  2  0  0  0  0
 18 19  1  0  0  0  0
 19 41  1  0  0  0  0
 19 20  2  0  0  0  0
 42 45  1  0  0  0  0
  8 11  1  0  0  0  0
 51 52  1  0  0  0  0
 18 21  1  0  0  0  0
 41 42  1  0  0  0  0
  7  8  1  0  0  0  0
 17 18  1  0  0  0  0
 29 39  1  0  0  0  0
 30 40  1  0  0  0  0
 27 37  1  0  0  0  0
 28 38  1  0  0  0  0
 23 35  1  0  0  0  0
  3  4  1  0  0  0  0
  3  5  1  0  0  0  0
  3  6  1  0  0  0  0
 45 48  1  0  0  0  0
 45 49  1  0  0  0  0
 45 50  1  0  0  0  0
 11 14  1  0  0  0  0
 11 15  1  0  0  0  0
 11 16  1  0  0  0  0
 52 54  1  0  0  0  0
 52 55  1  0  0  0  0
 52 56  1  0  0  0  0
 21 33  1  0  0  0  0
 21 34  1  0  0  0  0
 42 47  1  0  0  0  0
  8 13  1  0  0  0  0
 18 32  1  0  0  0  0
 25 36  1  0  0  0  0
 51 53  1  0  0  0  0
  7 12  1  0  0  0  0
 41 46  1  0  0  0  0
 17 31  1  0  0  0  0
M  END
$$$$

  -OEChem-02062319033D

 56 57  0     1  0  0  0  0  0999 V2000
   -2.2900    0.3401    4.1553 C   0  0  0  0  0  0  0  0  0  0  0  0
   -1.3426   -0.2746    3.6796 O   0  0  0  0  0  0  0  0  0  0  0  0
   -2.7219    0.0577    5.5560 C   0  0  0  0  0  0  0  0  0  0  0  0
   -3.4815   -0.7386    5.6094 H   0  0  0  0  0  0  0  0  0  0  0  0
   -1.8906   -0.2899    6.1903 H   0  0  0  0  0  0  0  0  0  0  0  0
   -3.1599    0.9126    6.0956 H   0  0  0  0  0  0  0  0  0  0  0  0
   -3.0397    1.3125    3.5142 N   0  0  0  0  0  0  0  0  0  0  0  0
   -2.7928    1.7385    2.1618 C   0  0  2  0  0  0  0  0  0  0  0  0
   -1.4579    1.1532    1.7206 C   0  0  0  0  0  0  0  0  0  0  0  0
   -0.5858    0.8004    2.5118 O   0  0  0  0  0  0  0  0  0  0  0  0
   -2.7841    3.2553    2.0523 C   0  0  0  0  0  0  0  0  0  0  0  0
   -3.8047    1.7484    4.0260 H   0  0  0  0  0  0  0  0  0  0  0  0
   -3.5969    1.3201    1.5466 H   0  0  0  0  0  0  0  0  0  0  0  0
   -1.9850    3.6926    2.6620 H   0  0  0  0  0  0  0  0  0  0  0  0
   -2.6246    3.5776    1.0180 H   0  0  0  0  0  0  0  0  0  0  0  0
   -3.7342    3.6765    2.3981 H   0  0  0  0  0  0  0  0  0  0  0  0
   -1.3352    1.1101    0.3372 N   0  0  0  0  0  0  0  0  0  0  0  0
   -0.0661    1.2179   -0.3373 C   0  0  2  0  0  0  0  0  0  0  0  0
    0.5340    2.5667    0.0436 C   0  0  0  0  0  0  0  0  0  0  0  0
    1.7200    2.7143    0.3305 O   0  0  0  0  0  0  0  0  0  0  0  0
   -0.2084    1.1088   -1.8598 C   0  0  0  0  0  0  0  0  0  0  0  0
   -0.6515   -0.2626   -2.3078 C   0  0  0  0  0  0  0  0  0  0  0  0
   -1.9437   -0.6339   -2.5995 C   0  0  0  0  0  0  0  0  0  0  0  0
    0.1811   -1.3994   -2.5064 C   0  0  0  0  0  0  0  0  0  0  0  0
   -1.9304   -1.9525   -2.9676 N   0  0  0  0  0  0  0  0  0  0  0  0
   -0.6460   -2.4459   -2.9200 C   0  0  0  0  0  0  0  0  0  0  0  0
    1.5632   -1.6392   -2.3735 C   0  0  0  0  0  0  0  0  0  0  0  0
   -0.1582   -3.7253   -3.2086 C   0  0  0  0  0  0  0  0  0  0  0  0
    2.0654   -2.9141   -2.6588 C   0  0  0  0  0  0  0  0  0  0  0  0
    1.2161   -3.9396   -3.0698 C   0  0  0  0  0  0  0  0  0  0  0  0
   -2.1656    0.9584   -0.2303 H   0  0  0  0  0  0  0  0  0  0  0  0
    0.5685    0.4175    0.0611 H   0  0  0  0  0  0  0  0  0  0  0  0
    0.7394    1.3693   -2.3501 H   0  0  0  0  0  0  0  0  0  0  0  0
   -0.9356    1.8432   -2.2306 H   0  0  0  0  0  0  0  0  0  0  0  0
   -2.8719   -0.0796   -2.5772 H   0  0  0  0  0  0  0  0  0  0  0  0
   -2.7451   -2.4871   -3.2357 H   0  0  0  0  0  0  0  0  0  0  0  0
    2.2382   -0.8506   -2.0533 H   0  0  0  0  0  0  0  0  0  0  0  0
   -0.8183   -4.5239   -3.5296 H   0  0  0  0  0  0  0  0  0  0  0  0
    3.1303   -3.1053   -2.5576 H   0  0  0  0  0  0  0  0  0  0  0  0
    1.6276   -4.9222   -3.2862 H   0  0  0  0  0  0  0  0  0  0  0  0
   -0.4018    3.5895   -0.0245 N   0  0  0  0  0  0  0  0  0  0  0  0
   -0.0901    4.9708    0.2644 C   0  0  2  0  0  0  0  0  0  0  0  0
    0.6357    5.0192    1.6024 C   0  0  0  0  0  0  0  0  0  0  0  0
    0.5421    4.1327    2.4488 O   0  0  0  0  0  0  0  0  0  0  0  0
   -1.3467    5.8267    0.2964 C   0  0  0  0  0  0  0  0  0  0  0  0
   -1.3537    3.3554   -0.2908 H   0  0  0  0  0  0  0  0  0  0  0  0
    0.5819    5.3160   -0.5289 H   0  0  0  0  0  0  0  0  0  0  0  0
   -2.0322    5.4958    1.0851 H   0  0  0  0  0  0  0  0  0  0  0  0
   -1.1062    6.8778    0.4871 H   0  0  0  0  0  0  0  0  0  0  0  0
   -1.8832    5.7671   -0.6567 H   0  0  0  0  0  0  0  0  0  0  0  0
    1.3660    6.1891    1.7580 N   0  0  0  0  0  0  0  0  0  0  0  0
    2.1323    6.4775    2.9478 C   0  0  0  0  0  0  0  0  0  0  0  0
    1.4021    6.8606    0.9967 H   0  0  0  0  0  0  0  0  0  0  0  0
    1.5132    7.0513    3.6531 H   0  0  0  0  0  0  0  0  0  0  0  0
    2.4463    5.5344    3.4190 H   0  0  0  0  0  0  0  0  0  0  0  0
    3.0213    7.0662    2.6775 H   0  0  0  0  0  0  0  0  0  0  0  0
 29 30  2  0  0  0  0
 27 29  1  0  0  0  0
 28 30  1  0  0  0  0
 24 27  2  0  0  0  0
 26 28  2  0  0  0  0
 22 23  2  0  0  0  0
 23 25  1  0  0  0  0
 22 24  1  0  0  0  0
 24 26  1  0  0  0  0
 21 22  1  0  0  0  0
 25 26  1  0  0  0  0
  1  3  1  0  0  0  0
  1  7  1  0  0  0  0
  1  2  2  0  0  0  0
 42 43  1  0  0  0  0
 43 51  1  0  0  0  0
 43 44  2  0  0  0  0
  8  9  1  0  0  0  0
  9 17  1  0  0  0  0
  9 10  2  0  0  0  0
 18 19  1  0  0  0  0
 19 41  1  0  0  0  0
 19 20  2  0  0  0  0
 42 45  1  0  0  0  0
  8 11  1  0  0  0  0
 51 52  1  0  0  0  0
 18 21  1  0  0  0  0
 41 42  1  0  0  0  0
  7  8  1  0  0  0  0
 17 18  1  0  0  0  0
 29 39  1  0  0  0  0
 30 40  1  0  0  0  0
 27 37  1  0  0  0  0
 28 38  1  0  0  0  0
 23 35  1  0  0  0  0
  3  4  1  0  0  0  0
  3  5  1  0  0  0  0
  3  6  1  0  0  0  0
 45 48  1  0  0  0  0
 45 49  1  0  0  0  0
 45 50  1  0  0  0  0
 11 14  1  0  0  0  0
 11 15  1  0  0  0  0
 11 16  1  0  0  0  0
 52 54  1  0  0  0  0
 52 55  1  0  0  0  0
 52 56  1  0  0  0  0
 21 33  1  0  0  0  0
 21 34  1  0  0  0  0
 42 47  1  0  0  0  0
  8 13  1  0  0  0  0
 18 32  1  0  0  0  0
 25 36  1  0  0  0  0
 51 53  1  0  0  0  0
  7 12  1  0  0  0  0
 41 46  1  0  0  0  0
 17 31  1  0  0  0  0
M  END
$$$$

  -OEChem-02062319033D

 56 57  0     1  0  0  0  0  0999 V2000
   -2.2900    0.3401    4.1553 C   0  0  0  0  0  0  0  0  0  0  0  0
   -1.3426   -0.2746    3.6796 O   0  0  0  0  0  0  0  0  0  0  0  0
   -2.7219    0.0577    5.5560 C   0  0  0  0  0  0  0  0  0  0  0  0
   -3.4815   -0.7386    5.6094 H   0  0  0  0  0  0  0  0  0  0  0  0
   -1.8906   -0.2899    6.1903 H   0  0  0  0  0  0  0  0  0  0  0  0
   -3.1599    0.9126    6.0956 H   0  0  0  0  0  0  0  0  0  0  0  0
   -3.0397    1.3125    3.5142 N   0  0  0  0  0  0  0  0  0  0  0  0
   -2.7928    1.7385    2.1618 C   0  0  2  0  0  0  0  0  0  0  0  0
   -1.4579    1.1532    1.7206 C   0  0  0  0  0  0  0  0  0  0  0  0
   -0.5858    0.8004    2.5118 O   0  0  0  0  0  0  0  0  0  0  0  0
   -2.7841    3.2553    2.0523 C   0  0  0  0  0  0  0  0  0  0  0  0
   -3.8047    1.7484    4.0260 H   0  0  0  0  0  0  0  0  0  0  0  0
   -3.5969    1.3201    1.5466 H   0  0  0  0  0  0  0  0  0  0  0  0
   -1.9850    3.6926    2.6620 H   0  0  0  0  0  0  0  0  0  0  0  0
   -2.6246    3.5776    1.0180 H   0  0  0  0  0  0  0  0  0  0  0  0
   -3.7342    3.6765    2.3981 H   0  0  0  0  0  0  0  0  0  0  0  0
   -1.3352    1.1101    0.3372 N   0  0  0  0  0  0  0  0  0  0  0  0
   -0.0737    0.9018   -0.3281 C   0  0  2  0  0  0  0  0  0  0  0  0
    0.8492    2.0416    0.0879 C   0  0  0  0  0  0  0  0  0  0  0  0
    2.0300    1.8723    0.3842 O   0  0  0  0  0  0  0  0  0  0  0  0
   -0.2226    0.8663   -1.8535 C   0  0  0  0  0  0  0  0  0  0  0  0
   -0.9990   -0.3345   -2.3363 C   0  0  0  0  0  0  0  0  0  0  0  0
   -2.3400   -0.3536   -2.6434 C   0  0  0  0  0  0  0  0  0  0  0  0
   -0.4853   -1.6429   -2.5578 C   0  0  0  0  0  0  0  0  0  0  0  0
   -2.6627   -1.6228   -3.0428 N   0  0  0  0  0  0  0  0  0  0  0  0
   -1.5494   -2.4315   -3.0005 C   0  0  0  0  0  0  0  0  0  0  0  0
    0.7869   -2.2337   -2.4238 C   0  0  0  0  0  0  0  0  0  0  0  0
   -1.4044   -3.7869   -3.3172 C   0  0  0  0  0  0  0  0  0  0  0  0
    0.9468   -3.5885   -2.7369 C   0  0  0  0  0  0  0  0  0  0  0  0
   -0.1333   -4.3512   -3.1766 C   0  0  0  0  0  0  0  0  0  0  0  0
   -2.1703    1.1900   -0.2380 H   0  0  0  0  0  0  0  0  0  0  0  0
    0.3287   -0.0436    0.0542 H   0  0  0  0  0  0  0  0  0  0  0  0
    0.7657    0.8842   -2.3327 H   0  0  0  0  0  0  0  0  0  0  0  0
   -0.7320    1.7712   -2.2103 H   0  0  0  0  0  0  0  0  0  0  0  0
   -3.0943    0.4206   -2.6125 H   0  0  0  0  0  0  0  0  0  0  0  0
   -3.5847   -1.9234   -3.3277 H   0  0  0  0  0  0  0  0  0  0  0  0
    1.6386   -1.6529   -2.0814 H   0  0  0  0  0  0  0  0  0  0  0  0
   -2.2444   -4.3811   -3.6605 H   0  0  0  0  0  0  0  0  0  0  0  0
    1.9254   -4.0498   -2.6350 H   0  0  0  0  0  0  0  0  0  0  0  0
    0.0135   -5.4016   -3.4143 H   0  0  0  0  0  0  0  0  0  0  0  0
    0.2093    3.2723    0.0396 N   0  0  0  0  0  0  0  0  0  0  0  0
    0.8631    4.5200    0.3629 C   0  0  2  0  0  0  0  0  0  0  0  0
    1.5621    4.3505    1.7054 C   0  0  0  0  0  0  0  0  0  0  0  0
    1.2340    3.4998    2.5298 O   0  0  0  0  0  0  0  0  0  0  0  0
   -0.1309    5.6700    0.4091 C   0  0  0  0  0  0  0  0  0  0  0  0
   -0.7678    3.2974   -0.2370 H   0  0  0  0  0  0  0  0  0  0  0  0
    1.6100    4.6975   -0.4185 H   0  0  0  0  0  0  0  0  0  0  0  0
   -0.8872    5.5099    1.1862 H   0  0  0  0  0  0  0  0  0  0  0  0
    0.3701    6.6191    0.6260 H   0  0  0  0  0  0  0  0  0  0  0  0
   -0.6541    5.7715   -0.5479 H   0  0  0  0  0  0  0  0  0  0  0  0
    2.5673    5.2889    1.8925 N   0  0  0  0  0  0  0  0  0  0  0  0
    3.3688    5.3440    3.0928 C   0  0  0  0  0  0  0  0  0  0  0  0
    2.7836    5.9448    1.1477 H   0  0  0  0  0  0  0  0  0  0  0  0
    2.9107    6.0425    3.8085 H   0  0  0  0  0  0  0  0  0  0  0  0
    3.4242    4.3419    3.5429 H   0  0  0  0  0  0  0  0  0  0  0  0
    4.3824    5.6894    2.8411 H   0  0  0  0  0  0  0  0  0  0  0  0
 29 30  2  0  0  0  0
 27 29  1  0  0  0  0
 28 30  1  0  0  0  0
 24 27  2  0  0  0  0
 26 28  2  0  0  0  0
 22 23  2  0  0  0  0
 23 25  1  0  0  0  0
 22 24  1  0  0  0  0
 24 26  1  0  0  0  0
 21 22  1  0  0  0  0
 25 26  1  0  0  0  0
  1  3  1  0  0  0  0
  1  7  1  0  0  0  0
  1  2  2  0  0  0  0
 42 43  1  0  0  0  0
 43 51  1  0  0  0  0
 43 44  2  0  0  0  0
  8  9  1  0  0  0  0
  9 17  1  0  0  0  0
  9 10  2  0  0  0  0
 18 19  1  0  0  0  0
 19 41  1  0  0  0  0
 19 20  2  0  0  0  0
 42 45  1  0  0  0  0
  8 11  1  0  0  0  0
 51 52  1  0  0  0  0
 18 21  1  0  0  0  0
 41 42  1  0  0  0  0
  7  8  1  0  0  0  0
 17 18  1  0  0  0  0
 29 39  1  0  0  0  0
 30 40  1  0  0  0  0
 27 37  1  0  0  0  0
 28 38  1  0  0  0  0
 23 35  1  0  0  0  0
  3  4  1  0  0  0  0
  3  5  1  0  0  0  0
  3  6  1  0  0  0  0
 45 48  1  0  0  0  0
 45 49  1  0  0  0  0
 45 50  1  0  0  0  0
 11 14  1  0  0  0  0
 11 15  1  0  0  0  0
 11 16  1  0  0  0  0
 52 54  1  0  0  0  0
 52 55  1  0  0  0  0
 52 56  1  0  0  0  0
 21 33  1  0  0  0  0
 21 34  1  0  0  0  0
 42 47  1  0  0  0  0
  8 13  1  0  0  0  0
 18 32  1  0  0  0  0
 25 36  1  0  0  0  0
 51 53  1  0  0  0  0
  7 12  1  0  0  0  0
 41 46  1  0  0  0  0
 17 31  1  0  0  0  0
M  END
$$$$
