
  -OEChem-02062319123D

 52 52  0     1  0  0  0  0  0999 V2000
   -2.4147   -1.2011    3.7835 C   0  0  0  0  0  0  0  0  0  0  0  0
   -3.5480   -1.3208    3.3454 O   0  0  0  0  0  0  0  0  0  0  0  0
   -2.0858   -1.6664    5.1892 C   0  0  0  0  0  0  0  0  0  0  0  0
   -2.9937   -2.0026    5.6974 H   0  0  0  0  0  0  0  0  0  0  0  0
   -1.3751   -2.4955    5.1506 H   0  0  0  0  0  0  0  0  0  0  0  0
   -1.6465   -0.8456    5.7611 H   0  0  0  0  0  0  0  0  0  0  0  0
   -1.4256   -0.6582    2.9918 N   0  0  0  0  0  0  0  0  0  0  0  0
   -1.5977   -0.2969    1.5795 C   0  0  2  0  0  0  0  0  0  0  0  0
   -0.2908   -0.4847    0.7826 C   0  0  0  0  0  0  0  0  0  0  0  0
    0.7790   -0.5867    1.3708 O   0  0  0  0  0  0  0  0  0  0  0  0
   -2.0601    1.1622    1.5101 C   0  0  0  0  0  0  0  0  0  0  0  0
   -0.4722   -0.6713    3.3531 H   0  0  0  0  0  0  0  0  0  0  0  0
   -2.3573   -0.9405    1.1226 H   0  0  0  0  0  0  0  0  0  0  0  0
   -1.3033    1.8246    1.9438 H   0  0  0  0  0  0  0  0  0  0  0  0
   -2.2343    1.4630    0.4728 H   0  0  0  0  0  0  0  0  0  0  0  0
   -2.9944    1.2901    2.0664 H   0  0  0  0  0  0  0  0  0  0  0  0
   -0.3067   -0.4849   -0.6016 N   0  0  0  0  0  0  0  0  0  0  0  0
    0.8951   -0.6585   -1.4392 C   0  0  2  0  0  0  0  0  0  0  0  0
    1.9594    0.4295   -1.2026 C   0  0  0  0  0  0  0  0  0  0  0  0
    3.1442    0.1358   -1.1125 O   0  0  0  0  0  0  0  0  0  0  0  0
    0.4912   -0.6606   -2.9235 C   0  0  0  0  0  0  0  0  0  0  0  0
   -0.6104   -1.6585   -3.1963 C   0  0  0  0  0  0  0  0  0  0  0  0
   -0.3510   -3.0355   -3.1290 C   0  0  0  0  0  0  0  0  0  0  0  0
   -1.9094   -1.2231   -3.5033 C   0  0  0  0  0  0  0  0  0  0  0  0
   -1.3737   -3.9626   -3.3545 C   0  0  0  0  0  0  0  0  0  0  0  0
   -2.9329   -2.1497   -3.7290 C   0  0  0  0  0  0  0  0  0  0  0  0
   -2.6660   -3.5198   -3.6517 C   0  0  0  0  0  0  0  0  0  0  0  0
   -1.2144   -0.5982   -1.0486 H   0  0  0  0  0  0  0  0  0  0  0  0
    1.3573   -1.6213   -1.1941 H   0  0  0  0  0  0  0  0  0  0  0  0
    1.3645   -0.9089   -3.5366 H   0  0  0  0  0  0  0  0  0  0  0  0
    0.1637    0.3422   -3.2174 H   0  0  0  0  0  0  0  0  0  0  0  0
    0.6487   -3.3924   -2.8983 H   0  0  0  0  0  0  0  0  0  0  0  0
   -2.1323   -0.1626   -3.5738 H   0  0  0  0  0  0  0  0  0  0  0  0
   -1.1636   -5.0272   -3.2997 H   0  0  0  0  0  0  0  0  0  0  0  0
   -3.9357   -1.8071   -3.9686 H   0  0  0  0  0  0  0  0  0  0  0  0
   -3.4606   -4.2400   -3.8259 H   0  0  0  0  0  0  0  0  0  0  0  0
    1.5807    1.7571   -1.1211 N   0  0  0  0  0  0  0  0  0  0  0  0
    2.4883    2.8234   -0.6749 C   0  0  2  0  0  0  0  0  0  0  0  0
    2.6682    2.8053    0.8620 C   0  0  0  0  0  0  0  0  0  0  0  0
    2.2550    3.7195    1.5665 O   0  0  0  0  0  0  0  0  0  0  0  0
    1.9317    4.1529   -1.1987 C   0  0  0  0  0  0  0  0  0  0  0  0
    0.5829    1.9199   -1.0279 H   0  0  0  0  0  0  0  0  0  0  0  0
    3.4789    2.6785   -1.1194 H   0  0  0  0  0  0  0  0  0  0  0  0
    0.9393    4.3490   -0.7801 H   0  0  0  0  0  0  0  0  0  0  0  0
    2.5949    4.9771   -0.9172 H   0  0  0  0  0  0  0  0  0  0  0  0
    1.8539    4.1297   -2.2898 H   0  0  0  0  0  0  0  0  0  0  0  0
    3.2452    1.7001    1.4547 N   0  0  0  0  0  0  0  0  0  0  0  0
    3.2521    1.4756    2.8927 C   0  0  0  0  0  0  0  0  0  0  0  0
    3.4155    0.9040    0.8352 H   0  0  0  0  0  0  0  0  0  0  0  0
    3.7807    2.2859    3.4054 H   0  0  0  0  0  0  0  0  0  0  0  0
    2.2278    1.4222    3.2755 H   0  0  0  0  0  0  0  0  0  0  0  0
    3.7579    0.5332    3.1229 H   0  0  0  0  0  0  0  0  0  0  0  0
  1  2  2  0  0  0  0
  1  3  1  0  0  0  0
  1  7  1  0  0  0  0
  3  4  1  0  0  0  0
  3  5  1  0  0  0  0
  3  6  1  0  0  0  0
  7  8  1  0  0  0  0
  7 12  1  0  0  0  0
  8  9  1  0  0  0  0
  8 11  1  0  0  0  0
  8 13  1  0  0  0  0
  9 10  2  0  0  0  0
  9 17  1  0  0  0  0
 11 14  1  0  0  0  0
 11 15  1  0  0  0  0
 11 16  1  0  0  0  0
 17 18  1  0  0  0  0
 17 28  1  0  0  0  0
 18 19  1  0  0  0  0
 18 21  1  0  0  0  0
 18 29  1  0  0  0  0
 19 20  2  0  0  0  0
 19 37  1  0  0  0  0
 21 22  1  0  0  0  0
 21 30  1  0  0  0  0
 21 31  1  0  0  0  0
 22 23  1  0  0  0  0
 22 24  2  0  0  0  0
 23 25  2  0  0  0  0
 23 32  1  0  0  0  0
 24 26  1  0  0  0  0
 24 33  1  0  0  0  0
 25 27  1  0  0  0  0
 25 34  1  0  0  0  0
 26 27  2  0  0  0  0
 26 35  1  0  0  0  0
 27 36  1  0  0  0  0
 37 38  1  0  0  0  0
 37 42  1  0  0  0  0
 38 39  1  0  0  0  0
 38 41  1  0  0  0  0
 38 43  1  0  0  0  0
 39 40  2  0  0  0  0
 39 47  1  0  0  0  0
 41 44  1  0  0  0  0
 41 45  1  0  0  0  0
 41 46  1  0  0  0  0
 47 48  1  0  0  0  0
 47 49  1  0  0  0  0
 48 50  1  0  0  0  0
 48 51  1  0  0  0  0
 48 52  1  0  0  0  0
M  END
$$$$

  -OEChem-02062319123D

 52 52  0     1  0  0  0  0  0999 V2000
   -2.6367   -1.2911    3.7303 C   0  0  0  0  0  0  0  0  0  0  0  0
   -3.7603   -1.3668    3.2585 O   0  0  0  0  0  0  0  0  0  0  0  0
   -2.3630   -1.7881    5.1374 C   0  0  0  0  0  0  0  0  0  0  0  0
   -3.2873   -2.1507    5.5959 H   0  0  0  0  0  0  0  0  0  0  0  0
   -1.6384   -2.6057    5.1104 H   0  0  0  0  0  0  0  0  0  0  0  0
   -1.9622   -0.9756    5.7485 H   0  0  0  0  0  0  0  0  0  0  0  0
   -1.6101   -0.7606    2.9788 N   0  0  0  0  0  0  0  0  0  0  0  0
   -1.7301   -0.3679    1.5692 C   0  0  2  0  0  0  0  0  0  0  0  0
   -0.4002   -0.5521    0.8096 C   0  0  0  0  0  0  0  0  0  0  0  0
    0.6335   -0.7828    1.4250 O   0  0  0  0  0  0  0  0  0  0  0  0
   -2.1792    1.0958    1.5143 C   0  0  0  0  0  0  0  0  0  0  0  0
   -0.6673   -0.8229    3.3619 H   0  0  0  0  0  0  0  0  0  0  0  0
   -2.4790   -0.9958    1.0740 H   0  0  0  0  0  0  0  0  0  0  0  0
   -1.4409    1.7414    2.0011 H   0  0  0  0  0  0  0  0  0  0  0  0
   -2.3011    1.4238    0.4778 H   0  0  0  0  0  0  0  0  0  0  0  0
   -3.1384    1.2164    2.0279 H   0  0  0  0  0  0  0  0  0  0  0  0
   -0.3781   -0.5243   -0.5744 N   0  0  0  0  0  0  0  0  0  0  0  0
    0.7623   -0.9996   -1.3820 C   0  0  2  0  0  0  0  0  0  0  0  0
    2.0799   -0.2502   -1.1067 C   0  0  0  0  0  0  0  0  0  0  0  0
    3.1402   -0.8599   -1.0490 O   0  0  0  0  0  0  0  0  0  0  0  0
    0.4177   -0.8832   -2.8763 C   0  0  0  0  0  0  0  0  0  0  0  0
   -0.8978   -1.5558   -3.1921 C   0  0  0  0  0  0  0  0  0  0  0  0
   -0.9979   -2.9549   -3.1814 C   0  0  0  0  0  0  0  0  0  0  0  0
   -2.0395   -0.7912   -3.4799 C   0  0  0  0  0  0  0  0  0  0  0  0
   -2.2204   -3.5804   -3.4466 C   0  0  0  0  0  0  0  0  0  0  0  0
   -3.2626   -1.4164   -3.7453 C   0  0  0  0  0  0  0  0  0  0  0  0
   -3.3535   -2.8113   -3.7272 C   0  0  0  0  0  0  0  0  0  0  0  0
   -1.2896   -0.5257   -1.0287 H   0  0  0  0  0  0  0  0  0  0  0  0
    0.9402   -2.0535   -1.1416 H   0  0  0  0  0  0  0  0  0  0  0  0
    1.2136   -1.3475   -3.4690 H   0  0  0  0  0  0  0  0  0  0  0  0
    0.3735    0.1724   -3.1644 H   0  0  0  0  0  0  0  0  0  0  0  0
   -0.1244   -3.5636   -2.9646 H   0  0  0  0  0  0  0  0  0  0  0  0
   -1.9837    0.2932   -3.5036 H   0  0  0  0  0  0  0  0  0  0  0  0
   -2.2895   -4.6645   -3.4357 H   0  0  0  0  0  0  0  0  0  0  0  0
   -4.1427   -0.8204   -3.9699 H   0  0  0  0  0  0  0  0  0  0  0  0
   -4.3025   -3.2976   -3.9347 H   0  0  0  0  0  0  0  0  0  0  0  0
    2.0851    1.1291   -1.0097 N   0  0  0  0  0  0  0  0  0  0  0  0
    3.2678    1.9008   -0.6028 C   0  0  2  0  0  0  0  0  0  0  0  0
    3.5099    1.8095    0.9231 C   0  0  0  0  0  0  0  0  0  0  0  0
    3.3875    2.7879    1.6517 O   0  0  0  0  0  0  0  0  0  0  0  0
    3.0717    3.3395   -1.0961 C   0  0  0  0  0  0  0  0  0  0  0  0
    1.1741    1.5592   -0.8814 H   0  0  0  0  0  0  0  0  0  0  0  0
    4.1593    1.4984   -1.0960 H   0  0  0  0  0  0  0  0  0  0  0  0
    2.1960    3.7953   -0.6230 H   0  0  0  0  0  0  0  0  0  0  0  0
    3.9506    3.9453   -0.8530 H   0  0  0  0  0  0  0  0  0  0  0  0
    2.9314    3.3537   -2.1811 H   0  0  0  0  0  0  0  0  0  0  0  0
    3.8202    0.5830    1.4758 N   0  0  0  0  0  0  0  0  0  0  0  0
    3.8275    0.3309    2.9094 C   0  0  0  0  0  0  0  0  0  0  0  0
    3.7434   -0.2153    0.8406 H   0  0  0  0  0  0  0  0  0  0  0  0
    4.4832    1.0416    3.4232 H   0  0  0  0  0  0  0  0  0  0  0  0
    2.8156    0.4239    3.3171 H   0  0  0  0  0  0  0  0  0  0  0  0
    4.1928   -0.6807    3.1098 H   0  0  0  0  0  0  0  0  0  0  0  0
  1  2  2  0  0  0  0
  1  3  1  0  0  0  0
  1  7  1  0  0  0  0
  3  4  1  0  0  0  0
  3  5  1  0  0  0  0
  3  6  1  0  0  0  0
  7  8  1  0  0  0  0
  7 12  1  0  0  0  0
  8  9  1  0  0  0  0
  8 11  1  0  0  0  0
  8 13  1  0  0  0  0
  9 10  2  0  0  0  0
  9 17  1  0  0  0  0
 11 14  1  0  0  0  0
 11 15  1  0  0  0  0
 11 16  1  0  0  0  0
 17 18  1  0  0  0  0
 17 28  1  0  0  0  0
 18 19  1  0  0  0  0
 18 21  1  0  0  0  0
 18 29  1  0  0  0  0
 19 20  2  0  0  0  0
 19 37  1  0  0  0  0
 21 22  1  0  0  0  0
 21 30  1  0  0  0  0
 21 31  1  0  0  0  0
 22 23  1  0  0  0  0
 22 24  2  0  0  0  0
 23 25  2  0  0  0  0
 23 32  1  0  0  0  0
 24 26  1  0  0  0  0
 24 33  1  0  0  0  0
 25 27  1  0  0  0  0
 25 34  1  0  0  0  0
 26 27  2  0  0  0  0
 26 35  1  0  0  0  0
 27 36  1  0  0  0  0
 37 38  1  0  0  0  0
 37 42  1  0  0  0  0
 38 39  1  0  0  0  0
 38 41  1  0  0  0  0
 38 43  1  0  0  0  0
 39 40  2  0  0  0  0
 39 47  1  0  0  0  0
 41 44  1  0  0  0  0
 41 45  1  0  0  0  0
 41 46  1  0  0  0  0
 47 48  1  0  0  0  0
 47 49  1  0  0  0  0
 48 50  1  0  0  0  0
 48 51  1  0  0  0  0
 48 52  1  0  0  0  0
M  END
$$$$

  -OEChem-02062319123D

 52 52  0     1  0  0  0  0  0999 V2000
   -2.8469   -1.2609    3.6449 C   0  0  0  0  0  0  0  0  0  0  0  0
   -3.9569   -1.2699    3.1365 O   0  0  0  0  0  0  0  0  0  0  0  0
   -2.6443   -1.8119    5.0434 C   0  0  0  0  0  0  0  0  0  0  0  0
   -3.5926   -2.1811    5.4439 H   0  0  0  0  0  0  0  0  0  0  0  0
   -1.9277   -2.6364    5.0198 H   0  0  0  0  0  0  0  0  0  0  0  0
   -2.2651   -1.0270    5.7023 H   0  0  0  0  0  0  0  0  0  0  0  0
   -1.7726   -0.7604    2.9409 N   0  0  0  0  0  0  0  0  0  0  0  0
   -1.8289   -0.3489    1.5325 C   0  0  2  0  0  0  0  0  0  0  0  0
   -0.4782   -0.5596    0.8170 C   0  0  0  0  0  0  0  0  0  0  0  0
    0.5043   -0.9179    1.4542 O   0  0  0  0  0  0  0  0  0  0  0  0
   -2.2427    1.1252    1.4741 C   0  0  0  0  0  0  0  0  0  0  0  0
   -0.8460   -0.8902    3.3464 H   0  0  0  0  0  0  0  0  0  0  0  0
   -2.5739   -0.9530    1.0029 H   0  0  0  0  0  0  0  0  0  0  0  0
   -1.5082    1.7499    1.9928 H   0  0  0  0  0  0  0  0  0  0  0  0
   -2.3197    1.4638    0.4365 H   0  0  0  0  0  0  0  0  0  0  0  0
   -3.2173    1.2639    1.9532 H   0  0  0  0  0  0  0  0  0  0  0  0
   -0.4205   -0.5290   -0.5656 N   0  0  0  0  0  0  0  0  0  0  0  0
    0.5634   -1.2977   -1.3531 C   0  0  2  0  0  0  0  0  0  0  0  0
    2.0352   -0.9537   -1.0522 C   0  0  0  0  0  0  0  0  0  0  0  0
    2.8792   -1.8400   -1.0081 O   0  0  0  0  0  0  0  0  0  0  0  0
    0.2804   -1.0874   -2.8498 C   0  0  0  0  0  0  0  0  0  0  0  0
   -1.1645   -1.3892   -3.1758 C   0  0  0  0  0  0  0  0  0  0  0  0
   -1.6346   -2.7107   -3.1523 C   0  0  0  0  0  0  0  0  0  0  0  0
   -2.0607   -0.3509   -3.4758 C   0  0  0  0  0  0  0  0  0  0  0  0
   -2.9803   -2.9897   -3.4119 C   0  0  0  0  0  0  0  0  0  0  0  0
   -3.4065   -0.6297   -3.7369 C   0  0  0  0  0  0  0  0  0  0  0  0
   -3.8672   -1.9490   -3.7021 C   0  0  0  0  0  0  0  0  0  0  0  0
   -1.3175   -0.3728   -1.0225 H   0  0  0  0  0  0  0  0  0  0  0  0
    0.4377   -2.3604   -1.1179 H   0  0  0  0  0  0  0  0  0  0  0  0
    0.9306   -1.7420   -3.4403 H   0  0  0  0  0  0  0  0  0  0  0  0
    0.5186   -0.0555   -3.1287 H   0  0  0  0  0  0  0  0  0  0  0  0
   -0.9556   -3.5283   -2.9274 H   0  0  0  0  0  0  0  0  0  0  0  0
   -1.7170    0.6790   -3.5096 H   0  0  0  0  0  0  0  0  0  0  0  0
   -3.3366   -4.0158   -3.3892 H   0  0  0  0  0  0  0  0  0  0  0  0
   -4.0950    0.1775   -3.9708 H   0  0  0  0  0  0  0  0  0  0  0  0
   -4.9123   -2.1664   -3.9046 H   0  0  0  0  0  0  0  0  0  0  0  0
    2.4307    0.3667   -0.9431 N   0  0  0  0  0  0  0  0  0  0  0  0
    3.7874    0.7719   -0.5473 C   0  0  2  0  0  0  0  0  0  0  0  0
    4.0296    0.5775    0.9692 C   0  0  0  0  0  0  0  0  0  0  0  0
    4.2278    1.5299    1.7155 O   0  0  0  0  0  0  0  0  0  0  0  0
    3.9851    2.2233   -1.0018 C   0  0  0  0  0  0  0  0  0  0  0  0
    1.6774    1.0309   -0.7909 H   0  0  0  0  0  0  0  0  0  0  0  0
    4.5239    0.1550   -1.0732 H   0  0  0  0  0  0  0  0  0  0  0  0
    3.2708    2.8855   -0.5020 H   0  0  0  0  0  0  0  0  0  0  0  0
    4.9977    2.5610   -0.7585 H   0  0  0  0  0  0  0  0  0  0  0  0
    3.8441    2.3069   -2.0836 H   0  0  0  0  0  0  0  0  0  0  0  0
    3.9945   -0.6996    1.4921 N   0  0  0  0  0  0  0  0  0  0  0  0
    3.9914   -0.9797    2.9204 C   0  0  0  0  0  0  0  0  0  0  0  0
    3.6731   -1.4274    0.8491 H   0  0  0  0  0  0  0  0  0  0  0  0
    3.0758   -0.5941    3.3808 H   0  0  0  0  0  0  0  0  0  0  0  0
    4.0403   -2.0593    3.0912 H   0  0  0  0  0  0  0  0  0  0  0  0
    4.8556   -0.5152    3.4069 H   0  0  0  0  0  0  0  0  0  0  0  0
  1  2  2  0  0  0  0
  1  3  1  0  0  0  0
  1  7  1  0  0  0  0
  3  4  1  0  0  0  0
  3  5  1  0  0  0  0
  3  6  1  0  0  0  0
  7  8  1  0  0  0  0
  7 12  1  0  0  0  0
  8  9  1  0  0  0  0
  8 11  1  0  0  0  0
  8 13  1  0  0  0  0
  9 10  2  0  0  0  0
  9 17  1  0  0  0  0
 11 14  1  0  0  0  0
 11 15  1  0  0  0  0
 11 16  1  0  0  0  0
 17 18  1  0  0  0  0
 17 28  1  0  0  0  0
 18 19  1  0  0  0  0
 18 21  1  0  0  0  0
 18 29  1  0  0  0  0
 19 20  2  0  0  0  0
 19 37  1  0  0  0  0
 21 22  1  0  0  0  0
 21 30  1  0  0  0  0
 21 31  1  0  0  0  0
 22 23  1  0  0  0  0
 22 24  2  0  0  0  0
 23 25  2  0  0  0  0
 23 32  1  0  0  0  0
 24 26  1  0  0  0  0
 24 33  1  0  0  0  0
 25 27  1  0  0  0  0
 25 34  1  0  0  0  0
 26 27  2  0  0  0  0
 26 35  1  0  0  0  0
 27 36  1  0  0  0  0
 37 38  1  0  0  0  0
 37 42  1  0  0  0  0
 38 39  1  0  0  0  0
 38 41  1  0  0  0  0
 38 43  1  0  0  0  0
 39 40  2  0  0  0  0
 39 47  1  0  0  0  0
 41 44  1  0  0  0  0
 41 45  1  0  0  0  0
 41 46  1  0  0  0  0
 47 48  1  0  0  0  0
 47 49  1  0  0  0  0
 48 50  1  0  0  0  0
 48 51  1  0  0  0  0
 48 52  1  0  0  0  0
M  END
$$$$

  -OEChem-02062319123D

 52 52  0     1  0  0  0  0  0999 V2000
   -3.0307   -1.2532    3.5647 C   0  0  0  0  0  0  0  0  0  0  0  0
   -4.1251   -1.2222    3.0242 O   0  0  0  0  0  0  0  0  0  0  0  0
   -2.8771   -1.8672    4.9431 C   0  0  0  0  0  0  0  0  0  0  0  0
   -3.8487   -2.2015    5.3175 H   0  0  0  0  0  0  0  0  0  0  0  0
   -2.2031   -2.7260    4.8963 H   0  0  0  0  0  0  0  0  0  0  0  0
   -2.4675   -1.1286    5.6364 H   0  0  0  0  0  0  0  0  0  0  0  0
   -1.9274   -0.7419    2.9153 N   0  0  0  0  0  0  0  0  0  0  0  0
   -1.9295   -0.2930    1.5169 C   0  0  2  0  0  0  0  0  0  0  0  0
   -0.5638   -0.5266    0.8365 C   0  0  0  0  0  0  0  0  0  0  0  0
    0.3727   -0.9681    1.4903 O   0  0  0  0  0  0  0  0  0  0  0  0
   -2.2987    1.1933    1.4834 C   0  0  0  0  0  0  0  0  0  0  0  0
   -1.0162   -0.9186    3.3381 H   0  0  0  0  0  0  0  0  0  0  0  0
   -2.6759   -0.8612    0.9503 H   0  0  0  0  0  0  0  0  0  0  0  0
   -1.5610    1.7838    2.0362 H   0  0  0  0  0  0  0  0  0  0  0  0
   -2.3376    1.5579    0.4526 H   0  0  0  0  0  0  0  0  0  0  0  0
   -3.2817    1.3496    1.9396 H   0  0  0  0  0  0  0  0  0  0  0  0
   -0.4772   -0.5106   -0.5447 N   0  0  0  0  0  0  0  0  0  0  0  0
    0.2828   -1.5232   -1.3051 C   0  0  2  0  0  0  0  0  0  0  0  0
    1.7875   -1.5976   -0.9799 C   0  0  0  0  0  0  0  0  0  0  0  0
    2.3535   -2.6832   -0.9472 O   0  0  0  0  0  0  0  0  0  0  0  0
    0.0949   -1.2659   -2.8095 C   0  0  0  0  0  0  0  0  0  0  0  0
   -1.3718   -1.1795   -3.1640 C   0  0  0  0  0  0  0  0  0  0  0  0
   -2.1702   -2.3328   -3.1608 C   0  0  0  0  0  0  0  0  0  0  0  0
   -1.9600    0.0579   -3.4697 C   0  0  0  0  0  0  0  0  0  0  0  0
   -3.5366   -2.2498   -3.4475 C   0  0  0  0  0  0  0  0  0  0  0  0
   -3.3264    0.1412   -3.7578 C   0  0  0  0  0  0  0  0  0  0  0  0
   -4.1156   -1.0125   -3.7440 C   0  0  0  0  0  0  0  0  0  0  0  0
   -1.3346   -0.2047   -1.0024 H   0  0  0  0  0  0  0  0  0  0  0  0
   -0.1300   -2.5093   -1.0659 H   0  0  0  0  0  0  0  0  0  0  0  0
    0.5596   -2.0778   -3.3798 H   0  0  0  0  0  0  0  0  0  0  0  0
    0.6038   -0.3383   -3.0923 H   0  0  0  0  0  0  0  0  0  0  0  0
   -1.7326   -3.3006   -2.9319 H   0  0  0  0  0  0  0  0  0  0  0  0
   -1.3582    0.9621   -3.4866 H   0  0  0  0  0  0  0  0  0  0  0  0
   -4.1485   -3.1476   -3.4410 H   0  0  0  0  0  0  0  0  0  0  0  0
   -3.7754    1.1012   -3.9963 H   0  0  0  0  0  0  0  0  0  0  0  0
   -5.1770   -0.9497   -3.9677 H   0  0  0  0  0  0  0  0  0  0  0  0
    2.5338   -0.4398   -0.8671 N   0  0  0  0  0  0  0  0  0  0  0  0
    3.9624   -0.4262   -0.5194 C   0  0  2  0  0  0  0  0  0  0  0  0
    4.2040   -0.7003    0.9854 C   0  0  0  0  0  0  0  0  0  0  0  0
    4.7467    0.1252    1.7114 O   0  0  0  0  0  0  0  0  0  0  0  0
    4.5295    0.9217   -0.9815 C   0  0  0  0  0  0  0  0  0  0  0  0
    1.9957    0.4038   -0.6899 H   0  0  0  0  0  0  0  0  0  0  0  0
    4.4820   -1.2141   -1.0752 H   0  0  0  0  0  0  0  0  0  0  0  0
    4.0440    1.7467   -0.4505 H   0  0  0  0  0  0  0  0  0  0  0  0
    5.6051    0.9686   -0.7834 H   0  0  0  0  0  0  0  0  0  0  0  0
    4.3709    1.0537   -2.0560 H   0  0  0  0  0  0  0  0  0  0  0  0
    3.7975   -1.9068    1.5193 N   0  0  0  0  0  0  0  0  0  0  0  0
    3.8254   -2.2096    2.9426 C   0  0  0  0  0  0  0  0  0  0  0  0
    3.2460   -2.5023    0.8970 H   0  0  0  0  0  0  0  0  0  0  0  0
    3.1556   -1.5372    3.4884 H   0  0  0  0  0  0  0  0  0  0  0  0
    3.5010   -3.2405    3.1140 H   0  0  0  0  0  0  0  0  0  0  0  0
    4.8397   -2.0978    3.3394 H   0  0  0  0  0  0  0  0  0  0  0  0
  1  2  2  0  0  0  0
  1  3  1  0  0  0  0
  1  7  1  0  0  0  0
  3  4  1  0  0  0  0
  3  5  1  0  0  0  0
  3  6  1  0  0  0  0
  7  8  1  0  0  0  0
  7 12  1  0  0  0  0
  8  9  1  0  0  0  0
  8 11  1  0  0  0  0
  8 13  1  0  0  0  0
  9 10  2  0  0  0  0
  9 17  1  0  0  0  0
 11 14  1  0  0  0  0
 11 15  1  0  0  0  0
 11 16  1  0  0  0  0
 17 18  1  0  0  0  0
 17 28  1  0  0  0  0
 18 19  1  0  0  0  0
 18 21  1  0  0  0  0
 18 29  1  0  0  0  0
 19 20  2  0  0  0  0
 19 37  1  0  0  0  0
 21 22  1  0  0  0  0
 21 30  1  0  0  0  0
 21 31  1  0  0  0  0
 22 23  1  0  0  0  0
 22 24  2  0  0  0  0
 23 25  2  0  0  0  0
 23 32  1  0  0  0  0
 24 26  1  0  0  0  0
 24 33  1  0  0  0  0
 25 27  1  0  0  0  0
 25 34  1  0  0  0  0
 26 27  2  0  0  0  0
 26 35  1  0  0  0  0
 27 36  1  0  0  0  0
 37 38  1  0  0  0  0
 37 42  1  0  0  0  0
 38 39  1  0  0  0  0
 38 41  1  0  0  0  0
 38 43  1  0  0  0  0
 39 40  2  0  0  0  0
 39 47  1  0  0  0  0
 41 44  1  0  0  0  0
 41 45  1  0  0  0  0
 41 46  1  0  0  0  0
 47 48  1  0  0  0  0
 47 49  1  0  0  0  0
 48 50  1  0  0  0  0
 48 51  1  0  0  0  0
 48 52  1  0  0  0  0
M  END
$$$$

  -OEChem-02062319123D

 52 52  0     1  0  0  0  0  0999 V2000
   -3.1812   -1.2710    3.4695 C   0  0  0  0  0  0  0  0  0  0  0  0
   -4.2568   -1.1665    2.9010 O   0  0  0  0  0  0  0  0  0  0  0  0
   -3.1001   -1.9404    4.8283 C   0  0  0  0  0  0  0  0  0  0  0  0
   -4.1005   -2.2202    5.1705 H   0  0  0  0  0  0  0  0  0  0  0  0
   -2.4846   -2.8409    4.7640 H   0  0  0  0  0  0  0  0  0  0  0  0
   -2.6581   -1.2557    5.5562 H   0  0  0  0  0  0  0  0  0  0  0  0
   -2.0362   -0.7900    2.8702 N   0  0  0  0  0  0  0  0  0  0  0  0
   -1.9816   -0.2678    1.4984 C   0  0  2  0  0  0  0  0  0  0  0  0
   -0.6056   -0.5030    0.8396 C   0  0  0  0  0  0  0  0  0  0  0  0
    0.2992   -1.0040    1.4946 O   0  0  0  0  0  0  0  0  0  0  0  0
   -2.3070    1.2285    1.5323 C   0  0  0  0  0  0  0  0  0  0  0  0
   -1.1463   -1.0212    3.3113 H   0  0  0  0  0  0  0  0  0  0  0  0
   -2.7273   -0.7829    0.8823 H   0  0  0  0  0  0  0  0  0  0  0  0
   -1.5772    1.7657    2.1467 H   0  0  0  0  0  0  0  0  0  0  0  0
   -2.2921    1.6501    0.5227 H   0  0  0  0  0  0  0  0  0  0  0  0
   -3.3036    1.3889    1.9560 H   0  0  0  0  0  0  0  0  0  0  0  0
   -0.5087   -0.4948   -0.5406 N   0  0  0  0  0  0  0  0  0  0  0  0
   -0.0237   -1.6729   -1.2877 C   0  0  2  0  0  0  0  0  0  0  0  0
    1.4078   -2.1352   -0.9481 C   0  0  0  0  0  0  0  0  0  0  0  0
    1.6681   -3.3311   -0.9026 O   0  0  0  0  0  0  0  0  0  0  0  0
   -0.1271   -1.3826   -2.7942 C   0  0  0  0  0  0  0  0  0  0  0  0
   -1.5222   -0.9336   -3.1644 C   0  0  0  0  0  0  0  0  0  0  0  0
   -2.5834   -1.8509   -3.1719 C   0  0  0  0  0  0  0  0  0  0  0  0
   -1.7796    0.4110   -3.4743 C   0  0  0  0  0  0  0  0  0  0  0  0
   -3.8826   -1.4298   -3.4740 C   0  0  0  0  0  0  0  0  0  0  0  0
   -3.0787    0.8326   -3.7778 C   0  0  0  0  0  0  0  0  0  0  0  0
   -4.1311   -0.0877   -3.7754 C   0  0  0  0  0  0  0  0  0  0  0  0
   -1.3028   -0.0402   -0.9891 H   0  0  0  0  0  0  0  0  0  0  0  0
   -0.6791   -2.5185   -1.0518 H   0  0  0  0  0  0  0  0  0  0  0  0
    0.1254   -2.2864   -3.3593 H   0  0  0  0  0  0  0  0  0  0  0  0
    0.6000   -0.6123   -3.0716 H   0  0  0  0  0  0  0  0  0  0  0  0
   -2.4039   -2.8972   -2.9403 H   0  0  0  0  0  0  0  0  0  0  0  0
   -0.9707    1.1361   -3.4825 H   0  0  0  0  0  0  0  0  0  0  0  0
   -4.6994   -2.1464   -3.4755 H   0  0  0  0  0  0  0  0  0  0  0  0
   -3.2715    1.8743   -4.0189 H   0  0  0  0  0  0  0  0  0  0  0  0
   -5.1405    0.2374   -4.0117 H   0  0  0  0  0  0  0  0  0  0  0  0
    2.4298   -1.2119   -0.8304 N   0  0  0  0  0  0  0  0  0  0  0  0
    3.8189   -1.5710   -0.5067 C   0  0  2  0  0  0  0  0  0  0  0  0
    4.0118   -1.8996    0.9941 C   0  0  0  0  0  0  0  0  0  0  0  0
    4.7912   -1.2656    1.6969 O   0  0  0  0  0  0  0  0  0  0  0  0
    4.7107   -0.4186   -0.9852 C   0  0  0  0  0  0  0  0  0  0  0  0
    2.1276   -0.2616   -0.6318 H   0  0  0  0  0  0  0  0  0  0  0  0
    4.1041   -2.4668   -1.0684 H   0  0  0  0  0  0  0  0  0  0  0  0
    4.4777    0.5013   -0.4394 H   0  0  0  0  0  0  0  0  0  0  0  0
    5.7649   -0.6620   -0.8186 H   0  0  0  0  0  0  0  0  0  0  0  0
    4.5628   -0.2400   -2.0546 H   0  0  0  0  0  0  0  0  0  0  0  0
    3.2939   -2.9389    1.5511 N   0  0  0  0  0  0  0  0  0  0  0  0
    3.2797   -3.2362    2.9758 C   0  0  0  0  0  0  0  0  0  0  0  0
    2.5907   -3.3678    0.9452 H   0  0  0  0  0  0  0  0  0  0  0  0
    4.2904   -3.4634    3.3308 H   0  0  0  0  0  0  0  0  0  0  0  0
    2.8901   -2.3821    3.5394 H   0  0  0  0  0  0  0  0  0  0  0  0
    2.6419   -4.1030    3.1727 H   0  0  0  0  0  0  0  0  0  0  0  0
  1  2  2  0  0  0  0
  1  3  1  0  0  0  0
  1  7  1  0  0  0  0
  3  4  1  0  0  0  0
  3  5  1  0  0  0  0
  3  6  1  0  0  0  0
  7  8  1  0  0  0  0
  7 12  1  0  0  0  0
  8  9  1  0  0  0  0
  8 11  1  0  0  0  0
  8 13  1  0  0  0  0
  9 10  2  0  0  0  0
  9 17  1  0  0  0  0
 11 14  1  0  0  0  0
 11 15  1  0  0  0  0
 11 16  1  0  0  0  0
 17 18  1  0  0  0  0
 17 28  1  0  0  0  0
 18 19  1  0  0  0  0
 18 21  1  0  0  0  0
 18 29  1  0  0  0  0
 19 20  2  0  0  0  0
 19 37  1  0  0  0  0
 21 22  1  0  0  0  0
 21 30  1  0  0  0  0
 21 31  1  0  0  0  0
 22 23  1  0  0  0  0
 22 24  2  0  0  0  0
 23 25  2  0  0  0  0
 23 32  1  0  0  0  0
 24 26  1  0  0  0  0
 24 33  1  0  0  0  0
 25 27  1  0  0  0  0
 25 34  1  0  0  0  0
 26 27  2  0  0  0  0
 26 35  1  0  0  0  0
 27 36  1  0  0  0  0
 37 38  1  0  0  0  0
 37 42  1  0  0  0  0
 38 39  1  0  0  0  0
 38 41  1  0  0  0  0
 38 43  1  0  0  0  0
 39 40  2  0  0  0  0
 39 47  1  0  0  0  0
 41 44  1  0  0  0  0
 41 45  1  0  0  0  0
 41 46  1  0  0  0  0
 47 48  1  0  0  0  0
 47 49  1  0  0  0  0
 48 50  1  0  0  0  0
 48 51  1  0  0  0  0
 48 52  1  0  0  0  0
M  END
$$$$

  -OEChem-02062319123D

 52 52  0     1  0  0  0  0  0999 V2000
   -2.1717   -1.9197    3.0095 C   0  0  0  0  0  0  0  0  0  0  0  0
   -2.4226   -2.6321    2.0496 O   0  0  0  0  0  0  0  0  0  0  0  0
   -1.8721   -2.5378    4.3619 C   0  0  0  0  0  0  0  0  0  0  0  0
   -1.9645   -3.6262    4.3077 H   0  0  0  0  0  0  0  0  0  0  0  0
   -0.8537   -2.2864    4.6686 H   0  0  0  0  0  0  0  0  0  0  0  0
   -2.5747   -2.1616    5.1094 H   0  0  0  0  0  0  0  0  0  0  0  0
   -2.0916   -0.5519    2.8426 N   0  0  0  0  0  0  0  0  0  0  0  0
   -2.0587    0.0533    1.5046 C   0  0  2  0  0  0  0  0  0  0  0  0
   -0.7268   -0.2558    0.7920 C   0  0  0  0  0  0  0  0  0  0  0  0
    0.3396   -0.0123    1.3397 O   0  0  0  0  0  0  0  0  0  0  0  0
   -2.2739    1.5616    1.6515 C   0  0  0  0  0  0  0  0  0  0  0  0
   -1.6541   -0.0379    3.6022 H   0  0  0  0  0  0  0  0  0  0  0  0
   -2.8723   -0.3542    0.8941 H   0  0  0  0  0  0  0  0  0  0  0  0
   -1.4746    2.0092    2.2507 H   0  0  0  0  0  0  0  0  0  0  0  0
   -2.2803    2.0403    0.6674 H   0  0  0  0  0  0  0  0  0  0  0  0
   -3.2326    1.7629    2.1390 H   0  0  0  0  0  0  0  0  0  0  0  0
   -0.6103   -0.2246   -0.5728 N   0  0  0  0  0  0  0  0  0  0  0  0
   -0.5480   -1.5290   -1.2536 C   0  0  2  0  0  0  0  0  0  0  0  0
    0.6401   -2.4091   -0.8141 C   0  0  0  0  0  0  0  0  0  0  0  0
    0.4877   -3.6207   -0.7353 O   0  0  0  0  0  0  0  0  0  0  0  0
   -0.4979   -1.3215   -2.7754 C   0  0  0  0  0  0  0  0  0  0  0  0
   -1.7419   -0.6261   -3.2753 C   0  0  0  0  0  0  0  0  0  0  0  0
   -2.9449   -1.3369   -3.3996 C   0  0  0  0  0  0  0  0  0  0  0  0
   -1.7159    0.7356   -3.6144 C   0  0  0  0  0  0  0  0  0  0  0  0
   -4.1037   -0.6976   -3.8525 C   0  0  0  0  0  0  0  0  0  0  0  0
   -2.8743    1.3762   -4.0674 C   0  0  0  0  0  0  0  0  0  0  0  0
   -4.0688    0.6596   -4.1866 C   0  0  0  0  0  0  0  0  0  0  0  0
    0.1576    0.3876   -0.8310 H   0  0  0  0  0  0  0  0  0  0  0  0
   -1.4576   -2.0919   -1.0115 H   0  0  0  0  0  0  0  0  0  0  0  0
   -0.4115   -2.2945   -3.2716 H   0  0  0  0  0  0  0  0  0  0  0  0
    0.3912   -0.7417   -3.0431 H   0  0  0  0  0  0  0  0  0  0  0  0
   -2.9829   -2.3917   -3.1423 H   0  0  0  0  0  0  0  0  0  0  0  0
   -0.7946    1.3031   -3.5267 H   0  0  0  0  0  0  0  0  0  0  0  0
   -5.0299   -1.2576   -3.9450 H   0  0  0  0  0  0  0  0  0  0  0  0
   -2.8453    2.4300   -4.3283 H   0  0  0  0  0  0  0  0  0  0  0  0
   -4.9682    1.1556   -4.5394 H   0  0  0  0  0  0  0  0  0  0  0  0
    1.9136   -1.8862   -0.6757 N   0  0  0  0  0  0  0  0  0  0  0  0
    3.0584   -2.6956   -0.2244 C   0  0  2  0  0  0  0  0  0  0  0  0
    2.9961   -3.0269    1.2893 C   0  0  0  0  0  0  0  0  0  0  0  0
    3.8852   -2.6870    2.0613 O   0  0  0  0  0  0  0  0  0  0  0  0
    4.3324   -1.9363   -0.6144 C   0  0  0  0  0  0  0  0  0  0  0  0
    1.9429   -0.8936   -0.4536 H   0  0  0  0  0  0  0  0  0  0  0  0
    3.0646   -3.6507   -0.7603 H   0  0  0  0  0  0  0  0  0  0  0  0
    4.3833   -0.9756   -0.0919 H   0  0  0  0  0  0  0  0  0  0  0  0
    5.2187   -2.5215   -0.3488 H   0  0  0  0  0  0  0  0  0  0  0  0
    4.3518   -1.7517   -1.6927 H   0  0  0  0  0  0  0  0  0  0  0  0
    1.9180   -3.7359    1.7825 N   0  0  0  0  0  0  0  0  0  0  0  0
    1.7223   -4.0541    3.1887 C   0  0  0  0  0  0  0  0  0  0  0  0
    1.1907   -3.9824    1.1058 H   0  0  0  0  0  0  0  0  0  0  0  0
    2.5410   -4.6808    3.5571 H   0  0  0  0  0  0  0  0  0  0  0  0
    1.6820   -3.1371    3.7852 H   0  0  0  0  0  0  0  0  0  0  0  0
    0.7822   -4.5976    3.3235 H   0  0  0  0  0  0  0  0  0  0  0  0
  1  2  2  0  0  0  0
  1  3  1  0  0  0  0
  1  7  1  0  0  0  0
  3  4  1  0  0  0  0
  3  5  1  0  0  0  0
  3  6  1  0  0  0  0
  7  8  1  0  0  0  0
  7 12  1  0  0  0  0
  8  9  1  0  0  0  0
  8 11  1  0  0  0  0
  8 13  1  0  0  0  0
  9 10  2  0  0  0  0
  9 17  1  0  0  0  0
 11 14  1  0  0  0  0
 11 15  1  0  0  0  0
 11 16  1  0  0  0  0
 17 18  1  0  0  0  0
 17 28  1  0  0  0  0
 18 19  1  0  0  0  0
 18 21  1  0  0  0  0
 18 29  1  0  0  0  0
 19 20  2  0  0  0  0
 19 37  1  0  0  0  0
 21 22  1  0  0  0  0
 21 30  1  0  0  0  0
 21 31  1  0  0  0  0
 22 23  1  0  0  0  0
 22 24  2  0  0  0  0
 23 25  2  0  0  0  0
 23 32  1  0  0  0  0
 24 26  1  0  0  0  0
 24 33  1  0  0  0  0
 25 27  1  0  0  0  0
 25 34  1  0  0  0  0
 26 27  2  0  0  0  0
 26 35  1  0  0  0  0
 27 36  1  0  0  0  0
 37 38  1  0  0  0  0
 37 42  1  0  0  0  0
 38 39  1  0  0  0  0
 38 41  1  0  0  0  0
 38 43  1  0  0  0  0
 39 40  2  0  0  0  0
 39 47  1  0  0  0  0
 41 44  1  0  0  0  0
 41 45  1  0  0  0  0
 41 46  1  0  0  0  0
 47 48  1  0  0  0  0
 47 49  1  0  0  0  0
 48 50  1  0  0  0  0
 48 51  1  0  0  0  0
 48 52  1  0  0  0  0
M  END
$$$$

  -OEChem-02062319123D

 52 52  0     1  0  0  0  0  0999 V2000
   -2.2167   -1.9215    3.1162 C   0  0  0  0  0  0  0  0  0  0  0  0
   -2.4276   -2.7053    2.2036 O   0  0  0  0  0  0  0  0  0  0  0  0
   -1.9688   -2.4332    4.5222 C   0  0  0  0  0  0  0  0  0  0  0  0
   -2.1150   -3.5162    4.5610 H   0  0  0  0  0  0  0  0  0  0  0  0
   -0.9444   -2.2039    4.8264 H   0  0  0  0  0  0  0  0  0  0  0  0
   -2.6637   -1.9607    5.2203 H   0  0  0  0  0  0  0  0  0  0  0  0
   -2.1573   -0.5676    2.8567 N   0  0  0  0  0  0  0  0  0  0  0  0
   -2.1172   -0.0496    1.4830 C   0  0  2  0  0  0  0  0  0  0  0  0
   -0.7601   -0.3408    0.8109 C   0  0  0  0  0  0  0  0  0  0  0  0
    0.2893   -0.1303    1.4021 O   0  0  0  0  0  0  0  0  0  0  0  0
   -2.3946    1.4545    1.5275 C   0  0  0  0  0  0  0  0  0  0  0  0
   -1.7471    0.0053    3.5887 H   0  0  0  0  0  0  0  0  0  0  0  0
   -2.9018   -0.5278    0.8865 H   0  0  0  0  0  0  0  0  0  0  0  0
   -1.6201    1.9728    2.1021 H   0  0  0  0  0  0  0  0  0  0  0  0
   -2.4090    1.8664    0.5133 H   0  0  0  0  0  0  0  0  0  0  0  0
   -3.3661    1.6483    1.9928 H   0  0  0  0  0  0  0  0  0  0  0  0
   -0.5901   -0.2838   -0.5477 N   0  0  0  0  0  0  0  0  0  0  0  0
   -0.8301   -1.5176   -1.3128 C   0  0  2  0  0  0  0  0  0  0  0  0
    0.0864   -2.6832   -0.8932 C   0  0  0  0  0  0  0  0  0  0  0  0
   -0.3612   -3.8212   -0.8853 O   0  0  0  0  0  0  0  0  0  0  0  0
   -0.6596   -1.2432   -2.8151 C   0  0  0  0  0  0  0  0  0  0  0  0
   -1.6868   -0.2527   -3.3098 C   0  0  0  0  0  0  0  0  0  0  0  0
   -2.9990   -0.6715   -3.5762 C   0  0  0  0  0  0  0  0  0  0  0  0
   -1.3486    1.0954   -3.5039 C   0  0  0  0  0  0  0  0  0  0  0  0
   -3.9585    0.2419   -4.0258 C   0  0  0  0  0  0  0  0  0  0  0  0
   -2.3071    2.0097   -3.9538 C   0  0  0  0  0  0  0  0  0  0  0  0
   -3.6129    1.5834   -4.2141 C   0  0  0  0  0  0  0  0  0  0  0  0
    0.2974    0.1619   -0.7605 H   0  0  0  0  0  0  0  0  0  0  0  0
   -1.8602   -1.8486   -1.1365 H   0  0  0  0  0  0  0  0  0  0  0  0
   -0.7734   -2.1807   -3.3705 H   0  0  0  0  0  0  0  0  0  0  0  0
    0.3503   -0.8703   -3.0144 H   0  0  0  0  0  0  0  0  0  0  0  0
   -3.2784   -1.7116   -3.4340 H   0  0  0  0  0  0  0  0  0  0  0  0
   -0.3386    1.4394   -3.3048 H   0  0  0  0  0  0  0  0  0  0  0  0
   -4.9717   -0.0918   -4.2299 H   0  0  0  0  0  0  0  0  0  0  0  0
   -2.0366    3.0510   -4.1023 H   0  0  0  0  0  0  0  0  0  0  0  0
   -4.3575    2.2926   -4.5641 H   0  0  0  0  0  0  0  0  0  0  0  0
    1.4413   -2.4954   -0.6862 N   0  0  0  0  0  0  0  0  0  0  0  0
    2.3363   -3.5793   -0.2473 C   0  0  2  0  0  0  0  0  0  0  0  0
    2.1457   -3.9466    1.2475 C   0  0  0  0  0  0  0  0  0  0  0  0
    3.0818   -3.9269    2.0384 O   0  0  0  0  0  0  0  0  0  0  0  0
    3.7694   -3.1422   -0.5757 C   0  0  0  0  0  0  0  0  0  0  0  0
    1.7178   -1.5456   -0.4488 H   0  0  0  0  0  0  0  0  0  0  0  0
    2.1244   -4.4848   -0.8262 H   0  0  0  0  0  0  0  0  0  0  0  0
    4.0402   -2.2490   -0.0037 H   0  0  0  0  0  0  0  0  0  0  0  0
    4.4759   -3.9401   -0.3258 H   0  0  0  0  0  0  0  0  0  0  0  0
    3.8657   -2.9193   -1.6425 H   0  0  0  0  0  0  0  0  0  0  0  0
    0.8968   -4.3239    1.7014 N   0  0  0  0  0  0  0  0  0  0  0  0
    0.6053   -4.7072    3.0740 C   0  0  0  0  0  0  0  0  0  0  0  0
    0.1425   -4.3353    1.0095 H   0  0  0  0  0  0  0  0  0  0  0  0
    1.1742   -5.6008    3.3506 H   0  0  0  0  0  0  0  0  0  0  0  0
    0.8639   -3.8956    3.7615 H   0  0  0  0  0  0  0  0  0  0  0  0
   -0.4611   -4.9269    3.1822 H   0  0  0  0  0  0  0  0  0  0  0  0
  1  2  2  0  0  0  0
  1  3  1  0  0  0  0
  1  7  1  0  0  0  0
  3  4  1  0  0  0  0
  3  5  1  0  0  0  0
  3  6  1  0  0  0  0
  7  8  1  0  0  0  0
  7 12  1  0  0  0  0
  8  9  1  0  0  0  0
  8 11  1  0  0  0  0
  8 13  1  0  0  0  0
  9 10  2  0  0  0  0
  9 17  1  0  0  0  0
 11 14  1  0  0  0  0
 11 15  1  0  0  0  0
 11 16  1  0  0  0  0
 17 18  1  0  0  0  0
 17 28  1  0  0  0  0
 18 19  1  0  0  0  0
 18 21  1  0  0  0  0
 18 29  1  0  0  0  0
 19 20  2  0  0  0  0
 19 37  1  0  0  0  0
 21 22  1  0  0  0  0
 21 30  1  0  0  0  0
 21 31  1  0  0  0  0
 22 23  1  0  0  0  0
 22 24  2  0  0  0  0
 23 25  2  0  0  0  0
 23 32  1  0  0  0  0
 24 26  1  0  0  0  0
 24 33  1  0  0  0  0
 25 27  1  0  0  0  0
 25 34  1  0  0  0  0
 26 27  2  0  0  0  0
 26 35  1  0  0  0  0
 27 36  1  0  0  0  0
 37 38  1  0  0  0  0
 37 42  1  0  0  0  0
 38 39  1  0  0  0  0
 38 41  1  0  0  0  0
 38 43  1  0  0  0  0
 39 40  2  0  0  0  0
 39 47  1  0  0  0  0
 41 44  1  0  0  0  0
 41 45  1  0  0  0  0
 41 46  1  0  0  0  0
 47 48  1  0  0  0  0
 47 49  1  0  0  0  0
 48 50  1  0  0  0  0
 48 51  1  0  0  0  0
 48 52  1  0  0  0  0
M  END
$$$$

  -OEChem-02062319123D

 52 52  0     1  0  0  0  0  0999 V2000
   -2.4343   -1.7836    3.1327 C   0  0  0  0  0  0  0  0  0  0  0  0
   -2.7215   -2.5724    2.2458 O   0  0  0  0  0  0  0  0  0  0  0  0
   -2.2318   -2.2718    4.5543 C   0  0  0  0  0  0  0  0  0  0  0  0
   -2.5772   -3.3048    4.6512 H   0  0  0  0  0  0  0  0  0  0  0  0
   -1.1712   -2.2274    4.8147 H   0  0  0  0  0  0  0  0  0  0  0  0
   -2.7975   -1.6473    5.2499 H   0  0  0  0  0  0  0  0  0  0  0  0
   -2.2495   -0.4502    2.8304 N   0  0  0  0  0  0  0  0  0  0  0  0
   -2.1673    0.0224    1.4425 C   0  0  2  0  0  0  0  0  0  0  0  0
   -0.7948   -0.3036    0.8182 C   0  0  0  0  0  0  0  0  0  0  0  0
    0.2402   -0.1172    1.4407 O   0  0  0  0  0  0  0  0  0  0  0  0
   -2.4264    1.5304    1.4320 C   0  0  0  0  0  0  0  0  0  0  0  0
   -1.7826    0.1042    3.5427 H   0  0  0  0  0  0  0  0  0  0  0  0
   -2.9438   -0.4620    0.8408 H   0  0  0  0  0  0  0  0  0  0  0  0
   -1.6603    2.0575    2.0097 H   0  0  0  0  0  0  0  0  0  0  0  0
   -2.4100    1.9097    0.4053 H   0  0  0  0  0  0  0  0  0  0  0  0
   -3.4067    1.7510    1.8658 H   0  0  0  0  0  0  0  0  0  0  0  0
   -0.5865   -0.3184   -0.5367 N   0  0  0  0  0  0  0  0  0  0  0  0
   -1.1035   -1.4464   -1.3277 C   0  0  2  0  0  0  0  0  0  0  0  0
   -0.5261   -2.8076   -0.8960 C   0  0  0  0  0  0  0  0  0  0  0  0
   -1.2382   -3.8006   -0.9342 O   0  0  0  0  0  0  0  0  0  0  0  0
   -0.8164   -1.2094   -2.8187 C   0  0  0  0  0  0  0  0  0  0  0  0
   -1.5463    0.0132   -3.3212 C   0  0  0  0  0  0  0  0  0  0  0  0
   -2.9100   -0.0628   -3.6413 C   0  0  0  0  0  0  0  0  0  0  0  0
   -0.8791    1.2393   -3.4640 C   0  0  0  0  0  0  0  0  0  0  0  0
   -3.5970    1.0682   -4.0949 C   0  0  0  0  0  0  0  0  0  0  0  0
   -1.5650    2.3712   -3.9172 C   0  0  0  0  0  0  0  0  0  0  0  0
   -2.9244    2.2859   -4.2332 C   0  0  0  0  0  0  0  0  0  0  0  0
    0.3708   -0.0516   -0.7480 H   0  0  0  0  0  0  0  0  0  0  0  0
   -2.1892   -1.5098   -1.1941 H   0  0  0  0  0  0  0  0  0  0  0  0
   -1.1422   -2.0820   -3.3960 H   0  0  0  0  0  0  0  0  0  0  0  0
    0.2609   -1.0988   -2.9800 H   0  0  0  0  0  0  0  0  0  0  0  0
   -3.4418   -1.0046   -3.5381 H   0  0  0  0  0  0  0  0  0  0  0  0
    0.1759    1.3191   -3.2212 H   0  0  0  0  0  0  0  0  0  0  0  0
   -4.6527    0.9987   -4.3404 H   0  0  0  0  0  0  0  0  0  0  0  0
   -1.0410    3.3165   -4.0246 H   0  0  0  0  0  0  0  0  0  0  0  0
   -3.4568    3.1639   -4.5875 H   0  0  0  0  0  0  0  0  0  0  0  0
    0.8249   -2.9630   -0.6448 N   0  0  0  0  0  0  0  0  0  0  0  0
    1.4315   -4.2492   -0.2661 C   0  0  2  0  0  0  0  0  0  0  0  0
    1.1387   -4.6476    1.2031 C   0  0  0  0  0  0  0  0  0  0  0  0
    2.0434   -4.8768    1.9975 O   0  0  0  0  0  0  0  0  0  0  0  0
    2.9313   -4.1437   -0.5687 C   0  0  0  0  0  0  0  0  0  0  0  0
    1.3386   -2.1158   -0.4159 H   0  0  0  0  0  0  0  0  0  0  0  0
    1.0210   -5.0450   -0.8969 H   0  0  0  0  0  0  0  0  0  0  0  0
    3.3960   -3.3703    0.0516 H   0  0  0  0  0  0  0  0  0  0  0  0
    3.4276   -5.0974   -0.3620 H   0  0  0  0  0  0  0  0  0  0  0  0
    3.0915   -3.8934   -1.6218 H   0  0  0  0  0  0  0  0  0  0  0  0
   -0.1693   -4.7733    1.6283 N   0  0  0  0  0  0  0  0  0  0  0  0
   -0.5568   -5.1679    2.9741 C   0  0  0  0  0  0  0  0  0  0  0  0
   -0.8993   -4.5446    0.9477 H   0  0  0  0  0  0  0  0  0  0  0  0
   -0.1738   -6.1670    3.2058 H   0  0  0  0  0  0  0  0  0  0  0  0
   -0.1633   -4.4592    3.7093 H   0  0  0  0  0  0  0  0  0  0  0  0
   -1.6477   -5.1869    3.0588 H   0  0  0  0  0  0  0  0  0  0  0  0
  1  2  2  0  0  0  0
  1  3  1  0  0  0  0
  1  7  1  0  0  0  0
  3  4  1  0  0  0  0
  3  5  1  0  0  0  0
  3  6  1  0  0  0  0
  7  8  1  0  0  0  0
  7 12  1  0  0  0  0
  8  9  1  0  0  0  0
  8 11  1  0  0  0  0
  8 13  1  0  0  0  0
  9 10  2  0  0  0  0
  9 17  1  0  0  0  0
 11 14  1  0  0  0  0
 11 15  1  0  0  0  0
 11 16  1  0  0  0  0
 17 18  1  0  0  0  0
 17 28  1  0  0  0  0
 18 19  1  0  0  0  0
 18 21  1  0  0  0  0
 18 29  1  0  0  0  0
 19 20  2  0  0  0  0
 19 37  1  0  0  0  0
 21 22  1  0  0  0  0
 21 30  1  0  0  0  0
 21 31  1  0  0  0  0
 22 23  1  0  0  0  0
 22 24  2  0  0  0  0
 23 25  2  0  0  0  0
 23 32  1  0  0  0  0
 24 26  1  0  0  0  0
 24 33  1  0  0  0  0
 25 27  1  0  0  0  0
 25 34  1  0  0  0  0
 26 27  2  0  0  0  0
 26 35  1  0  0  0  0
 27 36  1  0  0  0  0
 37 38  1  0  0  0  0
 37 42  1  0  0  0  0
 38 39  1  0  0  0  0
 38 41  1  0  0  0  0
 38 43  1  0  0  0  0
 39 40  2  0  0  0  0
 39 47  1  0  0  0  0
 41 44  1  0  0  0  0
 41 45  1  0  0  0  0
 41 46  1  0  0  0  0
 47 48  1  0  0  0  0
 47 49  1  0  0  0  0
 48 50  1  0  0  0  0
 48 51  1  0  0  0  0
 48 52  1  0  0  0  0
M  END
$$$$

  -OEChem-02062319123D

 52 52  0     1  0  0  0  0  0999 V2000
   -2.7159   -1.5258    3.4304 C   0  0  0  0  0  0  0  0  0  0  0  0
   -3.3959   -2.2737    2.7464 O   0  0  0  0  0  0  0  0  0  0  0  0
   -2.4139   -1.8824    4.8736 C   0  0  0  0  0  0  0  0  0  0  0  0
   -2.8903   -2.8312    5.1359 H   0  0  0  0  0  0  0  0  0  0  0  0
   -1.3345   -1.9794    5.0154 H   0  0  0  0  0  0  0  0  0  0  0  0
   -2.7936   -1.1025    5.5382 H   0  0  0  0  0  0  0  0  0  0  0  0
   -2.1968   -0.3671    2.8912 N   0  0  0  0  0  0  0  0  0  0  0  0
   -2.1861   -0.0870    1.4483 C   0  0  2  0  0  0  0  0  0  0  0  0
   -0.8127   -0.4126    0.8232 C   0  0  0  0  0  0  0  0  0  0  0  0
    0.2175   -0.3000    1.4706 O   0  0  0  0  0  0  0  0  0  0  0  0
   -2.5304    1.3914    1.2528 C   0  0  0  0  0  0  0  0  0  0  0  0
   -1.4777    0.0887    3.4480 H   0  0  0  0  0  0  0  0  0  0  0  0
   -2.9460   -0.6855    0.9353 H   0  0  0  0  0  0  0  0  0  0  0  0
   -1.7818    2.0284    1.7347 H   0  0  0  0  0  0  0  0  0  0  0  0
   -2.5622    1.6376    0.1864 H   0  0  0  0  0  0  0  0  0  0  0  0
   -3.5102    1.6124    1.6876 H   0  0  0  0  0  0  0  0  0  0  0  0
   -0.5908   -0.4253   -0.5320 N   0  0  0  0  0  0  0  0  0  0  0  0
   -1.3425   -1.3333   -1.4124 C   0  0  2  0  0  0  0  0  0  0  0  0
   -1.1371   -2.8188   -1.0608 C   0  0  0  0  0  0  0  0  0  0  0  0
   -2.0905   -3.5831   -1.0912 O   0  0  0  0  0  0  0  0  0  0  0  0
   -0.9424   -1.0860   -2.8757 C   0  0  0  0  0  0  0  0  0  0  0  0
   -1.3190    0.3107   -3.3091 C   0  0  0  0  0  0  0  0  0  0  0  0
   -2.6427    0.6035   -3.6704 C   0  0  0  0  0  0  0  0  0  0  0  0
   -0.3598    1.3347   -3.3451 C   0  0  0  0  0  0  0  0  0  0  0  0
   -3.0037    1.8987   -4.0559 C   0  0  0  0  0  0  0  0  0  0  0  0
   -0.7199    2.6306   -3.7297 C   0  0  0  0  0  0  0  0  0  0  0  0
   -2.0424    2.9135   -4.0842 C   0  0  0  0  0  0  0  0  0  0  0  0
    0.3956   -0.3061   -0.7449 H   0  0  0  0  0  0  0  0  0  0  0  0
   -2.4138   -1.1265   -1.3144 H   0  0  0  0  0  0  0  0  0  0  0  0
   -1.4540   -1.8092   -3.5205 H   0  0  0  0  0  0  0  0  0  0  0  0
    0.1336   -1.2433   -3.0030 H   0  0  0  0  0  0  0  0  0  0  0  0
   -3.3983   -0.1767   -3.6516 H   0  0  0  0  0  0  0  0  0  0  0  0
    0.6706    1.1306   -3.0711 H   0  0  0  0  0  0  0  0  0  0  0  0
   -4.0310    2.1155   -4.3338 H   0  0  0  0  0  0  0  0  0  0  0  0
    0.0280    3.4178   -3.7530 H   0  0  0  0  0  0  0  0  0  0  0  0
   -2.3226    3.9197   -4.3829 H   0  0  0  0  0  0  0  0  0  0  0  0
    0.1232   -3.3211   -0.7923 N   0  0  0  0  0  0  0  0  0  0  0  0
    0.3811   -4.7257   -0.4383 C   0  0  2  0  0  0  0  0  0  0  0  0
   -0.0203   -5.0578    1.0206 C   0  0  0  0  0  0  0  0  0  0  0  0
    0.8071   -5.4283    1.8450 O   0  0  0  0  0  0  0  0  0  0  0  0
    1.8630   -4.9991   -0.7250 C   0  0  0  0  0  0  0  0  0  0  0  0
    0.8531   -2.6416   -0.5947 H   0  0  0  0  0  0  0  0  0  0  0  0
   -0.2092   -5.3807   -1.0879 H   0  0  0  0  0  0  0  0  0  0  0  0
    2.4998   -4.3736   -0.0912 H   0  0  0  0  0  0  0  0  0  0  0  0
    2.1005   -6.0488   -0.5241 H   0  0  0  0  0  0  0  0  0  0  0  0
    2.0952   -4.7879   -1.7730 H   0  0  0  0  0  0  0  0  0  0  0  0
   -1.3410   -4.9357    1.4038 N   0  0  0  0  0  0  0  0  0  0  0  0
   -1.8241   -5.1792    2.7552 C   0  0  0  0  0  0  0  0  0  0  0  0
   -1.9876   -4.5584    0.7062 H   0  0  0  0  0  0  0  0  0  0  0  0
   -1.3593   -4.4811    3.4581 H   0  0  0  0  0  0  0  0  0  0  0  0
   -2.9091   -5.0427    2.7968 H   0  0  0  0  0  0  0  0  0  0  0  0
   -1.5926   -6.2027    3.0671 H   0  0  0  0  0  0  0  0  0  0  0  0
  1  2  2  0  0  0  0
  1  3  1  0  0  0  0
  1  7  1  0  0  0  0
  3  4  1  0  0  0  0
  3  5  1  0  0  0  0
  3  6  1  0  0  0  0
  7  8  1  0  0  0  0
  7 12  1  0  0  0  0
  8  9  1  0  0  0  0
  8 11  1  0  0  0  0
  8 13  1  0  0  0  0
  9 10  2  0  0  0  0
  9 17  1  0  0  0  0
 11 14  1  0  0  0  0
 11 15  1  0  0  0  0
 11 16  1  0  0  0  0
 17 18  1  0  0  0  0
 17 28  1  0  0  0  0
 18 19  1  0  0  0  0
 18 21  1  0  0  0  0
 18 29  1  0  0  0  0
 19 20  2  0  0  0  0
 19 37  1  0  0  0  0
 21 22  1  0  0  0  0
 21 30  1  0  0  0  0
 21 31  1  0  0  0  0
 22 23  1  0  0  0  0
 22 24  2  0  0  0  0
 23 25  2  0  0  0  0
 23 32  1  0  0  0  0
 24 26  1  0  0  0  0
 24 33  1  0  0  0  0
 25 27  1  0  0  0  0
 25 34  1  0  0  0  0
 26 27  2  0  0  0  0
 26 35  1  0  0  0  0
 27 36  1  0  0  0  0
 37 38  1  0  0  0  0
 37 42  1  0  0  0  0
 38 39  1  0  0  0  0
 38 41  1  0  0  0  0
 38 43  1  0  0  0  0
 39 40  2  0  0  0  0
 39 47  1  0  0  0  0
 41 44  1  0  0  0  0
 41 45  1  0  0  0  0
 41 46  1  0  0  0  0
 47 48  1  0  0  0  0
 47 49  1  0  0  0  0
 48 50  1  0  0  0  0
 48 51  1  0  0  0  0
 48 52  1  0  0  0  0
M  END
$$$$

  -OEChem-02062319123D

 52 52  0     1  0  0  0  0  0999 V2000
   -3.0061   -1.0737    3.6907 C   0  0  0  0  0  0  0  0  0  0  0  0
   -4.0972   -1.3328    3.2089 O   0  0  0  0  0  0  0  0  0  0  0  0
   -2.7221   -1.3946    5.1457 C   0  0  0  0  0  0  0  0  0  0  0  0
   -2.4429   -0.4838    5.6809 H   0  0  0  0  0  0  0  0  0  0  0  0
   -3.6106   -1.8227    5.6184 H   0  0  0  0  0  0  0  0  0  0  0  0
   -1.9039   -2.1155    5.2158 H   0  0  0  0  0  0  0  0  0  0  0  0
   -2.0187   -0.5128    2.9098 N   0  0  0  0  0  0  0  0  0  0  0  0
   -2.1167   -0.3258    1.4561 C   0  0  2  0  0  0  0  0  0  0  0  0
   -0.7697   -0.6307    0.7654 C   0  0  0  0  0  0  0  0  0  0  0  0
    0.2746   -0.6689    1.3992 O   0  0  0  0  0  0  0  0  0  0  0  0
   -2.5557    1.1163    1.1875 C   0  0  0  0  0  0  0  0  0  0  0  0
   -1.0870   -0.4489    3.3186 H   0  0  0  0  0  0  0  0  0  0  0  0
   -2.8621   -1.0127    1.0404 H   0  0  0  0  0  0  0  0  0  0  0  0
   -1.8193    1.8215    1.5859 H   0  0  0  0  0  0  0  0  0  0  0  0
   -2.6611    1.2939    0.1128 H   0  0  0  0  0  0  0  0  0  0  0  0
   -3.5209    1.3119    1.6651 H   0  0  0  0  0  0  0  0  0  0  0  0
   -0.5794   -0.5961   -0.5959 N   0  0  0  0  0  0  0  0  0  0  0  0
   -1.5352   -1.1975   -1.5388 C   0  0  2  0  0  0  0  0  0  0  0  0
   -1.7126   -2.7086   -1.3095 C   0  0  0  0  0  0  0  0  0  0  0  0
   -2.8409   -3.1768   -1.2632 O   0  0  0  0  0  0  0  0  0  0  0  0
   -1.0780   -0.9368   -2.9819 C   0  0  0  0  0  0  0  0  0  0  0  0
   -1.0972    0.5409   -3.2917 C   0  0  0  0  0  0  0  0  0  0  0  0
   -2.3080    1.1814   -3.5960 C   0  0  0  0  0  0  0  0  0  0  0  0
    0.0857    1.2957   -3.2664 C   0  0  0  0  0  0  0  0  0  0  0  0
   -2.3372    2.5534   -3.8668 C   0  0  0  0  0  0  0  0  0  0  0  0
    0.0576    2.6680   -3.5366 C   0  0  0  0  0  0  0  0  0  0  0  0
   -1.1541    3.2976   -3.8364 C   0  0  0  0  0  0  0  0  0  0  0  0
    0.4044   -0.6068   -0.8506 H   0  0  0  0  0  0  0  0  0  0  0  0
   -2.5181   -0.7323   -1.4055 H   0  0  0  0  0  0  0  0  0  0  0  0
   -1.7489   -1.4548   -3.6760 H   0  0  0  0  0  0  0  0  0  0  0  0
   -0.0737   -1.3434   -3.1379 H   0  0  0  0  0  0  0  0  0  0  0  0
   -3.2343    0.6147   -3.6219 H   0  0  0  0  0  0  0  0  0  0  0  0
    1.0342    0.8219   -3.0340 H   0  0  0  0  0  0  0  0  0  0  0  0
   -3.2793    3.0409   -4.1007 H   0  0  0  0  0  0  0  0  0  0  0  0
    0.9773    3.2456   -3.5129 H   0  0  0  0  0  0  0  0  0  0  0  0
   -1.1764    4.3632   -4.0460 H   0  0  0  0  0  0  0  0  0  0  0  0
   -0.6240   -3.5364   -1.1031 N   0  0  0  0  0  0  0  0  0  0  0  0
   -0.7519   -4.9350   -0.6633 C   0  0  2  0  0  0  0  0  0  0  0  0
   -1.1411   -5.0477    0.8327 C   0  0  0  0  0  0  0  0  0  0  0  0
   -0.3972   -5.5692    1.6542 O   0  0  0  0  0  0  0  0  0  0  0  0
    0.5709   -5.6403   -0.9878 C   0  0  0  0  0  0  0  0  0  0  0  0
    0.2704   -3.0769   -0.9530 H   0  0  0  0  0  0  0  0  0  0  0  0
   -1.5423   -5.4292   -1.2385 H   0  0  0  0  0  0  0  0  0  0  0  0
    1.3968   -5.1867   -0.4305 H   0  0  0  0  0  0  0  0  0  0  0  0
    0.5115   -6.6991   -0.7159 H   0  0  0  0  0  0  0  0  0  0  0  0
    0.7891   -5.5707   -2.0577 H   0  0  0  0  0  0  0  0  0  0  0  0
   -2.3486   -4.5281    1.2562 N   0  0  0  0  0  0  0  0  0  0  0  0
   -2.8173   -4.5609    2.6344 C   0  0  0  0  0  0  0  0  0  0  0  0
   -2.9325   -4.0880    0.5406 H   0  0  0  0  0  0  0  0  0  0  0  0
   -3.8022   -4.0895    2.7081 H   0  0  0  0  0  0  0  0  0  0  0  0
   -2.9016   -5.5945    2.9856 H   0  0  0  0  0  0  0  0  0  0  0  0
   -2.1242   -4.0208    3.2874 H   0  0  0  0  0  0  0  0  0  0  0  0
  1  2  2  0  0  0  0
  1  3  1  0  0  0  0
  1  7  1  0  0  0  0
  3  4  1  0  0  0  0
  3  5  1  0  0  0  0
  3  6  1  0  0  0  0
  7  8  1  0  0  0  0
  7 12  1  0  0  0  0
  8  9  1  0  0  0  0
  8 11  1  0  0  0  0
  8 13  1  0  0  0  0
  9 10  2  0  0  0  0
  9 17  1  0  0  0  0
 11 14  1  0  0  0  0
 11 15  1  0  0  0  0
 11 16  1  0  0  0  0
 17 18  1  0  0  0  0
 17 28  1  0  0  0  0
 18 19  1  0  0  0  0
 18 21  1  0  0  0  0
 18 29  1  0  0  0  0
 19 20  2  0  0  0  0
 19 37  1  0  0  0  0
 21 22  1  0  0  0  0
 21 30  1  0  0  0  0
 21 31  1  0  0  0  0
 22 23  1  0  0  0  0
 22 24  2  0  0  0  0
 23 25  2  0  0  0  0
 23 32  1  0  0  0  0
 24 26  1  0  0  0  0
 24 33  1  0  0  0  0
 25 27  1  0  0  0  0
 25 34  1  0  0  0  0
 26 27  2  0  0  0  0
 26 35  1  0  0  0  0
 27 36  1  0  0  0  0
 37 38  1  0  0  0  0
 37 42  1  0  0  0  0
 38 39  1  0  0  0  0
 38 41  1  0  0  0  0
 38 43  1  0  0  0  0
 39 40  2  0  0  0  0
 39 47  1  0  0  0  0
 41 44  1  0  0  0  0
 41 45  1  0  0  0  0
 41 46  1  0  0  0  0
 47 48  1  0  0  0  0
 47 49  1  0  0  0  0
 48 50  1  0  0  0  0
 48 51  1  0  0  0  0
 48 52  1  0  0  0  0
M  END
$$$$

  -OEChem-02062319123D

 52 52  0     1  0  0  0  0  0999 V2000
   -3.3919   -0.8537    3.5837 C   0  0  0  0  0  0  0  0  0  0  0  0
   -4.4828   -0.9450    3.0435 O   0  0  0  0  0  0  0  0  0  0  0  0
   -3.2293   -1.2479    5.0395 C   0  0  0  0  0  0  0  0  0  0  0  0
   -2.8685   -0.3950    5.6195 H   0  0  0  0  0  0  0  0  0  0  0  0
   -4.1884   -1.5741    5.4518 H   0  0  0  0  0  0  0  0  0  0  0  0
   -2.5123   -2.0683    5.1256 H   0  0  0  0  0  0  0  0  0  0  0  0
   -2.2997   -0.4169    2.8652 N   0  0  0  0  0  0  0  0  0  0  0  0
   -2.3050   -0.1520    1.4212 C   0  0  2  0  0  0  0  0  0  0  0  0
   -0.9083   -0.4003    0.8087 C   0  0  0  0  0  0  0  0  0  0  0  0
    0.0973   -0.4055    1.5032 O   0  0  0  0  0  0  0  0  0  0  0  0
   -2.7379    1.3001    1.1956 C   0  0  0  0  0  0  0  0  0  0  0  0
   -1.3913   -0.4466    3.3269 H   0  0  0  0  0  0  0  0  0  0  0  0
   -3.0163   -0.8234    0.9290 H   0  0  0  0  0  0  0  0  0  0  0  0
   -2.0444    1.9874    1.6908 H   0  0  0  0  0  0  0  0  0  0  0  0
   -2.7573    1.5356    0.1274 H   0  0  0  0  0  0  0  0  0  0  0  0
   -3.7411    1.4636    1.6020 H   0  0  0  0  0  0  0  0  0  0  0  0
   -0.6492   -0.4735   -0.5409 N   0  0  0  0  0  0  0  0  0  0  0  0
   -1.6114   -0.9468   -1.5482 C   0  0  2  0  0  0  0  0  0  0  0  0
   -2.0612   -2.3967   -1.2971 C   0  0  0  0  0  0  0  0  0  0  0  0
   -3.2471   -2.6825   -1.3773 O   0  0  0  0  0  0  0  0  0  0  0  0
   -0.9959   -0.8323   -2.9519 C   0  0  0  0  0  0  0  0  0  0  0  0
   -0.7214    0.6094   -3.3068 C   0  0  0  0  0  0  0  0  0  0  0  0
   -1.7758    1.4555   -3.6825 C   0  0  0  0  0  0  0  0  0  0  0  0
    0.5830    1.1256   -3.2591 C   0  0  0  0  0  0  0  0  0  0  0  0
   -1.5326    2.7960   -3.9997 C   0  0  0  0  0  0  0  0  0  0  0  0
    0.8272    2.4661   -3.5772 C   0  0  0  0  0  0  0  0  0  0  0  0
   -0.2307    3.3020   -3.9465 C   0  0  0  0  0  0  0  0  0  0  0  0
    0.3420   -0.4983   -0.7654 H   0  0  0  0  0  0  0  0  0  0  0  0
   -2.5084   -0.3190   -1.5156 H   0  0  0  0  0  0  0  0  0  0  0  0
   -1.6879   -1.2535   -3.6897 H   0  0  0  0  0  0  0  0  0  0  0  0
   -0.0718   -1.4173   -3.0048 H   0  0  0  0  0  0  0  0  0  0  0  0
   -2.7917    1.0741   -3.7285 H   0  0  0  0  0  0  0  0  0  0  0  0
    1.4161    0.4899   -2.9750 H   0  0  0  0  0  0  0  0  0  0  0  0
   -2.3557    3.4435   -4.2882 H   0  0  0  0  0  0  0  0  0  0  0  0
    1.8392    2.8588   -3.5370 H   0  0  0  0  0  0  0  0  0  0  0  0
   -0.0414    4.3428   -4.1930 H   0  0  0  0  0  0  0  0  0  0  0  0
   -1.1454   -3.3808   -0.9742 N   0  0  0  0  0  0  0  0  0  0  0  0
   -1.5270   -4.7508   -0.5977 C   0  0  2  0  0  0  0  0  0  0  0  0
   -2.1190   -4.8287    0.8321 C   0  0  0  0  0  0  0  0  0  0  0  0
   -1.5458   -5.4265    1.7347 O   0  0  0  0  0  0  0  0  0  0  0  0
   -0.2881   -5.6371   -0.7765 C   0  0  0  0  0  0  0  0  0  0  0  0
   -0.2058   -3.0687   -0.7427 H   0  0  0  0  0  0  0  0  0  0  0  0
   -2.2979   -5.1166   -1.2847 H   0  0  0  0  0  0  0  0  0  0  0  0
    0.5158   -5.3175   -0.1056 H   0  0  0  0  0  0  0  0  0  0  0  0
   -0.5330   -6.6799   -0.5495 H   0  0  0  0  0  0  0  0  0  0  0  0
    0.0739   -5.5851   -1.8077 H   0  0  0  0  0  0  0  0  0  0  0  0
   -3.3186   -4.2003    1.1001 N   0  0  0  0  0  0  0  0  0  0  0  0
   -3.9854   -4.2244    2.3941 C   0  0  0  0  0  0  0  0  0  0  0  0
   -3.7417   -3.6750    0.3310 H   0  0  0  0  0  0  0  0  0  0  0  0
   -4.2762   -5.2467    2.6555 H   0  0  0  0  0  0  0  0  0  0  0  0
   -3.3248   -3.8349    3.1747 H   0  0  0  0  0  0  0  0  0  0  0  0
   -4.8873   -3.6057    2.3638 H   0  0  0  0  0  0  0  0  0  0  0  0
  1  2  2  0  0  0  0
  1  3  1  0  0  0  0
  1  7  1  0  0  0  0
  3  4  1  0  0  0  0
  3  5  1  0  0  0  0
  3  6  1  0  0  0  0
  7  8  1  0  0  0  0
  7 12  1  0  0  0  0
  8  9  1  0  0  0  0
  8 11  1  0  0  0  0
  8 13  1  0  0  0  0
  9 10  2  0  0  0  0
  9 17  1  0  0  0  0
 11 14  1  0  0  0  0
 11 15  1  0  0  0  0
 11 16  1  0  0  0  0
 17 18  1  0  0  0  0
 17 28  1  0  0  0  0
 18 19  1  0  0  0  0
 18 21  1  0  0  0  0
 18 29  1  0  0  0  0
 19 20  2  0  0  0  0
 19 37  1  0  0  0  0
 21 22  1  0  0  0  0
 21 30  1  0  0  0  0
 21 31  1  0  0  0  0
 22 23  1  0  0  0  0
 22 24  2  0  0  0  0
 23 25  2  0  0  0  0
 23 32  1  0  0  0  0
 24 26  1  0  0  0  0
 24 33  1  0  0  0  0
 25 27  1  0  0  0  0
 25 34  1  0  0  0  0
 26 27  2  0  0  0  0
 26 35  1  0  0  0  0
 27 36  1  0  0  0  0
 37 38  1  0  0  0  0
 37 42  1  0  0  0  0
 38 39  1  0  0  0  0
 38 41  1  0  0  0  0
 38 43  1  0  0  0  0
 39 40  2  0  0  0  0
 39 47  1  0  0  0  0
 41 44  1  0  0  0  0
 41 45  1  0  0  0  0
 41 46  1  0  0  0  0
 47 48  1  0  0  0  0
 47 49  1  0  0  0  0
 48 50  1  0  0  0  0
 48 51  1  0  0  0  0
 48 52  1  0  0  0  0
M  END
$$$$

  -OEChem-02062319123D

 52 52  0     1  0  0  0  0  0999 V2000
   -2.3546   -1.3337    3.2586 C   0  0  0  0  0  0  0  0  0  0  0  0
   -2.3046   -2.1605    2.3621 O   0  0  0  0  0  0  0  0  0  0  0  0
   -2.2666   -1.7696    4.7082 C   0  0  0  0  0  0  0  0  0  0  0  0
   -3.1163   -1.3748    5.2701 H   0  0  0  0  0  0  0  0  0  0  0  0
   -2.2796   -2.8615    4.7727 H   0  0  0  0  0  0  0  0  0  0  0  0
   -1.3392   -1.4008    5.1532 H   0  0  0  0  0  0  0  0  0  0  0  0
   -2.4487    0.0054    2.9361 N   0  0  0  0  0  0  0  0  0  0  0  0
   -2.3298    0.4695    1.5469 C   0  0  2  0  0  0  0  0  0  0  0  0
   -0.9464    0.1325    0.9381 C   0  0  0  0  0  0  0  0  0  0  0  0
    0.0829    0.3055    1.5744 O   0  0  0  0  0  0  0  0  0  0  0  0
   -2.5667    1.9810    1.5210 C   0  0  0  0  0  0  0  0  0  0  0  0
   -2.2486    0.6635    3.6832 H   0  0  0  0  0  0  0  0  0  0  0  0
   -3.1093   -0.0131    0.9508 H   0  0  0  0  0  0  0  0  0  0  0  0
   -1.8047    2.5002    2.1116 H   0  0  0  0  0  0  0  0  0  0  0  0
   -2.5216    2.3543    0.4931 H   0  0  0  0  0  0  0  0  0  0  0  0
   -3.5525    2.2193    1.9322 H   0  0  0  0  0  0  0  0  0  0  0  0
   -0.7311   -0.1835   -0.3836 N   0  0  0  0  0  0  0  0  0  0  0  0
   -1.7449   -0.5583   -1.3827 C   0  0  2  0  0  0  0  0  0  0  0  0
   -2.5714   -1.8206   -1.0607 C   0  0  0  0  0  0  0  0  0  0  0  0
   -3.7394   -1.8550   -1.4256 O   0  0  0  0  0  0  0  0  0  0  0  0
   -1.0566   -0.7585   -2.7435 C   0  0  0  0  0  0  0  0  0  0  0  0
   -0.4539    0.5314   -3.2455 C   0  0  0  0  0  0  0  0  0  0  0  0
   -1.2685    1.4941   -3.8604 C   0  0  0  0  0  0  0  0  0  0  0  0
    0.9179    0.7901   -3.1005 C   0  0  0  0  0  0  0  0  0  0  0  0
   -0.7235    2.6985   -4.3175 C   0  0  0  0  0  0  0  0  0  0  0  0
    1.4634    1.9955   -3.5554 C   0  0  0  0  0  0  0  0  0  0  0  0
    0.6430    2.9501   -4.1638 C   0  0  0  0  0  0  0  0  0  0  0  0
    0.2508   -0.2306   -0.6430 H   0  0  0  0  0  0  0  0  0  0  0  0
   -2.4575    0.2678   -1.4787 H   0  0  0  0  0  0  0  0  0  0  0  0
   -1.7905   -1.1137   -3.4756 H   0  0  0  0  0  0  0  0  0  0  0  0
   -0.2845   -1.5306   -2.6609 H   0  0  0  0  0  0  0  0  0  0  0  0
   -2.3314    1.3081   -3.9865 H   0  0  0  0  0  0  0  0  0  0  0  0
    1.5691    0.0571   -2.6342 H   0  0  0  0  0  0  0  0  0  0  0  0
   -1.3620    3.4376   -4.7929 H   0  0  0  0  0  0  0  0  0  0  0  0
    2.5254    2.1900   -3.4371 H   0  0  0  0  0  0  0  0  0  0  0  0
    1.0667    3.8852   -4.5183 H   0  0  0  0  0  0  0  0  0  0  0  0
   -1.9784   -2.9764   -0.5899 N   0  0  0  0  0  0  0  0  0  0  0  0
   -2.6471   -4.2887   -0.5273 C   0  0  2  0  0  0  0  0  0  0  0  0
   -3.6841   -4.4327    0.6181 C   0  0  0  0  0  0  0  0  0  0  0  0
   -3.6490   -5.3730    1.4055 O   0  0  0  0  0  0  0  0  0  0  0  0
   -1.5357   -5.3430   -0.4469 C   0  0  0  0  0  0  0  0  0  0  0  0
   -1.1377   -2.8485   -0.0302 H   0  0  0  0  0  0  0  0  0  0  0  0
   -3.1940   -4.4519   -1.4618 H   0  0  0  0  0  0  0  0  0  0  0  0
   -0.9751   -5.2380    0.4877 H   0  0  0  0  0  0  0  0  0  0  0  0
   -1.9636   -6.3500   -0.4818 H   0  0  0  0  0  0  0  0  0  0  0  0
   -0.8427   -5.2343   -1.2866 H   0  0  0  0  0  0  0  0  0  0  0  0
   -4.7409   -3.5463    0.6883 N   0  0  0  0  0  0  0  0  0  0  0  0
   -5.7218   -3.5391    1.7629 C   0  0  0  0  0  0  0  0  0  0  0  0
   -4.7115   -2.7673    0.0275 H   0  0  0  0  0  0  0  0  0  0  0  0
   -6.2769   -4.4826    1.7806 H   0  0  0  0  0  0  0  0  0  0  0  0
   -5.2258   -3.4021    2.7294 H   0  0  0  0  0  0  0  0  0  0  0  0
   -6.4336   -2.7208    1.6184 H   0  0  0  0  0  0  0  0  0  0  0  0
  1  2  2  0  0  0  0
  1  3  1  0  0  0  0
  1  7  1  0  0  0  0
  3  4  1  0  0  0  0
  3  5  1  0  0  0  0
  3  6  1  0  0  0  0
  7  8  1  0  0  0  0
  7 12  1  0  0  0  0
  8  9  1  0  0  0  0
  8 11  1  0  0  0  0
  8 13  1  0  0  0  0
  9 10  2  0  0  0  0
  9 17  1  0  0  0  0
 11 14  1  0  0  0  0
 11 15  1  0  0  0  0
 11 16  1  0  0  0  0
 17 18  1  0  0  0  0
 17 28  1  0  0  0  0
 18 19  1  0  0  0  0
 18 21  1  0  0  0  0
 18 29  1  0  0  0  0
 19 20  2  0  0  0  0
 19 37  1  0  0  0  0
 21 22  1  0  0  0  0
 21 30  1  0  0  0  0
 21 31  1  0  0  0  0
 22 23  1  0  0  0  0
 22 24  2  0  0  0  0
 23 25  2  0  0  0  0
 23 32  1  0  0  0  0
 24 26  1  0  0  0  0
 24 33  1  0  0  0  0
 25 27  1  0  0  0  0
 25 34  1  0  0  0  0
 26 27  2  0  0  0  0
 26 35  1  0  0  0  0
 27 36  1  0  0  0  0
 37 38  1  0  0  0  0
 37 42  1  0  0  0  0
 38 39  1  0  0  0  0
 38 41  1  0  0  0  0
 38 43  1  0  0  0  0
 39 40  2  0  0  0  0
 39 47  1  0  0  0  0
 41 44  1  0  0  0  0
 41 45  1  0  0  0  0
 41 46  1  0  0  0  0
 47 48  1  0  0  0  0
 47 49  1  0  0  0  0
 48 50  1  0  0  0  0
 48 51  1  0  0  0  0
 48 52  1  0  0  0  0
M  END
$$$$

  -OEChem-02062319123D

 52 52  0     1  0  0  0  0  0999 V2000
   -2.2526   -1.4819    2.9463 C   0  0  0  0  0  0  0  0  0  0  0  0
   -1.8585   -2.1547    2.0053 O   0  0  0  0  0  0  0  0  0  0  0  0
   -2.4390   -2.1254    4.3066 C   0  0  0  0  0  0  0  0  0  0  0  0
   -2.3039   -3.2083    4.2306 H   0  0  0  0  0  0  0  0  0  0  0  0
   -1.7072   -1.7264    5.0129 H   0  0  0  0  0  0  0  0  0  0  0  0
   -3.4461   -1.9260    4.6805 H   0  0  0  0  0  0  0  0  0  0  0  0
   -2.5250   -0.1358    2.7753 N   0  0  0  0  0  0  0  0  0  0  0  0
   -2.3691    0.5822    1.4988 C   0  0  2  0  0  0  0  0  0  0  0  0
   -0.9941    0.3248    0.8299 C   0  0  0  0  0  0  0  0  0  0  0  0
    0.0476    0.5763    1.4175 O   0  0  0  0  0  0  0  0  0  0  0  0
   -2.5494    2.0778    1.7705 C   0  0  0  0  0  0  0  0  0  0  0  0
   -2.7278    0.4002    3.6131 H   0  0  0  0  0  0  0  0  0  0  0  0
   -3.1647    0.2601    0.8248 H   0  0  0  0  0  0  0  0  0  0  0  0
   -1.7833    2.4381    2.4653 H   0  0  0  0  0  0  0  0  0  0  0  0
   -2.4649    2.6449    0.8382 H   0  0  0  0  0  0  0  0  0  0  0  0
   -3.5352    2.2713    2.2041 H   0  0  0  0  0  0  0  0  0  0  0  0
   -0.8097   -0.0397   -0.4858 N   0  0  0  0  0  0  0  0  0  0  0  0
   -1.8361   -0.2555   -1.5200 C   0  0  2  0  0  0  0  0  0  0  0  0
   -2.8820   -1.3534   -1.2340 C   0  0  0  0  0  0  0  0  0  0  0  0
   -4.0421   -1.1396   -1.5650 O   0  0  0  0  0  0  0  0  0  0  0  0
   -1.1289   -0.6100   -2.8403 C   0  0  0  0  0  0  0  0  0  0  0  0
   -0.1765    0.4805   -3.2709 C   0  0  0  0  0  0  0  0  0  0  0  0
   -0.6631    1.6368   -3.8985 C   0  0  0  0  0  0  0  0  0  0  0  0
    1.2031    0.3572   -3.0415 C   0  0  0  0  0  0  0  0  0  0  0  0
    0.2132    2.6574   -4.2837 C   0  0  0  0  0  0  0  0  0  0  0  0
    2.0794    1.3785   -3.4236 C   0  0  0  0  0  0  0  0  0  0  0  0
    1.5845    2.5295   -4.0436 C   0  0  0  0  0  0  0  0  0  0  0  0
    0.1614    0.0152   -0.7843 H   0  0  0  0  0  0  0  0  0  0  0  0
   -2.3847    0.6818   -1.6619 H   0  0  0  0  0  0  0  0  0  0  0  0
   -1.8774   -0.7606   -3.6262 H   0  0  0  0  0  0  0  0  0  0  0  0
   -0.5865   -1.5547   -2.7257 H   0  0  0  0  0  0  0  0  0  0  0  0
   -1.7266    1.7461   -4.0900 H   0  0  0  0  0  0  0  0  0  0  0  0
    1.6032   -0.5328   -2.5642 H   0  0  0  0  0  0  0  0  0  0  0  0
   -0.1714    3.5495   -4.7695 H   0  0  0  0  0  0  0  0  0  0  0  0
    3.1453    1.2776   -3.2391 H   0  0  0  0  0  0  0  0  0  0  0  0
    2.2651    3.3224   -4.3396 H   0  0  0  0  0  0  0  0  0  0  0  0
   -2.5438   -2.5964   -0.7347 N   0  0  0  0  0  0  0  0  0  0  0  0
   -3.5303   -3.6641   -0.4837 C   0  0  2  0  0  0  0  0  0  0  0  0
   -4.4306   -3.4093    0.7560 C   0  0  0  0  0  0  0  0  0  0  0  0
   -4.5687   -4.2398    1.6480 O   0  0  0  0  0  0  0  0  0  0  0  0
   -2.7412   -4.9734   -0.3692 C   0  0  0  0  0  0  0  0  0  0  0  0
   -1.7208   -2.5952   -0.1271 H   0  0  0  0  0  0  0  0  0  0  0  0
   -4.1971   -3.7484   -1.3480 H   0  0  0  0  0  0  0  0  0  0  0  0
   -2.0752   -4.9423    0.4996 H   0  0  0  0  0  0  0  0  0  0  0  0
   -3.4246   -5.8206   -0.2521 H   0  0  0  0  0  0  0  0  0  0  0  0
   -2.1392   -5.1372   -1.2680 H   0  0  0  0  0  0  0  0  0  0  0  0
   -5.1604   -2.2385    0.8345 N   0  0  0  0  0  0  0  0  0  0  0  0
   -6.1105   -1.9361    1.8947 C   0  0  0  0  0  0  0  0  0  0  0  0
   -5.0928   -1.6186    0.0242 H   0  0  0  0  0  0  0  0  0  0  0  0
   -6.9465   -2.6426    1.8705 H   0  0  0  0  0  0  0  0  0  0  0  0
   -5.6243   -1.9979    2.8736 H   0  0  0  0  0  0  0  0  0  0  0  0
   -6.5054   -0.9235    1.7686 H   0  0  0  0  0  0  0  0  0  0  0  0
  1  2  2  0  0  0  0
  1  3  1  0  0  0  0
  1  7  1  0  0  0  0
  3  4  1  0  0  0  0
  3  5  1  0  0  0  0
  3  6  1  0  0  0  0
  7  8  1  0  0  0  0
  7 12  1  0  0  0  0
  8  9  1  0  0  0  0
  8 11  1  0  0  0  0
  8 13  1  0  0  0  0
  9 10  2  0  0  0  0
  9 17  1  0  0  0  0
 11 14  1  0  0  0  0
 11 15  1  0  0  0  0
 11 16  1  0  0  0  0
 17 18  1  0  0  0  0
 17 28  1  0  0  0  0
 18 19  1  0  0  0  0
 18 21  1  0  0  0  0
 18 29  1  0  0  0  0
 19 20  2  0  0  0  0
 19 37  1  0  0  0  0
 21 22  1  0  0  0  0
 21 30  1  0  0  0  0
 21 31  1  0  0  0  0
 22 23  1  0  0  0  0
 22 24  2  0  0  0  0
 23 25  2  0  0  0  0
 23 32  1  0  0  0  0
 24 26  1  0  0  0  0
 24 33  1  0  0  0  0
 25 27  1  0  0  0  0
 25 34  1  0  0  0  0
 26 27  2  0  0  0  0
 26 35  1  0  0  0  0
 27 36  1  0  0  0  0
 37 38  1  0  0  0  0
 37 42  1  0  0  0  0
 38 39  1  0  0  0  0
 38 41  1  0  0  0  0
 38 43  1  0  0  0  0
 39 40  2  0  0  0  0
 39 47  1  0  0  0  0
 41 44  1  0  0  0  0
 41 45  1  0  0  0  0
 41 46  1  0  0  0  0
 47 48  1  0  0  0  0
 47 49  1  0  0  0  0
 48 50  1  0  0  0  0
 48 51  1  0  0  0  0
 48 52  1  0  0  0  0
M  END
$$$$

  -OEChem-02062319123D

 52 52  0     1  0  0  0  0  0999 V2000
   -2.3379   -1.4636    2.7681 C   0  0  0  0  0  0  0  0  0  0  0  0
   -1.9121   -2.0725    1.7966 O   0  0  0  0  0  0  0  0  0  0  0  0
   -2.6468   -2.2130    4.0493 C   0  0  0  0  0  0  0  0  0  0  0  0
   -2.4845   -3.2853    3.9063 H   0  0  0  0  0  0  0  0  0  0  0  0
   -1.9982   -1.8612    4.8551 H   0  0  0  0  0  0  0  0  0  0  0  0
   -3.6914   -2.0546    4.3296 H   0  0  0  0  0  0  0  0  0  0  0  0
   -2.5438   -0.0963    2.7073 N   0  0  0  0  0  0  0  0  0  0  0  0
   -2.3246    0.7363    1.5118 C   0  0  2  0  0  0  0  0  0  0  0  0
   -0.9570    0.4741    0.8266 C   0  0  0  0  0  0  0  0  0  0  0  0
    0.0915    0.6735    1.4220 O   0  0  0  0  0  0  0  0  0  0  0  0
   -2.4207    2.2022    1.9417 C   0  0  0  0  0  0  0  0  0  0  0  0
   -2.8338    0.3574    3.5674 H   0  0  0  0  0  0  0  0  0  0  0  0
   -3.1306    0.5450    0.8045 H   0  0  0  0  0  0  0  0  0  0  0  0
   -1.6540    2.4362    2.6879 H   0  0  0  0  0  0  0  0  0  0  0  0
   -2.2755    2.8595    1.0788 H   0  0  0  0  0  0  0  0  0  0  0  0
   -3.4046    2.4107    2.3725 H   0  0  0  0  0  0  0  0  0  0  0  0
   -0.7769    0.0386   -0.4699 N   0  0  0  0  0  0  0  0  0  0  0  0
   -1.7596    0.0168   -1.5685 C   0  0  2  0  0  0  0  0  0  0  0  0
   -3.0344   -0.8210   -1.3411 C   0  0  0  0  0  0  0  0  0  0  0  0
   -4.1083   -0.3523   -1.7004 O   0  0  0  0  0  0  0  0  0  0  0  0
   -1.0607   -0.5190   -2.8302 C   0  0  0  0  0  0  0  0  0  0  0  0
    0.1153    0.3442   -3.2229 C   0  0  0  0  0  0  0  0  0  0  0  0
   -0.0910    1.5505   -3.9088 C   0  0  0  0  0  0  0  0  0  0  0  0
    1.4259   -0.0428   -2.9015 C   0  0  0  0  0  0  0  0  0  0  0  0
    0.9937    2.3603   -4.2626 C   0  0  0  0  0  0  0  0  0  0  0  0
    2.5109    0.7674   -3.2533 C   0  0  0  0  0  0  0  0  0  0  0  0
    2.2951    1.9696   -3.9334 C   0  0  0  0  0  0  0  0  0  0  0  0
    0.2065    0.0175   -0.7321 H   0  0  0  0  0  0  0  0  0  0  0  0
   -2.0830    1.0457   -1.7602 H   0  0  0  0  0  0  0  0  0  0  0  0
   -1.7755   -0.5459   -3.6601 H   0  0  0  0  0  0  0  0  0  0  0  0
   -0.7265   -1.5479   -2.6579 H   0  0  0  0  0  0  0  0  0  0  0  0
   -1.0976    1.8637   -4.1706 H   0  0  0  0  0  0  0  0  0  0  0  0
    1.6097   -0.9756   -2.3759 H   0  0  0  0  0  0  0  0  0  0  0  0
    0.8255    3.2928   -4.7935 H   0  0  0  0  0  0  0  0  0  0  0  0
    3.5220    0.4624   -2.9986 H   0  0  0  0  0  0  0  0  0  0  0  0
    3.1376    2.5985   -4.2066 H   0  0  0  0  0  0  0  0  0  0  0  0
   -3.0022   -2.0924   -0.8024 N   0  0  0  0  0  0  0  0  0  0  0  0
   -4.2170   -2.8691   -0.4976 C   0  0  2  0  0  0  0  0  0  0  0  0
   -4.9930   -2.3289    0.7338 C   0  0  0  0  0  0  0  0  0  0  0  0
   -5.1692   -2.9951    1.7485 O   0  0  0  0  0  0  0  0  0  0  0  0
   -3.7801   -4.3279   -0.3204 C   0  0  0  0  0  0  0  0  0  0  0  0
   -2.1920   -2.2767   -0.2013 H   0  0  0  0  0  0  0  0  0  0  0  0
   -4.8994   -2.8257   -1.3528 H   0  0  0  0  0  0  0  0  0  0  0  0
   -3.1005   -4.4239    0.5327 H   0  0  0  0  0  0  0  0  0  0  0  0
   -4.6508   -4.9668   -0.1432 H   0  0  0  0  0  0  0  0  0  0  0  0
   -3.2665   -4.6840   -1.2182 H   0  0  0  0  0  0  0  0  0  0  0  0
   -5.5193   -1.0521    0.6933 N   0  0  0  0  0  0  0  0  0  0  0  0
   -6.2706   -0.4386    1.7794 C   0  0  0  0  0  0  0  0  0  0  0  0
   -5.3584   -0.5280   -0.1706 H   0  0  0  0  0  0  0  0  0  0  0  0
   -7.1946   -0.9955    1.9662 H   0  0  0  0  0  0  0  0  0  0  0  0
   -5.6741   -0.4250    2.6975 H   0  0  0  0  0  0  0  0  0  0  0  0
   -6.5327    0.5924    1.5226 H   0  0  0  0  0  0  0  0  0  0  0  0
  1  2  2  0  0  0  0
  1  3  1  0  0  0  0
  1  7  1  0  0  0  0
  3  4  1  0  0  0  0
  3  5  1  0  0  0  0
  3  6  1  0  0  0  0
  7  8  1  0  0  0  0
  7 12  1  0  0  0  0
  8  9  1  0  0  0  0
  8 11  1  0  0  0  0
  8 13  1  0  0  0  0
  9 10  2  0  0  0  0
  9 17  1  0  0  0  0
 11 14  1  0  0  0  0
 11 15  1  0  0  0  0
 11 16  1  0  0  0  0
 17 18  1  0  0  0  0
 17 28  1  0  0  0  0
 18 19  1  0  0  0  0
 18 21  1  0  0  0  0
 18 29  1  0  0  0  0
 19 20  2  0  0  0  0
 19 37  1  0  0  0  0
 21 22  1  0  0  0  0
 21 30  1  0  0  0  0
 21 31  1  0  0  0  0
 22 23  1  0  0  0  0
 22 24  2  0  0  0  0
 23 25  2  0  0  0  0
 23 32  1  0  0  0  0
 24 26  1  0  0  0  0
 24 33  1  0  0  0  0
 25 27  1  0  0  0  0
 25 34  1  0  0  0  0
 26 27  2  0  0  0  0
 26 35  1  0  0  0  0
 27 36  1  0  0  0  0
 37 38  1  0  0  0  0
 37 42  1  0  0  0  0
 38 39  1  0  0  0  0
 38 41  1  0  0  0  0
 38 43  1  0  0  0  0
 39 40  2  0  0  0  0
 39 47  1  0  0  0  0
 41 44  1  0  0  0  0
 41 45  1  0  0  0  0
 41 46  1  0  0  0  0
 47 48  1  0  0  0  0
 47 49  1  0  0  0  0
 48 50  1  0  0  0  0
 48 51  1  0  0  0  0
 48 52  1  0  0  0  0
M  END
$$$$

  -OEChem-02062319123D

 52 52  0     1  0  0  0  0  0999 V2000
   -2.3999   -1.3848    2.6239 C   0  0  0  0  0  0  0  0  0  0  0  0
   -2.0526   -1.9479    1.5951 O   0  0  0  0  0  0  0  0  0  0  0  0
   -2.7709   -2.2067    3.8431 C   0  0  0  0  0  0  0  0  0  0  0  0
   -2.6096   -3.2698    3.6449 H   0  0  0  0  0  0  0  0  0  0  0  0
   -2.1566   -1.9105    4.6967 H   0  0  0  0  0  0  0  0  0  0  0  0
   -3.8254   -2.0520    4.0866 H   0  0  0  0  0  0  0  0  0  0  0  0
   -2.4596   -0.0046    2.6861 N   0  0  0  0  0  0  0  0  0  0  0  0
   -2.1975    0.9053    1.5583 C   0  0  2  0  0  0  0  0  0  0  0  0
   -0.8541    0.6223    0.8337 C   0  0  0  0  0  0  0  0  0  0  0  0
    0.2088    0.7468    1.4239 O   0  0  0  0  0  0  0  0  0  0  0  0
   -2.2029    2.3342    2.1098 C   0  0  0  0  0  0  0  0  0  0  0  0
   -2.7370    0.3958    3.5763 H   0  0  0  0  0  0  0  0  0  0  0  0
   -3.0185    0.8268    0.8497 H   0  0  0  0  0  0  0  0  0  0  0  0
   -1.4207    2.4589    2.8661 H   0  0  0  0  0  0  0  0  0  0  0  0
   -2.0217    3.0525    1.3039 H   0  0  0  0  0  0  0  0  0  0  0  0
   -3.1706    2.5645    2.5658 H   0  0  0  0  0  0  0  0  0  0  0  0
   -0.7103    0.1162   -0.4428 N   0  0  0  0  0  0  0  0  0  0  0  0
   -1.6219    0.2841   -1.5905 C   0  0  2  0  0  0  0  0  0  0  0  0
   -3.0618   -0.2390   -1.4208 C   0  0  0  0  0  0  0  0  0  0  0  0
   -3.9922    0.4579   -1.8090 O   0  0  0  0  0  0  0  0  0  0  0  0
   -0.9992   -0.4230   -2.8062 C   0  0  0  0  0  0  0  0  0  0  0  0
    0.3611    0.1449   -3.1356 C   0  0  0  0  0  0  0  0  0  0  0  0
    0.4707    1.3750   -3.8006 C   0  0  0  0  0  0  0  0  0  0  0  0
    1.5304   -0.5402   -2.7697 C   0  0  0  0  0  0  0  0  0  0  0  0
    1.7282    1.9147   -4.0915 C   0  0  0  0  0  0  0  0  0  0  0  0
    2.7880   -0.0009   -3.0600 C   0  0  0  0  0  0  0  0  0  0  0  0
    2.8875    1.2271   -3.7206 C   0  0  0  0  0  0  0  0  0  0  0  0
    0.2725   -0.0166   -0.6740 H   0  0  0  0  0  0  0  0  0  0  0  0
   -1.6975    1.3543   -1.8109 H   0  0  0  0  0  0  0  0  0  0  0  0
   -1.6556   -0.3045   -3.6752 H   0  0  0  0  0  0  0  0  0  0  0  0
   -0.9177   -1.4970   -2.6060 H   0  0  0  0  0  0  0  0  0  0  0  0
   -0.4233    1.9181   -4.0929 H   0  0  0  0  0  0  0  0  0  0  0  0
    1.4692   -1.4953   -2.2556 H   0  0  0  0  0  0  0  0  0  0  0  0
    1.8046    2.8684   -4.6052 H   0  0  0  0  0  0  0  0  0  0  0  0
    3.6880   -0.5362   -2.7712 H   0  0  0  0  0  0  0  0  0  0  0  0
    3.8641    1.6461   -3.9457 H   0  0  0  0  0  0  0  0  0  0  0  0
   -3.3338   -1.4725   -0.8620 N   0  0  0  0  0  0  0  0  0  0  0  0
   -4.6967   -1.9389   -0.5587 C   0  0  2  0  0  0  0  0  0  0  0  0
   -5.3322   -1.1905    0.6415 C   0  0  0  0  0  0  0  0  0  0  0  0
   -5.5230   -1.7266    1.7281 O   0  0  0  0  0  0  0  0  0  0  0  0
   -4.6207   -3.4534   -0.3319 C   0  0  0  0  0  0  0  0  0  0  0  0
   -2.5820   -1.8557   -0.2775 H   0  0  0  0  0  0  0  0  0  0  0  0
   -5.3410   -1.7647   -1.4266 H   0  0  0  0  0  0  0  0  0  0  0  0
   -3.9831   -3.6842    0.5277 H   0  0  0  0  0  0  0  0  0  0  0  0
   -5.6192   -3.8583   -0.1404 H   0  0  0  0  0  0  0  0  0  0  0  0
   -4.2082   -3.9507   -1.2148 H   0  0  0  0  0  0  0  0  0  0  0  0
   -5.6849    0.1365    0.4912 N   0  0  0  0  0  0  0  0  0  0  0  0
   -6.2264    0.9648    1.5591 C   0  0  0  0  0  0  0  0  0  0  0  0
   -5.4170    0.5707   -0.3962 H   0  0  0  0  0  0  0  0  0  0  0  0
   -7.1601    0.5370    1.9389 H   0  0  0  0  0  0  0  0  0  0  0  0
   -5.5112    1.0420    2.3843 H   0  0  0  0  0  0  0  0  0  0  0  0
   -6.4358    1.9715    1.1850 H   0  0  0  0  0  0  0  0  0  0  0  0
  1  2  2  0  0  0  0
  1  3  1  0  0  0  0
  1  7  1  0  0  0  0
  3  4  1  0  0  0  0
  3  5  1  0  0  0  0
  3  6  1  0  0  0  0
  7  8  1  0  0  0  0
  7 12  1  0  0  0  0
  8  9  1  0  0  0  0
  8 11  1  0  0  0  0
  8 13  1  0  0  0  0
  9 10  2  0  0  0  0
  9 17  1  0  0  0  0
 11 14  1  0  0  0  0
 11 15  1  0  0  0  0
 11 16  1  0  0  0  0
 17 18  1  0  0  0  0
 17 28  1  0  0  0  0
 18 19  1  0  0  0  0
 18 21  1  0  0  0  0
 18 29  1  0  0  0  0
 19 20  2  0  0  0  0
 19 37  1  0  0  0  0
 21 22  1  0  0  0  0
 21 30  1  0  0  0  0
 21 31  1  0  0  0  0
 22 23  1  0  0  0  0
 22 24  2  0  0  0  0
 23 25  2  0  0  0  0
 23 32  1  0  0  0  0
 24 26  1  0  0  0  0
 24 33  1  0  0  0  0
 25 27  1  0  0  0  0
 25 34  1  0  0  0  0
 26 27  2  0  0  0  0
 26 35  1  0  0  0  0
 27 36  1  0  0  0  0
 37 38  1  0  0  0  0
 37 42  1  0  0  0  0
 38 39  1  0  0  0  0
 38 41  1  0  0  0  0
 38 43  1  0  0  0  0
 39 40  2  0  0  0  0
 39 47  1  0  0  0  0
 41 44  1  0  0  0  0
 41 45  1  0  0  0  0
 41 46  1  0  0  0  0
 47 48  1  0  0  0  0
 47 49  1  0  0  0  0
 48 50  1  0  0  0  0
 48 51  1  0  0  0  0
 48 52  1  0  0  0  0
M  END
$$$$

  -OEChem-02062319123D

 52 52  0     1  0  0  0  0  0999 V2000
   -2.4482   -1.2503    2.4906 C   0  0  0  0  0  0  0  0  0  0  0  0
   -2.2371   -1.7546    1.3967 O   0  0  0  0  0  0  0  0  0  0  0  0
   -2.9181   -2.1186    3.6415 C   0  0  0  0  0  0  0  0  0  0  0  0
   -2.9448   -3.1682    3.3360 H   0  0  0  0  0  0  0  0  0  0  0  0
   -2.2391   -2.0164    4.4913 H   0  0  0  0  0  0  0  0  0  0  0  0
   -3.9236   -1.8163    3.9457 H   0  0  0  0  0  0  0  0  0  0  0  0
   -2.2718    0.1058    2.6853 N   0  0  0  0  0  0  0  0  0  0  0  0
   -1.9763    1.0760    1.6193 C   0  0  2  0  0  0  0  0  0  0  0  0
   -0.6784    0.7674    0.8257 C   0  0  0  0  0  0  0  0  0  0  0  0
    0.4080    0.8107    1.3833 O   0  0  0  0  0  0  0  0  0  0  0  0
   -1.8721    2.4553    2.2775 C   0  0  0  0  0  0  0  0  0  0  0  0
   -2.4803    0.4589    3.6138 H   0  0  0  0  0  0  0  0  0  0  0  0
   -2.8195    1.1090    0.9357 H   0  0  0  0  0  0  0  0  0  0  0  0
   -1.0452    2.4791    2.9951 H   0  0  0  0  0  0  0  0  0  0  0  0
   -1.6948    3.2248    1.5196 H   0  0  0  0  0  0  0  0  0  0  0  0
   -2.7989    2.6989    2.8051 H   0  0  0  0  0  0  0  0  0  0  0  0
   -0.6058    0.2038   -0.4328 N   0  0  0  0  0  0  0  0  0  0  0  0
   -1.4258    0.5609   -1.6071 C   0  0  2  0  0  0  0  0  0  0  0  0
   -2.9510    0.3868   -1.4703 C   0  0  0  0  0  0  0  0  0  0  0  0
   -3.6980    1.2831   -1.8448 O   0  0  0  0  0  0  0  0  0  0  0  0
   -0.9576   -0.2927   -2.7988 C   0  0  0  0  0  0  0  0  0  0  0  0
    0.5148   -0.0990   -3.0752 C   0  0  0  0  0  0  0  0  0  0  0  0
    0.9619    1.0243   -3.7861 C   0  0  0  0  0  0  0  0  0  0  0  0
    1.4547   -1.0323   -2.6107 C   0  0  0  0  0  0  0  0  0  0  0  0
    2.3275    1.2156   -4.0234 C   0  0  0  0  0  0  0  0  0  0  0  0
    2.8200   -0.8407   -2.8456 C   0  0  0  0  0  0  0  0  0  0  0  0
    3.2571    0.2843   -3.5510 C   0  0  0  0  0  0  0  0  0  0  0  0
    0.3571   -0.0504   -0.6470 H   0  0  0  0  0  0  0  0  0  0  0  0
   -1.2461    1.6156   -1.8415 H   0  0  0  0  0  0  0  0  0  0  0  0
   -1.5299   -0.0187   -3.6921 H   0  0  0  0  0  0  0  0  0  0  0  0
   -1.1602   -1.3501   -2.5962 H   0  0  0  0  0  0  0  0  0  0  0  0
    0.2481    1.7547   -4.1556 H   0  0  0  0  0  0  0  0  0  0  0  0
    1.1284   -1.9102   -2.0598 H   0  0  0  0  0  0  0  0  0  0  0  0
    2.6672    2.0884   -4.5734 H   0  0  0  0  0  0  0  0  0  0  0  0
    3.5403   -1.5660   -2.4780 H   0  0  0  0  0  0  0  0  0  0  0  0
    4.3176    0.4342   -3.7321 H   0  0  0  0  0  0  0  0  0  0  0  0
   -3.4964   -0.7501   -0.9066 N   0  0  0  0  0  0  0  0  0  0  0  0
   -4.9295   -0.9188   -0.6249 C   0  0  2  0  0  0  0  0  0  0  0  0
   -5.3937   -0.0760    0.5880 C   0  0  0  0  0  0  0  0  0  0  0  0
   -5.6421   -0.5752    1.6805 O   0  0  0  0  0  0  0  0  0  0  0  0
   -5.1870   -2.4185   -0.4339 C   0  0  0  0  0  0  0  0  0  0  0  0
   -2.8459   -1.3207   -0.3534 H   0  0  0  0  0  0  0  0  0  0  0  0
   -5.5124   -0.5896   -1.4915 H   0  0  0  0  0  0  0  0  0  0  0  0
   -4.6281   -2.8015    0.4259 H   0  0  0  0  0  0  0  0  0  0  0  0
   -6.2522   -2.6019   -0.2626 H   0  0  0  0  0  0  0  0  0  0  0  0
   -4.8784   -2.9748   -1.3241 H   0  0  0  0  0  0  0  0  0  0  0  0
   -5.4950    1.2938    0.4443 N   0  0  0  0  0  0  0  0  0  0  0  0
   -5.8585    2.2013    1.5233 C   0  0  0  0  0  0  0  0  0  0  0  0
   -5.1496    1.6762   -0.4399 H   0  0  0  0  0  0  0  0  0  0  0  0
   -6.8822    2.0045    1.8580 H   0  0  0  0  0  0  0  0  0  0  0  0
   -5.1803    2.0785    2.3736 H   0  0  0  0  0  0  0  0  0  0  0  0
   -5.8000    3.2387    1.1800 H   0  0  0  0  0  0  0  0  0  0  0  0
  1  2  2  0  0  0  0
  1  3  1  0  0  0  0
  1  7  1  0  0  0  0
  3  4  1  0  0  0  0
  3  5  1  0  0  0  0
  3  6  1  0  0  0  0
  7  8  1  0  0  0  0
  7 12  1  0  0  0  0
  8  9  1  0  0  0  0
  8 11  1  0  0  0  0
  8 13  1  0  0  0  0
  9 10  2  0  0  0  0
  9 17  1  0  0  0  0
 11 14  1  0  0  0  0
 11 15  1  0  0  0  0
 11 16  1  0  0  0  0
 17 18  1  0  0  0  0
 17 28  1  0  0  0  0
 18 19  1  0  0  0  0
 18 21  1  0  0  0  0
 18 29  1  0  0  0  0
 19 20  2  0  0  0  0
 19 37  1  0  0  0  0
 21 22  1  0  0  0  0
 21 30  1  0  0  0  0
 21 31  1  0  0  0  0
 22 23  1  0  0  0  0
 22 24  2  0  0  0  0
 23 25  2  0  0  0  0
 23 32  1  0  0  0  0
 24 26  1  0  0  0  0
 24 33  1  0  0  0  0
 25 27  1  0  0  0  0
 25 34  1  0  0  0  0
 26 27  2  0  0  0  0
 26 35  1  0  0  0  0
 27 36  1  0  0  0  0
 37 38  1  0  0  0  0
 37 42  1  0  0  0  0
 38 39  1  0  0  0  0
 38 41  1  0  0  0  0
 38 43  1  0  0  0  0
 39 40  2  0  0  0  0
 39 47  1  0  0  0  0
 41 44  1  0  0  0  0
 41 45  1  0  0  0  0
 41 46  1  0  0  0  0
 47 48  1  0  0  0  0
 47 49  1  0  0  0  0
 48 50  1  0  0  0  0
 48 51  1  0  0  0  0
 48 52  1  0  0  0  0
M  END
$$$$

  -OEChem-02062319123D

 52 52  0     1  0  0  0  0  0999 V2000
   -2.4829   -1.1644    2.4313 C   0  0  0  0  0  0  0  0  0  0  0  0
   -2.6219   -1.5056    1.2652 O   0  0  0  0  0  0  0  0  0  0  0  0
   -2.7293   -2.1621    3.5468 C   0  0  0  0  0  0  0  0  0  0  0  0
   -3.0393   -3.1246    3.1302 H   0  0  0  0  0  0  0  0  0  0  0  0
   -1.8152   -2.3079    4.1275 H   0  0  0  0  0  0  0  0  0  0  0  0
   -3.5191   -1.7946    4.2067 H   0  0  0  0  0  0  0  0  0  0  0  0
   -2.0731    0.1180    2.7351 N   0  0  0  0  0  0  0  0  0  0  0  0
   -1.7733    1.1439    1.7274 C   0  0  2  0  0  0  0  0  0  0  0  0
   -0.5065    0.8132    0.8979 C   0  0  0  0  0  0  0  0  0  0  0  0
    0.5768    0.7430    1.4589 O   0  0  0  0  0  0  0  0  0  0  0  0
   -1.6080    2.4794    2.4576 C   0  0  0  0  0  0  0  0  0  0  0  0
   -1.8623    0.3181    3.7080 H   0  0  0  0  0  0  0  0  0  0  0  0
   -2.6279    1.2454    1.0648 H   0  0  0  0  0  0  0  0  0  0  0  0
   -0.7652    2.4380    3.1554 H   0  0  0  0  0  0  0  0  0  0  0  0
   -2.5154    2.7199    3.0197 H   0  0  0  0  0  0  0  0  0  0  0  0
   -1.4236    3.2833    1.7383 H   0  0  0  0  0  0  0  0  0  0  0  0
   -0.4925    0.2100   -0.3426 N   0  0  0  0  0  0  0  0  0  0  0  0
   -1.1451    0.7478   -1.5518 C   0  0  2  0  0  0  0  0  0  0  0  0
   -2.6712    0.9534   -1.4971 C   0  0  0  0  0  0  0  0  0  0  0  0
   -3.1524    1.9999   -1.9138 O   0  0  0  0  0  0  0  0  0  0  0  0
   -0.8386   -0.2001   -2.7241 C   0  0  0  0  0  0  0  0  0  0  0  0
    0.6490   -0.3624   -2.9271 C   0  0  0  0  0  0  0  0  0  0  0  0
    1.3852    0.6254   -3.5973 C   0  0  0  0  0  0  0  0  0  0  0  0
    1.3154   -1.4930   -2.4299 C   0  0  0  0  0  0  0  0  0  0  0  0
    2.7676    0.4887   -3.7623 C   0  0  0  0  0  0  0  0  0  0  0  0
    2.6976   -1.6295   -2.5931 C   0  0  0  0  0  0  0  0  0  0  0  0
    3.4242   -0.6380   -3.2586 C   0  0  0  0  0  0  0  0  0  0  0  0
    0.4300   -0.1860   -0.5173 H   0  0  0  0  0  0  0  0  0  0  0  0
   -0.7031    1.7263   -1.7695 H   0  0  0  0  0  0  0  0  0  0  0  0
   -1.2845    0.1971   -3.6423 H   0  0  0  0  0  0  0  0  0  0  0  0
   -1.2969   -1.1774   -2.5371 H   0  0  0  0  0  0  0  0  0  0  0  0
    0.8855    1.5058   -3.9909 H   0  0  0  0  0  0  0  0  0  0  0  0
    0.7614   -2.2694   -1.9094 H   0  0  0  0  0  0  0  0  0  0  0  0
    3.3313    1.2588   -4.2805 H   0  0  0  0  0  0  0  0  0  0  0  0
    3.2066   -2.5053   -2.2012 H   0  0  0  0  0  0  0  0  0  0  0  0
    4.4978   -0.7428   -3.3834 H   0  0  0  0  0  0  0  0  0  0  0  0
   -3.5123   -0.0090   -0.9716 N   0  0  0  0  0  0  0  0  0  0  0  0
   -4.9662    0.1548   -0.8230 C   0  0  2  0  0  0  0  0  0  0  0  0
   -5.3428    1.0899    0.3520 C   0  0  0  0  0  0  0  0  0  0  0  0
   -5.9170    0.6853    1.3564 O   0  0  0  0  0  0  0  0  0  0  0  0
   -5.5731   -1.2458   -0.6812 C   0  0  0  0  0  0  0  0  0  0  0  0
   -3.0626   -0.7449   -0.4141 H   0  0  0  0  0  0  0  0  0  0  0  0
   -5.3746    0.6029   -1.7346 H   0  0  0  0  0  0  0  0  0  0  0  0
   -5.2057   -1.7359    0.2263 H   0  0  0  0  0  0  0  0  0  0  0  0
   -6.6642   -1.1812   -0.6221 H   0  0  0  0  0  0  0  0  0  0  0  0
   -5.3082   -1.8649   -1.5436 H   0  0  0  0  0  0  0  0  0  0  0  0
   -5.0108    2.4280    0.2701 N   0  0  0  0  0  0  0  0  0  0  0  0
   -5.3148    3.4112    1.2998 C   0  0  0  0  0  0  0  0  0  0  0  0
   -4.4868    2.7119   -0.5619 H   0  0  0  0  0  0  0  0  0  0  0  0
   -6.3981    3.5180    1.4163 H   0  0  0  0  0  0  0  0  0  0  0  0
   -4.8851    3.1077    2.2598 H   0  0  0  0  0  0  0  0  0  0  0  0
   -4.8978    4.3852    1.0260 H   0  0  0  0  0  0  0  0  0  0  0  0
  1  2  2  0  0  0  0
  1  3  1  0  0  0  0
  1  7  1  0  0  0  0
  3  4  1  0  0  0  0
  3  5  1  0  0  0  0
  3  6  1  0  0  0  0
  7  8  1  0  0  0  0
  7 12  1  0  0  0  0
  8  9  1  0  0  0  0
  8 11  1  0  0  0  0
  8 13  1  0  0  0  0
  9 10  2  0  0  0  0
  9 17  1  0  0  0  0
 11 14  1  0  0  0  0
 11 15  1  0  0  0  0
 11 16  1  0  0  0  0
 17 18  1  0  0  0  0
 17 28  1  0  0  0  0
 18 19  1  0  0  0  0
 18 21  1  0  0  0  0
 18 29  1  0  0  0  0
 19 20  2  0  0  0  0
 19 37  1  0  0  0  0
 21 22  1  0  0  0  0
 21 30  1  0  0  0  0
 21 31  1  0  0  0  0
 22 23  1  0  0  0  0
 22 24  2  0  0  0  0
 23 25  2  0  0  0  0
 23 32  1  0  0  0  0
 24 26  1  0  0  0  0
 24 33  1  0  0  0  0
 25 27  1  0  0  0  0
 25 34  1  0  0  0  0
 26 27  2  0  0  0  0
 26 35  1  0  0  0  0
 27 36  1  0  0  0  0
 37 38  1  0  0  0  0
 37 42  1  0  0  0  0
 38 39  1  0  0  0  0
 38 41  1  0  0  0  0
 38 43  1  0  0  0  0
 39 40  2  0  0  0  0
 39 47  1  0  0  0  0
 41 44  1  0  0  0  0
 41 45  1  0  0  0  0
 41 46  1  0  0  0  0
 47 48  1  0  0  0  0
 47 49  1  0  0  0  0
 48 50  1  0  0  0  0
 48 51  1  0  0  0  0
 48 52  1  0  0  0  0
M  END
$$$$

  -OEChem-02062319123D

 52 52  0     1  0  0  0  0  0999 V2000
   -2.9482   -1.1661    1.9989 C   0  0  0  0  0  0  0  0  0  0  0  0
   -3.0020   -1.1972    0.7779 O   0  0  0  0  0  0  0  0  0  0  0  0
   -3.7000   -2.2012    2.8131 C   0  0  0  0  0  0  0  0  0  0  0  0
   -4.1616   -2.9393    2.1515 H   0  0  0  0  0  0  0  0  0  0  0  0
   -3.0150   -2.7159    3.4910 H   0  0  0  0  0  0  0  0  0  0  0  0
   -4.4843   -1.7132    3.3970 H   0  0  0  0  0  0  0  0  0  0  0  0
   -2.1880   -0.2114    2.6447 N   0  0  0  0  0  0  0  0  0  0  0  0
   -1.5249    0.9199    1.9803 C   0  0  2  0  0  0  0  0  0  0  0  0
   -0.2908    0.5100    1.1370 C   0  0  0  0  0  0  0  0  0  0  0  0
    0.7524    0.2048    1.6951 O   0  0  0  0  0  0  0  0  0  0  0  0
   -1.1418    1.9258    3.0700 C   0  0  0  0  0  0  0  0  0  0  0  0
   -2.1562   -0.2592    3.6581 H   0  0  0  0  0  0  0  0  0  0  0  0
   -2.2379    1.4200    1.3318 H   0  0  0  0  0  0  0  0  0  0  0  0
   -0.6614    2.8024    2.6244 H   0  0  0  0  0  0  0  0  0  0  0  0
   -2.0335    2.2585    3.6098 H   0  0  0  0  0  0  0  0  0  0  0  0
   -0.4462    1.4764    3.7860 H   0  0  0  0  0  0  0  0  0  0  0  0
   -0.3580    0.0293   -0.1527 N   0  0  0  0  0  0  0  0  0  0  0  0
   -0.6379    0.9012   -1.3091 C   0  0  2  0  0  0  0  0  0  0  0  0
   -1.9821    1.6573   -1.3044 C   0  0  0  0  0  0  0  0  0  0  0  0
   -2.0005    2.8412   -1.6101 O   0  0  0  0  0  0  0  0  0  0  0  0
   -0.5764    0.0437   -2.5840 C   0  0  0  0  0  0  0  0  0  0  0  0
    0.7698   -0.6250   -2.7341 C   0  0  0  0  0  0  0  0  0  0  0  0
    1.8671    0.0911   -3.2348 C   0  0  0  0  0  0  0  0  0  0  0  0
    0.9429   -1.9660   -2.3584 C   0  0  0  0  0  0  0  0  0  0  0  0
    3.1187   -0.5226   -3.3551 C   0  0  0  0  0  0  0  0  0  0  0  0
    2.1939   -2.5800   -2.4772 C   0  0  0  0  0  0  0  0  0  0  0  0
    3.2827   -1.8583   -2.9755 C   0  0  0  0  0  0  0  0  0  0  0  0
    0.4319   -0.5935   -0.3144 H   0  0  0  0  0  0  0  0  0  0  0  0
    0.1496    1.6610   -1.3612 H   0  0  0  0  0  0  0  0  0  0  0  0
   -0.7628    0.6752   -3.4595 H   0  0  0  0  0  0  0  0  0  0  0  0
   -1.3672   -0.7138   -2.5558 H   0  0  0  0  0  0  0  0  0  0  0  0
    1.7515    1.1298   -3.5303 H   0  0  0  0  0  0  0  0  0  0  0  0
    0.1042   -2.5353   -1.9671 H   0  0  0  0  0  0  0  0  0  0  0  0
    3.9641    0.0390   -3.7419 H   0  0  0  0  0  0  0  0  0  0  0  0
    2.3195   -3.6173   -2.1808 H   0  0  0  0  0  0  0  0  0  0  0  0
    4.2545   -2.3346   -3.0670 H   0  0  0  0  0  0  0  0  0  0  0  0
   -3.1637    1.0276   -0.9634 N   0  0  0  0  0  0  0  0  0  0  0  0
   -4.4633    1.6996   -0.8168 C   0  0  2  0  0  0  0  0  0  0  0  0
   -4.7584    2.1125    0.6494 C   0  0  0  0  0  0  0  0  0  0  0  0
   -5.2290    1.3322    1.4652 O   0  0  0  0  0  0  0  0  0  0  0  0
   -5.5277    0.7328   -1.3465 C   0  0  0  0  0  0  0  0  0  0  0  0
   -3.0704    0.0907   -0.5524 H   0  0  0  0  0  0  0  0  0  0  0  0
   -4.4985    2.5960   -1.4419 H   0  0  0  0  0  0  0  0  0  0  0  0
   -5.5175   -0.2024   -0.7767 H   0  0  0  0  0  0  0  0  0  0  0  0
   -6.5229    1.1798   -1.2615 H   0  0  0  0  0  0  0  0  0  0  0  0
   -5.3396    0.5003   -2.3990 H   0  0  0  0  0  0  0  0  0  0  0  0
   -4.5143    3.3596    1.1810 N   0  0  0  0  0  0  0  0  0  0  0  0
   -3.8084    4.4472    0.5166 C   0  0  0  0  0  0  0  0  0  0  0  0
   -4.7364    3.4449    2.1691 H   0  0  0  0  0  0  0  0  0  0  0  0
   -3.9535    5.3784    1.0728 H   0  0  0  0  0  0  0  0  0  0  0  0
   -2.7352    4.2376    0.4740 H   0  0  0  0  0  0  0  0  0  0  0  0
   -4.1822    4.6025   -0.5000 H   0  0  0  0  0  0  0  0  0  0  0  0
  1  2  2  0  0  0  0
  1  3  1  0  0  0  0
  1  7  1  0  0  0  0
  3  4  1  0  0  0  0
  3  5  1  0  0  0  0
  3  6  1  0  0  0  0
  7  8  1  0  0  0  0
  7 12  1  0  0  0  0
  8  9  1  0  0  0  0
  8 11  1  0  0  0  0
  8 13  1  0  0  0  0
  9 10  2  0  0  0  0
  9 17  1  0  0  0  0
 11 14  1  0  0  0  0
 11 15  1  0  0  0  0
 11 16  1  0  0  0  0
 17 18  1  0  0  0  0
 17 28  1  0  0  0  0
 18 19  1  0  0  0  0
 18 21  1  0  0  0  0
 18 29  1  0  0  0  0
 19 20  2  0  0  0  0
 19 37  1  0  0  0  0
 21 22  1  0  0  0  0
 21 30  1  0  0  0  0
 21 31  1  0  0  0  0
 22 23  1  0  0  0  0
 22 24  2  0  0  0  0
 23 25  2  0  0  0  0
 23 32  1  0  0  0  0
 24 26  1  0  0  0  0
 24 33  1  0  0  0  0
 25 27  1  0  0  0  0
 25 34  1  0  0  0  0
 26 27  2  0  0  0  0
 26 35  1  0  0  0  0
 27 36  1  0  0  0  0
 37 38  1  0  0  0  0
 37 42  1  0  0  0  0
 38 39  1  0  0  0  0
 38 41  1  0  0  0  0
 38 43  1  0  0  0  0
 39 40  2  0  0  0  0
 39 47  1  0  0  0  0
 41 44  1  0  0  0  0
 41 45  1  0  0  0  0
 41 46  1  0  0  0  0
 47 48  1  0  0  0  0
 47 49  1  0  0  0  0
 48 50  1  0  0  0  0
 48 51  1  0  0  0  0
 48 52  1  0  0  0  0
M  END
$$$$

  -OEChem-02062319123D

 52 52  0     1  0  0  0  0  0999 V2000
   -2.8063   -1.0223    1.7622 C   0  0  0  0  0  0  0  0  0  0  0  0
   -2.7885   -0.9553    0.5404 O   0  0  0  0  0  0  0  0  0  0  0  0
   -3.6543   -2.0706    2.4564 C   0  0  0  0  0  0  0  0  0  0  0  0
   -4.1697   -2.6906    1.7172 H   0  0  0  0  0  0  0  0  0  0  0  0
   -3.0242   -2.7134    3.0761 H   0  0  0  0  0  0  0  0  0  0  0  0
   -4.4020   -1.5859    3.0893 H   0  0  0  0  0  0  0  0  0  0  0  0
   -2.0248   -0.1631    2.5066 N   0  0  0  0  0  0  0  0  0  0  0  0
   -1.3309    1.0195    1.9692 C   0  0  2  0  0  0  0  0  0  0  0  0
   -0.0847    0.6652    1.1101 C   0  0  0  0  0  0  0  0  0  0  0  0
    0.9416    1.3132    1.2600 O   0  0  0  0  0  0  0  0  0  0  0  0
   -0.9899    1.9086    3.1727 C   0  0  0  0  0  0  0  0  0  0  0  0
   -2.1067   -0.2404    3.5169 H   0  0  0  0  0  0  0  0  0  0  0  0
   -2.0215    1.5868    1.3483 H   0  0  0  0  0  0  0  0  0  0  0  0
   -0.2795    1.4052    3.8360 H   0  0  0  0  0  0  0  0  0  0  0  0
   -0.5417    2.8489    2.8353 H   0  0  0  0  0  0  0  0  0  0  0  0
   -1.8946    2.1477    3.7402 H   0  0  0  0  0  0  0  0  0  0  0  0
   -0.2151    0.0603   -0.1281 N   0  0  0  0  0  0  0  0  0  0  0  0
   -0.3298    0.8881   -1.3478 C   0  0  2  0  0  0  0  0  0  0  0  0
   -1.5322    1.8511   -1.4069 C   0  0  0  0  0  0  0  0  0  0  0  0
   -1.3816    3.0126   -1.7634 O   0  0  0  0  0  0  0  0  0  0  0  0
   -0.4026   -0.0333   -2.5785 C   0  0  0  0  0  0  0  0  0  0  0  0
    0.7898   -0.9556   -2.6788 C   0  0  0  0  0  0  0  0  0  0  0  0
    2.0466   -0.4534   -3.0477 C   0  0  0  0  0  0  0  0  0  0  0  0
    0.6563   -2.3263   -2.4082 C   0  0  0  0  0  0  0  0  0  0  0  0
    3.1514   -1.3060   -3.1457 C   0  0  0  0  0  0  0  0  0  0  0  0
    1.7600   -3.1803   -2.5069 C   0  0  0  0  0  0  0  0  0  0  0  0
    3.0082   -2.6703   -2.8762 C   0  0  0  0  0  0  0  0  0  0  0  0
   -0.9408   -0.6569   -0.0912 H   0  0  0  0  0  0  0  0  0  0  0  0
    0.5743    1.5030   -1.4257 H   0  0  0  0  0  0  0  0  0  0  0  0
   -0.4489    0.5789   -3.4857 H   0  0  0  0  0  0  0  0  0  0  0  0
   -1.3239   -0.6238   -2.5394 H   0  0  0  0  0  0  0  0  0  0  0  0
    2.1696    0.6052   -3.2563 H   0  0  0  0  0  0  0  0  0  0  0  0
   -0.3071   -2.7341   -2.1183 H   0  0  0  0  0  0  0  0  0  0  0  0
    4.1203   -0.9058   -3.4290 H   0  0  0  0  0  0  0  0  0  0  0  0
    1.6477   -4.2395   -2.2960 H   0  0  0  0  0  0  0  0  0  0  0  0
    3.8663   -3.3315   -2.9506 H   0  0  0  0  0  0  0  0  0  0  0  0
   -2.7985    1.4315   -1.0432 N   0  0  0  0  0  0  0  0  0  0  0  0
   -3.9734    2.3095   -0.9604 C   0  0  2  0  0  0  0  0  0  0  0  0
   -3.9239    3.2297    0.2829 C   0  0  0  0  0  0  0  0  0  0  0  0
   -4.6550    3.0508    1.2504 O   0  0  0  0  0  0  0  0  0  0  0  0
   -5.2133    1.4077   -0.9822 C   0  0  0  0  0  0  0  0  0  0  0  0
   -2.8763    0.4895   -0.6497 H   0  0  0  0  0  0  0  0  0  0  0  0
   -4.0127    2.9555   -1.8439 H   0  0  0  0  0  0  0  0  0  0  0  0
   -5.2127    0.7294   -0.1226 H   0  0  0  0  0  0  0  0  0  0  0  0
   -6.1240    2.0140   -0.9450 H   0  0  0  0  0  0  0  0  0  0  0  0
   -5.2328    0.8098   -1.8986 H   0  0  0  0  0  0  0  0  0  0  0  0
   -2.9680    4.2242    0.3397 N   0  0  0  0  0  0  0  0  0  0  0  0
   -2.7522    5.0863    1.4932 C   0  0  0  0  0  0  0  0  0  0  0  0
   -2.2862    4.2327   -0.4247 H   0  0  0  0  0  0  0  0  0  0  0  0
   -2.5452    4.4895    2.3869 H   0  0  0  0  0  0  0  0  0  0  0  0
   -1.8993    5.7479    1.3137 H   0  0  0  0  0  0  0  0  0  0  0  0
   -3.6362    5.7049    1.6791 H   0  0  0  0  0  0  0  0  0  0  0  0
  1  2  2  0  0  0  0
  1  3  1  0  0  0  0
  1  7  1  0  0  0  0
  3  4  1  0  0  0  0
  3  5  1  0  0  0  0
  3  6  1  0  0  0  0
  7  8  1  0  0  0  0
  7 12  1  0  0  0  0
  8  9  1  0  0  0  0
  8 11  1  0  0  0  0
  8 13  1  0  0  0  0
  9 10  2  0  0  0  0
  9 17  1  0  0  0  0
 11 14  1  0  0  0  0
 11 15  1  0  0  0  0
 11 16  1  0  0  0  0
 17 18  1  0  0  0  0
 17 28  1  0  0  0  0
 18 19  1  0  0  0  0
 18 21  1  0  0  0  0
 18 29  1  0  0  0  0
 19 20  2  0  0  0  0
 19 37  1  0  0  0  0
 21 22  1  0  0  0  0
 21 30  1  0  0  0  0
 21 31  1  0  0  0  0
 22 23  1  0  0  0  0
 22 24  2  0  0  0  0
 23 25  2  0  0  0  0
 23 32  1  0  0  0  0
 24 26  1  0  0  0  0
 24 33  1  0  0  0  0
 25 27  1  0  0  0  0
 25 34  1  0  0  0  0
 26 27  2  0  0  0  0
 26 35  1  0  0  0  0
 27 36  1  0  0  0  0
 37 38  1  0  0  0  0
 37 42  1  0  0  0  0
 38 39  1  0  0  0  0
 38 41  1  0  0  0  0
 38 43  1  0  0  0  0
 39 40  2  0  0  0  0
 39 47  1  0  0  0  0
 41 44  1  0  0  0  0
 41 45  1  0  0  0  0
 41 46  1  0  0  0  0
 47 48  1  0  0  0  0
 47 49  1  0  0  0  0
 48 50  1  0  0  0  0
 48 51  1  0  0  0  0
 48 52  1  0  0  0  0
M  END
$$$$

  -OEChem-02062319123D

 52 52  0     1  0  0  0  0  0999 V2000
   -2.6408   -0.7751    1.7361 C   0  0  0  0  0  0  0  0  0  0  0  0
   -2.7728   -0.5372    0.5433 O   0  0  0  0  0  0  0  0  0  0  0  0
   -3.4817   -1.8490    2.3984 C   0  0  0  0  0  0  0  0  0  0  0  0
   -4.1783   -2.2835    1.6758 H   0  0  0  0  0  0  0  0  0  0  0  0
   -2.8377   -2.6417    2.7868 H   0  0  0  0  0  0  0  0  0  0  0  0
   -4.0557   -1.4189    3.2229 H   0  0  0  0  0  0  0  0  0  0  0  0
   -1.6796   -0.1038    2.4635 N   0  0  0  0  0  0  0  0  0  0  0  0
   -0.9463    1.0826    1.9879 C   0  0  2  0  0  0  0  0  0  0  0  0
    0.1973    0.7488    0.9923 C   0  0  0  0  0  0  0  0  0  0  0  0
    1.2203    1.4197    1.0024 O   0  0  0  0  0  0  0  0  0  0  0  0
   -0.4397    1.8165    3.2365 C   0  0  0  0  0  0  0  0  0  0  0  0
   -1.6304   -0.3205    3.4555 H   0  0  0  0  0  0  0  0  0  0  0  0
   -1.6421    1.7523    1.4791 H   0  0  0  0  0  0  0  0  0  0  0  0
    0.2885    1.2025    3.7761 H   0  0  0  0  0  0  0  0  0  0  0  0
    0.0439    2.7574    2.9550 H   0  0  0  0  0  0  0  0  0  0  0  0
   -1.2723    2.0503    3.9073 H   0  0  0  0  0  0  0  0  0  0  0  0
   -0.0967    0.0914   -0.1881 N   0  0  0  0  0  0  0  0  0  0  0  0
   -0.0954    0.8349   -1.4632 C   0  0  2  0  0  0  0  0  0  0  0  0
   -1.1033    1.9989   -1.5146 C   0  0  0  0  0  0  0  0  0  0  0  0
   -0.7656    3.0961   -1.9400 O   0  0  0  0  0  0  0  0  0  0  0  0
   -0.4011   -0.1327   -2.6199 C   0  0  0  0  0  0  0  0  0  0  0  0
    0.5454   -1.3107   -2.6384 C   0  0  0  0  0  0  0  0  0  0  0  0
    1.8932   -1.1350   -2.9853 C   0  0  0  0  0  0  0  0  0  0  0  0
    0.0909   -2.5938   -2.2963 C   0  0  0  0  0  0  0  0  0  0  0  0
    2.7733   -2.2224   -2.9864 C   0  0  0  0  0  0  0  0  0  0  0  0
    0.9698   -3.6823   -2.2983 C   0  0  0  0  0  0  0  0  0  0  0  0
    2.3120   -3.4967   -2.6427 C   0  0  0  0  0  0  0  0  0  0  0  0
   -0.9172   -0.5063   -0.0815 H   0  0  0  0  0  0  0  0  0  0  0  0
    0.9027    1.2609   -1.6172 H   0  0  0  0  0  0  0  0  0  0  0  0
   -0.3219    0.4040   -3.5714 H   0  0  0  0  0  0  0  0  0  0  0  0
   -1.4327   -0.4897   -2.5348 H   0  0  0  0  0  0  0  0  0  0  0  0
    2.2639   -0.1483   -3.2469 H   0  0  0  0  0  0  0  0  0  0  0  0
   -0.9482   -2.7494   -2.0226 H   0  0  0  0  0  0  0  0  0  0  0  0
    3.8161   -2.0745   -3.2509 H   0  0  0  0  0  0  0  0  0  0  0  0
    0.6097   -4.6712   -2.0307 H   0  0  0  0  0  0  0  0  0  0  0  0
    2.9961   -4.3401   -2.6414 H   0  0  0  0  0  0  0  0  0  0  0  0
   -2.3987    1.8338   -1.0590 N   0  0  0  0  0  0  0  0  0  0  0  0
   -3.3614    2.9323   -0.9015 C   0  0  2  0  0  0  0  0  0  0  0  0
   -3.0281    3.8209    0.3212 C   0  0  0  0  0  0  0  0  0  0  0  0
   -3.7191    3.8142    1.3339 O   0  0  0  0  0  0  0  0  0  0  0  0
   -4.7581    2.3060   -0.8151 C   0  0  0  0  0  0  0  0  0  0  0  0
   -2.6214    0.9362   -0.6196 H   0  0  0  0  0  0  0  0  0  0  0  0
   -3.3351    3.5740   -1.7885 H   0  0  0  0  0  0  0  0  0  0  0  0
   -4.8308    1.6439    0.0538 H   0  0  0  0  0  0  0  0  0  0  0  0
   -5.5181    3.0879   -0.7194 H   0  0  0  0  0  0  0  0  0  0  0  0
   -4.9713    1.7239   -1.7167 H   0  0  0  0  0  0  0  0  0  0  0  0
   -1.8713    4.5740    0.3050 N   0  0  0  0  0  0  0  0  0  0  0  0
   -1.3950    5.3652    1.4304 C   0  0  0  0  0  0  0  0  0  0  0  0
   -1.2579    4.4361   -0.5038 H   0  0  0  0  0  0  0  0  0  0  0  0
   -0.4110    5.7866    1.2032 H   0  0  0  0  0  0  0  0  0  0  0  0
   -2.0861    6.1888    1.6372 H   0  0  0  0  0  0  0  0  0  0  0  0
   -1.3063    4.7449    2.3278 H   0  0  0  0  0  0  0  0  0  0  0  0
  1  2  2  0  0  0  0
  1  3  1  0  0  0  0
  1  7  1  0  0  0  0
  3  4  1  0  0  0  0
  3  5  1  0  0  0  0
  3  6  1  0  0  0  0
  7  8  1  0  0  0  0
  7 12  1  0  0  0  0
  8  9  1  0  0  0  0
  8 11  1  0  0  0  0
  8 13  1  0  0  0  0
  9 10  2  0  0  0  0
  9 17  1  0  0  0  0
 11 14  1  0  0  0  0
 11 15  1  0  0  0  0
 11 16  1  0  0  0  0
 17 18  1  0  0  0  0
 17 28  1  0  0  0  0
 18 19  1  0  0  0  0
 18 21  1  0  0  0  0
 18 29  1  0  0  0  0
 19 20  2  0  0  0  0
 19 37  1  0  0  0  0
 21 22  1  0  0  0  0
 21 30  1  0  0  0  0
 21 31  1  0  0  0  0
 22 23  1  0  0  0  0
 22 24  2  0  0  0  0
 23 25  2  0  0  0  0
 23 32  1  0  0  0  0
 24 26  1  0  0  0  0
 24 33  1  0  0  0  0
 25 27  1  0  0  0  0
 25 34  1  0  0  0  0
 26 27  2  0  0  0  0
 26 35  1  0  0  0  0
 27 36  1  0  0  0  0
 37 38  1  0  0  0  0
 37 42  1  0  0  0  0
 38 39  1  0  0  0  0
 38 41  1  0  0  0  0
 38 43  1  0  0  0  0
 39 40  2  0  0  0  0
 39 47  1  0  0  0  0
 41 44  1  0  0  0  0
 41 45  1  0  0  0  0
 41 46  1  0  0  0  0
 47 48  1  0  0  0  0
 47 49  1  0  0  0  0
 48 50  1  0  0  0  0
 48 51  1  0  0  0  0
 48 52  1  0  0  0  0
M  END
$$$$

  -OEChem-02062319123D

 52 52  0     1  0  0  0  0  0999 V2000
   -2.7512   -0.5207    1.4904 C   0  0  0  0  0  0  0  0  0  0  0  0
   -2.7772   -0.0981    0.3425 O   0  0  0  0  0  0  0  0  0  0  0  0
   -3.7682   -1.5473    1.9505 C   0  0  0  0  0  0  0  0  0  0  0  0
   -4.4764   -1.7648    1.1460 H   0  0  0  0  0  0  0  0  0  0  0  0
   -3.2635   -2.4740    2.2346 H   0  0  0  0  0  0  0  0  0  0  0  0
   -4.3225   -1.1638    2.8108 H   0  0  0  0  0  0  0  0  0  0  0  0
   -1.7445   -0.1139    2.3421 N   0  0  0  0  0  0  0  0  0  0  0  0
   -0.8444    1.0251    2.0838 C   0  0  2  0  0  0  0  0  0  0  0  0
    0.3129    0.7102    1.0997 C   0  0  0  0  0  0  0  0  0  0  0  0
    1.3635    1.3335    1.1683 O   0  0  0  0  0  0  0  0  0  0  0  0
   -0.3273    1.4970    3.4487 C   0  0  0  0  0  0  0  0  0  0  0  0
   -1.7810   -0.4783    3.2904 H   0  0  0  0  0  0  0  0  0  0  0  0
   -1.4234    1.8450    1.6475 H   0  0  0  0  0  0  0  0  0  0  0  0
    0.2898    0.7226    3.9150 H   0  0  0  0  0  0  0  0  0  0  0  0
    0.2810    2.3999    3.3355 H   0  0  0  0  0  0  0  0  0  0  0  0
   -1.1632    1.7325    4.1146 H   0  0  0  0  0  0  0  0  0  0  0  0
    0.0265    0.0590   -0.0857 N   0  0  0  0  0  0  0  0  0  0  0  0
    0.3368    0.6961   -1.3780 C   0  0  2  0  0  0  0  0  0  0  0  0
   -0.4040    2.0342   -1.5566 C   0  0  0  0  0  0  0  0  0  0  0  0
    0.1846    3.0294   -1.9599 O   0  0  0  0  0  0  0  0  0  0  0  0
   -0.0505   -0.2463   -2.5309 C   0  0  0  0  0  0  0  0  0  0  0  0
    0.5757   -1.6136   -2.3865 C   0  0  0  0  0  0  0  0  0  0  0  0
    1.9636   -1.7773   -2.5070 C   0  0  0  0  0  0  0  0  0  0  0  0
   -0.2237   -2.7375   -2.1270 C   0  0  0  0  0  0  0  0  0  0  0  0
    2.5440   -3.0425   -2.3688 C   0  0  0  0  0  0  0  0  0  0  0  0
    0.3549   -4.0041   -1.9916 C   0  0  0  0  0  0  0  0  0  0  0  0
    1.7397   -4.1568   -2.1114 C   0  0  0  0  0  0  0  0  0  0  0  0
   -0.8839   -0.4001   -0.0584 H   0  0  0  0  0  0  0  0  0  0  0  0
    1.4126    0.8985   -1.4288 H   0  0  0  0  0  0  0  0  0  0  0  0
    0.2712    0.1948   -3.4804 H   0  0  0  0  0  0  0  0  0  0  0  0
   -1.1405   -0.3443   -2.5714 H   0  0  0  0  0  0  0  0  0  0  0  0
    2.5978   -0.9181   -2.7037 H   0  0  0  0  0  0  0  0  0  0  0  0
   -1.3000   -2.6311   -2.0307 H   0  0  0  0  0  0  0  0  0  0  0  0
    3.6201   -3.1577   -2.4602 H   0  0  0  0  0  0  0  0  0  0  0  0
   -0.2714   -4.8690   -1.7942 H   0  0  0  0  0  0  0  0  0  0  0  0
    2.1915   -5.1387   -2.0044 H   0  0  0  0  0  0  0  0  0  0  0  0
   -1.7451    2.1344   -1.2315 N   0  0  0  0  0  0  0  0  0  0  0  0
   -2.4579    3.4119   -1.1143 C   0  0  2  0  0  0  0  0  0  0  0  0
   -2.0432    4.1760    0.1658 C   0  0  0  0  0  0  0  0  0  0  0  0
   -2.7898    4.2711    1.1339 O   0  0  0  0  0  0  0  0  0  0  0  0
   -3.9574    3.0988   -1.1641 C   0  0  0  0  0  0  0  0  0  0  0  0
   -2.1688    1.3148   -0.7880 H   0  0  0  0  0  0  0  0  0  0  0  0
   -2.2175    4.0510   -1.9706 H   0  0  0  0  0  0  0  0  0  0  0  0
   -4.2422    2.4431   -0.3348 H   0  0  0  0  0  0  0  0  0  0  0  0
   -4.5405    4.0223   -1.0930 H   0  0  0  0  0  0  0  0  0  0  0  0
   -4.2098    2.6005   -2.1049 H   0  0  0  0  0  0  0  0  0  0  0  0
   -0.7614    4.6809    0.2542 N   0  0  0  0  0  0  0  0  0  0  0  0
   -0.2040    5.2813    1.4575 C   0  0  0  0  0  0  0  0  0  0  0  0
   -0.1280    4.4200   -0.5072 H   0  0  0  0  0  0  0  0  0  0  0  0
   -0.7902    6.1569    1.7553 H   0  0  0  0  0  0  0  0  0  0  0  0
   -0.2008    4.5604    2.2809 H   0  0  0  0  0  0  0  0  0  0  0  0
    0.8258    5.6022    1.2735 H   0  0  0  0  0  0  0  0  0  0  0  0
  1  2  2  0  0  0  0
  1  3  1  0  0  0  0
  1  7  1  0  0  0  0
  3  4  1  0  0  0  0
  3  5  1  0  0  0  0
  3  6  1  0  0  0  0
  7  8  1  0  0  0  0
  7 12  1  0  0  0  0
  8  9  1  0  0  0  0
  8 11  1  0  0  0  0
  8 13  1  0  0  0  0
  9 10  2  0  0  0  0
  9 17  1  0  0  0  0
 11 14  1  0  0  0  0
 11 15  1  0  0  0  0
 11 16  1  0  0  0  0
 17 18  1  0  0  0  0
 17 28  1  0  0  0  0
 18 19  1  0  0  0  0
 18 21  1  0  0  0  0
 18 29  1  0  0  0  0
 19 20  2  0  0  0  0
 19 37  1  0  0  0  0
 21 22  1  0  0  0  0
 21 30  1  0  0  0  0
 21 31  1  0  0  0  0
 22 23  1  0  0  0  0
 22 24  2  0  0  0  0
 23 25  2  0  0  0  0
 23 32  1  0  0  0  0
 24 26  1  0  0  0  0
 24 33  1  0  0  0  0
 25 27  1  0  0  0  0
 25 34  1  0  0  0  0
 26 27  2  0  0  0  0
 26 35  1  0  0  0  0
 27 36  1  0  0  0  0
 37 38  1  0  0  0  0
 37 42  1  0  0  0  0
 38 39  1  0  0  0  0
 38 41  1  0  0  0  0
 38 43  1  0  0  0  0
 39 40  2  0  0  0  0
 39 47  1  0  0  0  0
 41 44  1  0  0  0  0
 41 45  1  0  0  0  0
 41 46  1  0  0  0  0
 47 48  1  0  0  0  0
 47 49  1  0  0  0  0
 48 50  1  0  0  0  0
 48 51  1  0  0  0  0
 48 52  1  0  0  0  0
M  END
$$$$

  -OEChem-02062319123D

 52 52  0     1  0  0  0  0  0999 V2000
   -2.7320   -0.2194    1.2759 C   0  0  0  0  0  0  0  0  0  0  0  0
   -2.6383    0.3725    0.2094 O   0  0  0  0  0  0  0  0  0  0  0  0
   -3.9201   -1.1226    1.5449 C   0  0  0  0  0  0  0  0  0  0  0  0
   -4.6186   -1.0895    0.7040 H   0  0  0  0  0  0  0  0  0  0  0  0
   -3.5838   -2.1533    1.6827 H   0  0  0  0  0  0  0  0  0  0  0  0
   -4.4422   -0.7937    2.4468 H   0  0  0  0  0  0  0  0  0  0  0  0
   -1.7049   -0.1387    2.1951 N   0  0  0  0  0  0  0  0  0  0  0  0
   -0.6284    0.8701    2.1547 C   0  0  2  0  0  0  0  0  0  0  0  0
    0.4828    0.5968    1.1081 C   0  0  0  0  0  0  0  0  0  0  0  0
    1.5777    1.1341    1.2069 O   0  0  0  0  0  0  0  0  0  0  0  0
   -0.0554    0.9591    3.5742 C   0  0  0  0  0  0  0  0  0  0  0  0
   -1.8456   -0.6374    3.0696 H   0  0  0  0  0  0  0  0  0  0  0  0
   -1.0650    1.8435    1.9049 H   0  0  0  0  0  0  0  0  0  0  0  0
    0.4286    0.0178    3.8532 H   0  0  0  0  0  0  0  0  0  0  0  0
    0.6876    1.7604    3.6375 H   0  0  0  0  0  0  0  0  0  0  0  0
   -0.8498    1.1759    4.2949 H   0  0  0  0  0  0  0  0  0  0  0  0
    0.1468   -0.0074   -0.0881 N   0  0  0  0  0  0  0  0  0  0  0  0
    0.6644    0.4872   -1.3739 C   0  0  2  0  0  0  0  0  0  0  0  0
    0.2331    1.9461   -1.6120 C   0  0  0  0  0  0  0  0  0  0  0  0
    1.0447    2.7903   -1.9707 O   0  0  0  0  0  0  0  0  0  0  0  0
    0.1472   -0.3931   -2.5254 C   0  0  0  0  0  0  0  0  0  0  0  0
    0.3809   -1.8647   -2.2697 C   0  0  0  0  0  0  0  0  0  0  0  0
    1.6840   -2.3819   -2.2245 C   0  0  0  0  0  0  0  0  0  0  0  0
   -0.7037   -2.7321   -2.0641 C   0  0  0  0  0  0  0  0  0  0  0  0
    1.9006   -3.7411   -1.9732 C   0  0  0  0  0  0  0  0  0  0  0  0
   -0.4887   -4.0923   -1.8155 C   0  0  0  0  0  0  0  0  0  0  0  0
    0.8143   -4.5969   -1.7681 C   0  0  0  0  0  0  0  0  0  0  0  0
   -0.8201   -0.3289   -0.1073 H   0  0  0  0  0  0  0  0  0  0  0  0
    1.7594    0.4535   -1.3600 H   0  0  0  0  0  0  0  0  0  0  0  0
    0.6518   -0.1043   -3.4534 H   0  0  0  0  0  0  0  0  0  0  0  0
   -0.9232   -0.2135   -2.6701 H   0  0  0  0  0  0  0  0  0  0  0  0
    2.5351   -1.7251   -2.3786 H   0  0  0  0  0  0  0  0  0  0  0  0
   -1.7205   -2.3524   -2.0980 H   0  0  0  0  0  0  0  0  0  0  0  0
    2.9144   -4.1293   -1.9359 H   0  0  0  0  0  0  0  0  0  0  0  0
   -1.3334   -4.7567   -1.6603 H   0  0  0  0  0  0  0  0  0  0  0  0
    0.9838   -5.6517   -1.5726 H   0  0  0  0  0  0  0  0  0  0  0  0
   -1.0738    2.3282   -1.3602 N   0  0  0  0  0  0  0  0  0  0  0  0
   -1.4637    3.7297   -1.1626 C   0  0  2  0  0  0  0  0  0  0  0  0
   -0.9504    4.2645    0.1968 C   0  0  0  0  0  0  0  0  0  0  0  0
   -1.7058    4.4503    1.1450 O   0  0  0  0  0  0  0  0  0  0  0  0
   -2.9891    3.8043   -1.2925 C   0  0  0  0  0  0  0  0  0  0  0  0
   -1.6679    1.6181   -0.9230 H   0  0  0  0  0  0  0  0  0  0  0  0
   -1.0267    4.3528   -1.9502 H   0  0  0  0  0  0  0  0  0  0  0  0
   -3.4719    3.1841   -0.5302 H   0  0  0  0  0  0  0  0  0  0  0  0
   -3.3294    4.8368   -1.1663 H   0  0  0  0  0  0  0  0  0  0  0  0
   -3.3044    3.4528   -2.2793 H   0  0  0  0  0  0  0  0  0  0  0  0
    0.4079    4.4331    0.3780 N   0  0  0  0  0  0  0  0  0  0  0  0
    1.0211    4.6964    1.6720 C   0  0  0  0  0  0  0  0  0  0  0  0
    0.9994    4.0729   -0.3764 H   0  0  0  0  0  0  0  0  0  0  0  0
    0.5988    5.6012    2.1211 H   0  0  0  0  0  0  0  0  0  0  0  0
    0.8565    3.8539    2.3504 H   0  0  0  0  0  0  0  0  0  0  0  0
    2.0992    4.8415    1.5542 H   0  0  0  0  0  0  0  0  0  0  0  0
  1  2  2  0  0  0  0
  1  3  1  0  0  0  0
  1  7  1  0  0  0  0
  3  4  1  0  0  0  0
  3  5  1  0  0  0  0
  3  6  1  0  0  0  0
  7  8  1  0  0  0  0
  7 12  1  0  0  0  0
  8  9  1  0  0  0  0
  8 11  1  0  0  0  0
  8 13  1  0  0  0  0
  9 10  2  0  0  0  0
  9 17  1  0  0  0  0
 11 14  1  0  0  0  0
 11 15  1  0  0  0  0
 11 16  1  0  0  0  0
 17 18  1  0  0  0  0
 17 28  1  0  0  0  0
 18 19  1  0  0  0  0
 18 21  1  0  0  0  0
 18 29  1  0  0  0  0
 19 20  2  0  0  0  0
 19 37  1  0  0  0  0
 21 22  1  0  0  0  0
 21 30  1  0  0  0  0
 21 31  1  0  0  0  0
 22 23  1  0  0  0  0
 22 24  2  0  0  0  0
 23 25  2  0  0  0  0
 23 32  1  0  0  0  0
 24 26  1  0  0  0  0
 24 33  1  0  0  0  0
 25 27  1  0  0  0  0
 25 34  1  0  0  0  0
 26 27  2  0  0  0  0
 26 35  1  0  0  0  0
 27 36  1  0  0  0  0
 37 38  1  0  0  0  0
 37 42  1  0  0  0  0
 38 39  1  0  0  0  0
 38 41  1  0  0  0  0
 38 43  1  0  0  0  0
 39 40  2  0  0  0  0
 39 47  1  0  0  0  0
 41 44  1  0  0  0  0
 41 45  1  0  0  0  0
 41 46  1  0  0  0  0
 47 48  1  0  0  0  0
 47 49  1  0  0  0  0
 48 50  1  0  0  0  0
 48 51  1  0  0  0  0
 48 52  1  0  0  0  0
M  END
$$$$

  -OEChem-02062319123D

 52 52  0     1  0  0  0  0  0999 V2000
   -2.0788   -1.4355    3.4364 C   0  0  0  0  0  0  0  0  0  0  0  0
   -2.6764   -2.1814    2.6762 O   0  0  0  0  0  0  0  0  0  0  0  0
   -1.7394   -1.8916    4.8431 C   0  0  0  0  0  0  0  0  0  0  0  0
   -2.1746   -2.8763    5.0354 H   0  0  0  0  0  0  0  0  0  0  0  0
   -0.6550   -1.9563    4.9628 H   0  0  0  0  0  0  0  0  0  0  0  0
   -2.1382   -1.1825    5.5728 H   0  0  0  0  0  0  0  0  0  0  0  0
   -1.6841   -0.1851    3.0083 N   0  0  0  0  0  0  0  0  0  0  0  0
   -1.7387    0.2280    1.6001 C   0  0  2  0  0  0  0  0  0  0  0  0
   -0.4201   -0.0856    0.8617 C   0  0  0  0  0  0  0  0  0  0  0  0
    0.6463    0.1220    1.4275 O   0  0  0  0  0  0  0  0  0  0  0  0
   -2.0395    1.7288    1.5737 C   0  0  0  0  0  0  0  0  0  0  0  0
   -1.0137    0.2959    3.6032 H   0  0  0  0  0  0  0  0  0  0  0  0
   -2.5516   -0.2924    1.0830 H   0  0  0  0  0  0  0  0  0  0  0  0
   -1.2498    2.2871    2.0854 H   0  0  0  0  0  0  0  0  0  0  0  0
   -2.1092    2.0910    0.5441 H   0  0  0  0  0  0  0  0  0  0  0  0
   -2.9897    1.9351    2.0763 H   0  0  0  0  0  0  0  0  0  0  0  0
   -0.4179   -0.2410   -0.5140 N   0  0  0  0  0  0  0  0  0  0  0  0
    0.7364    0.0814   -1.3747 C   0  0  2  0  0  0  0  0  0  0  0  0
    1.1587    1.5588   -1.2830 C   0  0  0  0  0  0  0  0  0  0  0  0
    2.3389    1.8660   -1.1805 O   0  0  0  0  0  0  0  0  0  0  0  0
    0.4095   -0.2556   -2.8404 C   0  0  0  0  0  0  0  0  0  0  0  0
   -0.0462   -1.6870   -3.0010 C   0  0  0  0  0  0  0  0  0  0  0  0
    0.8611   -2.7421   -2.8214 C   0  0  0  0  0  0  0  0  0  0  0  0
   -1.3796   -1.9818   -3.3275 C   0  0  0  0  0  0  0  0  0  0  0  0
    0.4419   -4.0697   -2.9571 C   0  0  0  0  0  0  0  0  0  0  0  0
   -1.7994   -3.3094   -3.4630 C   0  0  0  0  0  0  0  0  0  0  0  0
   -0.8892   -4.3539   -3.2764 C   0  0  0  0  0  0  0  0  0  0  0  0
   -1.2887   -0.5281   -0.9535 H   0  0  0  0  0  0  0  0  0  0  0  0
    1.5916   -0.5237   -1.0529 H   0  0  0  0  0  0  0  0  0  0  0  0
    1.3017   -0.0937   -3.4552 H   0  0  0  0  0  0  0  0  0  0  0  0
   -0.3653    0.4232   -3.2115 H   0  0  0  0  0  0  0  0  0  0  0  0
    1.8981   -2.5350   -2.5723 H   0  0  0  0  0  0  0  0  0  0  0  0
   -2.0984   -1.1835   -3.4832 H   0  0  0  0  0  0  0  0  0  0  0  0
    1.1517   -4.8794   -2.8132 H   0  0  0  0  0  0  0  0  0  0  0  0
   -2.8323   -3.5313   -3.7152 H   0  0  0  0  0  0  0  0  0  0  0  0
   -1.2148   -5.3851   -3.3811 H   0  0  0  0  0  0  0  0  0  0  0  0
    0.2033    2.5583   -1.3168 N   0  0  0  0  0  0  0  0  0  0  0  0
    0.4948    3.9508   -0.9486 C   0  0  2  0  0  0  0  0  0  0  0  0
    0.6483    4.1066    0.5839 C   0  0  0  0  0  0  0  0  0  0  0  0
   -0.1901    4.7011    1.2520 O   0  0  0  0  0  0  0  0  0  0  0  0
   -0.6219    4.8245   -1.5322 C   0  0  0  0  0  0  0  0  0  0  0  0
   -0.7601    2.2471   -1.2546 H   0  0  0  0  0  0  0  0  0  0  0  0
    1.4393    4.2673   -1.4045 H   0  0  0  0  0  0  0  0  0  0  0  0
   -1.5941    4.5389   -1.1179 H   0  0  0  0  0  0  0  0  0  0  0  0
   -0.4409    5.8776   -1.2947 H   0  0  0  0  0  0  0  0  0  0  0  0
   -0.6593    4.7175   -2.6204 H   0  0  0  0  0  0  0  0  0  0  0  0
    1.6995    3.4754    1.2192 N   0  0  0  0  0  0  0  0  0  0  0  0
    1.8064    3.3405    2.6652 C   0  0  0  0  0  0  0  0  0  0  0  0
    2.2575    2.8503    0.6311 H   0  0  0  0  0  0  0  0  0  0  0  0
    1.6787    4.3113    3.1556 H   0  0  0  0  0  0  0  0  0  0  0  0
    1.0446    2.6504    3.0411 H   0  0  0  0  0  0  0  0  0  0  0  0
    2.7923    2.9486    2.9328 H   0  0  0  0  0  0  0  0  0  0  0  0
  1  2  2  0  0  0  0
  1  3  1  0  0  0  0
  1  7  1  0  0  0  0
  3  4  1  0  0  0  0
  3  5  1  0  0  0  0
  3  6  1  0  0  0  0
  7  8  1  0  0  0  0
  7 12  1  0  0  0  0
  8  9  1  0  0  0  0
  8 11  1  0  0  0  0
  8 13  1  0  0  0  0
  9 10  2  0  0  0  0
  9 17  1  0  0  0  0
 11 14  1  0  0  0  0
 11 15  1  0  0  0  0
 11 16  1  0  0  0  0
 17 18  1  0  0  0  0
 17 28  1  0  0  0  0
 18 19  1  0  0  0  0
 18 21  1  0  0  0  0
 18 29  1  0  0  0  0
 19 20  2  0  0  0  0
 19 37  1  0  0  0  0
 21 22  1  0  0  0  0
 21 30  1  0  0  0  0
 21 31  1  0  0  0  0
 22 23  1  0  0  0  0
 22 24  2  0  0  0  0
 23 25  2  0  0  0  0
 23 32  1  0  0  0  0
 24 26  1  0  0  0  0
 24 33  1  0  0  0  0
 25 27  1  0  0  0  0
 25 34  1  0  0  0  0
 26 27  2  0  0  0  0
 26 35  1  0  0  0  0
 27 36  1  0  0  0  0
 37 38  1  0  0  0  0
 37 42  1  0  0  0  0
 38 39  1  0  0  0  0
 38 41  1  0  0  0  0
 38 43  1  0  0  0  0
 39 40  2  0  0  0  0
 39 47  1  0  0  0  0
 41 44  1  0  0  0  0
 41 45  1  0  0  0  0
 41 46  1  0  0  0  0
 47 48  1  0  0  0  0
 47 49  1  0  0  0  0
 48 50  1  0  0  0  0
 48 51  1  0  0  0  0
 48 52  1  0  0  0  0
M  END
$$$$

  -OEChem-02062319123D

 52 52  0     1  0  0  0  0  0999 V2000
   -2.2367   -1.2510    3.6715 C   0  0  0  0  0  0  0  0  0  0  0  0
   -3.2515   -1.6684    3.1362 O   0  0  0  0  0  0  0  0  0  0  0  0
   -1.8839   -1.6908    5.0797 C   0  0  0  0  0  0  0  0  0  0  0  0
   -2.6775   -2.3230    5.4878 H   0  0  0  0  0  0  0  0  0  0  0  0
   -0.9504   -2.2587    5.0699 H   0  0  0  0  0  0  0  0  0  0  0  0
   -1.7645   -0.8167    5.7246 H   0  0  0  0  0  0  0  0  0  0  0  0
   -1.4028   -0.3827    2.9989 N   0  0  0  0  0  0  0  0  0  0  0  0
   -1.5522   -0.0135    1.5848 C   0  0  2  0  0  0  0  0  0  0  0  0
   -0.2575   -0.2649    0.7871 C   0  0  0  0  0  0  0  0  0  0  0  0
    0.8273   -0.2232    1.3542 O   0  0  0  0  0  0  0  0  0  0  0  0
   -1.9264    1.4705    1.5322 C   0  0  0  0  0  0  0  0  0  0  0  0
   -0.5013   -0.1867    3.4305 H   0  0  0  0  0  0  0  0  0  0  0  0
   -2.3483   -0.6004    1.1148 H   0  0  0  0  0  0  0  0  0  0  0  0
   -1.1334    2.0837    1.9743 H   0  0  0  0  0  0  0  0  0  0  0  0
   -2.0790    1.7933    0.4983 H   0  0  0  0  0  0  0  0  0  0  0  0
   -2.8524    1.6462    2.0888 H   0  0  0  0  0  0  0  0  0  0  0  0
   -0.2917   -0.3560   -0.5939 N   0  0  0  0  0  0  0  0  0  0  0  0
    0.9048   -0.2774   -1.4533 C   0  0  2  0  0  0  0  0  0  0  0  0
    1.6521    1.0596   -1.2950 C   0  0  0  0  0  0  0  0  0  0  0  0
    2.8690    1.0891   -1.1674 O   0  0  0  0  0  0  0  0  0  0  0  0
    0.5070   -0.4694   -2.9269 C   0  0  0  0  0  0  0  0  0  0  0  0
   -0.3143   -1.7218   -3.1241 C   0  0  0  0  0  0  0  0  0  0  0  0
    0.2705   -2.9864   -2.9597 C   0  0  0  0  0  0  0  0  0  0  0  0
   -1.6736   -1.6374   -3.4647 C   0  0  0  0  0  0  0  0  0  0  0  0
   -0.4920   -4.1476   -3.1228 C   0  0  0  0  0  0  0  0  0  0  0  0
   -2.4366   -2.7984   -3.6285 C   0  0  0  0  0  0  0  0  0  0  0  0
   -1.8464   -4.0538   -3.4557 C   0  0  0  0  0  0  0  0  0  0  0  0
   -1.1889   -0.5594   -1.0285 H   0  0  0  0  0  0  0  0  0  0  0  0
    1.5980   -1.0757   -1.1652 H   0  0  0  0  0  0  0  0  0  0  0  0
    1.4124   -0.5325   -3.5404 H   0  0  0  0  0  0  0  0  0  0  0  0
   -0.0585    0.4016   -3.2738 H   0  0  0  0  0  0  0  0  0  0  0  0
    1.3219   -3.0729   -2.7004 H   0  0  0  0  0  0  0  0  0  0  0  0
   -2.1457   -0.6704   -3.6094 H   0  0  0  0  0  0  0  0  0  0  0  0
   -0.0308   -5.1224   -2.9914 H   0  0  0  0  0  0  0  0  0  0  0  0
   -3.4874   -2.7267   -3.8939 H   0  0  0  0  0  0  0  0  0  0  0  0
   -2.4383   -4.9558   -3.5828 H   0  0  0  0  0  0  0  0  0  0  0  0
    0.9381    2.2444   -1.2747 N   0  0  0  0  0  0  0  0  0  0  0  0
    1.5140    3.5054   -0.7902 C   0  0  2  0  0  0  0  0  0  0  0  0
    1.6076    3.5112    0.7539 C   0  0  0  0  0  0  0  0  0  0  0  0
    0.8411    4.1810    1.4373 O   0  0  0  0  0  0  0  0  0  0  0  0
    0.6590    4.6519   -1.3437 C   0  0  0  0  0  0  0  0  0  0  0  0
   -0.0699    2.1409   -1.2161 H   0  0  0  0  0  0  0  0  0  0  0  0
    2.5299    3.6279   -1.1815 H   0  0  0  0  0  0  0  0  0  0  0  0
   -0.3727    4.5748   -0.9853 H   0  0  0  0  0  0  0  0  0  0  0  0
    1.0656    5.6158   -1.0214 H   0  0  0  0  0  0  0  0  0  0  0  0
    0.6529    4.6278   -2.4376 H   0  0  0  0  0  0  0  0  0  0  0  0
    2.5075    2.6654    1.3708 N   0  0  0  0  0  0  0  0  0  0  0  0
    2.5023    2.4056    2.8034 C   0  0  0  0  0  0  0  0  0  0  0  0
    2.9608    1.9840    0.7566 H   0  0  0  0  0  0  0  0  0  0  0  0
    2.6561    3.3342    3.3626 H   0  0  0  0  0  0  0  0  0  0  0  0
    1.5489    1.9624    3.1081 H   0  0  0  0  0  0  0  0  0  0  0  0
    3.3061    1.7095    3.0615 H   0  0  0  0  0  0  0  0  0  0  0  0
  1  2  2  0  0  0  0
  1  3  1  0  0  0  0
  1  7  1  0  0  0  0
  3  4  1  0  0  0  0
  3  5  1  0  0  0  0
  3  6  1  0  0  0  0
  7  8  1  0  0  0  0
  7 12  1  0  0  0  0
  8  9  1  0  0  0  0
  8 11  1  0  0  0  0
  8 13  1  0  0  0  0
  9 10  2  0  0  0  0
  9 17  1  0  0  0  0
 11 14  1  0  0  0  0
 11 15  1  0  0  0  0
 11 16  1  0  0  0  0
 17 18  1  0  0  0  0
 17 28  1  0  0  0  0
 18 19  1  0  0  0  0
 18 21  1  0  0  0  0
 18 29  1  0  0  0  0
 19 20  2  0  0  0  0
 19 37  1  0  0  0  0
 21 22  1  0  0  0  0
 21 30  1  0  0  0  0
 21 31  1  0  0  0  0
 22 23  1  0  0  0  0
 22 24  2  0  0  0  0
 23 25  2  0  0  0  0
 23 32  1  0  0  0  0
 24 26  1  0  0  0  0
 24 33  1  0  0  0  0
 25 27  1  0  0  0  0
 25 34  1  0  0  0  0
 26 27  2  0  0  0  0
 26 35  1  0  0  0  0
 27 36  1  0  0  0  0
 37 38  1  0  0  0  0
 37 42  1  0  0  0  0
 38 39  1  0  0  0  0
 38 41  1  0  0  0  0
 38 43  1  0  0  0  0
 39 40  2  0  0  0  0
 39 47  1  0  0  0  0
 41 44  1  0  0  0  0
 41 45  1  0  0  0  0
 41 46  1  0  0  0  0
 47 48  1  0  0  0  0
 47 49  1  0  0  0  0
 48 50  1  0  0  0  0
 48 51  1  0  0  0  0
 48 52  1  0  0  0  0
M  END
$$$$
