
  -OEChem-02062319033D

 52 52  0     1  0  0  0  0  0999 V2000
   -1.8248    0.3424    3.9102 C   0  0  0  0  0  0  0  0  0  0  0  0
   -0.8774   -0.2723    3.4345 O   0  0  0  0  0  0  0  0  0  0  0  0
   -2.2566    0.0600    5.3109 C   0  0  0  0  0  0  0  0  0  0  0  0
   -3.0163   -0.7363    5.3643 H   0  0  0  0  0  0  0  0  0  0  0  0
   -1.4254   -0.2876    5.9452 H   0  0  0  0  0  0  0  0  0  0  0  0
   -2.6947    0.9149    5.8505 H   0  0  0  0  0  0  0  0  0  0  0  0
   -2.5745    1.3149    3.2691 N   0  0  0  0  0  0  0  0  0  0  0  0
   -2.3276    1.7409    1.9167 C   0  0  2  0  0  0  0  0  0  0  0  0
   -0.9926    1.1555    1.4755 C   0  0  0  0  0  0  0  0  0  0  0  0
   -0.1206    0.8028    2.2668 O   0  0  0  0  0  0  0  0  0  0  0  0
   -2.3188    3.2577    1.8072 C   0  0  0  0  0  0  0  0  0  0  0  0
   -3.3395    1.7507    3.7809 H   0  0  0  0  0  0  0  0  0  0  0  0
   -3.1317    1.3224    1.3015 H   0  0  0  0  0  0  0  0  0  0  0  0
   -1.5198    3.6949    2.4169 H   0  0  0  0  0  0  0  0  0  0  0  0
   -2.1594    3.5799    0.7729 H   0  0  0  0  0  0  0  0  0  0  0  0
   -3.2690    3.6789    2.1530 H   0  0  0  0  0  0  0  0  0  0  0  0
   -0.8700    1.1124    0.0921 N   0  0  0  0  0  0  0  0  0  0  0  0
    0.3025    0.6005   -0.5717 C   0  0  2  0  0  0  0  0  0  0  0  0
    1.4833    1.4546   -0.1239 C   0  0  0  0  0  0  0  0  0  0  0  0
    2.5773    0.9802    0.1743 O   0  0  0  0  0  0  0  0  0  0  0  0
    0.1664    0.6378   -2.0982 C   0  0  0  0  0  0  0  0  0  0  0  0
   -0.8878   -0.3114   -2.6135 C   0  0  0  0  0  0  0  0  0  0  0  0
   -0.5918   -1.6656   -2.7691 C   0  0  0  0  0  0  0  0  0  0  0  0
   -2.1587    0.1660   -2.9339 C   0  0  0  0  0  0  0  0  0  0  0  0
   -1.5666   -2.5424   -3.2452 C   0  0  0  0  0  0  0  0  0  0  0  0
   -3.1334   -0.7108   -3.4100 C   0  0  0  0  0  0  0  0  0  0  0  0
   -2.8374   -2.0650   -3.5656 C   0  0  0  0  0  0  0  0  0  0  0  0
   -1.6500    1.4174   -0.4852 H   0  0  0  0  0  0  0  0  0  0  0  0
    0.4436   -0.4248   -0.2100 H   0  0  0  0  0  0  0  0  0  0  0  0
    1.1311    0.4109   -2.5718 H   0  0  0  0  0  0  0  0  0  0  0  0
   -0.0887    1.6511   -2.4358 H   0  0  0  0  0  0  0  0  0  0  0  0
    0.3957   -2.0465   -2.5218 H   0  0  0  0  0  0  0  0  0  0  0  0
   -2.3984    1.2194   -2.8158 H   0  0  0  0  0  0  0  0  0  0  0  0
   -1.3355   -3.5966   -3.3673 H   0  0  0  0  0  0  0  0  0  0  0  0
   -4.1224   -0.3386   -3.6604 H   0  0  0  0  0  0  0  0  0  0  0  0
   -3.5959   -2.7476   -3.9375 H   0  0  0  0  0  0  0  0  0  0  0  0
    1.1825    2.8094   -0.1460 N   0  0  0  0  0  0  0  0  0  0  0  0
    2.1321    3.8390    0.2104 C   0  0  2  0  0  0  0  0  0  0  0  0
    2.7490    3.4658    1.5519 C   0  0  0  0  0  0  0  0  0  0  0  0
    2.2037    2.7107    2.3542 O   0  0  0  0  0  0  0  0  0  0  0  0
    1.4674    5.2051    0.2790 C   0  0  0  0  0  0  0  0  0  0  0  0
    0.2480    3.0915   -0.4268 H   0  0  0  0  0  0  0  0  0  0  0  0
    2.9081    3.8349   -0.5628 H   0  0  0  0  0  0  0  0  0  0  0  0
    0.6869    5.2285    1.0483 H   0  0  0  0  0  0  0  0  0  0  0  0
    2.1936    5.9880    0.5211 H   0  0  0  0  0  0  0  0  0  0  0  0
    0.9985    5.4589   -0.6779 H   0  0  0  0  0  0  0  0  0  0  0  0
    3.9599    4.1091    1.7665 N   0  0  0  0  0  0  0  0  0  0  0  0
    4.7353    3.9296    2.9717 C   0  0  0  0  0  0  0  0  0  0  0  0
    4.3460    4.7032    1.0387 H   0  0  0  0  0  0  0  0  0  0  0  0
    4.4647    4.7068    3.7016 H   0  0  0  0  0  0  0  0  0  0  0  0
    4.5256    2.9374    3.3981 H   0  0  0  0  0  0  0  0  0  0  0  0
    5.8063    4.0074    2.7335 H   0  0  0  0  0  0  0  0  0  0  0  0
 25 27  1  0  0  0  0
 26 27  2  0  0  0  0
 23 25  2  0  0  0  0
 24 26  1  0  0  0  0
 22 23  1  0  0  0  0
 22 24  2  0  0  0  0
 21 22  1  0  0  0  0
  1  3  1  0  0  0  0
  1  7  1  0  0  0  0
  1  2  2  0  0  0  0
 38 39  1  0  0  0  0
 39 47  1  0  0  0  0
 39 40  2  0  0  0  0
  8  9  1  0  0  0  0
  9 17  1  0  0  0  0
  9 10  2  0  0  0  0
 18 19  1  0  0  0  0
 19 37  1  0  0  0  0
 19 20  2  0  0  0  0
 38 41  1  0  0  0  0
  8 11  1  0  0  0  0
 47 48  1  0  0  0  0
 18 21  1  0  0  0  0
 37 38  1  0  0  0  0
  7  8  1  0  0  0  0
 17 18  1  0  0  0  0
 27 36  1  0  0  0  0
 25 34  1  0  0  0  0
 26 35  1  0  0  0  0
 23 32  1  0  0  0  0
 24 33  1  0  0  0  0
  3  4  1  0  0  0  0
  3  5  1  0  0  0  0
  3  6  1  0  0  0  0
 41 44  1  0  0  0  0
 41 45  1  0  0  0  0
 41 46  1  0  0  0  0
 11 14  1  0  0  0  0
 11 15  1  0  0  0  0
 11 16  1  0  0  0  0
 48 50  1  0  0  0  0
 48 51  1  0  0  0  0
 48 52  1  0  0  0  0
 21 30  1  0  0  0  0
 21 31  1  0  0  0  0
 38 43  1  0  0  0  0
  8 13  1  0  0  0  0
 18 29  1  0  0  0  0
 47 49  1  0  0  0  0
  7 12  1  0  0  0  0
 37 42  1  0  0  0  0
 17 28  1  0  0  0  0
M  END
$$$$

  -OEChem-02062319033D

 52 52  0     1  0  0  0  0  0999 V2000
   -1.8248    0.3424    3.9102 C   0  0  0  0  0  0  0  0  0  0  0  0
   -0.8774   -0.2723    3.4345 O   0  0  0  0  0  0  0  0  0  0  0  0
   -2.2566    0.0600    5.3109 C   0  0  0  0  0  0  0  0  0  0  0  0
   -3.0163   -0.7363    5.3643 H   0  0  0  0  0  0  0  0  0  0  0  0
   -1.4254   -0.2876    5.9452 H   0  0  0  0  0  0  0  0  0  0  0  0
   -2.6947    0.9149    5.8505 H   0  0  0  0  0  0  0  0  0  0  0  0
   -2.5745    1.3149    3.2691 N   0  0  0  0  0  0  0  0  0  0  0  0
   -2.3276    1.7409    1.9167 C   0  0  2  0  0  0  0  0  0  0  0  0
   -0.9926    1.1555    1.4755 C   0  0  0  0  0  0  0  0  0  0  0  0
   -0.1206    0.8028    2.2668 O   0  0  0  0  0  0  0  0  0  0  0  0
   -2.3188    3.2577    1.8072 C   0  0  0  0  0  0  0  0  0  0  0  0
   -3.3395    1.7507    3.7809 H   0  0  0  0  0  0  0  0  0  0  0  0
   -3.1317    1.3224    1.3015 H   0  0  0  0  0  0  0  0  0  0  0  0
   -1.5198    3.6949    2.4169 H   0  0  0  0  0  0  0  0  0  0  0  0
   -2.1594    3.5799    0.7729 H   0  0  0  0  0  0  0  0  0  0  0  0
   -3.2690    3.6789    2.1530 H   0  0  0  0  0  0  0  0  0  0  0  0
   -0.8700    1.1124    0.0921 N   0  0  0  0  0  0  0  0  0  0  0  0
    0.1383    0.3302   -0.5778 C   0  0  2  0  0  0  0  0  0  0  0  0
    1.4942    0.8410   -0.1038 C   0  0  0  0  0  0  0  0  0  0  0  0
    2.4258    0.0942    0.1885 O   0  0  0  0  0  0  0  0  0  0  0  0
    0.0332    0.4346   -2.1036 C   0  0  0  0  0  0  0  0  0  0  0  0
   -1.2241   -0.1993   -2.6468 C   0  0  0  0  0  0  0  0  0  0  0  0
   -1.2852   -1.5804   -2.8332 C   0  0  0  0  0  0  0  0  0  0  0  0
   -2.3255    0.5964   -2.9621 C   0  0  0  0  0  0  0  0  0  0  0  0
   -2.4476   -2.1657   -3.3350 C   0  0  0  0  0  0  0  0  0  0  0  0
   -3.4880    0.0111   -3.4639 C   0  0  0  0  0  0  0  0  0  0  0  0
   -3.5490   -1.3700   -3.6503 C   0  0  0  0  0  0  0  0  0  0  0  0
   -1.5387    1.6206   -0.4817 H   0  0  0  0  0  0  0  0  0  0  0  0
    0.0066   -0.7045   -0.2400 H   0  0  0  0  0  0  0  0  0  0  0  0
    0.9121   -0.0230   -2.5777 H   0  0  0  0  0  0  0  0  0  0  0  0
    0.0515    1.4864   -2.4183 H   0  0  0  0  0  0  0  0  0  0  0  0
   -0.4320   -2.2082   -2.5901 H   0  0  0  0  0  0  0  0  0  0  0  0
   -2.2871    1.6732   -2.8200 H   0  0  0  0  0  0  0  0  0  0  0  0
   -2.4946   -3.2409   -3.4811 H   0  0  0  0  0  0  0  0  0  0  0  0
   -4.3449    0.6310   -3.7103 H   0  0  0  0  0  0  0  0  0  0  0  0
   -4.4536   -1.8257   -4.0423 H   0  0  0  0  0  0  0  0  0  0  0  0
    1.5529    2.2277   -0.0950 N   0  0  0  0  0  0  0  0  0  0  0  0
    2.7316    2.9697    0.2907 C   0  0  2  0  0  0  0  0  0  0  0  0
    3.2168    2.4210    1.6260 C   0  0  0  0  0  0  0  0  0  0  0  0
    2.4866    1.8147    2.4072 O   0  0  0  0  0  0  0  0  0  0  0  0
    2.4405    4.4592    0.3885 C   0  0  0  0  0  0  0  0  0  0  0  0
    0.7257    2.7472   -0.3737 H   0  0  0  0  0  0  0  0  0  0  0  0
    3.4889    2.7826   -0.4785 H   0  0  0  0  0  0  0  0  0  0  0  0
    1.6840    4.6662    1.1542 H   0  0  0  0  0  0  0  0  0  0  0  0
    3.3412    5.0230    0.6529 H   0  0  0  0  0  0  0  0  0  0  0  0
    2.0635    4.8460   -0.5644 H   0  0  0  0  0  0  0  0  0  0  0  0
    4.5501    2.7256    1.8620 N   0  0  0  0  0  0  0  0  0  0  0  0
    5.2397    2.3260    3.0664 C   0  0  0  0  0  0  0  0  0  0  0  0
    5.0842    3.2157    1.1505 H   0  0  0  0  0  0  0  0  0  0  0  0
    5.1704    3.1306    3.8133 H   0  0  0  0  0  0  0  0  0  0  0  0
    4.7769    1.4124    3.4679 H   0  0  0  0  0  0  0  0  0  0  0  0
    6.2972    2.1303    2.8355 H   0  0  0  0  0  0  0  0  0  0  0  0
 25 27  1  0  0  0  0
 26 27  2  0  0  0  0
 23 25  2  0  0  0  0
 24 26  1  0  0  0  0
 22 23  1  0  0  0  0
 22 24  2  0  0  0  0
 21 22  1  0  0  0  0
  1  3  1  0  0  0  0
  1  7  1  0  0  0  0
  1  2  2  0  0  0  0
 38 39  1  0  0  0  0
 39 47  1  0  0  0  0
 39 40  2  0  0  0  0
  8  9  1  0  0  0  0
  9 17  1  0  0  0  0
  9 10  2  0  0  0  0
 18 19  1  0  0  0  0
 19 37  1  0  0  0  0
 19 20  2  0  0  0  0
 38 41  1  0  0  0  0
  8 11  1  0  0  0  0
 47 48  1  0  0  0  0
 18 21  1  0  0  0  0
 37 38  1  0  0  0  0
  7  8  1  0  0  0  0
 17 18  1  0  0  0  0
 27 36  1  0  0  0  0
 25 34  1  0  0  0  0
 26 35  1  0  0  0  0
 23 32  1  0  0  0  0
 24 33  1  0  0  0  0
  3  4  1  0  0  0  0
  3  5  1  0  0  0  0
  3  6  1  0  0  0  0
 41 44  1  0  0  0  0
 41 45  1  0  0  0  0
 41 46  1  0  0  0  0
 11 14  1  0  0  0  0
 11 15  1  0  0  0  0
 11 16  1  0  0  0  0
 48 50  1  0  0  0  0
 48 51  1  0  0  0  0
 48 52  1  0  0  0  0
 21 30  1  0  0  0  0
 21 31  1  0  0  0  0
 38 43  1  0  0  0  0
  8 13  1  0  0  0  0
 18 29  1  0  0  0  0
 47 49  1  0  0  0  0
  7 12  1  0  0  0  0
 37 42  1  0  0  0  0
 17 28  1  0  0  0  0
M  END
$$$$

  -OEChem-02062319033D

 52 52  0     1  0  0  0  0  0999 V2000
   -1.8248    0.3424    3.9102 C   0  0  0  0  0  0  0  0  0  0  0  0
   -0.8774   -0.2723    3.4345 O   0  0  0  0  0  0  0  0  0  0  0  0
   -2.2566    0.0600    5.3109 C   0  0  0  0  0  0  0  0  0  0  0  0
   -3.0163   -0.7363    5.3643 H   0  0  0  0  0  0  0  0  0  0  0  0
   -1.4254   -0.2876    5.9452 H   0  0  0  0  0  0  0  0  0  0  0  0
   -2.6947    0.9149    5.8505 H   0  0  0  0  0  0  0  0  0  0  0  0
   -2.5745    1.3149    3.2691 N   0  0  0  0  0  0  0  0  0  0  0  0
   -2.3276    1.7409    1.9167 C   0  0  2  0  0  0  0  0  0  0  0  0
   -0.9926    1.1555    1.4755 C   0  0  0  0  0  0  0  0  0  0  0  0
   -0.1206    0.8028    2.2668 O   0  0  0  0  0  0  0  0  0  0  0  0
   -2.3188    3.2577    1.8072 C   0  0  0  0  0  0  0  0  0  0  0  0
   -3.3395    1.7507    3.7809 H   0  0  0  0  0  0  0  0  0  0  0  0
   -3.1317    1.3224    1.3015 H   0  0  0  0  0  0  0  0  0  0  0  0
   -1.5198    3.6949    2.4169 H   0  0  0  0  0  0  0  0  0  0  0  0
   -2.1594    3.5799    0.7729 H   0  0  0  0  0  0  0  0  0  0  0  0
   -3.2690    3.6789    2.1530 H   0  0  0  0  0  0  0  0  0  0  0  0
   -0.8700    1.1124    0.0921 N   0  0  0  0  0  0  0  0  0  0  0  0
   -0.0899    0.1115   -0.5912 C   0  0  2  0  0  0  0  0  0  0  0  0
    1.3466    0.2451   -0.0983 C   0  0  0  0  0  0  0  0  0  0  0  0
    2.0510   -0.7228    0.1807 O   0  0  0  0  0  0  0  0  0  0  0  0
   -0.1477    0.2727   -2.1146 C   0  0  0  0  0  0  0  0  0  0  0  0
   -1.5198   -0.0037   -2.6791 C   0  0  0  0  0  0  0  0  0  0  0  0
   -1.9325   -1.3179   -2.8988 C   0  0  0  0  0  0  0  0  0  0  0  0
   -2.3756    1.0557   -2.9809 C   0  0  0  0  0  0  0  0  0  0  0  0
   -3.2009   -1.5727   -3.4203 C   0  0  0  0  0  0  0  0  0  0  0  0
   -3.6439    0.8009   -3.5024 C   0  0  0  0  0  0  0  0  0  0  0  0
   -4.0566   -0.5133   -3.7220 C   0  0  0  0  0  0  0  0  0  0  0  0
   -1.3788    1.7882   -0.4727 H   0  0  0  0  0  0  0  0  0  0  0  0
   -0.4874   -0.8614   -0.2789 H   0  0  0  0  0  0  0  0  0  0  0  0
    0.5888   -0.3856   -2.5950 H   0  0  0  0  0  0  0  0  0  0  0  0
    0.1443    1.2909   -2.4039 H   0  0  0  0  0  0  0  0  0  0  0  0
   -1.2726   -2.1496   -2.6665 H   0  0  0  0  0  0  0  0  0  0  0  0
   -2.0626    2.0828   -2.8129 H   0  0  0  0  0  0  0  0  0  0  0  0
   -3.5217   -2.5960   -3.5923 H   0  0  0  0  0  0  0  0  0  0  0  0
   -4.3095    1.6260   -3.7382 H   0  0  0  0  0  0  0  0  0  0  0  0
   -5.0437   -0.7118   -4.1293 H   0  0  0  0  0  0  0  0  0  0  0  0
    1.7603    1.5693   -0.0561 N   0  0  0  0  0  0  0  0  0  0  0  0
    3.0861    1.9738    0.3531 C   0  0  2  0  0  0  0  0  0  0  0  0
    3.3988    1.2896    1.6774 C   0  0  0  0  0  0  0  0  0  0  0  0
    2.5285    0.8751    2.4402 O   0  0  0  0  0  0  0  0  0  0  0  0
    3.1874    3.4854    0.4851 C   0  0  0  0  0  0  0  0  0  0  0  0
    1.0980    2.2904   -0.3265 H   0  0  0  0  0  0  0  0  0  0  0  0
    3.7780    1.6146   -0.4165 H   0  0  0  0  0  0  0  0  0  0  0  0
    2.5013    3.8637    1.2517 H   0  0  0  0  0  0  0  0  0  0  0  0
    4.2000    3.7921    0.7674 H   0  0  0  0  0  0  0  0  0  0  0  0
    2.9333    3.9770   -0.4602 H   0  0  0  0  0  0  0  0  0  0  0  0
    4.7628    1.2349    1.9273 N   0  0  0  0  0  0  0  0  0  0  0  0
    5.3129    0.6449    3.1253 C   0  0  0  0  0  0  0  0  0  0  0  0
    5.4130    1.5862    1.2304 H   0  0  0  0  0  0  0  0  0  0  0  0
    5.4450    1.4237    3.8909 H   0  0  0  0  0  0  0  0  0  0  0  0
    4.6260   -0.1270    3.5025 H   0  0  0  0  0  0  0  0  0  0  0  0
    6.2869    0.1883    2.8952 H   0  0  0  0  0  0  0  0  0  0  0  0
 25 27  1  0  0  0  0
 26 27  2  0  0  0  0
 23 25  2  0  0  0  0
 24 26  1  0  0  0  0
 22 23  1  0  0  0  0
 22 24  2  0  0  0  0
 21 22  1  0  0  0  0
  1  3  1  0  0  0  0
  1  7  1  0  0  0  0
  1  2  2  0  0  0  0
 38 39  1  0  0  0  0
 39 47  1  0  0  0  0
 39 40  2  0  0  0  0
  8  9  1  0  0  0  0
  9 17  1  0  0  0  0
  9 10  2  0  0  0  0
 18 19  1  0  0  0  0
 19 37  1  0  0  0  0
 19 20  2  0  0  0  0
 38 41  1  0  0  0  0
  8 11  1  0  0  0  0
 47 48  1  0  0  0  0
 18 21  1  0  0  0  0
 37 38  1  0  0  0  0
  7  8  1  0  0  0  0
 17 18  1  0  0  0  0
 27 36  1  0  0  0  0
 25 34  1  0  0  0  0
 26 35  1  0  0  0  0
 23 32  1  0  0  0  0
 24 33  1  0  0  0  0
  3  4  1  0  0  0  0
  3  5  1  0  0  0  0
  3  6  1  0  0  0  0
 41 44  1  0  0  0  0
 41 45  1  0  0  0  0
 41 46  1  0  0  0  0
 11 14  1  0  0  0  0
 11 15  1  0  0  0  0
 11 16  1  0  0  0  0
 48 50  1  0  0  0  0
 48 51  1  0  0  0  0
 48 52  1  0  0  0  0
 21 30  1  0  0  0  0
 21 31  1  0  0  0  0
 38 43  1  0  0  0  0
  8 13  1  0  0  0  0
 18 29  1  0  0  0  0
 47 49  1  0  0  0  0
  7 12  1  0  0  0  0
 37 42  1  0  0  0  0
 17 28  1  0  0  0  0
M  END
$$$$

  -OEChem-02062319033D

 52 52  0     1  0  0  0  0  0999 V2000
   -1.8248    0.3424    3.9102 C   0  0  0  0  0  0  0  0  0  0  0  0
   -0.8774   -0.2723    3.4345 O   0  0  0  0  0  0  0  0  0  0  0  0
   -2.2566    0.0600    5.3109 C   0  0  0  0  0  0  0  0  0  0  0  0
   -3.0163   -0.7363    5.3643 H   0  0  0  0  0  0  0  0  0  0  0  0
   -1.4254   -0.2876    5.9452 H   0  0  0  0  0  0  0  0  0  0  0  0
   -2.6947    0.9149    5.8505 H   0  0  0  0  0  0  0  0  0  0  0  0
   -2.5745    1.3149    3.2691 N   0  0  0  0  0  0  0  0  0  0  0  0
   -2.3276    1.7409    1.9167 C   0  0  2  0  0  0  0  0  0  0  0  0
   -0.9926    1.1555    1.4755 C   0  0  0  0  0  0  0  0  0  0  0  0
   -0.1206    0.8028    2.2668 O   0  0  0  0  0  0  0  0  0  0  0  0
   -2.3188    3.2577    1.8072 C   0  0  0  0  0  0  0  0  0  0  0  0
   -3.3395    1.7507    3.7809 H   0  0  0  0  0  0  0  0  0  0  0  0
   -3.1317    1.3224    1.3015 H   0  0  0  0  0  0  0  0  0  0  0  0
   -1.5198    3.6949    2.4169 H   0  0  0  0  0  0  0  0  0  0  0  0
   -2.1594    3.5799    0.7729 H   0  0  0  0  0  0  0  0  0  0  0  0
   -3.2690    3.6789    2.1530 H   0  0  0  0  0  0  0  0  0  0  0  0
   -0.8700    1.1124    0.0921 N   0  0  0  0  0  0  0  0  0  0  0  0
   -0.3666   -0.0406   -0.6110 C   0  0  2  0  0  0  0  0  0  0  0  0
    1.0503   -0.2926   -0.1078 C   0  0  0  0  0  0  0  0  0  0  0  0
    1.4785   -1.4152    0.1515 O   0  0  0  0  0  0  0  0  0  0  0  0
   -0.3641    0.1632   -2.1304 C   0  0  0  0  0  0  0  0  0  0  0  0
   -1.7548    0.2622   -2.7082 C   0  0  0  0  0  0  0  0  0  0  0  0
   -2.4897   -0.8961   -2.9613 C   0  0  0  0  0  0  0  0  0  0  0  0
   -2.3054    1.5127   -2.9889 C   0  0  0  0  0  0  0  0  0  0  0  0
   -3.7750   -0.8039   -3.4952 C   0  0  0  0  0  0  0  0  0  0  0  0
   -3.5908    1.6049   -3.5227 C   0  0  0  0  0  0  0  0  0  0  0  0
   -4.3256    0.4466   -3.7758 C   0  0  0  0  0  0  0  0  0  0  0  0
   -1.1813    1.9087   -0.4589 H   0  0  0  0  0  0  0  0  0  0  0  0
   -1.0047   -0.8847   -0.3241 H   0  0  0  0  0  0  0  0  0  0  0  0
    0.1833   -0.6521   -2.6227 H   0  0  0  0  0  0  0  0  0  0  0  0
    0.1835    1.0777   -2.3938 H   0  0  0  0  0  0  0  0  0  0  0  0
   -2.0688   -1.8747   -2.7456 H   0  0  0  0  0  0  0  0  0  0  0  0
   -1.7403    2.4205   -2.7949 H   0  0  0  0  0  0  0  0  0  0  0  0
   -4.3466   -1.7059   -3.6932 H   0  0  0  0  0  0  0  0  0  0  0  0
   -4.0187    2.5786   -3.7421 H   0  0  0  0  0  0  0  0  0  0  0  0
   -5.3259    0.5182   -4.1927 H   0  0  0  0  0  0  0  0  0  0  0  0
    1.7907    0.8789   -0.0319 N   0  0  0  0  0  0  0  0  0  0  0  0
    3.1714    0.9190    0.3936 C   0  0  2  0  0  0  0  0  0  0  0  0
    3.2826    0.1486    1.7026 C   0  0  0  0  0  0  0  0  0  0  0  0
    2.3265   -0.0440    2.4509 O   0  0  0  0  0  0  0  0  0  0  0  0
    3.6571    2.3502    0.5621 C   0  0  0  0  0  0  0  0  0  0  0  0
    1.3395    1.7521   -0.2883 H   0  0  0  0  0  0  0  0  0  0  0  0
    3.7558    0.4105   -0.3809 H   0  0  0  0  0  0  0  0  0  0  0  0
    3.0833    2.8757    1.3341 H   0  0  0  0  0  0  0  0  0  0  0  0
    4.7114    2.3792    0.8568 H   0  0  0  0  0  0  0  0  0  0  0  0
    3.5487    2.9112   -0.3724 H   0  0  0  0  0  0  0  0  0  0  0  0
    4.5837   -0.2613    1.9580 N   0  0  0  0  0  0  0  0  0  0  0  0
    4.9500   -0.9991    3.1444 C   0  0  0  0  0  0  0  0  0  0  0  0
    5.3101   -0.0743    1.2730 H   0  0  0  0  0  0  0  0  0  0  0  0
    5.2698   -0.2975    3.9290 H   0  0  0  0  0  0  0  0  0  0  0  0
    4.0833   -1.5759    3.4995 H   0  0  0  0  0  0  0  0  0  0  0  0
    5.7759   -1.6862    2.9083 H   0  0  0  0  0  0  0  0  0  0  0  0
 25 27  1  0  0  0  0
 26 27  2  0  0  0  0
 23 25  2  0  0  0  0
 24 26  1  0  0  0  0
 22 23  1  0  0  0  0
 22 24  2  0  0  0  0
 21 22  1  0  0  0  0
  1  3  1  0  0  0  0
  1  7  1  0  0  0  0
  1  2  2  0  0  0  0
 38 39  1  0  0  0  0
 39 47  1  0  0  0  0
 39 40  2  0  0  0  0
  8  9  1  0  0  0  0
  9 17  1  0  0  0  0
  9 10  2  0  0  0  0
 18 19  1  0  0  0  0
 19 37  1  0  0  0  0
 19 20  2  0  0  0  0
 38 41  1  0  0  0  0
  8 11  1  0  0  0  0
 47 48  1  0  0  0  0
 18 21  1  0  0  0  0
 37 38  1  0  0  0  0
  7  8  1  0  0  0  0
 17 18  1  0  0  0  0
 27 36  1  0  0  0  0
 25 34  1  0  0  0  0
 26 35  1  0  0  0  0
 23 32  1  0  0  0  0
 24 33  1  0  0  0  0
  3  4  1  0  0  0  0
  3  5  1  0  0  0  0
  3  6  1  0  0  0  0
 41 44  1  0  0  0  0
 41 45  1  0  0  0  0
 41 46  1  0  0  0  0
 11 14  1  0  0  0  0
 11 15  1  0  0  0  0
 11 16  1  0  0  0  0
 48 50  1  0  0  0  0
 48 51  1  0  0  0  0
 48 52  1  0  0  0  0
 21 30  1  0  0  0  0
 21 31  1  0  0  0  0
 38 43  1  0  0  0  0
  8 13  1  0  0  0  0
 18 29  1  0  0  0  0
 47 49  1  0  0  0  0
  7 12  1  0  0  0  0
 37 42  1  0  0  0  0
 17 28  1  0  0  0  0
M  END
$$$$

  -OEChem-02062319033D

 52 52  0     1  0  0  0  0  0999 V2000
   -1.8248    0.3424    3.9102 C   0  0  0  0  0  0  0  0  0  0  0  0
   -0.8774   -0.2723    3.4345 O   0  0  0  0  0  0  0  0  0  0  0  0
   -2.2566    0.0600    5.3109 C   0  0  0  0  0  0  0  0  0  0  0  0
   -3.0163   -0.7363    5.3643 H   0  0  0  0  0  0  0  0  0  0  0  0
   -1.4254   -0.2876    5.9452 H   0  0  0  0  0  0  0  0  0  0  0  0
   -2.6947    0.9149    5.8505 H   0  0  0  0  0  0  0  0  0  0  0  0
   -2.5745    1.3149    3.2691 N   0  0  0  0  0  0  0  0  0  0  0  0
   -2.3276    1.7409    1.9167 C   0  0  2  0  0  0  0  0  0  0  0  0
   -0.9926    1.1555    1.4755 C   0  0  0  0  0  0  0  0  0  0  0  0
   -0.1206    0.8028    2.2668 O   0  0  0  0  0  0  0  0  0  0  0  0
   -2.3188    3.2577    1.8072 C   0  0  0  0  0  0  0  0  0  0  0  0
   -3.3395    1.7507    3.7809 H   0  0  0  0  0  0  0  0  0  0  0  0
   -3.1317    1.3224    1.3015 H   0  0  0  0  0  0  0  0  0  0  0  0
   -1.5198    3.6949    2.4169 H   0  0  0  0  0  0  0  0  0  0  0  0
   -2.1594    3.5799    0.7729 H   0  0  0  0  0  0  0  0  0  0  0  0
   -3.2690    3.6789    2.1530 H   0  0  0  0  0  0  0  0  0  0  0  0
   -0.8700    1.1124    0.0921 N   0  0  0  0  0  0  0  0  0  0  0  0
   -0.6728   -0.1158   -0.6358 C   0  0  2  0  0  0  0  0  0  0  0  0
    0.6257   -0.7354   -0.1317 C   0  0  0  0  0  0  0  0  0  0  0  0
    0.7474   -1.9358    0.1029 O   0  0  0  0  0  0  0  0  0  0  0  0
   -0.6012    0.1135   -2.1499 C   0  0  0  0  0  0  0  0  0  0  0  0
   -1.9130    0.5803   -2.7321 C   0  0  0  0  0  0  0  0  0  0  0  0
   -2.9186   -0.3437   -3.0166 C   0  0  0  0  0  0  0  0  0  0  0  0
   -2.1198    1.9362   -2.9856 C   0  0  0  0  0  0  0  0  0  0  0  0
   -4.1309    0.0884   -3.5545 C   0  0  0  0  0  0  0  0  0  0  0  0
   -3.3321    2.3683   -3.5236 C   0  0  0  0  0  0  0  0  0  0  0  0
   -4.3376    1.4443   -3.8079 C   0  0  0  0  0  0  0  0  0  0  0  0
   -0.9596    1.9738   -0.4413 H   0  0  0  0  0  0  0  0  0  0  0  0
   -1.5100   -0.7729   -0.3723 H   0  0  0  0  0  0  0  0  0  0  0  0
   -0.2769   -0.8043   -2.6588 H   0  0  0  0  0  0  0  0  0  0  0  0
    0.1664    0.8615   -2.3886 H   0  0  0  0  0  0  0  0  0  0  0  0
   -2.7665   -1.4021   -2.8222 H   0  0  0  0  0  0  0  0  0  0  0  0
   -1.3421    2.6633   -2.7671 H   0  0  0  0  0  0  0  0  0  0  0  0
   -4.9134   -0.6313   -3.7769 H   0  0  0  0  0  0  0  0  0  0  0  0
   -3.4923    3.4239   -3.7218 H   0  0  0  0  0  0  0  0  0  0  0  0
   -5.2811    1.7804   -4.2281 H   0  0  0  0  0  0  0  0  0  0  0  0
    1.6420    0.2037   -0.0240 N   0  0  0  0  0  0  0  0  0  0  0  0
    2.9816   -0.1228    0.4092 C   0  0  2  0  0  0  0  0  0  0  0  0
    2.8762   -0.9241    1.7000 C   0  0  0  0  0  0  0  0  0  0  0  0
    1.8946   -0.8801    2.4387 O   0  0  0  0  0  0  0  0  0  0  0  0
    3.8177    1.1308    0.6144 C   0  0  0  0  0  0  0  0  0  0  0  0
    1.4338    1.1691   -0.2618 H   0  0  0  0  0  0  0  0  0  0  0  0
    3.4238   -0.7478   -0.3743 H   0  0  0  0  0  0  0  0  0  0  0  0
    3.3901    1.7696    1.3958 H   0  0  0  0  0  0  0  0  0  0  0  0
    4.8405    0.8807    0.9149 H   0  0  0  0  0  0  0  0  0  0  0  0
    3.8677    1.7210   -0.3070 H   0  0  0  0  0  0  0  0  0  0  0  0
    4.0249   -1.6610    1.9521 N   0  0  0  0  0  0  0  0  0  0  0  0
    4.1757   -2.4940    3.1223 C   0  0  0  0  0  0  0  0  0  0  0  0
    4.7824   -1.6527    1.2754 H   0  0  0  0  0  0  0  0  0  0  0  0
    4.6568   -1.9158    3.9251 H   0  0  0  0  0  0  0  0  0  0  0  0
    3.1858   -2.8355    3.4592 H   0  0  0  0  0  0  0  0  0  0  0  0
    4.7993   -3.3655    2.8740 H   0  0  0  0  0  0  0  0  0  0  0  0
 25 27  1  0  0  0  0
 26 27  2  0  0  0  0
 23 25  2  0  0  0  0
 24 26  1  0  0  0  0
 22 23  1  0  0  0  0
 22 24  2  0  0  0  0
 21 22  1  0  0  0  0
  1  3  1  0  0  0  0
  1  7  1  0  0  0  0
  1  2  2  0  0  0  0
 38 39  1  0  0  0  0
 39 47  1  0  0  0  0
 39 40  2  0  0  0  0
  8  9  1  0  0  0  0
  9 17  1  0  0  0  0
  9 10  2  0  0  0  0
 18 19  1  0  0  0  0
 19 37  1  0  0  0  0
 19 20  2  0  0  0  0
 38 41  1  0  0  0  0
  8 11  1  0  0  0  0
 47 48  1  0  0  0  0
 18 21  1  0  0  0  0
 37 38  1  0  0  0  0
  7  8  1  0  0  0  0
 17 18  1  0  0  0  0
 27 36  1  0  0  0  0
 25 34  1  0  0  0  0
 26 35  1  0  0  0  0
 23 32  1  0  0  0  0
 24 33  1  0  0  0  0
  3  4  1  0  0  0  0
  3  5  1  0  0  0  0
  3  6  1  0  0  0  0
 41 44  1  0  0  0  0
 41 45  1  0  0  0  0
 41 46  1  0  0  0  0
 11 14  1  0  0  0  0
 11 15  1  0  0  0  0
 11 16  1  0  0  0  0
 48 50  1  0  0  0  0
 48 51  1  0  0  0  0
 48 52  1  0  0  0  0
 21 30  1  0  0  0  0
 21 31  1  0  0  0  0
 38 43  1  0  0  0  0
  8 13  1  0  0  0  0
 18 29  1  0  0  0  0
 47 49  1  0  0  0  0
  7 12  1  0  0  0  0
 37 42  1  0  0  0  0
 17 28  1  0  0  0  0
M  END
$$$$

  -OEChem-02062319033D

 52 52  0     1  0  0  0  0  0999 V2000
   -1.8248    0.3424    3.9102 C   0  0  0  0  0  0  0  0  0  0  0  0
   -0.8774   -0.2723    3.4345 O   0  0  0  0  0  0  0  0  0  0  0  0
   -2.2566    0.0600    5.3109 C   0  0  0  0  0  0  0  0  0  0  0  0
   -3.0163   -0.7363    5.3643 H   0  0  0  0  0  0  0  0  0  0  0  0
   -1.4254   -0.2876    5.9452 H   0  0  0  0  0  0  0  0  0  0  0  0
   -2.6947    0.9149    5.8505 H   0  0  0  0  0  0  0  0  0  0  0  0
   -2.5745    1.3149    3.2691 N   0  0  0  0  0  0  0  0  0  0  0  0
   -2.3276    1.7409    1.9167 C   0  0  2  0  0  0  0  0  0  0  0  0
   -0.9926    1.1555    1.4755 C   0  0  0  0  0  0  0  0  0  0  0  0
   -0.1206    0.8028    2.2668 O   0  0  0  0  0  0  0  0  0  0  0  0
   -2.3188    3.2577    1.8072 C   0  0  0  0  0  0  0  0  0  0  0  0
   -3.3395    1.7507    3.7809 H   0  0  0  0  0  0  0  0  0  0  0  0
   -3.1317    1.3224    1.3015 H   0  0  0  0  0  0  0  0  0  0  0  0
   -1.5198    3.6949    2.4169 H   0  0  0  0  0  0  0  0  0  0  0  0
   -2.1594    3.5799    0.7729 H   0  0  0  0  0  0  0  0  0  0  0  0
   -3.2690    3.6789    2.1530 H   0  0  0  0  0  0  0  0  0  0  0  0
   -0.8700    1.1124    0.0921 N   0  0  0  0  0  0  0  0  0  0  0  0
   -0.9879   -0.1090   -0.6640 C   0  0  2  0  0  0  0  0  0  0  0  0
    0.1016   -1.0532   -0.1682 C   0  0  0  0  0  0  0  0  0  0  0  0
   -0.0926   -2.2492    0.0382 O   0  0  0  0  0  0  0  0  0  0  0  0
   -0.8429    0.1271   -2.1717 C   0  0  0  0  0  0  0  0  0  0  0  0
   -1.9837    0.9288   -2.7493 C   0  0  0  0  0  0  0  0  0  0  0  0
   -3.1902    0.3017   -3.0608 C   0  0  0  0  0  0  0  0  0  0  0  0
   -1.8314    2.2974   -2.9713 C   0  0  0  0  0  0  0  0  0  0  0  0
   -4.2442    1.0433   -3.5943 C   0  0  0  0  0  0  0  0  0  0  0  0
   -2.8855    3.0390   -3.5049 C   0  0  0  0  0  0  0  0  0  0  0  0
   -4.0919    2.4119   -3.8163 C   0  0  0  0  0  0  0  0  0  0  0  0
   -0.7288    1.9792   -0.4210 H   0  0  0  0  0  0  0  0  0  0  0  0
   -1.9689   -0.5337   -0.4205 H   0  0  0  0  0  0  0  0  0  0  0  0
   -0.7604   -0.8320   -2.7008 H   0  0  0  0  0  0  0  0  0  0  0  0
    0.0941    0.6570   -2.3886 H   0  0  0  0  0  0  0  0  0  0  0  0
   -3.3179   -0.7641   -2.8910 H   0  0  0  0  0  0  0  0  0  0  0  0
   -0.8951    2.7945   -2.7316 H   0  0  0  0  0  0  0  0  0  0  0  0
   -5.1832    0.5547   -3.8378 H   0  0  0  0  0  0  0  0  0  0  0  0
   -2.7661    4.1043   -3.6786 H   0  0  0  0  0  0  0  0  0  0  0  0
   -4.9123    2.9889   -4.2330 H   0  0  0  0  0  0  0  0  0  0  0  0
    1.3243   -0.4103   -0.0331 N   0  0  0  0  0  0  0  0  0  0  0  0
    2.5297   -1.0805    0.3990 C   0  0  2  0  0  0  0  0  0  0  0  0
    2.2072   -1.8555    1.6697 C   0  0  0  0  0  0  0  0  0  0  0  0
    1.2620   -1.5760    2.4043 O   0  0  0  0  0  0  0  0  0  0  0  0
    3.6582   -0.0896    0.6383 C   0  0  0  0  0  0  0  0  0  0  0  0
    1.3744    0.5810   -0.2487 H   0  0  0  0  0  0  0  0  0  0  0  0
    2.8047   -1.7811   -0.3970 H   0  0  0  0  0  0  0  0  0  0  0  0
    3.4010    0.6206    1.4325 H   0  0  0  0  0  0  0  0  0  0  0  0
    4.5787   -0.6014    0.9379 H   0  0  0  0  0  0  0  0  0  0  0  0
    3.8687    0.4877   -0.2685 H   0  0  0  0  0  0  0  0  0  0  0  0
    3.1245   -2.8689    1.9099 N   0  0  0  0  0  0  0  0  0  0  0  0
    3.0428   -3.7379    3.0606 C   0  0  0  0  0  0  0  0  0  0  0  0
    3.8660   -3.0414    1.2375 H   0  0  0  0  0  0  0  0  0  0  0  0
    3.6476   -3.3210    3.8794 H   0  0  0  0  0  0  0  0  0  0  0  0
    1.9946   -3.8200    3.3843 H   0  0  0  0  0  0  0  0  0  0  0  0
    3.4235   -4.7351    2.7947 H   0  0  0  0  0  0  0  0  0  0  0  0
 25 27  1  0  0  0  0
 26 27  2  0  0  0  0
 23 25  2  0  0  0  0
 24 26  1  0  0  0  0
 22 23  1  0  0  0  0
 22 24  2  0  0  0  0
 21 22  1  0  0  0  0
  1  3  1  0  0  0  0
  1  7  1  0  0  0  0
  1  2  2  0  0  0  0
 38 39  1  0  0  0  0
 39 47  1  0  0  0  0
 39 40  2  0  0  0  0
  8  9  1  0  0  0  0
  9 17  1  0  0  0  0
  9 10  2  0  0  0  0
 18 19  1  0  0  0  0
 19 37  1  0  0  0  0
 19 20  2  0  0  0  0
 38 41  1  0  0  0  0
  8 11  1  0  0  0  0
 47 48  1  0  0  0  0
 18 21  1  0  0  0  0
 37 38  1  0  0  0  0
  7  8  1  0  0  0  0
 17 18  1  0  0  0  0
 27 36  1  0  0  0  0
 25 34  1  0  0  0  0
 26 35  1  0  0  0  0
 23 32  1  0  0  0  0
 24 33  1  0  0  0  0
  3  4  1  0  0  0  0
  3  5  1  0  0  0  0
  3  6  1  0  0  0  0
 41 44  1  0  0  0  0
 41 45  1  0  0  0  0
 41 46  1  0  0  0  0
 11 14  1  0  0  0  0
 11 15  1  0  0  0  0
 11 16  1  0  0  0  0
 48 50  1  0  0  0  0
 48 51  1  0  0  0  0
 48 52  1  0  0  0  0
 21 30  1  0  0  0  0
 21 31  1  0  0  0  0
 38 43  1  0  0  0  0
  8 13  1  0  0  0  0
 18 29  1  0  0  0  0
 47 49  1  0  0  0  0
  7 12  1  0  0  0  0
 37 42  1  0  0  0  0
 17 28  1  0  0  0  0
M  END
$$$$

  -OEChem-02062319033D

 52 52  0     1  0  0  0  0  0999 V2000
   -1.8248    0.3424    3.9102 C   0  0  0  0  0  0  0  0  0  0  0  0
   -0.8774   -0.2723    3.4345 O   0  0  0  0  0  0  0  0  0  0  0  0
   -2.2566    0.0600    5.3109 C   0  0  0  0  0  0  0  0  0  0  0  0
   -3.0163   -0.7363    5.3643 H   0  0  0  0  0  0  0  0  0  0  0  0
   -1.4254   -0.2876    5.9452 H   0  0  0  0  0  0  0  0  0  0  0  0
   -2.6947    0.9149    5.8505 H   0  0  0  0  0  0  0  0  0  0  0  0
   -2.5745    1.3149    3.2691 N   0  0  0  0  0  0  0  0  0  0  0  0
   -2.3276    1.7409    1.9167 C   0  0  2  0  0  0  0  0  0  0  0  0
   -0.9926    1.1555    1.4755 C   0  0  0  0  0  0  0  0  0  0  0  0
   -0.1206    0.8028    2.2668 O   0  0  0  0  0  0  0  0  0  0  0  0
   -2.3188    3.2577    1.8072 C   0  0  0  0  0  0  0  0  0  0  0  0
   -3.3395    1.7507    3.7809 H   0  0  0  0  0  0  0  0  0  0  0  0
   -3.1317    1.3224    1.3015 H   0  0  0  0  0  0  0  0  0  0  0  0
   -1.5198    3.6949    2.4169 H   0  0  0  0  0  0  0  0  0  0  0  0
   -2.1594    3.5799    0.7729 H   0  0  0  0  0  0  0  0  0  0  0  0
   -3.2690    3.6789    2.1530 H   0  0  0  0  0  0  0  0  0  0  0  0
   -0.8700    1.1124    0.0921 N   0  0  0  0  0  0  0  0  0  0  0  0
   -1.2902   -0.0205   -0.6935 C   0  0  2  0  0  0  0  0  0  0  0  0
   -0.4862   -1.2242   -0.2150 C   0  0  0  0  0  0  0  0  0  0  0  0
   -0.9842   -2.3340   -0.0382 O   0  0  0  0  0  0  0  0  0  0  0  0
   -1.0727    0.2030   -2.1945 C   0  0  0  0  0  0  0  0  0  0  0  0
   -1.9620    1.2841   -2.7584 C   0  0  0  0  0  0  0  0  0  0  0  0
   -3.2858    0.9961   -3.0909 C   0  0  0  0  0  0  0  0  0  0  0  0
   -1.4599    2.5717   -2.9469 C   0  0  0  0  0  0  0  0  0  0  0  0
   -4.1073    1.9958   -3.6119 C   0  0  0  0  0  0  0  0  0  0  0  0
   -2.2814    3.5713   -3.4679 C   0  0  0  0  0  0  0  0  0  0  0  0
   -3.6051    3.2834   -3.8003 C   0  0  0  0  0  0  0  0  0  0  0  0
   -0.5046    1.9245   -0.3994 H   0  0  0  0  0  0  0  0  0  0  0  0
   -2.3501   -0.1832   -0.4652 H   0  0  0  0  0  0  0  0  0  0  0  0
   -1.2342   -0.7332   -2.7458 H   0  0  0  0  0  0  0  0  0  0  0  0
   -0.0285    0.4780   -2.3939 H   0  0  0  0  0  0  0  0  0  0  0  0
   -3.6857   -0.0042   -2.9473 H   0  0  0  0  0  0  0  0  0  0  0  0
   -0.4298    2.8052   -2.6907 H   0  0  0  0  0  0  0  0  0  0  0  0
   -5.1377    1.7711   -3.8717 H   0  0  0  0  0  0  0  0  0  0  0  0
   -1.8898    4.5734   -3.6155 H   0  0  0  0  0  0  0  0  0  0  0  0
   -4.2446    4.0613   -4.2073 H   0  0  0  0  0  0  0  0  0  0  0  0
    0.8592   -0.9214   -0.0584 N   0  0  0  0  0  0  0  0  0  0  0  0
    1.8465   -1.8889    0.3636 C   0  0  2  0  0  0  0  0  0  0  0  0
    1.3213   -2.5821    1.6138 C   0  0  0  0  0  0  0  0  0  0  0  0
    0.4719   -2.0845    2.3501 O   0  0  0  0  0  0  0  0  0  0  0  0
    3.1895   -1.2279    0.6322 C   0  0  0  0  0  0  0  0  0  0  0  0
    1.1654    0.0280   -0.2500 H   0  0  0  0  0  0  0  0  0  0  0  0
    1.9405   -2.6192   -0.4475 H   0  0  0  0  0  0  0  0  0  0  0  0
    3.1151   -0.4928    1.4419 H   0  0  0  0  0  0  0  0  0  0  0  0
    3.9437   -1.9660    0.9242 H   0  0  0  0  0  0  0  0  0  0  0  0
    3.5516   -0.7047   -0.2594 H   0  0  0  0  0  0  0  0  0  0  0  0
    1.9439   -3.8027    1.8344 N   0  0  0  0  0  0  0  0  0  0  0  0
    1.6283   -4.6461    2.9635 C   0  0  0  0  0  0  0  0  0  0  0  0
    2.6233   -4.1458    1.1617 H   0  0  0  0  0  0  0  0  0  0  0  0
    2.3111   -4.4171    3.7950 H   0  0  0  0  0  0  0  0  0  0  0  0
    0.5910   -4.4622    3.2798 H   0  0  0  0  0  0  0  0  0  0  0  0
    1.7423   -5.7017    2.6758 H   0  0  0  0  0  0  0  0  0  0  0  0
 25 27  1  0  0  0  0
 26 27  2  0  0  0  0
 23 25  2  0  0  0  0
 24 26  1  0  0  0  0
 22 23  1  0  0  0  0
 22 24  2  0  0  0  0
 21 22  1  0  0  0  0
  1  3  1  0  0  0  0
  1  7  1  0  0  0  0
  1  2  2  0  0  0  0
 38 39  1  0  0  0  0
 39 47  1  0  0  0  0
 39 40  2  0  0  0  0
  8  9  1  0  0  0  0
  9 17  1  0  0  0  0
  9 10  2  0  0  0  0
 18 19  1  0  0  0  0
 19 37  1  0  0  0  0
 19 20  2  0  0  0  0
 38 41  1  0  0  0  0
  8 11  1  0  0  0  0
 47 48  1  0  0  0  0
 18 21  1  0  0  0  0
 37 38  1  0  0  0  0
  7  8  1  0  0  0  0
 17 18  1  0  0  0  0
 27 36  1  0  0  0  0
 25 34  1  0  0  0  0
 26 35  1  0  0  0  0
 23 32  1  0  0  0  0
 24 33  1  0  0  0  0
  3  4  1  0  0  0  0
  3  5  1  0  0  0  0
  3  6  1  0  0  0  0
 41 44  1  0  0  0  0
 41 45  1  0  0  0  0
 41 46  1  0  0  0  0
 11 14  1  0  0  0  0
 11 15  1  0  0  0  0
 11 16  1  0  0  0  0
 48 50  1  0  0  0  0
 48 51  1  0  0  0  0
 48 52  1  0  0  0  0
 21 30  1  0  0  0  0
 21 31  1  0  0  0  0
 38 43  1  0  0  0  0
  8 13  1  0  0  0  0
 18 29  1  0  0  0  0
 47 49  1  0  0  0  0
  7 12  1  0  0  0  0
 37 42  1  0  0  0  0
 17 28  1  0  0  0  0
M  END
$$$$

  -OEChem-02062319033D

 52 52  0     1  0  0  0  0  0999 V2000
   -1.8248    0.3424    3.9102 C   0  0  0  0  0  0  0  0  0  0  0  0
   -0.8774   -0.2723    3.4345 O   0  0  0  0  0  0  0  0  0  0  0  0
   -2.2566    0.0600    5.3109 C   0  0  0  0  0  0  0  0  0  0  0  0
   -3.0163   -0.7363    5.3643 H   0  0  0  0  0  0  0  0  0  0  0  0
   -1.4254   -0.2876    5.9452 H   0  0  0  0  0  0  0  0  0  0  0  0
   -2.6947    0.9149    5.8505 H   0  0  0  0  0  0  0  0  0  0  0  0
   -2.5745    1.3149    3.2691 N   0  0  0  0  0  0  0  0  0  0  0  0
   -2.3276    1.7409    1.9167 C   0  0  2  0  0  0  0  0  0  0  0  0
   -0.9926    1.1555    1.4755 C   0  0  0  0  0  0  0  0  0  0  0  0
   -0.1206    0.8028    2.2668 O   0  0  0  0  0  0  0  0  0  0  0  0
   -2.3188    3.2577    1.8072 C   0  0  0  0  0  0  0  0  0  0  0  0
   -3.3395    1.7507    3.7809 H   0  0  0  0  0  0  0  0  0  0  0  0
   -3.1317    1.3224    1.3015 H   0  0  0  0  0  0  0  0  0  0  0  0
   -1.5198    3.6949    2.4169 H   0  0  0  0  0  0  0  0  0  0  0  0
   -2.1594    3.5799    0.7729 H   0  0  0  0  0  0  0  0  0  0  0  0
   -3.2690    3.6789    2.1530 H   0  0  0  0  0  0  0  0  0  0  0  0
   -0.8700    1.1124    0.0921 N   0  0  0  0  0  0  0  0  0  0  0  0
   -1.5591    0.1435   -0.7225 C   0  0  2  0  0  0  0  0  0  0  0  0
   -1.0977   -1.2369   -0.2688 C   0  0  0  0  0  0  0  0  0  0  0  0
   -1.8667   -2.1844   -0.1211 O   0  0  0  0  0  0  0  0  0  0  0  0
   -1.2749    0.3360   -2.2165 C   0  0  0  0  0  0  0  0  0  0  0  0
   -1.8495    1.6219   -2.7590 C   0  0  0  0  0  0  0  0  0  0  0  0
   -3.1990    1.6922   -3.1049 C   0  0  0  0  0  0  0  0  0  0  0  0
   -1.0305    2.7403   -2.9141 C   0  0  0  0  0  0  0  0  0  0  0  0
   -3.7295    2.8810   -3.6059 C   0  0  0  0  0  0  0  0  0  0  0  0
   -1.5610    3.9290   -3.4152 C   0  0  0  0  0  0  0  0  0  0  0  0
   -2.9105    3.9994   -3.7610 C   0  0  0  0  0  0  0  0  0  0  0  0
   -0.3024    1.8134   -0.3780 H   0  0  0  0  0  0  0  0  0  0  0  0
   -2.6276    0.2546   -0.5035 H   0  0  0  0  0  0  0  0  0  0  0  0
   -1.6660   -0.5147   -2.7909 H   0  0  0  0  0  0  0  0  0  0  0  0
   -0.1929    0.3369   -2.4041 H   0  0  0  0  0  0  0  0  0  0  0  0
   -3.8446    0.8259   -2.9872 H   0  0  0  0  0  0  0  0  0  0  0  0
    0.0220    2.6948   -2.6472 H   0  0  0  0  0  0  0  0  0  0  0  0
   -4.7800    2.9352   -3.8762 H   0  0  0  0  0  0  0  0  0  0  0  0
   -0.9229    4.7993   -3.5369 H   0  0  0  0  0  0  0  0  0  0  0  0
   -3.3235    4.9245   -4.1525 H   0  0  0  0  0  0  0  0  0  0  0  0
    0.2785   -1.2947   -0.0982 N   0  0  0  0  0  0  0  0  0  0  0  0
    0.9786   -2.4929    0.3055 C   0  0  2  0  0  0  0  0  0  0  0  0
    0.2787   -3.0544    1.5361 C   0  0  0  0  0  0  0  0  0  0  0  0
   -0.4218   -2.3708    2.2797 O   0  0  0  0  0  0  0  0  0  0  0  0
    2.4435   -2.2064    0.5965 C   0  0  0  0  0  0  0  0  0  0  0  0
    0.8210   -0.4524   -0.2656 H   0  0  0  0  0  0  0  0  0  0  0  0
    0.8902   -3.2049   -0.5223 H   0  0  0  0  0  0  0  0  0  0  0  0
    2.5520   -1.4949    1.4232 H   0  0  0  0  0  0  0  0  0  0  0  0
    2.9788   -3.1202    0.8746 H   0  0  0  0  0  0  0  0  0  0  0  0
    2.9379   -1.7749   -0.2805 H   0  0  0  0  0  0  0  0  0  0  0  0
    0.5635   -4.3987    1.7305 N   0  0  0  0  0  0  0  0  0  0  0  0
    0.0289   -5.1567    2.8376 C   0  0  0  0  0  0  0  0  0  0  0  0
    1.1389   -4.8906    1.0533 H   0  0  0  0  0  0  0  0  0  0  0  0
    0.7384   -5.1296    3.6778 H   0  0  0  0  0  0  0  0  0  0  0  0
   -0.9296   -4.7185    3.1530 H   0  0  0  0  0  0  0  0  0  0  0  0
   -0.1297   -6.1994    2.5253 H   0  0  0  0  0  0  0  0  0  0  0  0
 25 27  1  0  0  0  0
 26 27  2  0  0  0  0
 23 25  2  0  0  0  0
 24 26  1  0  0  0  0
 22 23  1  0  0  0  0
 22 24  2  0  0  0  0
 21 22  1  0  0  0  0
  1  3  1  0  0  0  0
  1  7  1  0  0  0  0
  1  2  2  0  0  0  0
 38 39  1  0  0  0  0
 39 47  1  0  0  0  0
 39 40  2  0  0  0  0
  8  9  1  0  0  0  0
  9 17  1  0  0  0  0
  9 10  2  0  0  0  0
 18 19  1  0  0  0  0
 19 37  1  0  0  0  0
 19 20  2  0  0  0  0
 38 41  1  0  0  0  0
  8 11  1  0  0  0  0
 47 48  1  0  0  0  0
 18 21  1  0  0  0  0
 37 38  1  0  0  0  0
  7  8  1  0  0  0  0
 17 18  1  0  0  0  0
 27 36  1  0  0  0  0
 25 34  1  0  0  0  0
 26 35  1  0  0  0  0
 23 32  1  0  0  0  0
 24 33  1  0  0  0  0
  3  4  1  0  0  0  0
  3  5  1  0  0  0  0
  3  6  1  0  0  0  0
 41 44  1  0  0  0  0
 41 45  1  0  0  0  0
 41 46  1  0  0  0  0
 11 14  1  0  0  0  0
 11 15  1  0  0  0  0
 11 16  1  0  0  0  0
 48 50  1  0  0  0  0
 48 51  1  0  0  0  0
 48 52  1  0  0  0  0
 21 30  1  0  0  0  0
 21 31  1  0  0  0  0
 38 43  1  0  0  0  0
  8 13  1  0  0  0  0
 18 29  1  0  0  0  0
 47 49  1  0  0  0  0
  7 12  1  0  0  0  0
 37 42  1  0  0  0  0
 17 28  1  0  0  0  0
M  END
$$$$

  -OEChem-02062319033D

 52 52  0     1  0  0  0  0  0999 V2000
   -1.8248    0.3424    3.9102 C   0  0  0  0  0  0  0  0  0  0  0  0
   -0.8774   -0.2723    3.4345 O   0  0  0  0  0  0  0  0  0  0  0  0
   -2.2566    0.0600    5.3109 C   0  0  0  0  0  0  0  0  0  0  0  0
   -3.0163   -0.7363    5.3643 H   0  0  0  0  0  0  0  0  0  0  0  0
   -1.4254   -0.2876    5.9452 H   0  0  0  0  0  0  0  0  0  0  0  0
   -2.6947    0.9149    5.8505 H   0  0  0  0  0  0  0  0  0  0  0  0
   -2.5745    1.3149    3.2691 N   0  0  0  0  0  0  0  0  0  0  0  0
   -2.3276    1.7409    1.9167 C   0  0  2  0  0  0  0  0  0  0  0  0
   -0.9926    1.1555    1.4755 C   0  0  0  0  0  0  0  0  0  0  0  0
   -0.1206    0.8028    2.2668 O   0  0  0  0  0  0  0  0  0  0  0  0
   -2.3188    3.2577    1.8072 C   0  0  0  0  0  0  0  0  0  0  0  0
   -3.3395    1.7507    3.7809 H   0  0  0  0  0  0  0  0  0  0  0  0
   -3.1317    1.3224    1.3015 H   0  0  0  0  0  0  0  0  0  0  0  0
   -1.5198    3.6949    2.4169 H   0  0  0  0  0  0  0  0  0  0  0  0
   -2.1594    3.5799    0.7729 H   0  0  0  0  0  0  0  0  0  0  0  0
   -3.2690    3.6789    2.1530 H   0  0  0  0  0  0  0  0  0  0  0  0
   -0.8700    1.1124    0.0921 N   0  0  0  0  0  0  0  0  0  0  0  0
   -1.7764    0.3718   -0.7489 C   0  0  2  0  0  0  0  0  0  0  0  0
   -1.6912   -1.0904   -0.3260 C   0  0  0  0  0  0  0  0  0  0  0  0
   -2.6799   -1.8106   -0.2048 O   0  0  0  0  0  0  0  0  0  0  0  0
   -1.4357    0.5171   -2.2364 C   0  0  0  0  0  0  0  0  0  0  0  0
   -1.6537    1.9191   -2.7509 C   0  0  0  0  0  0  0  0  0  0  0  0
   -2.9356    2.3425   -3.1018 C   0  0  0  0  0  0  0  0  0  0  0  0
   -0.5726    2.7918   -2.8751 C   0  0  0  0  0  0  0  0  0  0  0  0
   -3.1365    3.6385   -3.5770 C   0  0  0  0  0  0  0  0  0  0  0  0
   -0.7735    4.0877   -3.3503 C   0  0  0  0  0  0  0  0  0  0  0  0
   -2.0554    4.5111   -3.7012 C   0  0  0  0  0  0  0  0  0  0  0  0
   -0.1358    1.6535   -0.3583 H   0  0  0  0  0  0  0  0  0  0  0  0
   -2.7826    0.7499   -0.5326 H   0  0  0  0  0  0  0  0  0  0  0  0
   -2.0264   -0.1912   -2.8330 H   0  0  0  0  0  0  0  0  0  0  0  0
   -0.3881    0.2432   -2.4185 H   0  0  0  0  0  0  0  0  0  0  0  0
   -3.7839    1.6695   -3.0081 H   0  0  0  0  0  0  0  0  0  0  0  0
    0.4297    2.4707   -2.6040 H   0  0  0  0  0  0  0  0  0  0  0  0
   -4.1345    3.9676   -3.8512 H   0  0  0  0  0  0  0  0  0  0  0  0
    0.0686    4.7665   -3.4479 H   0  0  0  0  0  0  0  0  0  0  0  0
   -2.2118    5.5197   -4.0725 H   0  0  0  0  0  0  0  0  0  0  0  0
   -0.3782   -1.5046   -0.1499 N   0  0  0  0  0  0  0  0  0  0  0  0
   -0.0150   -2.8513    0.2286 C   0  0  2  0  0  0  0  0  0  0  0  0
   -0.8493   -3.2401    1.4419 C   0  0  0  0  0  0  0  0  0  0  0  0
   -1.3583   -2.4154    2.1981 O   0  0  0  0  0  0  0  0  0  0  0  0
    1.4710   -2.9586    0.5337 C   0  0  0  0  0  0  0  0  0  0  0  0
    0.3647   -0.8272   -0.2943 H   0  0  0  0  0  0  0  0  0  0  0  0
   -0.2747   -3.4983   -0.6165 H   0  0  0  0  0  0  0  0  0  0  0  0
    1.7501   -2.3172    1.3777 H   0  0  0  0  0  0  0  0  0  0  0  0
    1.7498   -3.9853    0.7926 H   0  0  0  0  0  0  0  0  0  0  0  0
    2.0695   -2.6501   -0.3302 H   0  0  0  0  0  0  0  0  0  0  0  0
   -0.9227   -4.6163    1.6056 N   0  0  0  0  0  0  0  0  0  0  0  0
   -1.6466   -5.2348    2.6915 C   0  0  0  0  0  0  0  0  0  0  0  0
   -0.4859   -5.2251    0.9197 H   0  0  0  0  0  0  0  0  0  0  0  0
   -0.9634   -5.4099    3.5357 H   0  0  0  0  0  0  0  0  0  0  0  0
   -2.4633   -4.5714    3.0124 H   0  0  0  0  0  0  0  0  0  0  0  0
   -2.0651   -6.1944    2.3536 H   0  0  0  0  0  0  0  0  0  0  0  0
 25 27  1  0  0  0  0
 26 27  2  0  0  0  0
 23 25  2  0  0  0  0
 24 26  1  0  0  0  0
 22 23  1  0  0  0  0
 22 24  2  0  0  0  0
 21 22  1  0  0  0  0
  1  3  1  0  0  0  0
  1  7  1  0  0  0  0
  1  2  2  0  0  0  0
 38 39  1  0  0  0  0
 39 47  1  0  0  0  0
 39 40  2  0  0  0  0
  8  9  1  0  0  0  0
  9 17  1  0  0  0  0
  9 10  2  0  0  0  0
 18 19  1  0  0  0  0
 19 37  1  0  0  0  0
 19 20  2  0  0  0  0
 38 41  1  0  0  0  0
  8 11  1  0  0  0  0
 47 48  1  0  0  0  0
 18 21  1  0  0  0  0
 37 38  1  0  0  0  0
  7  8  1  0  0  0  0
 17 18  1  0  0  0  0
 27 36  1  0  0  0  0
 25 34  1  0  0  0  0
 26 35  1  0  0  0  0
 23 32  1  0  0  0  0
 24 33  1  0  0  0  0
  3  4  1  0  0  0  0
  3  5  1  0  0  0  0
  3  6  1  0  0  0  0
 41 44  1  0  0  0  0
 41 45  1  0  0  0  0
 41 46  1  0  0  0  0
 11 14  1  0  0  0  0
 11 15  1  0  0  0  0
 11 16  1  0  0  0  0
 48 50  1  0  0  0  0
 48 51  1  0  0  0  0
 48 52  1  0  0  0  0
 21 30  1  0  0  0  0
 21 31  1  0  0  0  0
 38 43  1  0  0  0  0
  8 13  1  0  0  0  0
 18 29  1  0  0  0  0
 47 49  1  0  0  0  0
  7 12  1  0  0  0  0
 37 42  1  0  0  0  0
 17 28  1  0  0  0  0
M  END
$$$$

  -OEChem-02062319033D

 52 52  0     1  0  0  0  0  0999 V2000
   -1.8248    0.3424    3.9102 C   0  0  0  0  0  0  0  0  0  0  0  0
   -0.8774   -0.2723    3.4345 O   0  0  0  0  0  0  0  0  0  0  0  0
   -2.2566    0.0600    5.3109 C   0  0  0  0  0  0  0  0  0  0  0  0
   -3.0163   -0.7363    5.3643 H   0  0  0  0  0  0  0  0  0  0  0  0
   -1.4254   -0.2876    5.9452 H   0  0  0  0  0  0  0  0  0  0  0  0
   -2.6947    0.9149    5.8505 H   0  0  0  0  0  0  0  0  0  0  0  0
   -2.5745    1.3149    3.2691 N   0  0  0  0  0  0  0  0  0  0  0  0
   -2.3276    1.7409    1.9167 C   0  0  2  0  0  0  0  0  0  0  0  0
   -0.9926    1.1555    1.4755 C   0  0  0  0  0  0  0  0  0  0  0  0
   -0.1206    0.8028    2.2668 O   0  0  0  0  0  0  0  0  0  0  0  0
   -2.3188    3.2577    1.8072 C   0  0  0  0  0  0  0  0  0  0  0  0
   -3.3395    1.7507    3.7809 H   0  0  0  0  0  0  0  0  0  0  0  0
   -3.1317    1.3224    1.3015 H   0  0  0  0  0  0  0  0  0  0  0  0
   -1.5198    3.6949    2.4169 H   0  0  0  0  0  0  0  0  0  0  0  0
   -2.1594    3.5799    0.7729 H   0  0  0  0  0  0  0  0  0  0  0  0
   -3.2690    3.6789    2.1530 H   0  0  0  0  0  0  0  0  0  0  0  0
   -0.8700    1.1124    0.0921 N   0  0  0  0  0  0  0  0  0  0  0  0
   -1.9273    0.6490   -0.7709 C   0  0  2  0  0  0  0  0  0  0  0  0
   -2.2262   -0.7946   -0.3827 C   0  0  0  0  0  0  0  0  0  0  0  0
   -3.3683   -1.2381   -0.2837 O   0  0  0  0  0  0  0  0  0  0  0  0
   -1.5442    0.7340   -2.2528 C   0  0  0  0  0  0  0  0  0  0  0  0
   -1.3880    2.1556   -2.7347 C   0  0  0  0  0  0  0  0  0  0  0  0
   -2.5137    2.9027   -3.0819 C   0  0  0  0  0  0  0  0  0  0  0  0
   -0.1174    2.7226   -2.8326 C   0  0  0  0  0  0  0  0  0  0  0  0
   -2.3687    4.2167   -3.5269 C   0  0  0  0  0  0  0  0  0  0  0  0
    0.0277    4.0366   -3.2777 C   0  0  0  0  0  0  0  0  0  0  0  0
   -1.0980    4.7836   -3.6248 C   0  0  0  0  0  0  0  0  0  0  0  0
   -0.0163    1.4556   -0.3415 H   0  0  0  0  0  0  0  0  0  0  0  0
   -2.8044    1.2688   -0.5507 H   0  0  0  0  0  0  0  0  0  0  0  0
   -2.2909    0.2150   -2.8691 H   0  0  0  0  0  0  0  0  0  0  0  0
   -0.6006    0.2032   -2.4361 H   0  0  0  0  0  0  0  0  0  0  0  0
   -3.5077    2.4693   -3.0086 H   0  0  0  0  0  0  0  0  0  0  0  0
    0.7653    2.1482   -2.5642 H   0  0  0  0  0  0  0  0  0  0  0  0
   -3.2452    4.7978   -3.7982 H   0  0  0  0  0  0  0  0  0  0  0  0
    1.0172    4.4773   -3.3548 H   0  0  0  0  0  0  0  0  0  0  0  0
   -0.9852    5.8063   -3.9727 H   0  0  0  0  0  0  0  0  0  0  0  0
   -1.0663   -1.5370   -0.2099 N   0  0  0  0  0  0  0  0  0  0  0  0
   -1.0664   -2.9398    0.1381 C   0  0  2  0  0  0  0  0  0  0  0  0
   -1.9861   -3.1267    1.3376 C   0  0  0  0  0  0  0  0  0  0  0  0
   -2.2738   -2.2153    2.1107 O   0  0  0  0  0  0  0  0  0  0  0  0
    0.3383   -3.4330    0.4481 C   0  0  0  0  0  0  0  0  0  0  0  0
   -0.1724   -1.0710   -0.3343 H   0  0  0  0  0  0  0  0  0  0  0  0
   -1.4747   -3.4793   -0.7234 H   0  0  0  0  0  0  0  0  0  0  0  0
    0.7639   -2.9039    1.3086 H   0  0  0  0  0  0  0  0  0  0  0  0
    0.3404   -4.5024    0.6837 H   0  0  0  0  0  0  0  0  0  0  0  0
    1.0056   -3.2706   -0.4052 H   0  0  0  0  0  0  0  0  0  0  0  0
   -2.4133   -4.4407    1.4679 N   0  0  0  0  0  0  0  0  0  0  0  0
   -3.2840   -4.8752    2.5351 C   0  0  0  0  0  0  0  0  0  0  0  0
   -2.1405   -5.1264    0.7699 H   0  0  0  0  0  0  0  0  0  0  0  0
   -2.6783   -5.2388    3.3783 H   0  0  0  0  0  0  0  0  0  0  0  0
   -3.9057   -4.0309    2.8677 H   0  0  0  0  0  0  0  0  0  0  0  0
   -3.9317   -5.6869    2.1723 H   0  0  0  0  0  0  0  0  0  0  0  0
 25 27  1  0  0  0  0
 26 27  2  0  0  0  0
 23 25  2  0  0  0  0
 24 26  1  0  0  0  0
 22 23  1  0  0  0  0
 22 24  2  0  0  0  0
 21 22  1  0  0  0  0
  1  3  1  0  0  0  0
  1  7  1  0  0  0  0
  1  2  2  0  0  0  0
 38 39  1  0  0  0  0
 39 47  1  0  0  0  0
 39 40  2  0  0  0  0
  8  9  1  0  0  0  0
  9 17  1  0  0  0  0
  9 10  2  0  0  0  0
 18 19  1  0  0  0  0
 19 37  1  0  0  0  0
 19 20  2  0  0  0  0
 38 41  1  0  0  0  0
  8 11  1  0  0  0  0
 47 48  1  0  0  0  0
 18 21  1  0  0  0  0
 37 38  1  0  0  0  0
  7  8  1  0  0  0  0
 17 18  1  0  0  0  0
 27 36  1  0  0  0  0
 25 34  1  0  0  0  0
 26 35  1  0  0  0  0
 23 32  1  0  0  0  0
 24 33  1  0  0  0  0
  3  4  1  0  0  0  0
  3  5  1  0  0  0  0
  3  6  1  0  0  0  0
 41 44  1  0  0  0  0
 41 45  1  0  0  0  0
 41 46  1  0  0  0  0
 11 14  1  0  0  0  0
 11 15  1  0  0  0  0
 11 16  1  0  0  0  0
 48 50  1  0  0  0  0
 48 51  1  0  0  0  0
 48 52  1  0  0  0  0
 21 30  1  0  0  0  0
 21 31  1  0  0  0  0
 38 43  1  0  0  0  0
  8 13  1  0  0  0  0
 18 29  1  0  0  0  0
 47 49  1  0  0  0  0
  7 12  1  0  0  0  0
 37 42  1  0  0  0  0
 17 28  1  0  0  0  0
M  END
$$$$

  -OEChem-02062319033D

 52 52  0     1  0  0  0  0  0999 V2000
   -1.8248    0.3424    3.9102 C   0  0  0  0  0  0  0  0  0  0  0  0
   -0.8774   -0.2723    3.4345 O   0  0  0  0  0  0  0  0  0  0  0  0
   -2.2566    0.0600    5.3109 C   0  0  0  0  0  0  0  0  0  0  0  0
   -3.0163   -0.7363    5.3643 H   0  0  0  0  0  0  0  0  0  0  0  0
   -1.4254   -0.2876    5.9452 H   0  0  0  0  0  0  0  0  0  0  0  0
   -2.6947    0.9149    5.8505 H   0  0  0  0  0  0  0  0  0  0  0  0
   -2.5745    1.3149    3.2691 N   0  0  0  0  0  0  0  0  0  0  0  0
   -2.3276    1.7409    1.9167 C   0  0  2  0  0  0  0  0  0  0  0  0
   -0.9926    1.1555    1.4755 C   0  0  0  0  0  0  0  0  0  0  0  0
   -0.1206    0.8028    2.2668 O   0  0  0  0  0  0  0  0  0  0  0  0
   -2.3188    3.2577    1.8072 C   0  0  0  0  0  0  0  0  0  0  0  0
   -3.3395    1.7507    3.7809 H   0  0  0  0  0  0  0  0  0  0  0  0
   -3.1317    1.3224    1.3015 H   0  0  0  0  0  0  0  0  0  0  0  0
   -1.5198    3.6949    2.4169 H   0  0  0  0  0  0  0  0  0  0  0  0
   -2.1594    3.5799    0.7729 H   0  0  0  0  0  0  0  0  0  0  0  0
   -3.2690    3.6789    2.1530 H   0  0  0  0  0  0  0  0  0  0  0  0
   -0.8700    1.1124    0.0921 N   0  0  0  0  0  0  0  0  0  0  0  0
   -2.0014    0.9562   -0.7870 C   0  0  2  0  0  0  0  0  0  0  0  0
   -2.6664   -0.3697   -0.4349 C   0  0  0  0  0  0  0  0  0  0  0  0
   -3.8852   -0.5059   -0.3524 O   0  0  0  0  0  0  0  0  0  0  0  0
   -1.5931    0.9718   -2.2646 C   0  0  0  0  0  0  0  0  0  0  0  0
   -1.0706    2.3153   -2.7115 C   0  0  0  0  0  0  0  0  0  0  0  0
   -1.9620    3.3346   -3.0464 C   0  0  0  0  0  0  0  0  0  0  0  0
    0.3042    2.5375   -2.7895 C   0  0  0  0  0  0  0  0  0  0  0  0
   -1.4785    4.5762   -3.4592 C   0  0  0  0  0  0  0  0  0  0  0  0
    0.7877    3.7791   -3.2023 C   0  0  0  0  0  0  0  0  0  0  0  0
   -0.1037    4.7985   -3.5371 C   0  0  0  0  0  0  0  0  0  0  0  0
    0.0480    1.2333   -0.3289 H   0  0  0  0  0  0  0  0  0  0  0  0
   -2.6917    1.7762   -0.5565 H   0  0  0  0  0  0  0  0  0  0  0  0
   -2.4414    0.6763   -2.8968 H   0  0  0  0  0  0  0  0  0  0  0  0
   -0.8160    0.2199   -2.4557 H   0  0  0  0  0  0  0  0  0  0  0  0
   -3.0348    3.1706   -2.9885 H   0  0  0  0  0  0  0  0  0  0  0  0
    1.0061    1.7493   -2.5304 H   0  0  0  0  0  0  0  0  0  0  0  0
   -2.1727    5.3694   -3.7209 H   0  0  0  0  0  0  0  0  0  0  0  0
    1.8581    3.9514   -3.2639 H   0  0  0  0  0  0  0  0  0  0  0  0
    0.2726    5.7648   -3.8598 H   0  0  0  0  0  0  0  0  0  0  0  0
   -1.7388   -1.3896   -0.2741 N   0  0  0  0  0  0  0  0  0  0  0  0
   -2.1041   -2.7522    0.0402 C   0  0  2  0  0  0  0  0  0  0  0  0
   -3.0540   -2.7218    1.2303 C   0  0  0  0  0  0  0  0  0  0  0  0
   -3.1058   -1.7842    2.0235 O   0  0  0  0  0  0  0  0  0  0  0  0
   -0.8773   -3.5975    0.3455 C   0  0  0  0  0  0  0  0  0  0  0  0
   -0.7537   -1.1672   -0.3829 H   0  0  0  0  0  0  0  0  0  0  0  0
   -2.6280   -3.1494   -0.8360 H   0  0  0  0  0  0  0  0  0  0  0  0
   -0.3393   -3.2149    1.2204 H   0  0  0  0  0  0  0  0  0  0  0  0
   -1.1534   -4.6362    0.5554 H   0  0  0  0  0  0  0  0  0  0  0  0
   -0.1813   -3.5940   -0.5003 H   0  0  0  0  0  0  0  0  0  0  0  0
   -3.8067   -3.8838    1.3270 N   0  0  0  0  0  0  0  0  0  0  0  0
   -4.7717   -4.1023    2.3792 C   0  0  0  0  0  0  0  0  0  0  0  0
   -3.7121   -4.6013    0.6142 H   0  0  0  0  0  0  0  0  0  0  0  0
   -4.2894   -4.6281    3.2164 H   0  0  0  0  0  0  0  0  0  0  0  0
   -5.1585   -3.1337    2.7287 H   0  0  0  0  0  0  0  0  0  0  0  0
   -5.6026   -4.7115    1.9937 H   0  0  0  0  0  0  0  0  0  0  0  0
 25 27  1  0  0  0  0
 26 27  2  0  0  0  0
 23 25  2  0  0  0  0
 24 26  1  0  0  0  0
 22 23  1  0  0  0  0
 22 24  2  0  0  0  0
 21 22  1  0  0  0  0
  1  3  1  0  0  0  0
  1  7  1  0  0  0  0
  1  2  2  0  0  0  0
 38 39  1  0  0  0  0
 39 47  1  0  0  0  0
 39 40  2  0  0  0  0
  8  9  1  0  0  0  0
  9 17  1  0  0  0  0
  9 10  2  0  0  0  0
 18 19  1  0  0  0  0
 19 37  1  0  0  0  0
 19 20  2  0  0  0  0
 38 41  1  0  0  0  0
  8 11  1  0  0  0  0
 47 48  1  0  0  0  0
 18 21  1  0  0  0  0
 37 38  1  0  0  0  0
  7  8  1  0  0  0  0
 17 18  1  0  0  0  0
 27 36  1  0  0  0  0
 25 34  1  0  0  0  0
 26 35  1  0  0  0  0
 23 32  1  0  0  0  0
 24 33  1  0  0  0  0
  3  4  1  0  0  0  0
  3  5  1  0  0  0  0
  3  6  1  0  0  0  0
 41 44  1  0  0  0  0
 41 45  1  0  0  0  0
 41 46  1  0  0  0  0
 11 14  1  0  0  0  0
 11 15  1  0  0  0  0
 11 16  1  0  0  0  0
 48 50  1  0  0  0  0
 48 51  1  0  0  0  0
 48 52  1  0  0  0  0
 21 30  1  0  0  0  0
 21 31  1  0  0  0  0
 38 43  1  0  0  0  0
  8 13  1  0  0  0  0
 18 29  1  0  0  0  0
 47 49  1  0  0  0  0
  7 12  1  0  0  0  0
 37 42  1  0  0  0  0
 17 28  1  0  0  0  0
M  END
$$$$

  -OEChem-02062319033D

 52 52  0     1  0  0  0  0  0999 V2000
   -1.8248    0.3424    3.9102 C   0  0  0  0  0  0  0  0  0  0  0  0
   -0.8774   -0.2723    3.4345 O   0  0  0  0  0  0  0  0  0  0  0  0
   -2.2566    0.0600    5.3109 C   0  0  0  0  0  0  0  0  0  0  0  0
   -3.0163   -0.7363    5.3643 H   0  0  0  0  0  0  0  0  0  0  0  0
   -1.4254   -0.2876    5.9452 H   0  0  0  0  0  0  0  0  0  0  0  0
   -2.6947    0.9149    5.8505 H   0  0  0  0  0  0  0  0  0  0  0  0
   -2.5745    1.3149    3.2691 N   0  0  0  0  0  0  0  0  0  0  0  0
   -2.3276    1.7409    1.9167 C   0  0  2  0  0  0  0  0  0  0  0  0
   -0.9926    1.1555    1.4755 C   0  0  0  0  0  0  0  0  0  0  0  0
   -0.1206    0.8028    2.2668 O   0  0  0  0  0  0  0  0  0  0  0  0
   -2.3188    3.2577    1.8072 C   0  0  0  0  0  0  0  0  0  0  0  0
   -3.3395    1.7507    3.7809 H   0  0  0  0  0  0  0  0  0  0  0  0
   -3.1317    1.3224    1.3015 H   0  0  0  0  0  0  0  0  0  0  0  0
   -1.5198    3.6949    2.4169 H   0  0  0  0  0  0  0  0  0  0  0  0
   -2.1594    3.5799    0.7729 H   0  0  0  0  0  0  0  0  0  0  0  0
   -3.2690    3.6789    2.1530 H   0  0  0  0  0  0  0  0  0  0  0  0
   -0.8700    1.1124    0.0921 N   0  0  0  0  0  0  0  0  0  0  0  0
   -1.9937    1.2723   -0.7962 C   0  0  2  0  0  0  0  0  0  0  0  0
   -2.9816    0.1553   -0.4792 C   0  0  0  0  0  0  0  0  0  0  0  0
   -4.1952    0.3362   -0.4061 O   0  0  0  0  0  0  0  0  0  0  0  0
   -1.5789    1.2143   -2.2709 C   0  0  0  0  0  0  0  0  0  0  0  0
   -0.7231    2.3872   -2.6829 C   0  0  0  0  0  0  0  0  0  0  0  0
   -1.3180    3.6089   -2.9979 C   0  0  0  0  0  0  0  0  0  0  0  0
    0.6634    2.2491   -2.7486 C   0  0  0  0  0  0  0  0  0  0  0  0
   -0.5265    4.6925   -3.3784 C   0  0  0  0  0  0  0  0  0  0  0  0
    1.4549    3.3328   -3.1292 C   0  0  0  0  0  0  0  0  0  0  0  0
    0.8599    4.5545   -3.4441 C   0  0  0  0  0  0  0  0  0  0  0  0
    0.0528    1.0017   -0.3213 H   0  0  0  0  0  0  0  0  0  0  0  0
   -2.4519    2.2373   -0.5497 H   0  0  0  0  0  0  0  0  0  0  0  0
   -2.4676    1.1614   -2.9142 H   0  0  0  0  0  0  0  0  0  0  0  0
   -1.0197    0.2919   -2.4760 H   0  0  0  0  0  0  0  0  0  0  0  0
   -2.3975    3.7257   -2.9493 H   0  0  0  0  0  0  0  0  0  0  0  0
    1.1357    1.3011   -2.5050 H   0  0  0  0  0  0  0  0  0  0  0  0
   -0.9901    5.6434   -3.6246 H   0  0  0  0  0  0  0  0  0  0  0  0
    2.5342    3.2247   -3.1813 H   0  0  0  0  0  0  0  0  0  0  0  0
    1.4760    5.3980   -3.7417 H   0  0  0  0  0  0  0  0  0  0  0  0
   -2.3499   -1.0725   -0.3382 N   0  0  0  0  0  0  0  0  0  0  0  0
   -3.0573   -2.3014   -0.0583 C   0  0  2  0  0  0  0  0  0  0  0  0
   -3.9804   -2.0531    1.1273 C   0  0  0  0  0  0  0  0  0  0  0  0
   -3.7976   -1.1513    1.9424 O   0  0  0  0  0  0  0  0  0  0  0  0
   -2.0931   -3.4408    0.2328 C   0  0  0  0  0  0  0  0  0  0  0  0
   -1.3396   -1.1093   -0.4366 H   0  0  0  0  0  0  0  0  0  0  0  0
   -3.6561   -2.5309   -0.9464 H   0  0  0  0  0  0  0  0  0  0  0  0
   -1.4844   -3.2289    1.1194 H   0  0  0  0  0  0  0  0  0  0  0  0
   -2.6297   -4.3775    0.4165 H   0  0  0  0  0  0  0  0  0  0  0  0
   -1.4104   -3.5984   -0.6092 H   0  0  0  0  0  0  0  0  0  0  0  0
   -5.0080   -2.9837    1.1925 N   0  0  0  0  0  0  0  0  0  0  0  0
   -6.0083   -2.9689    2.2342 C   0  0  0  0  0  0  0  0  0  0  0  0
   -5.0935   -3.6855    0.4632 H   0  0  0  0  0  0  0  0  0  0  0  0
   -5.6869   -3.6193    3.0611 H   0  0  0  0  0  0  0  0  0  0  0  0
   -6.1364   -1.9412    2.6048 H   0  0  0  0  0  0  0  0  0  0  0  0
   -6.9637   -3.3347    1.8301 H   0  0  0  0  0  0  0  0  0  0  0  0
 25 27  1  0  0  0  0
 26 27  2  0  0  0  0
 23 25  2  0  0  0  0
 24 26  1  0  0  0  0
 22 23  1  0  0  0  0
 22 24  2  0  0  0  0
 21 22  1  0  0  0  0
  1  3  1  0  0  0  0
  1  7  1  0  0  0  0
  1  2  2  0  0  0  0
 38 39  1  0  0  0  0
 39 47  1  0  0  0  0
 39 40  2  0  0  0  0
  8  9  1  0  0  0  0
  9 17  1  0  0  0  0
  9 10  2  0  0  0  0
 18 19  1  0  0  0  0
 19 37  1  0  0  0  0
 19 20  2  0  0  0  0
 38 41  1  0  0  0  0
  8 11  1  0  0  0  0
 47 48  1  0  0  0  0
 18 21  1  0  0  0  0
 37 38  1  0  0  0  0
  7  8  1  0  0  0  0
 17 18  1  0  0  0  0
 27 36  1  0  0  0  0
 25 34  1  0  0  0  0
 26 35  1  0  0  0  0
 23 32  1  0  0  0  0
 24 33  1  0  0  0  0
  3  4  1  0  0  0  0
  3  5  1  0  0  0  0
  3  6  1  0  0  0  0
 41 44  1  0  0  0  0
 41 45  1  0  0  0  0
 41 46  1  0  0  0  0
 11 14  1  0  0  0  0
 11 15  1  0  0  0  0
 11 16  1  0  0  0  0
 48 50  1  0  0  0  0
 48 51  1  0  0  0  0
 48 52  1  0  0  0  0
 21 30  1  0  0  0  0
 21 31  1  0  0  0  0
 38 43  1  0  0  0  0
  8 13  1  0  0  0  0
 18 29  1  0  0  0  0
 47 49  1  0  0  0  0
  7 12  1  0  0  0  0
 37 42  1  0  0  0  0
 17 28  1  0  0  0  0
M  END
$$$$

  -OEChem-02062319033D

 52 52  0     1  0  0  0  0  0999 V2000
   -1.8248    0.3424    3.9102 C   0  0  0  0  0  0  0  0  0  0  0  0
   -0.8774   -0.2723    3.4345 O   0  0  0  0  0  0  0  0  0  0  0  0
   -2.2566    0.0600    5.3109 C   0  0  0  0  0  0  0  0  0  0  0  0
   -3.0163   -0.7363    5.3643 H   0  0  0  0  0  0  0  0  0  0  0  0
   -1.4254   -0.2876    5.9452 H   0  0  0  0  0  0  0  0  0  0  0  0
   -2.6947    0.9149    5.8505 H   0  0  0  0  0  0  0  0  0  0  0  0
   -2.5745    1.3149    3.2691 N   0  0  0  0  0  0  0  0  0  0  0  0
   -2.3276    1.7409    1.9167 C   0  0  2  0  0  0  0  0  0  0  0  0
   -0.9926    1.1555    1.4755 C   0  0  0  0  0  0  0  0  0  0  0  0
   -0.1206    0.8028    2.2668 O   0  0  0  0  0  0  0  0  0  0  0  0
   -2.3188    3.2577    1.8072 C   0  0  0  0  0  0  0  0  0  0  0  0
   -3.3395    1.7507    3.7809 H   0  0  0  0  0  0  0  0  0  0  0  0
   -3.1317    1.3224    1.3015 H   0  0  0  0  0  0  0  0  0  0  0  0
   -1.5198    3.6949    2.4169 H   0  0  0  0  0  0  0  0  0  0  0  0
   -2.1594    3.5799    0.7729 H   0  0  0  0  0  0  0  0  0  0  0  0
   -3.2690    3.6789    2.1530 H   0  0  0  0  0  0  0  0  0  0  0  0
   -0.8700    1.1124    0.0921 N   0  0  0  0  0  0  0  0  0  0  0  0
   -1.9047    1.5759   -0.7977 C   0  0  2  0  0  0  0  0  0  0  0  0
   -3.1505    0.7446   -0.5126 C   0  0  0  0  0  0  0  0  0  0  0  0
   -4.2773    1.2306   -0.4412 O   0  0  0  0  0  0  0  0  0  0  0  0
   -1.5026    1.4451   -2.2713 C   0  0  0  0  0  0  0  0  0  0  0  0
   -0.3691    2.3664   -2.6509 C   0  0  0  0  0  0  0  0  0  0  0  0
   -0.6257    3.7067   -2.9395 C   0  0  0  0  0  0  0  0  0  0  0  0
    0.9357    1.8771   -2.7129 C   0  0  0  0  0  0  0  0  0  0  0  0
    0.4223    4.5578   -3.2901 C   0  0  0  0  0  0  0  0  0  0  0  0
    1.9838    2.7281   -3.0635 C   0  0  0  0  0  0  0  0  0  0  0  0
    1.7271    4.0685   -3.3520 C   0  0  0  0  0  0  0  0  0  0  0  0
   -0.0024    0.7766   -0.3191 H   0  0  0  0  0  0  0  0  0  0  0  0
   -2.1016    2.6208   -0.5306 H   0  0  0  0  0  0  0  0  0  0  0  0
   -2.3678    1.6371   -2.9202 H   0  0  0  0  0  0  0  0  0  0  0  0
   -1.1977    0.4143   -2.4956 H   0  0  0  0  0  0  0  0  0  0  0  0
   -1.6392    4.0968   -2.8936 H   0  0  0  0  0  0  0  0  0  0  0  0
    1.1451    0.8343   -2.4896 H   0  0  0  0  0  0  0  0  0  0  0  0
    0.2221    5.6011   -3.5158 H   0  0  0  0  0  0  0  0  0  0  0  0
    2.9993    2.3466   -3.1127 H   0  0  0  0  0  0  0  0  0  0  0  0
    2.5429    4.7310   -3.6263 H   0  0  0  0  0  0  0  0  0  0  0  0
   -2.8580   -0.6073   -0.3977 N   0  0  0  0  0  0  0  0  0  0  0  0
   -3.8610   -1.6181   -0.1509 C   0  0  2  0  0  0  0  0  0  0  0  0
   -4.7020   -1.1661    1.0357 C   0  0  0  0  0  0  0  0  0  0  0  0
   -4.3021   -0.3599    1.8730 O   0  0  0  0  0  0  0  0  0  0  0  0
   -3.2262   -2.9736    0.1178 C   0  0  0  0  0  0  0  0  0  0  0  0
   -1.8902   -0.9010   -0.4919 H   0  0  0  0  0  0  0  0  0  0  0  0
   -4.4890   -1.6660   -1.0472 H   0  0  0  0  0  0  0  0  0  0  0  0
   -2.5932   -2.9452    1.0122 H   0  0  0  0  0  0  0  0  0  0  0  0
   -3.9879   -3.7441    0.2763 H   0  0  0  0  0  0  0  0  0  0  0  0
   -2.5979   -3.2835   -0.7243 H   0  0  0  0  0  0  0  0  0  0  0  0
   -5.9353   -1.8015    1.0734 N   0  0  0  0  0  0  0  0  0  0  0  0
   -6.9095   -1.5521    2.1101 C   0  0  0  0  0  0  0  0  0  0  0  0
   -6.1907   -2.4415    0.3271 H   0  0  0  0  0  0  0  0  0  0  0  0
   -6.7757   -2.2812    2.9228 H   0  0  0  0  0  0  0  0  0  0  0  0
   -6.7726   -0.5344    2.5045 H   0  0  0  0  0  0  0  0  0  0  0  0
   -7.9224   -1.6504    1.6926 H   0  0  0  0  0  0  0  0  0  0  0  0
 25 27  1  0  0  0  0
 26 27  2  0  0  0  0
 23 25  2  0  0  0  0
 24 26  1  0  0  0  0
 22 23  1  0  0  0  0
 22 24  2  0  0  0  0
 21 22  1  0  0  0  0
  1  3  1  0  0  0  0
  1  7  1  0  0  0  0
  1  2  2  0  0  0  0
 38 39  1  0  0  0  0
 39 47  1  0  0  0  0
 39 40  2  0  0  0  0
  8  9  1  0  0  0  0
  9 17  1  0  0  0  0
  9 10  2  0  0  0  0
 18 19  1  0  0  0  0
 19 37  1  0  0  0  0
 19 20  2  0  0  0  0
 38 41  1  0  0  0  0
  8 11  1  0  0  0  0
 47 48  1  0  0  0  0
 18 21  1  0  0  0  0
 37 38  1  0  0  0  0
  7  8  1  0  0  0  0
 17 18  1  0  0  0  0
 27 36  1  0  0  0  0
 25 34  1  0  0  0  0
 26 35  1  0  0  0  0
 23 32  1  0  0  0  0
 24 33  1  0  0  0  0
  3  4  1  0  0  0  0
  3  5  1  0  0  0  0
  3  6  1  0  0  0  0
 41 44  1  0  0  0  0
 41 45  1  0  0  0  0
 41 46  1  0  0  0  0
 11 14  1  0  0  0  0
 11 15  1  0  0  0  0
 11 16  1  0  0  0  0
 48 50  1  0  0  0  0
 48 51  1  0  0  0  0
 48 52  1  0  0  0  0
 21 30  1  0  0  0  0
 21 31  1  0  0  0  0
 38 43  1  0  0  0  0
  8 13  1  0  0  0  0
 18 29  1  0  0  0  0
 47 49  1  0  0  0  0
  7 12  1  0  0  0  0
 37 42  1  0  0  0  0
 17 28  1  0  0  0  0
M  END
$$$$

  -OEChem-02062319033D

 52 52  0     1  0  0  0  0  0999 V2000
   -1.8248    0.3424    3.9102 C   0  0  0  0  0  0  0  0  0  0  0  0
   -0.8774   -0.2723    3.4345 O   0  0  0  0  0  0  0  0  0  0  0  0
   -2.2566    0.0600    5.3109 C   0  0  0  0  0  0  0  0  0  0  0  0
   -3.0163   -0.7363    5.3643 H   0  0  0  0  0  0  0  0  0  0  0  0
   -1.4254   -0.2876    5.9452 H   0  0  0  0  0  0  0  0  0  0  0  0
   -2.6947    0.9149    5.8505 H   0  0  0  0  0  0  0  0  0  0  0  0
   -2.5745    1.3149    3.2691 N   0  0  0  0  0  0  0  0  0  0  0  0
   -2.3276    1.7409    1.9167 C   0  0  2  0  0  0  0  0  0  0  0  0
   -0.9926    1.1555    1.4755 C   0  0  0  0  0  0  0  0  0  0  0  0
   -0.1206    0.8028    2.2668 O   0  0  0  0  0  0  0  0  0  0  0  0
   -2.3188    3.2577    1.8072 C   0  0  0  0  0  0  0  0  0  0  0  0
   -3.3395    1.7507    3.7809 H   0  0  0  0  0  0  0  0  0  0  0  0
   -3.1317    1.3224    1.3015 H   0  0  0  0  0  0  0  0  0  0  0  0
   -1.5198    3.6949    2.4169 H   0  0  0  0  0  0  0  0  0  0  0  0
   -2.1594    3.5799    0.7729 H   0  0  0  0  0  0  0  0  0  0  0  0
   -3.2690    3.6789    2.1530 H   0  0  0  0  0  0  0  0  0  0  0  0
   -0.8700    1.1124    0.0921 N   0  0  0  0  0  0  0  0  0  0  0  0
   -1.7405    1.8462   -0.7916 C   0  0  2  0  0  0  0  0  0  0  0  0
   -3.1614    1.3582   -0.5327 C   0  0  0  0  0  0  0  0  0  0  0  0
   -4.1257    2.1165   -0.4554 O   0  0  0  0  0  0  0  0  0  0  0  0
   -1.3695    1.6483   -2.2658 C   0  0  0  0  0  0  0  0  0  0  0  0
   -0.0328    2.2544   -2.6176 C   0  0  0  0  0  0  0  0  0  0  0  0
    0.0677    3.6215   -2.8754 C   0  0  0  0  0  0  0  0  0  0  0  0
    1.1025    1.4467   -2.6847 C   0  0  0  0  0  0  0  0  0  0  0  0
    1.3034    4.1811   -3.2002 C   0  0  0  0  0  0  0  0  0  0  0  0
    2.3383    2.0063   -3.0095 C   0  0  0  0  0  0  0  0  0  0  0  0
    2.4387    3.3735   -3.2673 C   0  0  0  0  0  0  0  0  0  0  0  0
   -0.1137    0.5734   -0.3227 H   0  0  0  0  0  0  0  0  0  0  0  0
   -1.6646    2.9005   -0.5005 H   0  0  0  0  0  0  0  0  0  0  0  0
   -2.1488    2.0710   -2.9143 H   0  0  0  0  0  0  0  0  0  0  0  0
   -1.3379    0.5790   -2.5132 H   0  0  0  0  0  0  0  0  0  0  0  0
   -0.8115    4.2585   -2.8253 H   0  0  0  0  0  0  0  0  0  0  0  0
    1.0338    0.3806   -2.4853 H   0  0  0  0  0  0  0  0  0  0  0  0
    1.3812    5.2454   -3.4020 H   0  0  0  0  0  0  0  0  0  0  0  0
    3.2217    1.3770   -3.0627 H   0  0  0  0  0  0  0  0  0  0  0  0
    3.4006    3.8091   -3.5216 H   0  0  0  0  0  0  0  0  0  0  0  0
   -3.2283   -0.0256   -0.4487 N   0  0  0  0  0  0  0  0  0  0  0  0
   -4.4606   -0.7488   -0.2311 C   0  0  2  0  0  0  0  0  0  0  0  0
   -5.1698   -0.1213    0.9616 C   0  0  0  0  0  0  0  0  0  0  0  0
   -4.5850    0.5361    1.8200 O   0  0  0  0  0  0  0  0  0  0  0  0
   -4.1993   -2.2277    0.0082 C   0  0  0  0  0  0  0  0  0  0  0  0
   -2.3679   -0.5568   -0.5450 H   0  0  0  0  0  0  0  0  0  0  0  0
   -5.0698   -0.6137   -1.1315 H   0  0  0  0  0  0  0  0  0  0  0  0
   -3.5903   -2.3829    0.9063 H   0  0  0  0  0  0  0  0  0  0  0  0
   -5.1355   -2.7790    0.1445 H   0  0  0  0  0  0  0  0  0  0  0  0
   -3.6628   -2.6706   -0.8378 H   0  0  0  0  0  0  0  0  0  0  0  0
   -6.5255   -0.4180    0.9780 N   0  0  0  0  0  0  0  0  0  0  0  0
   -7.4139    0.0515    2.0154 C   0  0  0  0  0  0  0  0  0  0  0  0
   -6.9289   -0.9541    0.2153 H   0  0  0  0  0  0  0  0  0  0  0  0
   -7.4814   -0.7051    2.8111 H   0  0  0  0  0  0  0  0  0  0  0  0
   -7.0238    0.9906    2.4347 H   0  0  0  0  0  0  0  0  0  0  0  0
   -8.4133    0.2267    1.5906 H   0  0  0  0  0  0  0  0  0  0  0  0
 25 27  1  0  0  0  0
 26 27  2  0  0  0  0
 23 25  2  0  0  0  0
 24 26  1  0  0  0  0
 22 23  1  0  0  0  0
 22 24  2  0  0  0  0
 21 22  1  0  0  0  0
  1  3  1  0  0  0  0
  1  7  1  0  0  0  0
  1  2  2  0  0  0  0
 38 39  1  0  0  0  0
 39 47  1  0  0  0  0
 39 40  2  0  0  0  0
  8  9  1  0  0  0  0
  9 17  1  0  0  0  0
  9 10  2  0  0  0  0
 18 19  1  0  0  0  0
 19 37  1  0  0  0  0
 19 20  2  0  0  0  0
 38 41  1  0  0  0  0
  8 11  1  0  0  0  0
 47 48  1  0  0  0  0
 18 21  1  0  0  0  0
 37 38  1  0  0  0  0
  7  8  1  0  0  0  0
 17 18  1  0  0  0  0
 27 36  1  0  0  0  0
 25 34  1  0  0  0  0
 26 35  1  0  0  0  0
 23 32  1  0  0  0  0
 24 33  1  0  0  0  0
  3  4  1  0  0  0  0
  3  5  1  0  0  0  0
  3  6  1  0  0  0  0
 41 44  1  0  0  0  0
 41 45  1  0  0  0  0
 41 46  1  0  0  0  0
 11 14  1  0  0  0  0
 11 15  1  0  0  0  0
 11 16  1  0  0  0  0
 48 50  1  0  0  0  0
 48 51  1  0  0  0  0
 48 52  1  0  0  0  0
 21 30  1  0  0  0  0
 21 31  1  0  0  0  0
 38 43  1  0  0  0  0
  8 13  1  0  0  0  0
 18 29  1  0  0  0  0
 47 49  1  0  0  0  0
  7 12  1  0  0  0  0
 37 42  1  0  0  0  0
 17 28  1  0  0  0  0
M  END
$$$$

  -OEChem-02062319033D

 52 52  0     1  0  0  0  0  0999 V2000
   -1.8248    0.3424    3.9102 C   0  0  0  0  0  0  0  0  0  0  0  0
   -0.8774   -0.2723    3.4345 O   0  0  0  0  0  0  0  0  0  0  0  0
   -2.2566    0.0600    5.3109 C   0  0  0  0  0  0  0  0  0  0  0  0
   -3.0163   -0.7363    5.3643 H   0  0  0  0  0  0  0  0  0  0  0  0
   -1.4254   -0.2876    5.9452 H   0  0  0  0  0  0  0  0  0  0  0  0
   -2.6947    0.9149    5.8505 H   0  0  0  0  0  0  0  0  0  0  0  0
   -2.5745    1.3149    3.2691 N   0  0  0  0  0  0  0  0  0  0  0  0
   -2.3276    1.7409    1.9167 C   0  0  2  0  0  0  0  0  0  0  0  0
   -0.9926    1.1555    1.4755 C   0  0  0  0  0  0  0  0  0  0  0  0
   -0.1206    0.8028    2.2668 O   0  0  0  0  0  0  0  0  0  0  0  0
   -2.3188    3.2577    1.8072 C   0  0  0  0  0  0  0  0  0  0  0  0
   -3.3395    1.7507    3.7809 H   0  0  0  0  0  0  0  0  0  0  0  0
   -3.1317    1.3224    1.3015 H   0  0  0  0  0  0  0  0  0  0  0  0
   -1.5198    3.6949    2.4169 H   0  0  0  0  0  0  0  0  0  0  0  0
   -2.1594    3.5799    0.7729 H   0  0  0  0  0  0  0  0  0  0  0  0
   -3.2690    3.6789    2.1530 H   0  0  0  0  0  0  0  0  0  0  0  0
   -0.8700    1.1124    0.0921 N   0  0  0  0  0  0  0  0  0  0  0  0
   -1.5123    2.0649   -0.7782 C   0  0  2  0  0  0  0  0  0  0  0  0
   -3.0138    1.9541   -0.5381 C   0  0  0  0  0  0  0  0  0  0  0  0
   -3.7510    2.9335   -0.4477 O   0  0  0  0  0  0  0  0  0  0  0  0
   -1.1885    1.8102   -2.2548 C   0  0  0  0  0  0  0  0  0  0  0  0
    0.2629    2.0587   -2.5853 C   0  0  0  0  0  0  0  0  0  0  0  0
    0.7150    3.3591   -2.8098 C   0  0  0  0  0  0  0  0  0  0  0  0
    1.1526    0.9874   -2.6659 C   0  0  0  0  0  0  0  0  0  0  0  0
    2.0567    3.5881   -3.1150 C   0  0  0  0  0  0  0  0  0  0  0  0
    2.4942    1.2164   -2.9711 C   0  0  0  0  0  0  0  0  0  0  0  0
    2.9463    2.5168   -3.1956 C   0  0  0  0  0  0  0  0  0  0  0  0
   -0.2735    0.4058   -0.3316 H   0  0  0  0  0  0  0  0  0  0  0  0
   -1.1706    3.0574   -0.4616 H   0  0  0  0  0  0  0  0  0  0  0  0
   -1.8255    2.4335   -2.8970 H   0  0  0  0  0  0  0  0  0  0  0  0
   -1.4307    0.7745   -2.5275 H   0  0  0  0  0  0  0  0  0  0  0  0
    0.0291    4.1999   -2.7489 H   0  0  0  0  0  0  0  0  0  0  0  0
    0.8094   -0.0291   -2.4925 H   0  0  0  0  0  0  0  0  0  0  0  0
    2.4083    4.6006   -3.2908 H   0  0  0  0  0  0  0  0  0  0  0  0
    3.1863    0.3820   -3.0349 H   0  0  0  0  0  0  0  0  0  0  0  0
    3.9907    2.6952   -3.4345 H   0  0  0  0  0  0  0  0  0  0  0  0
   -3.4358    0.6328   -0.4876 N   0  0  0  0  0  0  0  0  0  0  0  0
   -4.8150    0.2472   -0.2936 C   0  0  2  0  0  0  0  0  0  0  0  0
   -5.3518    1.0101    0.9102 C   0  0  0  0  0  0  0  0  0  0  0  0
   -4.6269    1.4757    1.7870 O   0  0  0  0  0  0  0  0  0  0  0  0
   -4.9462   -1.2540   -0.0883 C   0  0  0  0  0  0  0  0  0  0  0  0
   -2.7402   -0.1000   -0.5923 H   0  0  0  0  0  0  0  0  0  0  0  0
   -5.3589    0.5543   -1.1935 H   0  0  0  0  0  0  0  0  0  0  0  0
   -4.4076   -1.5804    0.8088 H   0  0  0  0  0  0  0  0  0  0  0  0
   -5.9943   -1.5482    0.0300 H   0  0  0  0  0  0  0  0  0  0  0  0
   -4.5326   -1.8017   -0.9420 H   0  0  0  0  0  0  0  0  0  0  0  0
   -6.7383    1.0727    0.9126 N   0  0  0  0  0  0  0  0  0  0  0  0
   -7.4871    1.7325    1.9566 C   0  0  0  0  0  0  0  0  0  0  0  0
   -7.2577    0.6754    0.1354 H   0  0  0  0  0  0  0  0  0  0  0  0
   -7.7560    1.0018    2.7336 H   0  0  0  0  0  0  0  0  0  0  0  0
   -6.8730    2.5300    2.4001 H   0  0  0  0  0  0  0  0  0  0  0  0
   -8.4029    2.1687    1.5310 H   0  0  0  0  0  0  0  0  0  0  0  0
 25 27  1  0  0  0  0
 26 27  2  0  0  0  0
 23 25  2  0  0  0  0
 24 26  1  0  0  0  0
 22 23  1  0  0  0  0
 22 24  2  0  0  0  0
 21 22  1  0  0  0  0
  1  3  1  0  0  0  0
  1  7  1  0  0  0  0
  1  2  2  0  0  0  0
 38 39  1  0  0  0  0
 39 47  1  0  0  0  0
 39 40  2  0  0  0  0
  8  9  1  0  0  0  0
  9 17  1  0  0  0  0
  9 10  2  0  0  0  0
 18 19  1  0  0  0  0
 19 37  1  0  0  0  0
 19 20  2  0  0  0  0
 38 41  1  0  0  0  0
  8 11  1  0  0  0  0
 47 48  1  0  0  0  0
 18 21  1  0  0  0  0
 37 38  1  0  0  0  0
  7  8  1  0  0  0  0
 17 18  1  0  0  0  0
 27 36  1  0  0  0  0
 25 34  1  0  0  0  0
 26 35  1  0  0  0  0
 23 32  1  0  0  0  0
 24 33  1  0  0  0  0
  3  4  1  0  0  0  0
  3  5  1  0  0  0  0
  3  6  1  0  0  0  0
 41 44  1  0  0  0  0
 41 45  1  0  0  0  0
 41 46  1  0  0  0  0
 11 14  1  0  0  0  0
 11 15  1  0  0  0  0
 11 16  1  0  0  0  0
 48 50  1  0  0  0  0
 48 51  1  0  0  0  0
 48 52  1  0  0  0  0
 21 30  1  0  0  0  0
 21 31  1  0  0  0  0
 38 43  1  0  0  0  0
  8 13  1  0  0  0  0
 18 29  1  0  0  0  0
 47 49  1  0  0  0  0
  7 12  1  0  0  0  0
 37 42  1  0  0  0  0
 17 28  1  0  0  0  0
M  END
$$$$

  -OEChem-02062319033D

 52 52  0     1  0  0  0  0  0999 V2000
   -1.8248    0.3424    3.9102 C   0  0  0  0  0  0  0  0  0  0  0  0
   -0.8774   -0.2723    3.4345 O   0  0  0  0  0  0  0  0  0  0  0  0
   -2.2566    0.0600    5.3109 C   0  0  0  0  0  0  0  0  0  0  0  0
   -3.0163   -0.7363    5.3643 H   0  0  0  0  0  0  0  0  0  0  0  0
   -1.4254   -0.2876    5.9452 H   0  0  0  0  0  0  0  0  0  0  0  0
   -2.6947    0.9149    5.8505 H   0  0  0  0  0  0  0  0  0  0  0  0
   -2.5745    1.3149    3.2691 N   0  0  0  0  0  0  0  0  0  0  0  0
   -2.3276    1.7409    1.9167 C   0  0  2  0  0  0  0  0  0  0  0  0
   -0.9926    1.1555    1.4755 C   0  0  0  0  0  0  0  0  0  0  0  0
   -0.1206    0.8028    2.2668 O   0  0  0  0  0  0  0  0  0  0  0  0
   -2.3188    3.2577    1.8072 C   0  0  0  0  0  0  0  0  0  0  0  0
   -3.3395    1.7507    3.7809 H   0  0  0  0  0  0  0  0  0  0  0  0
   -3.1317    1.3224    1.3015 H   0  0  0  0  0  0  0  0  0  0  0  0
   -1.5198    3.6949    2.4169 H   0  0  0  0  0  0  0  0  0  0  0  0
   -2.1594    3.5799    0.7729 H   0  0  0  0  0  0  0  0  0  0  0  0
   -3.2690    3.6789    2.1530 H   0  0  0  0  0  0  0  0  0  0  0  0
   -0.8700    1.1124    0.0921 N   0  0  0  0  0  0  0  0  0  0  0  0
   -1.2357    2.2170   -0.7584 C   0  0  2  0  0  0  0  0  0  0  0  0
   -2.7175    2.4918   -0.5286 C   0  0  0  0  0  0  0  0  0  0  0  0
   -3.1785    3.6260   -0.4185 O   0  0  0  0  0  0  0  0  0  0  0  0
   -0.9721    1.9197   -2.2391 C   0  0  0  0  0  0  0  0  0  0  0  0
    0.4979    1.7928   -2.5562 C   0  0  0  0  0  0  0  0  0  0  0  0
    1.2722    2.9373   -2.7473 C   0  0  0  0  0  0  0  0  0  0  0  0
    1.0824    0.5304   -2.6579 C   0  0  0  0  0  0  0  0  0  0  0  0
    2.6308    2.8193   -3.0401 C   0  0  0  0  0  0  0  0  0  0  0  0
    2.4411    0.4124   -2.9508 C   0  0  0  0  0  0  0  0  0  0  0  0
    3.2153    1.5569   -3.1418 C   0  0  0  0  0  0  0  0  0  0  0  0
   -0.4710    0.2853   -0.3454 H   0  0  0  0  0  0  0  0  0  0  0  0
   -0.6533    3.0807   -0.4165 H   0  0  0  0  0  0  0  0  0  0  0  0
   -1.4200    2.7000   -2.8693 H   0  0  0  0  0  0  0  0  0  0  0  0
   -1.4699    0.9877   -2.5376 H   0  0  0  0  0  0  0  0  0  0  0  0
    0.8253    3.9250   -2.6698 H   0  0  0  0  0  0  0  0  0  0  0  0
    0.4870   -0.3668   -2.5105 H   0  0  0  0  0  0  0  0  0  0  0  0
    3.2333    3.7105   -3.1899 H   0  0  0  0  0  0  0  0  0  0  0  0
    2.8955   -0.5706   -3.0310 H   0  0  0  0  0  0  0  0  0  0  0  0
    4.2729    1.4652   -3.3712 H   0  0  0  0  0  0  0  0  0  0  0  0
   -3.4662    1.3232   -0.5118 N   0  0  0  0  0  0  0  0  0  0  0  0
   -4.9003    1.3020   -0.3340 C   0  0  2  0  0  0  0  0  0  0  0  0
   -5.2357    2.1511    0.8850 C   0  0  0  0  0  0  0  0  0  0  0  0
   -4.4250    2.3949    1.7763 O   0  0  0  0  0  0  0  0  0  0  0  0
   -5.4160   -0.1187   -0.1654 C   0  0  0  0  0  0  0  0  0  0  0  0
   -2.9817    0.4383   -0.6305 H   0  0  0  0  0  0  0  0  0  0  0  0
   -5.3367    1.7585   -1.2291 H   0  0  0  0  0  0  0  0  0  0  0  0
   -4.9896   -0.5924    0.7264 H   0  0  0  0  0  0  0  0  0  0  0  0
   -6.5057   -0.1353   -0.0594 H   0  0  0  0  0  0  0  0  0  0  0  0
   -5.1480   -0.7358   -1.0298 H   0  0  0  0  0  0  0  0  0  0  0  0
   -6.5592    2.5688    0.8819 N   0  0  0  0  0  0  0  0  0  0  0  0
   -7.1243    3.3765    1.9375 C   0  0  0  0  0  0  0  0  0  0  0  0
   -7.1548    2.3360    0.0928 H   0  0  0  0  0  0  0  0  0  0  0  0
   -7.5808    2.7231    2.6955 H   0  0  0  0  0  0  0  0  0  0  0  0
   -6.3303    3.9789    2.4031 H   0  0  0  0  0  0  0  0  0  0  0  0
   -7.8920    4.0432    1.5179 H   0  0  0  0  0  0  0  0  0  0  0  0
 25 27  1  0  0  0  0
 26 27  2  0  0  0  0
 23 25  2  0  0  0  0
 24 26  1  0  0  0  0
 22 23  1  0  0  0  0
 22 24  2  0  0  0  0
 21 22  1  0  0  0  0
  1  3  1  0  0  0  0
  1  7  1  0  0  0  0
  1  2  2  0  0  0  0
 38 39  1  0  0  0  0
 39 47  1  0  0  0  0
 39 40  2  0  0  0  0
  8  9  1  0  0  0  0
  9 17  1  0  0  0  0
  9 10  2  0  0  0  0
 18 19  1  0  0  0  0
 19 37  1  0  0  0  0
 19 20  2  0  0  0  0
 38 41  1  0  0  0  0
  8 11  1  0  0  0  0
 47 48  1  0  0  0  0
 18 21  1  0  0  0  0
 37 38  1  0  0  0  0
  7  8  1  0  0  0  0
 17 18  1  0  0  0  0
 27 36  1  0  0  0  0
 25 34  1  0  0  0  0
 26 35  1  0  0  0  0
 23 32  1  0  0  0  0
 24 33  1  0  0  0  0
  3  4  1  0  0  0  0
  3  5  1  0  0  0  0
  3  6  1  0  0  0  0
 41 44  1  0  0  0  0
 41 45  1  0  0  0  0
 41 46  1  0  0  0  0
 11 14  1  0  0  0  0
 11 15  1  0  0  0  0
 11 16  1  0  0  0  0
 48 50  1  0  0  0  0
 48 51  1  0  0  0  0
 48 52  1  0  0  0  0
 21 30  1  0  0  0  0
 21 31  1  0  0  0  0
 38 43  1  0  0  0  0
  8 13  1  0  0  0  0
 18 29  1  0  0  0  0
 47 49  1  0  0  0  0
  7 12  1  0  0  0  0
 37 42  1  0  0  0  0
 17 28  1  0  0  0  0
M  END
$$$$

  -OEChem-02062319033D

 52 52  0     1  0  0  0  0  0999 V2000
   -1.8248    0.3424    3.9102 C   0  0  0  0  0  0  0  0  0  0  0  0
   -0.8774   -0.2723    3.4345 O   0  0  0  0  0  0  0  0  0  0  0  0
   -2.2566    0.0600    5.3109 C   0  0  0  0  0  0  0  0  0  0  0  0
   -3.0163   -0.7363    5.3643 H   0  0  0  0  0  0  0  0  0  0  0  0
   -1.4254   -0.2876    5.9452 H   0  0  0  0  0  0  0  0  0  0  0  0
   -2.6947    0.9149    5.8505 H   0  0  0  0  0  0  0  0  0  0  0  0
   -2.5745    1.3149    3.2691 N   0  0  0  0  0  0  0  0  0  0  0  0
   -2.3276    1.7409    1.9167 C   0  0  2  0  0  0  0  0  0  0  0  0
   -0.9926    1.1555    1.4755 C   0  0  0  0  0  0  0  0  0  0  0  0
   -0.1206    0.8028    2.2668 O   0  0  0  0  0  0  0  0  0  0  0  0
   -2.3188    3.2577    1.8072 C   0  0  0  0  0  0  0  0  0  0  0  0
   -3.3395    1.7507    3.7809 H   0  0  0  0  0  0  0  0  0  0  0  0
   -3.1317    1.3224    1.3015 H   0  0  0  0  0  0  0  0  0  0  0  0
   -1.5198    3.6949    2.4169 H   0  0  0  0  0  0  0  0  0  0  0  0
   -2.1594    3.5799    0.7729 H   0  0  0  0  0  0  0  0  0  0  0  0
   -3.2690    3.6789    2.1530 H   0  0  0  0  0  0  0  0  0  0  0  0
   -0.8700    1.1124    0.0921 N   0  0  0  0  0  0  0  0  0  0  0  0
   -0.9294    2.2922   -0.7336 C   0  0  2  0  0  0  0  0  0  0  0  0
   -2.2929    2.9347   -0.5048 C   0  0  0  0  0  0  0  0  0  0  0  0
   -2.4474    4.1466   -0.3699 O   0  0  0  0  0  0  0  0  0  0  0  0
   -0.7350    1.9694   -2.2196 C   0  0  0  0  0  0  0  0  0  0  0  0
    0.6561    1.4748   -2.5322 C   0  0  0  0  0  0  0  0  0  0  0  0
    1.7011    2.3848   -2.6920 C   0  0  0  0  0  0  0  0  0  0  0  0
    0.8968    0.1069   -2.6612 C   0  0  0  0  0  0  0  0  0  0  0  0
    2.9867    1.9270   -2.9808 C   0  0  0  0  0  0  0  0  0  0  0  0
    2.1824   -0.3509   -2.9499 C   0  0  0  0  0  0  0  0  0  0  0  0
    3.2273    0.5592   -3.1096 C   0  0  0  0  0  0  0  0  0  0  0  0
   -0.6927    0.2202   -0.3630 H   0  0  0  0  0  0  0  0  0  0  0  0
   -0.1480    2.9689   -0.3682 H   0  0  0  0  0  0  0  0  0  0  0  0
   -0.9598    2.8523   -2.8333 H   0  0  0  0  0  0  0  0  0  0  0  0
   -1.4528    1.2039   -2.5428 H   0  0  0  0  0  0  0  0  0  0  0  0
    1.5230    3.4524   -2.5932 H   0  0  0  0  0  0  0  0  0  0  0  0
    0.0888   -0.6095   -2.5383 H   0  0  0  0  0  0  0  0  0  0  0  0
    3.8000    2.6359   -3.1062 H   0  0  0  0  0  0  0  0  0  0  0  0
    2.3691   -1.4159   -3.0513 H   0  0  0  0  0  0  0  0  0  0  0  0
    4.2281    0.2029   -3.3358 H   0  0  0  0  0  0  0  0  0  0  0  0
   -3.3174    1.9984   -0.5197 N   0  0  0  0  0  0  0  0  0  0  0  0
   -4.7105    2.3437   -0.3497 C   0  0  2  0  0  0  0  0  0  0  0  0
   -4.8293    3.2238    0.8876 C   0  0  0  0  0  0  0  0  0  0  0  0
   -3.9930    3.2309    1.7885 O   0  0  0  0  0  0  0  0  0  0  0  0
   -5.5766    1.1007   -0.2176 C   0  0  0  0  0  0  0  0  0  0  0  0
   -3.0760    1.0214   -0.6570 H   0  0  0  0  0  0  0  0  0  0  0  0
   -5.0047    2.9167   -1.2358 H   0  0  0  0  0  0  0  0  0  0  0  0
   -5.2965    0.5137    0.6647 H   0  0  0  0  0  0  0  0  0  0  0  0
   -6.6349    1.3632   -0.1175 H   0  0  0  0  0  0  0  0  0  0  0  0
   -5.4671    0.4543   -1.0952 H   0  0  0  0  0  0  0  0  0  0  0  0
   -6.0004    3.9686    0.8878 N   0  0  0  0  0  0  0  0  0  0  0  0
   -6.3499    4.8714    1.9596 C   0  0  0  0  0  0  0  0  0  0  0  0
   -6.6272    3.9144    0.0904 H   0  0  0  0  0  0  0  0  0  0  0  0
   -6.9677    4.3414    2.6994 H   0  0  0  0  0  0  0  0  0  0  0  0
   -5.4328    5.2385    2.4434 H   0  0  0  0  0  0  0  0  0  0  0  0
   -6.9154    5.7225    1.5522 H   0  0  0  0  0  0  0  0  0  0  0  0
 25 27  1  0  0  0  0
 26 27  2  0  0  0  0
 23 25  2  0  0  0  0
 24 26  1  0  0  0  0
 22 23  1  0  0  0  0
 22 24  2  0  0  0  0
 21 22  1  0  0  0  0
  1  3  1  0  0  0  0
  1  7  1  0  0  0  0
  1  2  2  0  0  0  0
 38 39  1  0  0  0  0
 39 47  1  0  0  0  0
 39 40  2  0  0  0  0
  8  9  1  0  0  0  0
  9 17  1  0  0  0  0
  9 10  2  0  0  0  0
 18 19  1  0  0  0  0
 19 37  1  0  0  0  0
 19 20  2  0  0  0  0
 38 41  1  0  0  0  0
  8 11  1  0  0  0  0
 47 48  1  0  0  0  0
 18 21  1  0  0  0  0
 37 38  1  0  0  0  0
  7  8  1  0  0  0  0
 17 18  1  0  0  0  0
 27 36  1  0  0  0  0
 25 34  1  0  0  0  0
 26 35  1  0  0  0  0
 23 32  1  0  0  0  0
 24 33  1  0  0  0  0
  3  4  1  0  0  0  0
  3  5  1  0  0  0  0
  3  6  1  0  0  0  0
 41 44  1  0  0  0  0
 41 45  1  0  0  0  0
 41 46  1  0  0  0  0
 11 14  1  0  0  0  0
 11 15  1  0  0  0  0
 11 16  1  0  0  0  0
 48 50  1  0  0  0  0
 48 51  1  0  0  0  0
 48 52  1  0  0  0  0
 21 30  1  0  0  0  0
 21 31  1  0  0  0  0
 38 43  1  0  0  0  0
  8 13  1  0  0  0  0
 18 29  1  0  0  0  0
 47 49  1  0  0  0  0
  7 12  1  0  0  0  0
 37 42  1  0  0  0  0
 17 28  1  0  0  0  0
M  END
$$$$

  -OEChem-02062319033D

 52 52  0     1  0  0  0  0  0999 V2000
   -1.8248    0.3424    3.9102 C   0  0  0  0  0  0  0  0  0  0  0  0
   -0.8774   -0.2723    3.4345 O   0  0  0  0  0  0  0  0  0  0  0  0
   -2.2566    0.0600    5.3109 C   0  0  0  0  0  0  0  0  0  0  0  0
   -3.0163   -0.7363    5.3643 H   0  0  0  0  0  0  0  0  0  0  0  0
   -1.4254   -0.2876    5.9452 H   0  0  0  0  0  0  0  0  0  0  0  0
   -2.6947    0.9149    5.8505 H   0  0  0  0  0  0  0  0  0  0  0  0
   -2.5745    1.3149    3.2691 N   0  0  0  0  0  0  0  0  0  0  0  0
   -2.3276    1.7409    1.9167 C   0  0  2  0  0  0  0  0  0  0  0  0
   -0.9926    1.1555    1.4755 C   0  0  0  0  0  0  0  0  0  0  0  0
   -0.1206    0.8028    2.2668 O   0  0  0  0  0  0  0  0  0  0  0  0
   -2.3188    3.2577    1.8072 C   0  0  0  0  0  0  0  0  0  0  0  0
   -3.3395    1.7507    3.7809 H   0  0  0  0  0  0  0  0  0  0  0  0
   -3.1317    1.3224    1.3015 H   0  0  0  0  0  0  0  0  0  0  0  0
   -1.5198    3.6949    2.4169 H   0  0  0  0  0  0  0  0  0  0  0  0
   -2.1594    3.5799    0.7729 H   0  0  0  0  0  0  0  0  0  0  0  0
   -3.2690    3.6789    2.1530 H   0  0  0  0  0  0  0  0  0  0  0  0
   -0.8700    1.1124    0.0921 N   0  0  0  0  0  0  0  0  0  0  0  0
   -0.6144    2.2854   -0.7055 C   0  0  2  0  0  0  0  0  0  0  0  0
   -1.7688    3.2524   -0.4682 C   0  0  0  0  0  0  0  0  0  0  0  0
   -1.6074    4.4600   -0.3052 O   0  0  0  0  0  0  0  0  0  0  0  0
   -0.4933    1.9558   -2.1977 C   0  0  0  0  0  0  0  0  0  0  0  0
    0.7268    1.1262   -2.5151 C   0  0  0  0  0  0  0  0  0  0  0  0
    1.9726    1.7394   -2.6478 C   0  0  0  0  0  0  0  0  0  0  0  0
    0.6084   -0.2543   -2.6755 C   0  0  0  0  0  0  0  0  0  0  0  0
    3.1000    0.9721   -2.9409 C   0  0  0  0  0  0  0  0  0  0  0  0
    1.7358   -1.0217   -2.9686 C   0  0  0  0  0  0  0  0  0  0  0  0
    2.9816   -0.4084   -3.1013 C   0  0  0  0  0  0  0  0  0  0  0  0
   -0.9236    0.2148   -0.3833 H   0  0  0  0  0  0  0  0  0  0  0  0
    0.3109    2.7297   -0.3201 H   0  0  0  0  0  0  0  0  0  0  0  0
   -0.4763    2.8799   -2.7912 H   0  0  0  0  0  0  0  0  0  0  0  0
   -1.3805    1.4084   -2.5428 H   0  0  0  0  0  0  0  0  0  0  0  0
    2.0744    2.8144   -2.5244 H   0  0  0  0  0  0  0  0  0  0  0  0
   -0.3581   -0.7407   -2.5738 H   0  0  0  0  0  0  0  0  0  0  0  0
    4.0698    1.4499   -3.0453 H   0  0  0  0  0  0  0  0  0  0  0  0
    1.6430   -2.0963   -3.0945 H   0  0  0  0  0  0  0  0  0  0  0  0
    3.8593   -1.0056   -3.3308 H   0  0  0  0  0  0  0  0  0  0  0  0
   -2.9997    2.6125   -0.5107 N   0  0  0  0  0  0  0  0  0  0  0  0
   -4.2586    3.3014   -0.3394 C   0  0  2  0  0  0  0  0  0  0  0  0
   -4.1603    4.1552    0.9179 C   0  0  0  0  0  0  0  0  0  0  0  0
   -3.3604    3.9268    1.8229 O   0  0  0  0  0  0  0  0  0  0  0  0
   -5.4171    2.3211   -0.2415 C   0  0  0  0  0  0  0  0  0  0  0  0
   -3.0166    1.6095   -0.6701 H   0  0  0  0  0  0  0  0  0  0  0  0
   -4.3856    3.9500   -1.2131 H   0  0  0  0  0  0  0  0  0  0  0  0
   -5.3073    1.6627    0.6280 H   0  0  0  0  0  0  0  0  0  0  0  0
   -6.3731    2.8453   -0.1405 H   0  0  0  0  0  0  0  0  0  0  0  0
   -5.4681    1.6876   -1.1337 H   0  0  0  0  0  0  0  0  0  0  0  0
   -5.1000    5.1765    0.9300 N   0  0  0  0  0  0  0  0  0  0  0  0
   -5.2170    6.1154    2.0212 C   0  0  0  0  0  0  0  0  0  0  0  0
   -5.7107    5.3031    0.1283 H   0  0  0  0  0  0  0  0  0  0  0  0
   -5.9586    5.7465    2.7451 H   0  0  0  0  0  0  0  0  0  0  0  0
   -4.2416    6.2230    2.5184 H   0  0  0  0  0  0  0  0  0  0  0  0
   -5.5396    7.0921    1.6314 H   0  0  0  0  0  0  0  0  0  0  0  0
 25 27  1  0  0  0  0
 26 27  2  0  0  0  0
 23 25  2  0  0  0  0
 24 26  1  0  0  0  0
 22 23  1  0  0  0  0
 22 24  2  0  0  0  0
 21 22  1  0  0  0  0
  1  3  1  0  0  0  0
  1  7  1  0  0  0  0
  1  2  2  0  0  0  0
 38 39  1  0  0  0  0
 39 47  1  0  0  0  0
 39 40  2  0  0  0  0
  8  9  1  0  0  0  0
  9 17  1  0  0  0  0
  9 10  2  0  0  0  0
 18 19  1  0  0  0  0
 19 37  1  0  0  0  0
 19 20  2  0  0  0  0
 38 41  1  0  0  0  0
  8 11  1  0  0  0  0
 47 48  1  0  0  0  0
 18 21  1  0  0  0  0
 37 38  1  0  0  0  0
  7  8  1  0  0  0  0
 17 18  1  0  0  0  0
 27 36  1  0  0  0  0
 25 34  1  0  0  0  0
 26 35  1  0  0  0  0
 23 32  1  0  0  0  0
 24 33  1  0  0  0  0
  3  4  1  0  0  0  0
  3  5  1  0  0  0  0
  3  6  1  0  0  0  0
 41 44  1  0  0  0  0
 41 45  1  0  0  0  0
 41 46  1  0  0  0  0
 11 14  1  0  0  0  0
 11 15  1  0  0  0  0
 11 16  1  0  0  0  0
 48 50  1  0  0  0  0
 48 51  1  0  0  0  0
 48 52  1  0  0  0  0
 21 30  1  0  0  0  0
 21 31  1  0  0  0  0
 38 43  1  0  0  0  0
  8 13  1  0  0  0  0
 18 29  1  0  0  0  0
 47 49  1  0  0  0  0
  7 12  1  0  0  0  0
 37 42  1  0  0  0  0
 17 28  1  0  0  0  0
M  END
$$$$

  -OEChem-02062319033D

 52 52  0     1  0  0  0  0  0999 V2000
   -1.8248    0.3424    3.9102 C   0  0  0  0  0  0  0  0  0  0  0  0
   -0.8774   -0.2723    3.4345 O   0  0  0  0  0  0  0  0  0  0  0  0
   -2.2566    0.0600    5.3109 C   0  0  0  0  0  0  0  0  0  0  0  0
   -3.0163   -0.7363    5.3643 H   0  0  0  0  0  0  0  0  0  0  0  0
   -1.4254   -0.2876    5.9452 H   0  0  0  0  0  0  0  0  0  0  0  0
   -2.6947    0.9149    5.8505 H   0  0  0  0  0  0  0  0  0  0  0  0
   -2.5745    1.3149    3.2691 N   0  0  0  0  0  0  0  0  0  0  0  0
   -2.3276    1.7409    1.9167 C   0  0  2  0  0  0  0  0  0  0  0  0
   -0.9926    1.1555    1.4755 C   0  0  0  0  0  0  0  0  0  0  0  0
   -0.1206    0.8028    2.2668 O   0  0  0  0  0  0  0  0  0  0  0  0
   -2.3188    3.2577    1.8072 C   0  0  0  0  0  0  0  0  0  0  0  0
   -3.3395    1.7507    3.7809 H   0  0  0  0  0  0  0  0  0  0  0  0
   -3.1317    1.3224    1.3015 H   0  0  0  0  0  0  0  0  0  0  0  0
   -1.5198    3.6949    2.4169 H   0  0  0  0  0  0  0  0  0  0  0  0
   -2.1594    3.5799    0.7729 H   0  0  0  0  0  0  0  0  0  0  0  0
   -3.2690    3.6789    2.1530 H   0  0  0  0  0  0  0  0  0  0  0  0
   -0.8700    1.1124    0.0921 N   0  0  0  0  0  0  0  0  0  0  0  0
   -0.3121    2.1969   -0.6759 C   0  0  2  0  0  0  0  0  0  0  0  0
   -1.1810    3.4235   -0.4214 C   0  0  0  0  0  0  0  0  0  0  0  0
   -0.7158    4.5448   -0.2288 O   0  0  0  0  0  0  0  0  0  0  0  0
   -0.2636    1.8799   -2.1750 C   0  0  0  0  0  0  0  0  0  0  0  0
    0.7051    0.7709   -2.5060 C   0  0  0  0  0  0  0  0  0  0  0  0
    2.0683    1.0450   -2.6177 C   0  0  0  0  0  0  0  0  0  0  0  0
    0.2369   -0.5286   -2.6999 C   0  0  0  0  0  0  0  0  0  0  0  0
    2.9631    0.0196   -2.9234 C   0  0  0  0  0  0  0  0  0  0  0  0
    1.1317   -1.5540   -3.0056 C   0  0  0  0  0  0  0  0  0  0  0  0
    2.4948   -1.2799   -3.1173 C   0  0  0  0  0  0  0  0  0  0  0  0
   -1.1477    0.2695   -0.4049 H   0  0  0  0  0  0  0  0  0  0  0  0
    0.6921    2.3792   -0.2753 H   0  0  0  0  0  0  0  0  0  0  0  0
   -0.0025    2.7811   -2.7462 H   0  0  0  0  0  0  0  0  0  0  0  0
   -1.2579    1.5874   -2.5375 H   0  0  0  0  0  0  0  0  0  0  0  0
    2.4422    2.0545   -2.4681 H   0  0  0  0  0  0  0  0  0  0  0  0
   -0.8234   -0.7515   -2.6147 H   0  0  0  0  0  0  0  0  0  0  0  0
    4.0243    0.2334   -3.0114 H   0  0  0  0  0  0  0  0  0  0  0  0
    0.7666   -2.5654   -3.1575 H   0  0  0  0  0  0  0  0  0  0  0  0
    3.1916   -2.0780   -3.3566 H   0  0  0  0  0  0  0  0  0  0  0  0
   -2.5347    3.1235   -0.4854 N   0  0  0  0  0  0  0  0  0  0  0  0
   -3.5754    4.1098   -0.3041 C   0  0  2  0  0  0  0  0  0  0  0  0
   -3.2743    4.8818    0.9738 C   0  0  0  0  0  0  0  0  0  0  0  0
   -2.5703    4.4353    1.8771 O   0  0  0  0  0  0  0  0  0  0  0  0
   -4.9483    3.4593   -0.2354 C   0  0  0  0  0  0  0  0  0  0  0  0
   -2.8076    2.1625   -0.6688 H   0  0  0  0  0  0  0  0  0  0  0  0
   -3.5214    4.7881   -1.1626 H   0  0  0  0  0  0  0  0  0  0  0  0
   -5.0215    2.7761    0.6186 H   0  0  0  0  0  0  0  0  0  0  0  0
   -5.7381    4.2100   -0.1267 H   0  0  0  0  0  0  0  0  0  0  0  0
   -5.1509    2.8801   -1.1427 H   0  0  0  0  0  0  0  0  0  0  0  0
   -3.9193    6.1103    1.0056 N   0  0  0  0  0  0  0  0  0  0  0  0
   -3.8026    7.0236    2.1183 C   0  0  0  0  0  0  0  0  0  0  0  0
   -4.4680    6.4075    0.2041 H   0  0  0  0  0  0  0  0  0  0  0  0
   -4.6221    6.8426    2.8294 H   0  0  0  0  0  0  0  0  0  0  0  0
   -2.8379    6.8653    2.6228 H   0  0  0  0  0  0  0  0  0  0  0  0
   -3.8584    8.0587    1.7504 H   0  0  0  0  0  0  0  0  0  0  0  0
 25 27  1  0  0  0  0
 26 27  2  0  0  0  0
 23 25  2  0  0  0  0
 24 26  1  0  0  0  0
 22 23  1  0  0  0  0
 22 24  2  0  0  0  0
 21 22  1  0  0  0  0
  1  3  1  0  0  0  0
  1  7  1  0  0  0  0
  1  2  2  0  0  0  0
 38 39  1  0  0  0  0
 39 47  1  0  0  0  0
 39 40  2  0  0  0  0
  8  9  1  0  0  0  0
  9 17  1  0  0  0  0
  9 10  2  0  0  0  0
 18 19  1  0  0  0  0
 19 37  1  0  0  0  0
 19 20  2  0  0  0  0
 38 41  1  0  0  0  0
  8 11  1  0  0  0  0
 47 48  1  0  0  0  0
 18 21  1  0  0  0  0
 37 38  1  0  0  0  0
  7  8  1  0  0  0  0
 17 18  1  0  0  0  0
 27 36  1  0  0  0  0
 25 34  1  0  0  0  0
 26 35  1  0  0  0  0
 23 32  1  0  0  0  0
 24 33  1  0  0  0  0
  3  4  1  0  0  0  0
  3  5  1  0  0  0  0
  3  6  1  0  0  0  0
 41 44  1  0  0  0  0
 41 45  1  0  0  0  0
 41 46  1  0  0  0  0
 11 14  1  0  0  0  0
 11 15  1  0  0  0  0
 11 16  1  0  0  0  0
 48 50  1  0  0  0  0
 48 51  1  0  0  0  0
 48 52  1  0  0  0  0
 21 30  1  0  0  0  0
 21 31  1  0  0  0  0
 38 43  1  0  0  0  0
  8 13  1  0  0  0  0
 18 29  1  0  0  0  0
 47 49  1  0  0  0  0
  7 12  1  0  0  0  0
 37 42  1  0  0  0  0
 17 28  1  0  0  0  0
M  END
$$$$

  -OEChem-02062319033D

 52 52  0     1  0  0  0  0  0999 V2000
   -1.8248    0.3424    3.9102 C   0  0  0  0  0  0  0  0  0  0  0  0
   -0.8774   -0.2723    3.4345 O   0  0  0  0  0  0  0  0  0  0  0  0
   -2.2566    0.0600    5.3109 C   0  0  0  0  0  0  0  0  0  0  0  0
   -3.0163   -0.7363    5.3643 H   0  0  0  0  0  0  0  0  0  0  0  0
   -1.4254   -0.2876    5.9452 H   0  0  0  0  0  0  0  0  0  0  0  0
   -2.6947    0.9149    5.8505 H   0  0  0  0  0  0  0  0  0  0  0  0
   -2.5745    1.3149    3.2691 N   0  0  0  0  0  0  0  0  0  0  0  0
   -2.3276    1.7409    1.9167 C   0  0  2  0  0  0  0  0  0  0  0  0
   -0.9926    1.1555    1.4755 C   0  0  0  0  0  0  0  0  0  0  0  0
   -0.1206    0.8028    2.2668 O   0  0  0  0  0  0  0  0  0  0  0  0
   -2.3188    3.2577    1.8072 C   0  0  0  0  0  0  0  0  0  0  0  0
   -3.3395    1.7507    3.7809 H   0  0  0  0  0  0  0  0  0  0  0  0
   -3.1317    1.3224    1.3015 H   0  0  0  0  0  0  0  0  0  0  0  0
   -1.5198    3.6949    2.4169 H   0  0  0  0  0  0  0  0  0  0  0  0
   -2.1594    3.5799    0.7729 H   0  0  0  0  0  0  0  0  0  0  0  0
   -3.2690    3.6789    2.1530 H   0  0  0  0  0  0  0  0  0  0  0  0
   -0.8700    1.1124    0.0921 N   0  0  0  0  0  0  0  0  0  0  0  0
   -0.0431    2.0329   -0.6469 C   0  0  2  0  0  0  0  0  0  0  0  0
   -0.5695    3.4362   -0.3676 C   0  0  0  0  0  0  0  0  0  0  0  0
    0.1667    4.3952   -0.1459 O   0  0  0  0  0  0  0  0  0  0  0  0
   -0.0614    1.7469   -2.1529 C   0  0  0  0  0  0  0  0  0  0  0  0
    0.5926    0.4332   -2.5054 C   0  0  0  0  0  0  0  0  0  0  0  0
    1.9814    0.3490   -2.6037 C   0  0  0  0  0  0  0  0  0  0  0  0
   -0.1925   -0.6972   -2.7327 C   0  0  0  0  0  0  0  0  0  0  0  0
    2.5852   -0.8656   -2.9293 C   0  0  0  0  0  0  0  0  0  0  0  0
    0.4113   -1.9117   -3.0583 C   0  0  0  0  0  0  0  0  0  0  0  0
    1.8002   -1.9959   -3.1565 C   0  0  0  0  0  0  0  0  0  0  0  0
   -1.3500    0.3806   -0.4263 H   0  0  0  0  0  0  0  0  0  0  0  0
    0.9696    1.9414   -0.2371 H   0  0  0  0  0  0  0  0  0  0  0  0
    0.4293    2.5626   -2.7011 H   0  0  0  0  0  0  0  0  0  0  0  0
   -1.0935    1.7285   -2.5273 H   0  0  0  0  0  0  0  0  0  0  0  0
    2.6011    1.2244   -2.4282 H   0  0  0  0  0  0  0  0  0  0  0  0
   -1.2753   -0.6411   -2.6582 H   0  0  0  0  0  0  0  0  0  0  0  0
    3.6666   -0.9306   -3.0069 H   0  0  0  0  0  0  0  0  0  0  0  0
   -0.2002   -2.7913   -3.2362 H   0  0  0  0  0  0  0  0  0  0  0  0
    2.2705   -2.9412   -3.4114 H   0  0  0  0  0  0  0  0  0  0  0  0
   -1.9540    3.4968   -0.4455 N   0  0  0  0  0  0  0  0  0  0  0  0
   -2.7075    4.7138   -0.2459 C   0  0  2  0  0  0  0  0  0  0  0  0
   -2.2318    5.3541    1.0515 C   0  0  0  0  0  0  0  0  0  0  0  0
   -1.6766    4.7216    1.9475 O   0  0  0  0  0  0  0  0  0  0  0  0
   -4.2023    4.4379   -0.1998 C   0  0  0  0  0  0  0  0  0  0  0  0
   -2.4632    2.6428   -0.6532 H   0  0  0  0  0  0  0  0  0  0  0  0
   -2.4711    5.3738   -1.0877 H   0  0  0  0  0  0  0  0  0  0  0  0
   -4.4584    3.7781    0.6373 H   0  0  0  0  0  0  0  0  0  0  0  0
   -4.7732    5.3642   -0.0771 H   0  0  0  0  0  0  0  0  0  0  0  0
   -4.5373    3.9503   -1.1217 H   0  0  0  0  0  0  0  0  0  0  0  0
   -2.5389    6.7063    1.1094 N   0  0  0  0  0  0  0  0  0  0  0  0
   -2.2031    7.5341    2.2442 C   0  0  0  0  0  0  0  0  0  0  0  0
   -2.9836    7.1523    0.3125 H   0  0  0  0  0  0  0  0  0  0  0  0
   -3.0494    7.5551    2.9467 H   0  0  0  0  0  0  0  0  0  0  0  0
   -1.3174    7.1216    2.7496 H   0  0  0  0  0  0  0  0  0  0  0  0
   -1.9863    8.5564    1.9008 H   0  0  0  0  0  0  0  0  0  0  0  0
 25 27  1  0  0  0  0
 26 27  2  0  0  0  0
 23 25  2  0  0  0  0
 24 26  1  0  0  0  0
 22 23  1  0  0  0  0
 22 24  2  0  0  0  0
 21 22  1  0  0  0  0
  1  3  1  0  0  0  0
  1  7  1  0  0  0  0
  1  2  2  0  0  0  0
 38 39  1  0  0  0  0
 39 47  1  0  0  0  0
 39 40  2  0  0  0  0
  8  9  1  0  0  0  0
  9 17  1  0  0  0  0
  9 10  2  0  0  0  0
 18 19  1  0  0  0  0
 19 37  1  0  0  0  0
 19 20  2  0  0  0  0
 38 41  1  0  0  0  0
  8 11  1  0  0  0  0
 47 48  1  0  0  0  0
 18 21  1  0  0  0  0
 37 38  1  0  0  0  0
  7  8  1  0  0  0  0
 17 18  1  0  0  0  0
 27 36  1  0  0  0  0
 25 34  1  0  0  0  0
 26 35  1  0  0  0  0
 23 32  1  0  0  0  0
 24 33  1  0  0  0  0
  3  4  1  0  0  0  0
  3  5  1  0  0  0  0
  3  6  1  0  0  0  0
 41 44  1  0  0  0  0
 41 45  1  0  0  0  0
 41 46  1  0  0  0  0
 11 14  1  0  0  0  0
 11 15  1  0  0  0  0
 11 16  1  0  0  0  0
 48 50  1  0  0  0  0
 48 51  1  0  0  0  0
 48 52  1  0  0  0  0
 21 30  1  0  0  0  0
 21 31  1  0  0  0  0
 38 43  1  0  0  0  0
  8 13  1  0  0  0  0
 18 29  1  0  0  0  0
 47 49  1  0  0  0  0
  7 12  1  0  0  0  0
 37 42  1  0  0  0  0
 17 28  1  0  0  0  0
M  END
$$$$

  -OEChem-02062319033D

 52 52  0     1  0  0  0  0  0999 V2000
   -1.8248    0.3424    3.9102 C   0  0  0  0  0  0  0  0  0  0  0  0
   -0.8774   -0.2723    3.4345 O   0  0  0  0  0  0  0  0  0  0  0  0
   -2.2566    0.0600    5.3109 C   0  0  0  0  0  0  0  0  0  0  0  0
   -3.0163   -0.7363    5.3643 H   0  0  0  0  0  0  0  0  0  0  0  0
   -1.4254   -0.2876    5.9452 H   0  0  0  0  0  0  0  0  0  0  0  0
   -2.6947    0.9149    5.8505 H   0  0  0  0  0  0  0  0  0  0  0  0
   -2.5745    1.3149    3.2691 N   0  0  0  0  0  0  0  0  0  0  0  0
   -2.3276    1.7409    1.9167 C   0  0  2  0  0  0  0  0  0  0  0  0
   -0.9926    1.1555    1.4755 C   0  0  0  0  0  0  0  0  0  0  0  0
   -0.1206    0.8028    2.2668 O   0  0  0  0  0  0  0  0  0  0  0  0
   -2.3188    3.2577    1.8072 C   0  0  0  0  0  0  0  0  0  0  0  0
   -3.3395    1.7507    3.7809 H   0  0  0  0  0  0  0  0  0  0  0  0
   -3.1317    1.3224    1.3015 H   0  0  0  0  0  0  0  0  0  0  0  0
   -1.5198    3.6949    2.4169 H   0  0  0  0  0  0  0  0  0  0  0  0
   -2.1594    3.5799    0.7729 H   0  0  0  0  0  0  0  0  0  0  0  0
   -3.2690    3.6789    2.1530 H   0  0  0  0  0  0  0  0  0  0  0  0
   -0.8700    1.1124    0.0921 N   0  0  0  0  0  0  0  0  0  0  0  0
    0.1742    1.8046   -0.6206 C   0  0  2  0  0  0  0  0  0  0  0  0
    0.0240    3.2896   -0.3104 C   0  0  0  0  0  0  0  0  0  0  0  0
    0.9799    4.0214   -0.0621 O   0  0  0  0  0  0  0  0  0  0  0  0
    0.0995    1.5658   -2.1330 C   0  0  0  0  0  0  0  0  0  0  0  0
    0.3968    0.1359   -2.5135 C   0  0  0  0  0  0  0  0  0  0  0  0
    1.7181   -0.3013   -2.6068 C   0  0  0  0  0  0  0  0  0  0  0  0
   -0.6504   -0.7487   -2.7717 C   0  0  0  0  0  0  0  0  0  0  0  0
    1.9922   -1.6230   -2.9583 C   0  0  0  0  0  0  0  0  0  0  0  0
   -0.3762   -2.0704   -3.1232 C   0  0  0  0  0  0  0  0  0  0  0  0
    0.9451   -2.5076   -3.2164 C   0  0  0  0  0  0  0  0  0  0  0  0
   -1.5165    0.5406   -0.4460 H   0  0  0  0  0  0  0  0  0  0  0  0
    1.1246    1.4461   -0.2079 H   0  0  0  0  0  0  0  0  0  0  0  0
    0.7897    2.2392   -2.6590 H   0  0  0  0  0  0  0  0  0  0  0  0
   -0.8983    1.8222   -2.5129 H   0  0  0  0  0  0  0  0  0  0  0  0
    2.5404    0.3808   -2.4073 H   0  0  0  0  0  0  0  0  0  0  0  0
   -1.6829   -0.4170   -2.7013 H   0  0  0  0  0  0  0  0  0  0  0  0
    3.0211   -1.9630   -3.0319 H   0  0  0  0  0  0  0  0  0  0  0  0
   -1.1917   -2.7585   -3.3251 H   0  0  0  0  0  0  0  0  0  0  0  0
    1.1587   -3.5364   -3.4914 H   0  0  0  0  0  0  0  0  0  0  0  0
   -1.2972    3.7068   -0.3938 N   0  0  0  0  0  0  0  0  0  0  0  0
   -1.7139    5.0723   -0.1690 C   0  0  2  0  0  0  0  0  0  0  0  0
   -1.1037    5.5398    1.1457 C   0  0  0  0  0  0  0  0  0  0  0  0
   -0.7401    4.7662    2.0291 O   0  0  0  0  0  0  0  0  0  0  0  0
   -3.2298    5.1900   -0.1370 C   0  0  0  0  0  0  0  0  0  0  0  0
   -2.0069    3.0176   -0.6244 H   0  0  0  0  0  0  0  0  0  0  0  0
   -1.3062    5.6672   -0.9936 H   0  0  0  0  0  0  0  0  0  0  0  0
   -3.6564    4.6005    0.6828 H   0  0  0  0  0  0  0  0  0  0  0  0
   -3.5441    6.2293    0.0049 H   0  0  0  0  0  0  0  0  0  0  0  0
   -3.6689    4.8255   -1.0719 H   0  0  0  0  0  0  0  0  0  0  0  0
   -1.0528    6.9239    1.2344 N   0  0  0  0  0  0  0  0  0  0  0  0
   -0.5276    7.6123    2.3904 C   0  0  0  0  0  0  0  0  0  0  0  0
   -1.3588    7.4867    0.4461 H   0  0  0  0  0  0  0  0  0  0  0  0
   -1.3476    7.8354    3.0888 H   0  0  0  0  0  0  0  0  0  0  0  0
    0.2163    6.9744    2.8902 H   0  0  0  0  0  0  0  0  0  0  0  0
   -0.0510    8.5514    2.0726 H   0  0  0  0  0  0  0  0  0  0  0  0
 25 27  1  0  0  0  0
 26 27  2  0  0  0  0
 23 25  2  0  0  0  0
 24 26  1  0  0  0  0
 22 23  1  0  0  0  0
 22 24  2  0  0  0  0
 21 22  1  0  0  0  0
  1  3  1  0  0  0  0
  1  7  1  0  0  0  0
  1  2  2  0  0  0  0
 38 39  1  0  0  0  0
 39 47  1  0  0  0  0
 39 40  2  0  0  0  0
  8  9  1  0  0  0  0
  9 17  1  0  0  0  0
  9 10  2  0  0  0  0
 18 19  1  0  0  0  0
 19 37  1  0  0  0  0
 19 20  2  0  0  0  0
 38 41  1  0  0  0  0
  8 11  1  0  0  0  0
 47 48  1  0  0  0  0
 18 21  1  0  0  0  0
 37 38  1  0  0  0  0
  7  8  1  0  0  0  0
 17 18  1  0  0  0  0
 27 36  1  0  0  0  0
 25 34  1  0  0  0  0
 26 35  1  0  0  0  0
 23 32  1  0  0  0  0
 24 33  1  0  0  0  0
  3  4  1  0  0  0  0
  3  5  1  0  0  0  0
  3  6  1  0  0  0  0
 41 44  1  0  0  0  0
 41 45  1  0  0  0  0
 41 46  1  0  0  0  0
 11 14  1  0  0  0  0
 11 15  1  0  0  0  0
 11 16  1  0  0  0  0
 48 50  1  0  0  0  0
 48 51  1  0  0  0  0
 48 52  1  0  0  0  0
 21 30  1  0  0  0  0
 21 31  1  0  0  0  0
 38 43  1  0  0  0  0
  8 13  1  0  0  0  0
 18 29  1  0  0  0  0
 47 49  1  0  0  0  0
  7 12  1  0  0  0  0
 37 42  1  0  0  0  0
 17 28  1  0  0  0  0
M  END
$$$$

  -OEChem-02062319033D

 52 52  0     1  0  0  0  0  0999 V2000
   -1.8248    0.3424    3.9102 C   0  0  0  0  0  0  0  0  0  0  0  0
   -0.8774   -0.2723    3.4345 O   0  0  0  0  0  0  0  0  0  0  0  0
   -2.2566    0.0600    5.3109 C   0  0  0  0  0  0  0  0  0  0  0  0
   -3.0163   -0.7363    5.3643 H   0  0  0  0  0  0  0  0  0  0  0  0
   -1.4254   -0.2876    5.9452 H   0  0  0  0  0  0  0  0  0  0  0  0
   -2.6947    0.9149    5.8505 H   0  0  0  0  0  0  0  0  0  0  0  0
   -2.5745    1.3149    3.2691 N   0  0  0  0  0  0  0  0  0  0  0  0
   -2.3276    1.7409    1.9167 C   0  0  2  0  0  0  0  0  0  0  0  0
   -0.9926    1.1555    1.4755 C   0  0  0  0  0  0  0  0  0  0  0  0
   -0.1206    0.8028    2.2668 O   0  0  0  0  0  0  0  0  0  0  0  0
   -2.3188    3.2577    1.8072 C   0  0  0  0  0  0  0  0  0  0  0  0
   -3.3395    1.7507    3.7809 H   0  0  0  0  0  0  0  0  0  0  0  0
   -3.1317    1.3224    1.3015 H   0  0  0  0  0  0  0  0  0  0  0  0
   -1.5198    3.6949    2.4169 H   0  0  0  0  0  0  0  0  0  0  0  0
   -2.1594    3.5799    0.7729 H   0  0  0  0  0  0  0  0  0  0  0  0
   -3.2690    3.6789    2.1530 H   0  0  0  0  0  0  0  0  0  0  0  0
   -0.8700    1.1124    0.0921 N   0  0  0  0  0  0  0  0  0  0  0  0
    0.3251    1.5274   -0.5985 C   0  0  2  0  0  0  0  0  0  0  0  0
    0.5590    2.9938   -0.2538 C   0  0  0  0  0  0  0  0  0  0  0  0
    1.6684    3.4489    0.0168 O   0  0  0  0  0  0  0  0  0  0  0  0
    0.2080    1.3489   -2.1166 C   0  0  0  0  0  0  0  0  0  0  0  0
    0.1311   -0.1006   -2.5297 C   0  0  0  0  0  0  0  0  0  0  0  0
    1.2962   -0.8615   -2.6267 C   0  0  0  0  0  0  0  0  0  0  0  0
   -1.1056   -0.6795   -2.8142 C   0  0  0  0  0  0  0  0  0  0  0  0
    1.2245   -2.2013   -3.0083 C   0  0  0  0  0  0  0  0  0  0  0  0
   -1.1773   -2.0193   -3.1958 C   0  0  0  0  0  0  0  0  0  0  0  0
   -0.0123   -2.7801   -3.2928 C   0  0  0  0  0  0  0  0  0  0  0  0
   -1.6360    0.7384   -0.4628 H   0  0  0  0  0  0  0  0  0  0  0  0
    1.1465    0.9272   -0.1898 H   0  0  0  0  0  0  0  0  0  0  0  0
    1.0542    1.8329   -2.6229 H   0  0  0  0  0  0  0  0  0  0  0  0
   -0.6858    1.8621   -2.4953 H   0  0  0  0  0  0  0  0  0  0  0  0
    2.2642   -0.4189   -2.4068 H   0  0  0  0  0  0  0  0  0  0  0  0
   -2.0186   -0.0945   -2.7412 H   0  0  0  0  0  0  0  0  0  0  0  0
    2.1318   -2.7933   -3.0849 H   0  0  0  0  0  0  0  0  0  0  0  0
   -2.1403   -2.4693   -3.4183 H   0  0  0  0  0  0  0  0  0  0  0  0
   -0.0678   -3.8230   -3.5912 H   0  0  0  0  0  0  0  0  0  0  0  0
   -0.6091    3.7392   -0.3338 N   0  0  0  0  0  0  0  0  0  0  0  0
   -0.6625    5.1607   -0.0786 C   0  0  2  0  0  0  0  0  0  0  0  0
    0.0330    5.4264    1.2500 C   0  0  0  0  0  0  0  0  0  0  0  0
    0.1753    4.5661    2.1165 O   0  0  0  0  0  0  0  0  0  0  0  0
   -2.0971    5.6645   -0.0513 C   0  0  0  0  0  0  0  0  0  0  0  0
   -1.4698    3.2615   -0.5844 H   0  0  0  0  0  0  0  0  0  0  0  0
   -0.1062    5.6482   -0.8866 H   0  0  0  0  0  0  0  0  0  0  0  0
   -2.6702    5.1872    0.7519 H   0  0  0  0  0  0  0  0  0  0  0  0
   -2.1347    6.7463    0.1137 H   0  0  0  0  0  0  0  0  0  0  0  0
   -2.6050    5.4460   -0.9970 H   0  0  0  0  0  0  0  0  0  0  0  0
    0.4378    6.7483    1.3720 N   0  0  0  0  0  0  0  0  0  0  0  0
    1.1098    7.2527    2.5467 C   0  0  0  0  0  0  0  0  0  0  0  0
    0.2958    7.3880    0.5959 H   0  0  0  0  0  0  0  0  0  0  0  0
    0.3673    7.6643    3.2462 H   0  0  0  0  0  0  0  0  0  0  0  0
    1.6587    6.4339    3.0349 H   0  0  0  0  0  0  0  0  0  0  0  0
    1.8157    8.0439    2.2539 H   0  0  0  0  0  0  0  0  0  0  0  0
 25 27  1  0  0  0  0
 26 27  2  0  0  0  0
 23 25  2  0  0  0  0
 24 26  1  0  0  0  0
 22 23  1  0  0  0  0
 22 24  2  0  0  0  0
 21 22  1  0  0  0  0
  1  3  1  0  0  0  0
  1  7  1  0  0  0  0
  1  2  2  0  0  0  0
 38 39  1  0  0  0  0
 39 47  1  0  0  0  0
 39 40  2  0  0  0  0
  8  9  1  0  0  0  0
  9 17  1  0  0  0  0
  9 10  2  0  0  0  0
 18 19  1  0  0  0  0
 19 37  1  0  0  0  0
 19 20  2  0  0  0  0
 38 41  1  0  0  0  0
  8 11  1  0  0  0  0
 47 48  1  0  0  0  0
 18 21  1  0  0  0  0
 37 38  1  0  0  0  0
  7  8  1  0  0  0  0
 17 18  1  0  0  0  0
 27 36  1  0  0  0  0
 25 34  1  0  0  0  0
 26 35  1  0  0  0  0
 23 32  1  0  0  0  0
 24 33  1  0  0  0  0
  3  4  1  0  0  0  0
  3  5  1  0  0  0  0
  3  6  1  0  0  0  0
 41 44  1  0  0  0  0
 41 45  1  0  0  0  0
 41 46  1  0  0  0  0
 11 14  1  0  0  0  0
 11 15  1  0  0  0  0
 11 16  1  0  0  0  0
 48 50  1  0  0  0  0
 48 51  1  0  0  0  0
 48 52  1  0  0  0  0
 21 30  1  0  0  0  0
 21 31  1  0  0  0  0
 38 43  1  0  0  0  0
  8 13  1  0  0  0  0
 18 29  1  0  0  0  0
 47 49  1  0  0  0  0
  7 12  1  0  0  0  0
 37 42  1  0  0  0  0
 17 28  1  0  0  0  0
M  END
$$$$

  -OEChem-02062319033D

 52 52  0     1  0  0  0  0  0999 V2000
   -1.8248    0.3424    3.9102 C   0  0  0  0  0  0  0  0  0  0  0  0
   -0.8774   -0.2723    3.4345 O   0  0  0  0  0  0  0  0  0  0  0  0
   -2.2566    0.0600    5.3109 C   0  0  0  0  0  0  0  0  0  0  0  0
   -3.0163   -0.7363    5.3643 H   0  0  0  0  0  0  0  0  0  0  0  0
   -1.4254   -0.2876    5.9452 H   0  0  0  0  0  0  0  0  0  0  0  0
   -2.6947    0.9149    5.8505 H   0  0  0  0  0  0  0  0  0  0  0  0
   -2.5745    1.3149    3.2691 N   0  0  0  0  0  0  0  0  0  0  0  0
   -2.3276    1.7409    1.9167 C   0  0  2  0  0  0  0  0  0  0  0  0
   -0.9926    1.1555    1.4755 C   0  0  0  0  0  0  0  0  0  0  0  0
   -0.1206    0.8028    2.2668 O   0  0  0  0  0  0  0  0  0  0  0  0
   -2.3188    3.2577    1.8072 C   0  0  0  0  0  0  0  0  0  0  0  0
   -3.3395    1.7507    3.7809 H   0  0  0  0  0  0  0  0  0  0  0  0
   -3.1317    1.3224    1.3015 H   0  0  0  0  0  0  0  0  0  0  0  0
   -1.5198    3.6949    2.4169 H   0  0  0  0  0  0  0  0  0  0  0  0
   -2.1594    3.5799    0.7729 H   0  0  0  0  0  0  0  0  0  0  0  0
   -3.2690    3.6789    2.1530 H   0  0  0  0  0  0  0  0  0  0  0  0
   -0.8700    1.1124    0.0921 N   0  0  0  0  0  0  0  0  0  0  0  0
    0.3992    1.2202   -0.5824 C   0  0  2  0  0  0  0  0  0  0  0  0
    0.9992    2.5690   -0.2015 C   0  0  0  0  0  0  0  0  0  0  0  0
    2.1852    2.7166    0.0854 O   0  0  0  0  0  0  0  0  0  0  0  0
    0.2568    1.1111   -2.1049 C   0  0  0  0  0  0  0  0  0  0  0  0
   -0.1863   -0.2603   -2.5528 C   0  0  0  0  0  0  0  0  0  0  0  0
    0.7445   -1.2935   -2.6622 C   0  0  0  0  0  0  0  0  0  0  0  0
   -1.5272   -0.4944   -2.8573 C   0  0  0  0  0  0  0  0  0  0  0  0
    0.3343   -2.5608   -3.0761 C   0  0  0  0  0  0  0  0  0  0  0  0
   -1.9374   -1.7618   -3.2712 C   0  0  0  0  0  0  0  0  0  0  0  0
   -1.0066   -2.7950   -3.3805 C   0  0  0  0  0  0  0  0  0  0  0  0
   -1.7004    0.9607   -0.4754 H   0  0  0  0  0  0  0  0  0  0  0  0
    1.0337    0.4198   -0.1840 H   0  0  0  0  0  0  0  0  0  0  0  0
    1.2046    1.3716   -2.5952 H   0  0  0  0  0  0  0  0  0  0  0  0
   -0.4704    1.8455   -2.4757 H   0  0  0  0  0  0  0  0  0  0  0  0
    1.7913   -1.1203   -2.4269 H   0  0  0  0  0  0  0  0  0  0  0  0
   -2.2594    0.3045   -2.7749 H   0  0  0  0  0  0  0  0  0  0  0  0
    1.0593   -3.3649   -3.1622 H   0  0  0  0  0  0  0  0  0  0  0  0
   -2.9813   -1.9434   -3.5092 H   0  0  0  0  0  0  0  0  0  0  0  0
   -1.3256   -3.7815   -3.7040 H   0  0  0  0  0  0  0  0  0  0  0  0
    0.0634    3.5918   -0.2696 N   0  0  0  0  0  0  0  0  0  0  0  0
    0.3752    4.9731    0.0193 C   0  0  2  0  0  0  0  0  0  0  0  0
    1.1010    5.0215    1.3573 C   0  0  0  0  0  0  0  0  0  0  0  0
    1.0073    4.1350    2.2037 O   0  0  0  0  0  0  0  0  0  0  0  0
   -0.8815    5.8290    0.0513 C   0  0  0  0  0  0  0  0  0  0  0  0
   -0.8885    3.3577   -0.5359 H   0  0  0  0  0  0  0  0  0  0  0  0
    1.0471    5.3183   -0.7740 H   0  0  0  0  0  0  0  0  0  0  0  0
   -1.5670    5.4981    0.8401 H   0  0  0  0  0  0  0  0  0  0  0  0
   -0.6409    6.8801    0.2420 H   0  0  0  0  0  0  0  0  0  0  0  0
   -1.4180    5.7694   -0.9018 H   0  0  0  0  0  0  0  0  0  0  0  0
    1.8312    6.1914    1.5129 N   0  0  0  0  0  0  0  0  0  0  0  0
    2.5975    6.4798    2.7027 C   0  0  0  0  0  0  0  0  0  0  0  0
    1.8674    6.8629    0.7516 H   0  0  0  0  0  0  0  0  0  0  0  0
    1.9784    7.0536    3.4081 H   0  0  0  0  0  0  0  0  0  0  0  0
    2.9116    5.5368    3.1739 H   0  0  0  0  0  0  0  0  0  0  0  0
    3.4865    7.0685    2.4324 H   0  0  0  0  0  0  0  0  0  0  0  0
 25 27  1  0  0  0  0
 26 27  2  0  0  0  0
 23 25  2  0  0  0  0
 24 26  1  0  0  0  0
 22 23  1  0  0  0  0
 22 24  2  0  0  0  0
 21 22  1  0  0  0  0
  1  3  1  0  0  0  0
  1  7  1  0  0  0  0
  1  2  2  0  0  0  0
 38 39  1  0  0  0  0
 39 47  1  0  0  0  0
 39 40  2  0  0  0  0
  8  9  1  0  0  0  0
  9 17  1  0  0  0  0
  9 10  2  0  0  0  0
 18 19  1  0  0  0  0
 19 37  1  0  0  0  0
 19 20  2  0  0  0  0
 38 41  1  0  0  0  0
  8 11  1  0  0  0  0
 47 48  1  0  0  0  0
 18 21  1  0  0  0  0
 37 38  1  0  0  0  0
  7  8  1  0  0  0  0
 17 18  1  0  0  0  0
 27 36  1  0  0  0  0
 25 34  1  0  0  0  0
 26 35  1  0  0  0  0
 23 32  1  0  0  0  0
 24 33  1  0  0  0  0
  3  4  1  0  0  0  0
  3  5  1  0  0  0  0
  3  6  1  0  0  0  0
 41 44  1  0  0  0  0
 41 45  1  0  0  0  0
 41 46  1  0  0  0  0
 11 14  1  0  0  0  0
 11 15  1  0  0  0  0
 11 16  1  0  0  0  0
 48 50  1  0  0  0  0
 48 51  1  0  0  0  0
 48 52  1  0  0  0  0
 21 30  1  0  0  0  0
 21 31  1  0  0  0  0
 38 43  1  0  0  0  0
  8 13  1  0  0  0  0
 18 29  1  0  0  0  0
 47 49  1  0  0  0  0
  7 12  1  0  0  0  0
 37 42  1  0  0  0  0
 17 28  1  0  0  0  0
M  END
$$$$

  -OEChem-02062319033D

 52 52  0     1  0  0  0  0  0999 V2000
   -1.8248    0.3424    3.9102 C   0  0  0  0  0  0  0  0  0  0  0  0
   -0.8774   -0.2723    3.4345 O   0  0  0  0  0  0  0  0  0  0  0  0
   -2.2566    0.0600    5.3109 C   0  0  0  0  0  0  0  0  0  0  0  0
   -3.0163   -0.7363    5.3643 H   0  0  0  0  0  0  0  0  0  0  0  0
   -1.4254   -0.2876    5.9452 H   0  0  0  0  0  0  0  0  0  0  0  0
   -2.6947    0.9149    5.8505 H   0  0  0  0  0  0  0  0  0  0  0  0
   -2.5745    1.3149    3.2691 N   0  0  0  0  0  0  0  0  0  0  0  0
   -2.3276    1.7409    1.9167 C   0  0  2  0  0  0  0  0  0  0  0  0
   -0.9926    1.1555    1.4755 C   0  0  0  0  0  0  0  0  0  0  0  0
   -0.1206    0.8028    2.2668 O   0  0  0  0  0  0  0  0  0  0  0  0
   -2.3188    3.2577    1.8072 C   0  0  0  0  0  0  0  0  0  0  0  0
   -3.3395    1.7507    3.7809 H   0  0  0  0  0  0  0  0  0  0  0  0
   -3.1317    1.3224    1.3015 H   0  0  0  0  0  0  0  0  0  0  0  0
   -1.5198    3.6949    2.4169 H   0  0  0  0  0  0  0  0  0  0  0  0
   -2.1594    3.5799    0.7729 H   0  0  0  0  0  0  0  0  0  0  0  0
   -3.2690    3.6789    2.1530 H   0  0  0  0  0  0  0  0  0  0  0  0
   -0.8700    1.1124    0.0921 N   0  0  0  0  0  0  0  0  0  0  0  0
    0.3915    0.9041   -0.5732 C   0  0  2  0  0  0  0  0  0  0  0  0
    1.3144    2.0440   -0.1572 C   0  0  0  0  0  0  0  0  0  0  0  0
    2.4952    1.8746    0.1391 O   0  0  0  0  0  0  0  0  0  0  0  0
    0.2426    0.8686   -2.0986 C   0  0  0  0  0  0  0  0  0  0  0  0
   -0.5338   -0.3321   -2.5814 C   0  0  0  0  0  0  0  0  0  0  0  0
    0.1005   -1.5677   -2.7108 C   0  0  0  0  0  0  0  0  0  0  0  0
   -1.8864   -0.2060   -2.8982 C   0  0  0  0  0  0  0  0  0  0  0  0
   -0.6177   -2.6771   -3.1568 C   0  0  0  0  0  0  0  0  0  0  0  0
   -2.6046   -1.3155   -3.3443 C   0  0  0  0  0  0  0  0  0  0  0  0
   -1.9702   -2.5510   -3.4735 C   0  0  0  0  0  0  0  0  0  0  0  0
   -1.7051    1.1923   -0.4831 H   0  0  0  0  0  0  0  0  0  0  0  0
    0.7940   -0.0413   -0.1909 H   0  0  0  0  0  0  0  0  0  0  0  0
    1.2309    0.8865   -2.5778 H   0  0  0  0  0  0  0  0  0  0  0  0
   -0.2667    1.7735   -2.4554 H   0  0  0  0  0  0  0  0  0  0  0  0
    1.1540   -1.6754   -2.4661 H   0  0  0  0  0  0  0  0  0  0  0  0
   -2.3889    0.7526   -2.8004 H   0  0  0  0  0  0  0  0  0  0  0  0
   -0.1233   -3.6389   -3.2585 H   0  0  0  0  0  0  0  0  0  0  0  0
   -3.6573   -1.2167   -3.5918 H   0  0  0  0  0  0  0  0  0  0  0  0
   -2.5290   -3.4147   -3.8222 H   0  0  0  0  0  0  0  0  0  0  0  0
    0.6745    3.2747   -0.2055 N   0  0  0  0  0  0  0  0  0  0  0  0
    1.3283    4.5223    0.1179 C   0  0  2  0  0  0  0  0  0  0  0  0
    2.0273    4.3528    1.4603 C   0  0  0  0  0  0  0  0  0  0  0  0
    1.6992    3.5021    2.2848 O   0  0  0  0  0  0  0  0  0  0  0  0
    0.3343    5.6723    0.1640 C   0  0  0  0  0  0  0  0  0  0  0  0
   -0.3026    3.2997   -0.4821 H   0  0  0  0  0  0  0  0  0  0  0  0
    2.0752    4.6998   -0.6636 H   0  0  0  0  0  0  0  0  0  0  0  0
   -0.4220    5.5122    0.9411 H   0  0  0  0  0  0  0  0  0  0  0  0
    0.8354    6.6214    0.3809 H   0  0  0  0  0  0  0  0  0  0  0  0
   -0.1889    5.7738   -0.7930 H   0  0  0  0  0  0  0  0  0  0  0  0
    3.0326    5.2913    1.6475 N   0  0  0  0  0  0  0  0  0  0  0  0
    3.8341    5.3463    2.8477 C   0  0  0  0  0  0  0  0  0  0  0  0
    3.2488    5.9471    0.9026 H   0  0  0  0  0  0  0  0  0  0  0  0
    3.3759    6.0448    3.5634 H   0  0  0  0  0  0  0  0  0  0  0  0
    3.8894    4.3442    3.2978 H   0  0  0  0  0  0  0  0  0  0  0  0
    4.8477    5.6917    2.5960 H   0  0  0  0  0  0  0  0  0  0  0  0
 25 27  1  0  0  0  0
 26 27  2  0  0  0  0
 23 25  2  0  0  0  0
 24 26  1  0  0  0  0
 22 23  1  0  0  0  0
 22 24  2  0  0  0  0
 21 22  1  0  0  0  0
  1  3  1  0  0  0  0
  1  7  1  0  0  0  0
  1  2  2  0  0  0  0
 38 39  1  0  0  0  0
 39 47  1  0  0  0  0
 39 40  2  0  0  0  0
  8  9  1  0  0  0  0
  9 17  1  0  0  0  0
  9 10  2  0  0  0  0
 18 19  1  0  0  0  0
 19 37  1  0  0  0  0
 19 20  2  0  0  0  0
 38 41  1  0  0  0  0
  8 11  1  0  0  0  0
 47 48  1  0  0  0  0
 18 21  1  0  0  0  0
 37 38  1  0  0  0  0
  7  8  1  0  0  0  0
 17 18  1  0  0  0  0
 27 36  1  0  0  0  0
 25 34  1  0  0  0  0
 26 35  1  0  0  0  0
 23 32  1  0  0  0  0
 24 33  1  0  0  0  0
  3  4  1  0  0  0  0
  3  5  1  0  0  0  0
  3  6  1  0  0  0  0
 41 44  1  0  0  0  0
 41 45  1  0  0  0  0
 41 46  1  0  0  0  0
 11 14  1  0  0  0  0
 11 15  1  0  0  0  0
 11 16  1  0  0  0  0
 48 50  1  0  0  0  0
 48 51  1  0  0  0  0
 48 52  1  0  0  0  0
 21 30  1  0  0  0  0
 21 31  1  0  0  0  0
 38 43  1  0  0  0  0
  8 13  1  0  0  0  0
 18 29  1  0  0  0  0
 47 49  1  0  0  0  0
  7 12  1  0  0  0  0
 37 42  1  0  0  0  0
 17 28  1  0  0  0  0
M  END
$$$$
